MODEL 1
REMARK VINA RESULT:     -10.1      0.000      0.000
ROOT
ATOM    129  H38 UNL A   1      51.080  22.297  15.025  1.00  0.00    +0.000 H 
ATOM    130  H39 UNL A   1      50.828  21.188  12.732  1.00  0.00    +0.000 H 
ATOM     33  C24 UNL A   1      53.244  20.047  11.739  1.00  0.00    +0.000 C 
ATOM     34  C25 UNL A   1      53.004  20.658  13.092  1.00  0.00    +0.000 C 
ATOM     35  N5  UNL A   1      53.831  20.796  14.098  1.00  0.00    +0.000 N 
ATOM     36  C26 UNL A   1      53.118  21.467  15.084  1.00  0.00    +0.000 C 
ATOM     37  C27 UNL A   1      53.514  21.798  16.335  1.00  0.00    +0.000 C 
ATOM     49  C34 UNL A   1      54.807  21.488  16.887  1.00  0.00    +0.000 C 
ATOM     50  C35 UNL A   1      55.281  21.729  18.165  1.00  0.00    +0.000 C 
ATOM     51  C36 UNL A   1      56.607  21.290  18.230  1.00  0.00    +0.000 C 
ATOM     52  C37 UNL A   1      56.943  20.730  17.009  1.00  0.00    +0.000 C 
ATOM     53  N6  UNL A   1      55.832  20.864  16.192  1.00  0.00    +0.000 N 
ATOM     54  C38 UNL A   1      58.186  20.118  16.614  1.00  0.00    +0.000 C 
ATOM     66  C45 UNL A   1      58.439  19.593  15.391  1.00  0.00    +0.000 C 
ATOM     67  N7  UNL A   1      57.600  19.506  14.289  1.00  0.00    +0.000 N 
ATOM     68  C46 UNL A   1      58.302  18.926  13.346  1.00  0.00    +0.000 C 
ATOM     69  C47 UNL A   1      57.887  18.547  11.949  1.00  0.00    +0.000 C 
ATOM     81  C54 UNL A   1      56.624  18.787  11.548  1.00  0.00    +0.000 C 
ATOM     82  C55 UNL A   1      56.081  18.477  10.228  1.00  0.00    +0.000 C 
ATOM     83  C56 UNL A   1      54.814  18.914  10.162  1.00  0.00    +0.000 C 
ATOM     84  C57 UNL A   1      54.441  19.501  11.450  1.00  0.00    +0.000 C 
ATOM     85  N8  UNL A   1      55.572  19.364  12.216  1.00  0.00    +0.000 N 
ATOM     86  C58 UNL A   1      59.683  18.610  13.737  1.00  0.00    +0.000 C 
ATOM     87  C59 UNL A   1      59.701  18.998  15.004  1.00  0.00    +0.000 C 
ATOM     88  C60 UNL A   1      51.807  21.749  14.540  1.00  0.00    +0.000 C 
ATOM     89  C61 UNL A   1      51.663  21.211  13.337  1.00  0.00    +0.000 C 
ATOM    121  H30 UNL A   1      54.748  22.161  18.936  1.00  0.00    +0.000 H 
ATOM    122  H31 UNL A   1      57.229  21.369  19.050  1.00  0.00    +0.000 H 
ATOM    123  H32 UNL A   1      55.778  20.561  15.256  1.00  0.00    +0.000 H 
ATOM    124  H33 UNL A   1      56.591  17.999   9.469  1.00  0.00    +0.000 H 
ATOM    125  H34 UNL A   1      54.200  18.846   9.335  1.00  0.00    +0.000 H 
ATOM    126  H35 UNL A   1      55.625  19.653  13.156  1.00  0.00    +0.000 H 
ATOM    127  H36 UNL A   1      60.440  18.196  13.172  1.00  0.00    +0.000 H 
ATOM    128  H37 UNL A   1      60.511  18.891  15.634  1.00  0.00    +0.000 H 
ENDROOT
BRANCH   33   32
ATOM    131  H40 UNL A   1      51.371  18.222  11.160  1.00  0.00    +0.000 H 
ATOM    132  H41 UNL A   1      49.694  18.269   9.412  1.00  0.00    +0.000 H 
ATOM    119  H28 UNL A   1      50.936  22.134   8.313  1.00  0.00    +0.000 H 
ATOM    120  H29 UNL A   1      52.759  21.998   9.911  1.00  0.00    +0.000 H 
ATOM     90  C62 UNL A   1      51.294  19.046  10.543  1.00  0.00    +0.000 C 
ATOM     91  C63 UNL A   1      50.300  19.090   9.568  1.00  0.00    +0.000 C 
ATOM     29  C20 UNL A   1      50.125  20.244   8.801  1.00  0.00    +0.000 C 
ATOM     30  C21 UNL A   1      51.033  21.302   8.915  1.00  0.00    +0.000 C 
ATOM     31  C22 UNL A   1      52.074  21.229   9.846  1.00  0.00    +0.000 C 
ATOM     32  C23 UNL A   1      52.191  20.116  10.693  1.00  0.00    +0.000 C 
BRANCH   29   27
ATOM     27  C19 UNL A   1      48.998  20.370   7.851  1.00  0.00    +0.000 C 
ATOM     28  O5  UNL A   1      48.444  21.456   7.709  1.00  0.00    +0.000 O 
BRANCH   27   26
ATOM     26  N4  UNL A   1      48.557  19.274   7.149  1.00  0.00    +0.000 N 
ATOM    118  H27 UNL A   1      49.149  18.489   7.184  1.00  0.00    +0.000 H 
BRANCH   26   25
ATOM     25  C18 UNL A   1      47.344  19.100   6.363  1.00  0.00    +0.000 C 
ATOM    116  H25 UNL A   1      46.500  19.331   6.981  1.00  0.00    +0.000 H 
ATOM    117  H26 UNL A   1      47.410  19.755   5.520  1.00  0.00    +0.000 H 
BRANCH   25   24
ATOM    114  H23 UNL A   1      48.069  17.429   5.285  1.00  0.00    +0.000 H 
ATOM    115  H24 UNL A   1      47.020  17.059   6.688  1.00  0.00    +0.000 H 
ATOM     24  C17 UNL A   1      47.184  17.679   5.831  1.00  0.00    +0.000 C 
BRANCH   24   23
ATOM    113  H22 UNL A   1      45.158  17.940   5.391  1.00  0.00    +0.000 H 
ATOM     23  C16 UNL A   1      45.985  17.458   4.912  1.00  0.00    +0.000 C 
ATOM    112  H21 UNL A   1      45.858  16.403   4.785  1.00  0.00    +0.000 H 
BRANCH   23   22
ATOM    110  H19 UNL A   1      47.031  18.595   3.464  1.00  0.00    +0.000 H 
ATOM     22  C15 UNL A   1      46.088  18.090   3.523  1.00  0.00    +0.000 C 
ATOM    111  H20 UNL A   1      45.977  17.281   2.833  1.00  0.00    +0.000 H 
BRANCH   22   21
ATOM    109  H18 UNL A   1      45.468  19.844   2.547  1.00  0.00    +0.000 H 
ATOM    108  H17 UNL A   1      44.579  19.488   4.057  1.00  0.00    +0.000 H 
ATOM     21  C14 UNL A   1      44.994  19.099   3.151  1.00  0.00    +0.000 C 
BRANCH   21   20
ATOM    106  H15 UNL A   1      43.976  18.856   1.300  1.00  0.00    +0.000 H 
ATOM    107  H16 UNL A   1      43.890  17.465   2.399  1.00  0.00    +0.000 H 
ATOM     20  C13 UNL A   1      43.850  18.531   2.312  1.00  0.00    +0.000 C 
BRANCH   20   19
ATOM    105  H14 UNL A   1      42.373  18.995   3.740  1.00  0.00    +0.000 H 
ATOM     19  N3  UNL A   1      42.541  18.952   2.771  1.00  0.00    +0.000 N 
BRANCH   19    2
ATOM      1  O1  UNL A   1      40.363  18.914   2.046  1.00  0.00    +0.000 O 
ATOM      2  C1  UNL A   1      41.523  19.294   1.909  1.00  0.00    +0.000 C 
BRANCH    2    3
ATOM      3  C2  UNL A   1      41.946  20.137   0.698  1.00  0.00    +0.000 C 
ATOM     92  H1  UNL A   1      42.364  19.481  -0.038  1.00  0.00    +0.000 H 
ATOM     93  H2  UNL A   1      42.649  20.859   1.057  1.00  0.00    +0.000 H 
BRANCH    3    4
ATOM      4  N1  UNL A   1      40.857  20.885   0.078  1.00  0.00    +0.000 N 
ATOM     94  H3  UNL A   1      40.663  21.763   0.479  1.00  0.00    +0.000 H 
BRANCH    4    5
ATOM      5  C3  UNL A   1      40.070  20.537  -0.982  1.00  0.00    +0.000 C 
ATOM      6  O2  UNL A   1      40.195  19.407  -1.453  1.00  0.00    +0.000 O 
BRANCH    5    7
ATOM     95  H4  UNL A   1      38.371  21.010  -2.198  1.00  0.00    +0.000 H 
ATOM      7  C4  UNL A   1      39.033  21.519  -1.529  1.00  0.00    +0.000 C 
ATOM     96  H5  UNL A   1      39.521  22.309  -2.061  1.00  0.00    +0.000 H 
BRANCH    7    8
ATOM     97  H6  UNL A   1      38.802  22.470   0.311  1.00  0.00    +0.000 H 
ATOM      8  N2  UNL A   1      38.281  22.061  -0.417  1.00  0.00    +0.000 N 
BRANCH    8    9
ATOM      9  C5  UNL A   1      36.929  22.065  -0.273  1.00  0.00    +0.000 C 
ATOM     10  O3  UNL A   1      36.254  22.934  -0.805  1.00  0.00    +0.000 O 
BRANCH    9   11
ATOM     11  O4  UNL A   1      36.458  21.033   0.464  1.00  0.00    +0.000 O 
BRANCH   11   12
ATOM     98  H7  UNL A   1      38.284  21.072   1.396  1.00  0.00    +0.000 H 
ATOM     99  H8  UNL A   1      37.586  19.472   1.137  1.00  0.00    +0.000 H 
ATOM     12  C6  UNL A   1      37.390  20.487   1.413  1.00  0.00    +0.000 C 
BRANCH   12   13
ATOM    100  H9  UNL A   1      36.641  18.389   2.947  1.00  0.00    +0.000 H 
ATOM    101  H10 UNL A   1      35.616  18.379   5.138  1.00  0.00    +0.000 H 
ATOM    102  H11 UNL A   1      35.254  20.468   6.316  1.00  0.00    +0.000 H 
ATOM    103  H12 UNL A   1      35.908  22.565   5.290  1.00  0.00    +0.000 H 
ATOM    104  H13 UNL A   1      36.877  22.586   3.067  1.00  0.00    +0.000 H 
ATOM     13  C7  UNL A   1      36.831  20.489   2.815  1.00  0.00    +0.000 C 
ATOM     14  C8  UNL A   1      36.472  19.281   3.435  1.00  0.00    +0.000 C 
ATOM     15  C9  UNL A   1      35.891  19.273   4.702  1.00  0.00    +0.000 C 
ATOM     16  C10 UNL A   1      35.682  20.471   5.377  1.00  0.00    +0.000 C 
ATOM     17  C11 UNL A   1      36.052  21.678   4.783  1.00  0.00    +0.000 C 
ATOM     18  C12 UNL A   1      36.617  21.689   3.505  1.00  0.00    +0.000 C 
ENDBRANCH   12   13
ENDBRANCH   11   12
ENDBRANCH    9   11
ENDBRANCH    8    9
ENDBRANCH    7    8
ENDBRANCH    5    7
ENDBRANCH    4    5
ENDBRANCH    3    4
ENDBRANCH    2    3
ENDBRANCH   19    2
ENDBRANCH   20   19
ENDBRANCH   21   20
ENDBRANCH   22   21
ENDBRANCH   23   22
ENDBRANCH   24   23
ENDBRANCH   25   24
ENDBRANCH   26   25
ENDBRANCH   27   26
ENDBRANCH   29   27
ENDBRANCH   33   32
BRANCH   37   38
ATOM     38  C28 UNL A   1      52.535  22.533  17.204  1.00  0.00    +0.000 C 
ATOM     39  C29 UNL A   1      52.374  23.924  17.115  1.00  0.00    +0.000 C 
ATOM     40  F1  UNL A   1      53.142  24.641  16.279  1.00  0.00    +0.000 F 
ATOM     41  C30 UNL A   1      51.446  24.591  17.910  1.00  0.00    +0.000 C 
ATOM     42  F2  UNL A   1      51.341  25.925  17.838  1.00  0.00    +0.000 F 
ATOM     43  C31 UNL A   1      50.638  23.879  18.782  1.00  0.00    +0.000 C 
ATOM     44  F3  UNL A   1      49.737  24.521  19.540  1.00  0.00    +0.000 F 
ATOM     45  C32 UNL A   1      50.766  22.500  18.873  1.00  0.00    +0.000 C 
ATOM     46  F4  UNL A   1      49.976  21.809  19.706  1.00  0.00    +0.000 F 
ATOM     47  C33 UNL A   1      51.713  21.834  18.101  1.00  0.00    +0.000 C 
ATOM     48  F5  UNL A   1      51.822  20.502  18.221  1.00  0.00    +0.000 F 
ENDBRANCH   37   38
BRANCH   54   55
ATOM     65  F10 UNL A   1      59.795  22.339  17.352  1.00  0.00    +0.000 F 
ATOM     55  C39 UNL A   1      59.277  20.033  17.641  1.00  0.00    +0.000 C 
ATOM     56  C40 UNL A   1      59.590  18.828  18.287  1.00  0.00    +0.000 C 
ATOM     57  F6  UNL A   1      58.870  17.723  18.039  1.00  0.00    +0.000 F 
ATOM     58  C41 UNL A   1      60.623  18.764  19.219  1.00  0.00    +0.000 C 
ATOM     59  F7  UNL A   1      60.877  17.613  19.856  1.00  0.00    +0.000 F 
ATOM     60  C42 UNL A   1      61.381  19.892  19.497  1.00  0.00    +0.000 C 
ATOM     61  F8  UNL A   1      62.380  19.826  20.388  1.00  0.00    +0.000 F 
ATOM     62  C43 UNL A   1      61.099  21.090  18.858  1.00  0.00    +0.000 C 
ATOM     63  F9  UNL A   1      61.839  22.177  19.117  1.00  0.00    +0.000 F 
ATOM     64  C44 UNL A   1      60.049  21.164  17.948  1.00  0.00    +0.000 C 
ENDBRANCH   54   55
BRANCH   69   70
ATOM     70  C48 UNL A   1      58.850  17.891  11.026  1.00  0.00    +0.000 C 
ATOM     71  C49 UNL A   1      58.994  16.497  11.011  1.00  0.00    +0.000 C 
ATOM     72  F11 UNL A   1      58.261  15.740  11.841  1.00  0.00    +0.000 F 
ATOM     73  C50 UNL A   1      59.921  15.877  10.177  1.00  0.00    +0.000 C 
ATOM     74  F12 UNL A   1      60.073  14.547  10.219  1.00  0.00    +0.000 F 
ATOM     75  C51 UNL A   1      60.703  16.637   9.320  1.00  0.00    +0.000 C 
ATOM     76  F13 UNL A   1      61.595  16.041   8.518  1.00  0.00    +0.000 F 
ATOM     77  C52 UNL A   1      60.563  18.016   9.301  1.00  0.00    +0.000 C 
ATOM     78  F14 UNL A   1      61.306  18.753   8.465  1.00  0.00    +0.000 F 
ATOM     79  C53 UNL A   1      59.655  18.639  10.156  1.00  0.00    +0.000 C 
ATOM     80  F15 UNL A   1      59.553  19.976  10.128  1.00  0.00    +0.000 F 
ENDBRANCH   69   70
TORSDOF 23
ENDMDL
MODEL 2
REMARK VINA RESULT:     -10.1     17.636     22.447
ROOT
ATOM    129  H38 UNL A   1      38.281  28.083  29.792  1.00  0.00    +0.000 H 
ATOM    130  H39 UNL A   1      39.117  25.856  28.845  1.00  0.00    +0.000 H 
ATOM     33  C24 UNL A   1      41.724  26.002  27.704  1.00  0.00    +0.000 C 
ATOM     34  C25 UNL A   1      40.988  27.078  28.453  1.00  0.00    +0.000 C 
ATOM     35  N5  UNL A   1      41.371  28.294  28.748  1.00  0.00    +0.000 N 
ATOM     36  C26 UNL A   1      40.296  28.881  29.403  1.00  0.00    +0.000 C 
ATOM     37  C27 UNL A   1      40.216  30.114  29.957  1.00  0.00    +0.000 C 
ATOM     49  C34 UNL A   1      41.289  31.073  29.965  1.00  0.00    +0.000 C 
ATOM     50  C35 UNL A   1      41.324  32.326  30.552  1.00  0.00    +0.000 C 
ATOM     51  C36 UNL A   1      42.560  32.910  30.265  1.00  0.00    +0.000 C 
ATOM     52  C37 UNL A   1      43.316  32.003  29.541  1.00  0.00    +0.000 C 
ATOM     53  N6  UNL A   1      42.521  30.882  29.358  1.00  0.00    +0.000 N 
ATOM     54  C38 UNL A   1      44.662  32.146  29.051  1.00  0.00    +0.000 C 
ATOM     66  C45 UNL A   1      45.335  31.206  28.343  1.00  0.00    +0.000 C 
ATOM     67  N7  UNL A   1      44.916  29.940  27.957  1.00  0.00    +0.000 N 
ATOM     68  C46 UNL A   1      45.916  29.419  27.287  1.00  0.00    +0.000 C 
ATOM     69  C47 UNL A   1      46.032  28.054  26.663  1.00  0.00    +0.000 C 
ATOM     81  C54 UNL A   1      45.014  27.182  26.788  1.00  0.00    +0.000 C 
ATOM     82  C55 UNL A   1      44.983  25.830  26.238  1.00  0.00    +0.000 C 
ATOM     83  C56 UNL A   1      43.789  25.276  26.501  1.00  0.00    +0.000 C 
ATOM     84  C57 UNL A   1      42.982  26.221  27.274  1.00  0.00    +0.000 C 
ATOM     85  N8  UNL A   1      43.797  27.318  27.412  1.00  0.00    +0.000 N 
ATOM     86  C58 UNL A   1      47.073  30.315  27.144  1.00  0.00    +0.000 C 
ATOM     87  C59 UNL A   1      46.683  31.373  27.841  1.00  0.00    +0.000 C 
ATOM     88  C60 UNL A   1      39.229  27.904  29.425  1.00  0.00    +0.000 C 
ATOM     89  C61 UNL A   1      39.628  26.750  28.910  1.00  0.00    +0.000 C 
ATOM    121  H30 UNL A   1      40.565  32.756  31.105  1.00  0.00    +0.000 H 
ATOM    122  H31 UNL A   1      42.860  33.857  30.545  1.00  0.00    +0.000 H 
ATOM    123  H32 UNL A   1      42.792  30.071  28.870  1.00  0.00    +0.000 H 
ATOM    124  H33 UNL A   1      45.756  25.374  25.729  1.00  0.00    +0.000 H 
ATOM    125  H34 UNL A   1      43.488  24.335  26.206  1.00  0.00    +0.000 H 
ATOM    126  H35 UNL A   1      43.535  28.125  27.912  1.00  0.00    +0.000 H 
ATOM    127  H36 UNL A   1      47.956  30.160  26.634  1.00  0.00    +0.000 H 
ATOM    128  H37 UNL A   1      47.265  32.209  28.004  1.00  0.00    +0.000 H 
ENDROOT
BRANCH   33   32
ATOM    131  H40 UNL A   1      39.703  25.616  25.989  1.00  0.00    +0.000 H 
ATOM    132  H41 UNL A   1      38.514  23.567  25.478  1.00  0.00    +0.000 H 
ATOM    119  H28 UNL A   1      41.106  21.425  28.005  1.00  0.00    +0.000 H 
ATOM    120  H29 UNL A   1      42.152  23.506  28.690  1.00  0.00    +0.000 H 
ATOM     90  C62 UNL A   1      39.990  24.730  26.434  1.00  0.00    +0.000 C 
ATOM     91  C63 UNL A   1      39.334  23.546  26.105  1.00  0.00    +0.000 C 
ATOM     29  C20 UNL A   1      39.786  22.331  26.625  1.00  0.00    +0.000 C 
ATOM     30  C21 UNL A   1      40.806  22.317  27.582  1.00  0.00    +0.000 C 
ATOM     31  C22 UNL A   1      41.417  23.514  27.965  1.00  0.00    +0.000 C 
ATOM     32  C23 UNL A   1      41.040  24.727  27.366  1.00  0.00    +0.000 C 
BRANCH   29   27
ATOM     27  C19 UNL A   1      39.194  21.045  26.193  1.00  0.00    +0.000 C 
ATOM     28  O5  UNL A   1      39.891  20.034  26.175  1.00  0.00    +0.000 O 
BRANCH   27   26
ATOM     26  N4  UNL A   1      37.882  20.986  25.790  1.00  0.00    +0.000 N 
ATOM    118  H27 UNL A   1      37.356  20.255  26.186  1.00  0.00    +0.000 H 
BRANCH   26   25
ATOM     25  C18 UNL A   1      37.154  21.843  24.866  1.00  0.00    +0.000 C 
ATOM    116  H25 UNL A   1      37.576  22.827  24.908  1.00  0.00    +0.000 H 
ATOM    117  H26 UNL A   1      37.243  21.414  23.891  1.00  0.00    +0.000 H 
BRANCH   25   24
ATOM    114  H23 UNL A   1      35.121  21.847  24.278  1.00  0.00    +0.000 H 
ATOM    115  H24 UNL A   1      35.467  21.147  25.889  1.00  0.00    +0.000 H 
ATOM     24  C17 UNL A   1      35.667  21.936  25.194  1.00  0.00    +0.000 C 
BRANCH   24   23
ATOM    113  H22 UNL A   1      35.975  23.430  26.622  1.00  0.00    +0.000 H 
ATOM     23  C16 UNL A   1      35.230  23.227  25.882  1.00  0.00    +0.000 C 
ATOM    112  H21 UNL A   1      34.250  23.070  26.283  1.00  0.00    +0.000 H 
BRANCH   23   22
ATOM    110  H19 UNL A   1      36.165  24.884  24.953  1.00  0.00    +0.000 H 
ATOM     22  C15 UNL A   1      35.179  24.469  24.990  1.00  0.00    +0.000 C 
ATOM    111  H20 UNL A   1      34.809  24.128  24.047  1.00  0.00    +0.000 H 
BRANCH   22   21
ATOM    109  H18 UNL A   1      34.746  26.159  26.161  1.00  0.00    +0.000 H 
ATOM    108  H17 UNL A   1      33.331  25.124  25.808  1.00  0.00    +0.000 H 
ATOM     21  C14 UNL A   1      34.220  25.583  25.429  1.00  0.00    +0.000 C 
BRANCH   21   20
ATOM    106  H15 UNL A   1      34.529  26.489  23.530  1.00  0.00    +0.000 H 
ATOM    107  H16 UNL A   1      32.831  26.289  24.005  1.00  0.00    +0.000 H 
ATOM     20  C13 UNL A   1      33.816  26.559  24.324  1.00  0.00    +0.000 C 
BRANCH   20   19
ATOM    105  H14 UNL A   1      34.199  28.173  25.623  1.00  0.00    +0.000 H 
ATOM     19  N3  UNL A   1      33.761  27.937  24.774  1.00  0.00    +0.000 N 
BRANCH   19    2
ATOM      1  O1  UNL A   1      33.505  29.336  22.971  1.00  0.00    +0.000 O 
ATOM      2  C1  UNL A   1      33.120  28.928  24.064  1.00  0.00    +0.000 C 
BRANCH    2    3
ATOM      3  C2  UNL A   1      31.911  29.560  24.768  1.00  0.00    +0.000 C 
ATOM     92  H1  UNL A   1      31.996  30.624  24.689  1.00  0.00    +0.000 H 
ATOM     93  H2  UNL A   1      31.931  29.216  25.781  1.00  0.00    +0.000 H 
BRANCH    3    4
ATOM      4  N1  UNL A   1      30.620  29.162  24.216  1.00  0.00    +0.000 N 
ATOM     94  H3  UNL A   1      29.832  29.558  24.654  1.00  0.00    +0.000 H 
BRANCH    4    5
ATOM      5  C3  UNL A   1      30.352  28.318  23.178  1.00  0.00    +0.000 C 
ATOM      6  O2  UNL A   1      30.202  28.805  22.057  1.00  0.00    +0.000 O 
BRANCH    5    7
ATOM     95  H4  UNL A   1      31.272  26.392  23.358  1.00  0.00    +0.000 H 
ATOM      7  C4  UNL A   1      30.287  26.808  23.407  1.00  0.00    +0.000 C 
ATOM     96  H5  UNL A   1      29.681  26.348  22.654  1.00  0.00    +0.000 H 
BRANCH    7    8
ATOM     97  H6  UNL A   1      28.790  26.858  24.857  1.00  0.00    +0.000 H 
ATOM      8  N2  UNL A   1      29.720  26.565  24.717  1.00  0.00    +0.000 N 
BRANCH    8    9
ATOM      9  C5  UNL A   1      30.336  25.975  25.775  1.00  0.00    +0.000 C 
ATOM     10  O3  UNL A   1      31.029  26.637  26.534  1.00  0.00    +0.000 O 
BRANCH    9   11
ATOM     11  O4  UNL A   1      30.079  24.652  25.885  1.00  0.00    +0.000 O 
BRANCH   11   12
ATOM     98  H7  UNL A   1      30.928  23.323  27.195  1.00  0.00    +0.000 H 
ATOM     99  H8  UNL A   1      32.027  24.496  26.468  1.00  0.00    +0.000 H 
ATOM     12  C6  UNL A   1      31.194  23.847  26.302  1.00  0.00    +0.000 C 
BRANCH   12   13
ATOM    100  H9  UNL A   1      31.695  21.203  26.574  1.00  0.00    +0.000 H 
ATOM    101  H10 UNL A   1      32.463  19.608  24.925  1.00  0.00    +0.000 H 
ATOM    102  H11 UNL A   1      32.757  20.298  22.618  1.00  0.00    +0.000 H 
ATOM    103  H12 UNL A   1      32.292  22.588  21.971  1.00  0.00    +0.000 H 
ATOM    104  H13 UNL A   1      31.584  24.206  23.632  1.00  0.00    +0.000 H 
ATOM     13  C7  UNL A   1      31.589  22.842  25.246  1.00  0.00    +0.000 C 
ATOM     14  C8  UNL A   1      31.836  21.506  25.599  1.00  0.00    +0.000 C 
ATOM     15  C9  UNL A   1      32.269  20.584  24.648  1.00  0.00    +0.000 C 
ATOM     16  C10 UNL A   1      32.439  20.980  23.325  1.00  0.00    +0.000 C 
ATOM     17  C11 UNL A   1      32.178  22.299  22.955  1.00  0.00    +0.000 C 
ATOM     18  C12 UNL A   1      31.763  23.229  23.911  1.00  0.00    +0.000 C 
ENDBRANCH   12   13
ENDBRANCH   11   12
ENDBRANCH    9   11
ENDBRANCH    8    9
ENDBRANCH    7    8
ENDBRANCH    5    7
ENDBRANCH    4    5
ENDBRANCH    3    4
ENDBRANCH    2    3
ENDBRANCH   19    2
ENDBRANCH   20   19
ENDBRANCH   21   20
ENDBRANCH   22   21
ENDBRANCH   23   22
ENDBRANCH   24   23
ENDBRANCH   25   24
ENDBRANCH   26   25
ENDBRANCH   27   26
ENDBRANCH   29   27
ENDBRANCH   33   32
BRANCH   37   38
ATOM     38  C28 UNL A   1      38.920  30.501  30.608  1.00  0.00    +0.000 C 
ATOM     39  C29 UNL A   1      38.724  30.368  31.991  1.00  0.00    +0.000 C 
ATOM     40  F1  UNL A   1      39.685  29.833  32.761  1.00  0.00    +0.000 F 
ATOM     41  C30 UNL A   1      37.525  30.753  32.586  1.00  0.00    +0.000 C 
ATOM     42  F2  UNL A   1      37.345  30.575  33.902  1.00  0.00    +0.000 F 
ATOM     43  C31 UNL A   1      36.514  31.308  31.818  1.00  0.00    +0.000 C 
ATOM     44  F3  UNL A   1      35.364  31.688  32.393  1.00  0.00    +0.000 F 
ATOM     45  C32 UNL A   1      36.692  31.467  30.451  1.00  0.00    +0.000 C 
ATOM     46  F4  UNL A   1      35.721  32.017  29.710  1.00  0.00    +0.000 F 
ATOM     47  C33 UNL A   1      37.879  31.057  29.849  1.00  0.00    +0.000 C 
ATOM     48  F5  UNL A   1      38.016  31.213  28.524  1.00  0.00    +0.000 F 
ENDBRANCH   37   38
BRANCH   54   55
ATOM     65  F10 UNL A   1      44.575  34.434  27.371  1.00  0.00    +0.000 F 
ATOM     55  C39 UNL A   1      45.387  33.422  29.367  1.00  0.00    +0.000 C 
ATOM     56  C40 UNL A   1      46.184  33.553  30.513  1.00  0.00    +0.000 C 
ATOM     57  F6  UNL A   1      46.270  32.544  31.395  1.00  0.00    +0.000 F 
ATOM     58  C41 UNL A   1      46.869  34.736  30.777  1.00  0.00    +0.000 C 
ATOM     59  F7  UNL A   1      47.590  34.855  31.900  1.00  0.00    +0.000 F 
ATOM     60  C42 UNL A   1      46.796  35.796  29.885  1.00  0.00    +0.000 C 
ATOM     61  F8  UNL A   1      47.463  36.932  30.136  1.00  0.00    +0.000 F 
ATOM     62  C43 UNL A   1      46.026  35.682  28.736  1.00  0.00    +0.000 C 
ATOM     63  F9  UNL A   1      45.966  36.701  27.868  1.00  0.00    +0.000 F 
ATOM     64  C44 UNL A   1      45.318  34.511  28.485  1.00  0.00    +0.000 C 
ENDBRANCH   54   55
BRANCH   69   70
ATOM     70  C48 UNL A   1      47.267  27.657  25.936  1.00  0.00    +0.000 C 
ATOM     71  C49 UNL A   1      47.344  27.768  24.540  1.00  0.00    +0.000 C 
ATOM     72  F11 UNL A   1      46.293  28.231  23.847  1.00  0.00    +0.000 F 
ATOM     73  C50 UNL A   1      48.483  27.363  23.847  1.00  0.00    +0.000 C 
ATOM     74  F12 UNL A   1      48.511  27.433  22.510  1.00  0.00    +0.000 F 
ATOM     75  C51 UNL A   1      49.577  26.866  24.539  1.00  0.00    +0.000 C 
ATOM     76  F13 UNL A   1      50.672  26.475  23.873  1.00  0.00    +0.000 F 
ATOM     77  C52 UNL A   1      49.532  26.767  25.921  1.00  0.00    +0.000 C 
ATOM     78  F14 UNL A   1      50.593  26.300  26.594  1.00  0.00    +0.000 F 
ATOM     79  C53 UNL A   1      48.383  27.147  26.613  1.00  0.00    +0.000 C 
ATOM     80  F15 UNL A   1      48.361  27.024  27.948  1.00  0.00    +0.000 F 
ENDBRANCH   69   70
TORSDOF 23
ENDMDL
MODEL 3
REMARK VINA RESULT:      -9.8     19.970     24.339
ROOT
ATOM    129  H38 UNL A   1      36.845  30.099  28.865  1.00  0.00    +0.000 H 
ATOM    130  H39 UNL A   1      37.884  27.808  28.391  1.00  0.00    +0.000 H 
ATOM     33  C24 UNL A   1      40.728  27.781  28.568  1.00  0.00    +0.000 C 
ATOM     34  C25 UNL A   1      39.797  28.913  28.905  1.00  0.00    +0.000 C 
ATOM     35  N5  UNL A   1      40.077  30.112  29.349  1.00  0.00    +0.000 N 
ATOM     36  C26 UNL A   1      38.859  30.773  29.444  1.00  0.00    +0.000 C 
ATOM     37  C27 UNL A   1      38.609  32.021  29.907  1.00  0.00    +0.000 C 
ATOM     49  C34 UNL A   1      39.616  32.917  30.411  1.00  0.00    +0.000 C 
ATOM     50  C35 UNL A   1      39.455  34.179  30.956  1.00  0.00    +0.000 C 
ATOM     51  C36 UNL A   1      40.719  34.686  31.270  1.00  0.00    +0.000 C 
ATOM     52  C37 UNL A   1      41.665  33.721  30.966  1.00  0.00    +0.000 C 
ATOM     53  N6  UNL A   1      40.975  32.643  30.433  1.00  0.00    +0.000 N 
ATOM     54  C38 UNL A   1      43.093  33.777  31.146  1.00  0.00    +0.000 C 
ATOM     66  C45 UNL A   1      43.956  32.785  30.817  1.00  0.00    +0.000 C 
ATOM     67  N7  UNL A   1      43.684  31.537  30.276  1.00  0.00    +0.000 N 
ATOM     68  C46 UNL A   1      44.846  30.945  30.133  1.00  0.00    +0.000 C 
ATOM     69  C47 UNL A   1      45.151  29.562  29.623  1.00  0.00    +0.000 C 
ATOM     81  C54 UNL A   1      44.137  28.753  29.264  1.00  0.00    +0.000 C 
ATOM     82  C55 UNL A   1      44.280  27.392  28.752  1.00  0.00    +0.000 C 
ATOM     83  C56 UNL A   1      43.066  26.913  28.438  1.00  0.00    +0.000 C 
ATOM     84  C57 UNL A   1      42.054  27.919  28.761  1.00  0.00    +0.000 C 
ATOM     85  N8  UNL A   1      42.781  28.970  29.264  1.00  0.00    +0.000 N 
ATOM     86  C58 UNL A   1      45.992  31.771  30.540  1.00  0.00    +0.000 C 
ATOM     87  C59 UNL A   1      45.392  32.864  30.988  1.00  0.00    +0.000 C 
ATOM     88  C60 UNL A   1      37.842  29.859  28.970  1.00  0.00    +0.000 C 
ATOM     89  C61 UNL A   1      38.362  28.672  28.687  1.00  0.00    +0.000 C 
ATOM    121  H30 UNL A   1      38.555  34.663  31.104  1.00  0.00    +0.000 H 
ATOM    122  H31 UNL A   1      40.915  35.621  31.662  1.00  0.00    +0.000 H 
ATOM    123  H32 UNL A   1      41.390  31.807  30.118  1.00  0.00    +0.000 H 
ATOM    124  H33 UNL A   1      45.171  26.882  28.650  1.00  0.00    +0.000 H 
ATOM    125  H34 UNL A   1      42.877  25.983  28.032  1.00  0.00    +0.000 H 
ATOM    126  H35 UNL A   1      42.369  29.802  29.593  1.00  0.00    +0.000 H 
ATOM    127  H36 UNL A   1      47.000  31.556  30.489  1.00  0.00    +0.000 H 
ATOM    128  H37 UNL A   1      45.885  33.670  31.404  1.00  0.00    +0.000 H 
ENDROOT
BRANCH   33   32
ATOM    131  H40 UNL A   1      41.023  26.941  26.042  1.00  0.00    +0.000 H 
ATOM    132  H41 UNL A   1      40.104  24.966  24.980  1.00  0.00    +0.000 H 
ATOM    119  H28 UNL A   1      38.460  23.747  28.655  1.00  0.00    +0.000 H 
ATOM    120  H29 UNL A   1      39.186  25.831  29.666  1.00  0.00    +0.000 H 
ATOM     90  C62 UNL A   1      40.462  26.274  26.594  1.00  0.00    +0.000 C 
ATOM     91  C63 UNL A   1      39.972  25.116  25.993  1.00  0.00    +0.000 C 
ATOM     29  C20 UNL A   1      39.302  24.162  26.761  1.00  0.00    +0.000 C 
ATOM     30  C21 UNL A   1      39.000  24.429  28.100  1.00  0.00    +0.000 C 
ATOM     31  C22 UNL A   1      39.431  25.623  28.685  1.00  0.00    +0.000 C 
ATOM     32  C23 UNL A   1      40.198  26.539  27.947  1.00  0.00    +0.000 C 
BRANCH   29   27
ATOM     27  C19 UNL A   1      38.886  22.865  26.180  1.00  0.00    +0.000 C 
ATOM     28  O5  UNL A   1      39.650  21.906  26.232  1.00  0.00    +0.000 O 
BRANCH   27   26
ATOM     26  N4  UNL A   1      37.664  22.742  25.565  1.00  0.00    +0.000 N 
ATOM    118  H27 UNL A   1      37.496  21.871  25.139  1.00  0.00    +0.000 H 
BRANCH   26   25
ATOM     25  C18 UNL A   1      36.579  23.706  25.450  1.00  0.00    +0.000 C 
ATOM    116  H25 UNL A   1      36.764  24.511  26.132  1.00  0.00    +0.000 H 
ATOM    117  H26 UNL A   1      36.554  24.042  24.435  1.00  0.00    +0.000 H 
BRANCH   25   24
ATOM    114  H23 UNL A   1      34.916  22.504  24.931  1.00  0.00    +0.000 H 
ATOM    115  H24 UNL A   1      35.343  22.539  26.670  1.00  0.00    +0.000 H 
ATOM     24  C17 UNL A   1      35.215  23.101  25.767  1.00  0.00    +0.000 C 
BRANCH   24   23
ATOM    113  H22 UNL A   1      34.048  24.190  27.115  1.00  0.00    +0.000 H 
ATOM     23  C16 UNL A   1      34.104  24.109  26.050  1.00  0.00    +0.000 C 
ATOM    112  H21 UNL A   1      33.206  23.745  25.594  1.00  0.00    +0.000 H 
BRANCH   23   22
ATOM    110  H19 UNL A   1      35.294  25.856  25.923  1.00  0.00    +0.000 H 
ATOM     22  C15 UNL A   1      34.351  25.529  25.536  1.00  0.00    +0.000 C 
ATOM    111  H20 UNL A   1      34.312  25.457  24.470  1.00  0.00    +0.000 H 
BRANCH   22   21
ATOM    109  H18 UNL A   1      32.661  26.118  26.638  1.00  0.00    +0.000 H 
ATOM    108  H17 UNL A   1      32.789  26.875  25.023  1.00  0.00    +0.000 H 
ATOM     21  C14 UNL A   1      33.301  26.581  25.915  1.00  0.00    +0.000 C 
BRANCH   21   20
ATOM    106  H15 UNL A   1      34.501  27.544  27.382  1.00  0.00    +0.000 H 
ATOM    107  H16 UNL A   1      34.381  28.392  25.828  1.00  0.00    +0.000 H 
ATOM     20  C13 UNL A   1      33.858  27.839  26.580  1.00  0.00    +0.000 C 
BRANCH   20   19
ATOM    105  H14 UNL A   1      32.063  28.299  27.583  1.00  0.00    +0.000 H 
ATOM     19  N3  UNL A   1      32.825  28.707  27.112  1.00  0.00    +0.000 N 
BRANCH   19    2
ATOM      1  O1  UNL A   1      33.605  30.799  27.649  1.00  0.00    +0.000 O 
ATOM      2  C1  UNL A   1      32.865  30.078  26.985  1.00  0.00    +0.000 C 
BRANCH    2    3
ATOM      3  C2  UNL A   1      31.854  30.673  25.995  1.00  0.00    +0.000 C 
ATOM     92  H1  UNL A   1      32.374  31.359  25.357  1.00  0.00    +0.000 H 
ATOM     93  H2  UNL A   1      31.093  31.146  26.579  1.00  0.00    +0.000 H 
BRANCH    3    4
ATOM      4  N1  UNL A   1      31.185  29.686  25.155  1.00  0.00    +0.000 N 
ATOM     94  H3  UNL A   1      30.454  29.188  25.586  1.00  0.00    +0.000 H 
BRANCH    4    5
ATOM      5  C3  UNL A   1      31.431  29.356  23.853  1.00  0.00    +0.000 C 
ATOM      6  O2  UNL A   1      32.582  29.052  23.538  1.00  0.00    +0.000 O 
BRANCH    5    7
ATOM     95  H4  UNL A   1      30.617  29.760  21.913  1.00  0.00    +0.000 H 
ATOM      7  C4  UNL A   1      30.291  29.325  22.835  1.00  0.00    +0.000 C 
ATOM     96  H5  UNL A   1      29.455  29.884  23.203  1.00  0.00    +0.000 H 
BRANCH    7    8
ATOM     97  H6  UNL A   1      30.078  27.578  21.718  1.00  0.00    +0.000 H 
ATOM      8  N2  UNL A   1      29.907  27.946  22.615  1.00  0.00    +0.000 N 
BRANCH    8    9
ATOM      9  C5  UNL A   1      29.337  27.106  23.518  1.00  0.00    +0.000 C 
ATOM     10  O3  UNL A   1      28.123  27.085  23.662  1.00  0.00    +0.000 O 
BRANCH    9   11
ATOM     11  O4  UNL A   1      30.227  26.328  24.175  1.00  0.00    +0.000 O 
BRANCH   11   12
ATOM     98  H7  UNL A   1      29.220  24.749  23.339  1.00  0.00    +0.000 H 
ATOM     99  H8  UNL A   1      29.891  24.470  24.948  1.00  0.00    +0.000 H 
ATOM     12  C6  UNL A   1      30.055  24.913  23.988  1.00  0.00    +0.000 C 
BRANCH   12   13
ATOM    100  H9  UNL A   1      30.867  22.337  24.123  1.00  0.00    +0.000 H 
ATOM    101  H10 UNL A   1      32.892  21.320  23.276  1.00  0.00    +0.000 H 
ATOM    102  H11 UNL A   1      34.467  22.644  21.990  1.00  0.00    +0.000 H 
ATOM    103  H12 UNL A   1      34.015  24.988  21.567  1.00  0.00    +0.000 H 
ATOM    104  H13 UNL A   1      32.018  26.028  22.468  1.00  0.00    +0.000 H 
ATOM     13  C7  UNL A   1      31.279  24.271  23.380  1.00  0.00    +0.000 C 
ATOM     14  C8  UNL A   1      31.542  22.909  23.593  1.00  0.00    +0.000 C 
ATOM     15  C9  UNL A   1      32.704  22.319  23.097  1.00  0.00    +0.000 C 
ATOM     16  C10 UNL A   1      33.607  23.079  22.361  1.00  0.00    +0.000 C 
ATOM     17  C11 UNL A   1      33.350  24.429  22.124  1.00  0.00    +0.000 C 
ATOM     18  C12 UNL A   1      32.195  25.026  22.637  1.00  0.00    +0.000 C 
ENDBRANCH   12   13
ENDBRANCH   11   12
ENDBRANCH    9   11
ENDBRANCH    8    9
ENDBRANCH    7    8
ENDBRANCH    5    7
ENDBRANCH    4    5
ENDBRANCH    3    4
ENDBRANCH    2    3
ENDBRANCH   19    2
ENDBRANCH   20   19
ENDBRANCH   21   20
ENDBRANCH   22   21
ENDBRANCH   23   22
ENDBRANCH   24   23
ENDBRANCH   25   24
ENDBRANCH   26   25
ENDBRANCH   27   26
ENDBRANCH   29   27
ENDBRANCH   33   32
BRANCH   37   38
ATOM     38  C28 UNL A   1      37.185  32.495  29.897  1.00  0.00    +0.000 C 
ATOM     39  C29 UNL A   1      36.317  32.238  30.969  1.00  0.00    +0.000 C 
ATOM     40  F1  UNL A   1      36.733  31.505  32.014  1.00  0.00    +0.000 F 
ATOM     41  C30 UNL A   1      35.004  32.703  30.957  1.00  0.00    +0.000 C 
ATOM     42  F2  UNL A   1      34.181  32.407  31.972  1.00  0.00    +0.000 F 
ATOM     43  C31 UNL A   1      34.545  33.462  29.892  1.00  0.00    +0.000 C 
ATOM     44  F3  UNL A   1      33.285  33.918  29.886  1.00  0.00    +0.000 F 
ATOM     45  C32 UNL A   1      35.392  33.745  28.829  1.00  0.00    +0.000 C 
ATOM     46  F4  UNL A   1      34.953  34.491  27.806  1.00  0.00    +0.000 F 
ATOM     47  C33 UNL A   1      36.695  33.257  28.825  1.00  0.00    +0.000 C 
ATOM     48  F5  UNL A   1      37.485  33.537  27.778  1.00  0.00    +0.000 F 
ENDBRANCH   37   38
BRANCH   54   55
ATOM     65  F10 UNL A   1      43.577  34.032  33.932  1.00  0.00    +0.000 F 
ATOM     55  C39 UNL A   1      43.669  35.017  31.766  1.00  0.00    +0.000 C 
ATOM     56  C40 UNL A   1      43.981  36.149  31.000  1.00  0.00    +0.000 C 
ATOM     57  F6  UNL A   1      43.824  36.126  29.667  1.00  0.00    +0.000 F 
ATOM     58  C41 UNL A   1      44.493  37.298  31.598  1.00  0.00    +0.000 C 
ATOM     59  F7  UNL A   1      44.825  38.352  30.841  1.00  0.00    +0.000 F 
ATOM     60  C42 UNL A   1      44.668  37.348  32.973  1.00  0.00    +0.000 C 
ATOM     61  F8  UNL A   1      45.152  38.458  33.547  1.00  0.00    +0.000 F 
ATOM     62  C43 UNL A   1      44.350  36.245  33.752  1.00  0.00    +0.000 C 
ATOM     63  F9  UNL A   1      44.508  36.298  35.082  1.00  0.00    +0.000 F 
ATOM     64  C44 UNL A   1      43.867  35.086  33.154  1.00  0.00    +0.000 C 
ENDBRANCH   54   55
BRANCH   69   70
ATOM     70  C48 UNL A   1      46.555  29.080  29.538  1.00  0.00    +0.000 C 
ATOM     71  C49 UNL A   1      47.175  28.478  30.642  1.00  0.00    +0.000 C 
ATOM     72  F11 UNL A   1      46.502  28.338  31.793  1.00  0.00    +0.000 F 
ATOM     73  C50 UNL A   1      48.503  28.059  30.583  1.00  0.00    +0.000 C 
ATOM     74  F12 UNL A   1      49.085  27.533  31.668  1.00  0.00    +0.000 F 
ATOM     75  C51 UNL A   1      49.227  28.207  29.410  1.00  0.00    +0.000 C 
ATOM     76  F13 UNL A   1      50.503  27.805  29.353  1.00  0.00    +0.000 F 
ATOM     77  C52 UNL A   1      48.628  28.780  28.298  1.00  0.00    +0.000 C 
ATOM     78  F14 UNL A   1      49.320  28.913  27.158  1.00  0.00    +0.000 F 
ATOM     79  C53 UNL A   1      47.309  29.225  28.365  1.00  0.00    +0.000 C 
ATOM     80  F15 UNL A   1      46.761  29.791  27.280  1.00  0.00    +0.000 F 
ENDBRANCH   69   70
TORSDOF 23
ENDMDL
MODEL 4
REMARK VINA RESULT:      -9.7     19.313     23.733
ROOT
ATOM    129  H38 UNL A   1      37.226  30.028  29.246  1.00  0.00    +0.000 H 
ATOM    130  H39 UNL A   1      38.167  27.736  28.600  1.00  0.00    +0.000 H 
ATOM     33  C24 UNL A   1      41.012  27.669  28.439  1.00  0.00    +0.000 C 
ATOM     34  C25 UNL A   1      40.144  28.804  28.909  1.00  0.00    +0.000 C 
ATOM     35  N5  UNL A   1      40.492  29.988  29.344  1.00  0.00    +0.000 N 
ATOM     36  C26 UNL A   1      39.304  30.662  29.598  1.00  0.00    +0.000 C 
ATOM     37  C27 UNL A   1      39.130  31.901  30.116  1.00  0.00    +0.000 C 
ATOM     49  C34 UNL A   1      40.203  32.773  30.517  1.00  0.00    +0.000 C 
ATOM     50  C35 UNL A   1      40.126  34.022  31.106  1.00  0.00    +0.000 C 
ATOM     51  C36 UNL A   1      41.426  34.506  31.279  1.00  0.00    +0.000 C 
ATOM     52  C37 UNL A   1      42.315  33.537  30.844  1.00  0.00    +0.000 C 
ATOM     53  N6  UNL A   1      41.551  32.481  30.372  1.00  0.00    +0.000 N 
ATOM     54  C38 UNL A   1      43.754  33.571  30.855  1.00  0.00    +0.000 C 
ATOM     66  C45 UNL A   1      44.558  32.577  30.404  1.00  0.00    +0.000 C 
ATOM     67  N7  UNL A   1      44.205  31.346  29.870  1.00  0.00    +0.000 N 
ATOM     68  C46 UNL A   1      45.333  30.743  29.578  1.00  0.00    +0.000 C 
ATOM     69  C47 UNL A   1      45.555  29.370  29.004  1.00  0.00    +0.000 C 
ATOM     81  C54 UNL A   1      44.493  28.582  28.749  1.00  0.00    +0.000 C 
ATOM     82  C55 UNL A   1      44.554  27.233  28.193  1.00  0.00    +0.000 C 
ATOM     83  C56 UNL A   1      43.304  26.776  28.013  1.00  0.00    +0.000 C 
ATOM     84  C57 UNL A   1      42.353  27.786  28.477  1.00  0.00    +0.000 C 
ATOM     85  N8  UNL A   1      43.150  28.816  28.914  1.00  0.00    +0.000 N 
ATOM     86  C58 UNL A   1      46.531  31.545  29.865  1.00  0.00    +0.000 C 
ATOM     87  C59 UNL A   1      46.004  32.634  30.406  1.00  0.00    +0.000 C 
ATOM     88  C60 UNL A   1      38.225  29.772  29.227  1.00  0.00    +0.000 C 
ATOM     89  C61 UNL A   1      38.690  28.587  28.858  1.00  0.00    +0.000 C 
ATOM    121  H30 UNL A   1      39.257  34.514  31.371  1.00  0.00    +0.000 H 
ATOM    122  H31 UNL A   1      41.680  35.428  31.667  1.00  0.00    +0.000 H 
ATOM    123  H32 UNL A   1      41.912  31.648  29.991  1.00  0.00    +0.000 H 
ATOM    124  H33 UNL A   1      45.419  26.714  27.974  1.00  0.00    +0.000 H 
ATOM    125  H34 UNL A   1      43.055  25.859  27.611  1.00  0.00    +0.000 H 
ATOM    126  H35 UNL A   1      42.792  29.644  29.309  1.00  0.00    +0.000 H 
ATOM    127  H36 UNL A   1      47.522  31.318  29.690  1.00  0.00    +0.000 H 
ATOM    128  H37 UNL A   1      46.555  33.423  30.779  1.00  0.00    +0.000 H 
ENDROOT
BRANCH   33   32
ATOM    131  H40 UNL A   1      41.203  26.758  25.927  1.00  0.00    +0.000 H 
ATOM    132  H41 UNL A   1      40.142  24.821  24.930  1.00  0.00    +0.000 H 
ATOM    119  H28 UNL A   1      38.501  23.788  28.662  1.00  0.00    +0.000 H 
ATOM    120  H29 UNL A   1      39.374  25.844  29.611  1.00  0.00    +0.000 H 
ATOM     90  C62 UNL A   1      40.613  26.139  26.506  1.00  0.00    +0.000 C 
ATOM     91  C63 UNL A   1      40.040  25.001  25.941  1.00  0.00    +0.000 C 
ATOM     29  C20 UNL A   1      39.328  24.107  26.743  1.00  0.00    +0.000 C 
ATOM     30  C21 UNL A   1      39.071  24.422  28.081  1.00  0.00    +0.000 C 
ATOM     31  C22 UNL A   1      39.586  25.600  28.631  1.00  0.00    +0.000 C 
ATOM     32  C23 UNL A   1      40.393  26.450  27.857  1.00  0.00    +0.000 C 
BRANCH   29   27
ATOM     27  C19 UNL A   1      38.821  22.827  26.201  1.00  0.00    +0.000 C 
ATOM     28  O5  UNL A   1      39.548  21.837  26.206  1.00  0.00    +0.000 O 
BRANCH   27   26
ATOM     26  N4  UNL A   1      37.555  22.751  25.672  1.00  0.00    +0.000 N 
ATOM    118  H27 UNL A   1      37.222  21.839  25.513  1.00  0.00    +0.000 H 
BRANCH   26   25
ATOM     25  C18 UNL A   1      36.632  23.818  25.314  1.00  0.00    +0.000 C 
ATOM    116  H25 UNL A   1      36.820  24.660  25.947  1.00  0.00    +0.000 H 
ATOM    117  H26 UNL A   1      36.795  24.052  24.283  1.00  0.00    +0.000 H 
BRANCH   25   24
ATOM    114  H23 UNL A   1      34.802  23.130  24.501  1.00  0.00    +0.000 H 
ATOM    115  H24 UNL A   1      35.159  22.608  26.177  1.00  0.00    +0.000 H 
ATOM     24  C17 UNL A   1      35.170  23.409  25.467  1.00  0.00    +0.000 C 
BRANCH   24   23
ATOM    113  H22 UNL A   1      34.652  24.748  26.986  1.00  0.00    +0.000 H 
ATOM     23  C16 UNL A   1      34.247  24.488  26.030  1.00  0.00    +0.000 C 
ATOM    112  H21 UNL A   1      33.257  24.083  26.073  1.00  0.00    +0.000 H 
BRANCH   23   22
ATOM    110  H19 UNL A   1      35.181  26.020  24.906  1.00  0.00    +0.000 H 
ATOM     22  C15 UNL A   1      34.188  25.792  25.234  1.00  0.00    +0.000 C 
ATOM    111  H20 UNL A   1      33.493  25.611  24.441  1.00  0.00    +0.000 H 
BRANCH   22   21
ATOM    109  H18 UNL A   1      34.388  27.275  26.708  1.00  0.00    +0.000 H 
ATOM    108  H17 UNL A   1      32.703  26.760  26.406  1.00  0.00    +0.000 H 
ATOM     21  C14 UNL A   1      33.648  27.020  25.978  1.00  0.00    +0.000 C 
BRANCH   21   20
ATOM    106  H15 UNL A   1      34.137  29.019  25.442  1.00  0.00    +0.000 H 
ATOM    107  H16 UNL A   1      33.626  27.978  24.098  1.00  0.00    +0.000 H 
ATOM     20  C13 UNL A   1      33.452  28.265  25.114  1.00  0.00    +0.000 C 
BRANCH   20   19
ATOM    105  H14 UNL A   1      31.787  29.158  26.046  1.00  0.00    +0.000 H 
ATOM     19  N3  UNL A   1      32.107  28.803  25.185  1.00  0.00    +0.000 N 
BRANCH   19    2
ATOM      1  O1  UNL A   1      30.345  29.647  23.980  1.00  0.00    +0.000 O 
ATOM      2  C1  UNL A   1      31.258  28.835  24.102  1.00  0.00    +0.000 C 
BRANCH    2    3
ATOM      3  C2  UNL A   1      31.479  27.724  23.065  1.00  0.00    +0.000 C 
ATOM     92  H1  UNL A   1      32.434  27.278  23.250  1.00  0.00    +0.000 H 
ATOM     93  H2  UNL A   1      31.417  28.186  22.102  1.00  0.00    +0.000 H 
BRANCH    3    4
ATOM      4  N1  UNL A   1      30.470  26.671  23.089  1.00  0.00    +0.000 N 
ATOM     94  H3  UNL A   1      29.752  26.755  22.421  1.00  0.00    +0.000 H 
BRANCH    4    5
ATOM      5  C3  UNL A   1      30.381  25.584  23.911  1.00  0.00    +0.000 C 
ATOM      6  O2  UNL A   1      30.132  25.775  25.102  1.00  0.00    +0.000 O 
BRANCH    5    7
ATOM     95  H4  UNL A   1      30.306  24.172  22.303  1.00  0.00    +0.000 H 
ATOM      7  C4  UNL A   1      30.543  24.173  23.346  1.00  0.00    +0.000 C 
ATOM     96  H5  UNL A   1      29.884  23.498  23.850  1.00  0.00    +0.000 H 
BRANCH    7    8
ATOM     97  H6  UNL A   1      32.411  24.184  24.272  1.00  0.00    +0.000 H 
ATOM      8  N2  UNL A   1      31.918  23.758  23.534  1.00  0.00    +0.000 N 
BRANCH    8    9
ATOM      9  C5  UNL A   1      32.599  22.840  22.799  1.00  0.00    +0.000 C 
ATOM     10  O3  UNL A   1      33.599  23.167  22.176  1.00  0.00    +0.000 O 
BRANCH    9   11
ATOM     11  O4  UNL A   1      32.076  21.595  22.863  1.00  0.00    +0.000 O 
BRANCH   11   12
ATOM     98  H7  UNL A   1      31.287  20.788  24.575  1.00  0.00    +0.000 H 
ATOM     99  H8  UNL A   1      32.878  21.534  24.738  1.00  0.00    +0.000 H 
ATOM     12  C6  UNL A   1      32.247  20.927  24.124  1.00  0.00    +0.000 C 
BRANCH   12   13
ATOM    100  H9  UNL A   1      34.501  19.992  25.290  1.00  0.00    +0.000 H 
ATOM    101  H10 UNL A   1      35.653  17.894  24.939  1.00  0.00    +0.000 H 
ATOM    102  H11 UNL A   1      34.712  16.229  23.448  1.00  0.00    +0.000 H 
ATOM    103  H12 UNL A   1      32.622  16.675  22.300  1.00  0.00    +0.000 H 
ATOM    104  H13 UNL A   1      31.496  18.801  22.599  1.00  0.00    +0.000 H 
ATOM     13  C7  UNL A   1      32.910  19.580  23.963  1.00  0.00    +0.000 C 
ATOM     14  C8  UNL A   1      34.105  19.295  24.641  1.00  0.00    +0.000 C 
ATOM     15  C9  UNL A   1      34.766  18.083  24.447  1.00  0.00    +0.000 C 
ATOM     16  C10 UNL A   1      34.226  17.129  23.590  1.00  0.00    +0.000 C 
ATOM     17  C11 UNL A   1      33.028  17.389  22.925  1.00  0.00    +0.000 C 
ATOM     18  C12 UNL A   1      32.376  18.611  23.104  1.00  0.00    +0.000 C 
ENDBRANCH   12   13
ENDBRANCH   11   12
ENDBRANCH    9   11
ENDBRANCH    8    9
ENDBRANCH    7    8
ENDBRANCH    5    7
ENDBRANCH    4    5
ENDBRANCH    3    4
ENDBRANCH    2    3
ENDBRANCH   19    2
ENDBRANCH   20   19
ENDBRANCH   21   20
ENDBRANCH   22   21
ENDBRANCH   23   22
ENDBRANCH   24   23
ENDBRANCH   25   24
ENDBRANCH   26   25
ENDBRANCH   27   26
ENDBRANCH   29   27
ENDBRANCH   33   32
BRANCH   37   38
ATOM     38  C28 UNL A   1      37.722  32.393  30.285  1.00  0.00    +0.000 C 
ATOM     39  C29 UNL A   1      36.966  32.081  31.425  1.00  0.00    +0.000 C 
ATOM     40  F1  UNL A   1      37.476  31.280  32.375  1.00  0.00    +0.000 F 
ATOM     41  C30 UNL A   1      35.669  32.563  31.580  1.00  0.00    +0.000 C 
ATOM     42  F2  UNL A   1      34.951  32.215  32.657  1.00  0.00    +0.000 F 
ATOM     43  C31 UNL A   1      35.115  33.392  30.617  1.00  0.00    +0.000 C 
ATOM     44  F3  UNL A   1      33.870  33.863  30.772  1.00  0.00    +0.000 F 
ATOM     45  C32 UNL A   1      35.850  33.729  29.490  1.00  0.00    +0.000 C 
ATOM     46  F4  UNL A   1      35.321  34.542  28.565  1.00  0.00    +0.000 F 
ATOM     47  C33 UNL A   1      37.137  33.225  29.319  1.00  0.00    +0.000 C 
ATOM     48  F5  UNL A   1      37.818  33.560  28.212  1.00  0.00    +0.000 F 
ENDBRANCH   37   38
BRANCH   54   55
ATOM     65  F10 UNL A   1      44.460  33.799  33.596  1.00  0.00    +0.000 F 
ATOM     55  C39 UNL A   1      44.418  34.788  31.431  1.00  0.00    +0.000 C 
ATOM     56  C40 UNL A   1      44.709  35.912  30.645  1.00  0.00    +0.000 C 
ATOM     57  F6  UNL A   1      44.450  35.900  29.328  1.00  0.00    +0.000 F 
ATOM     58  C41 UNL A   1      45.304  37.040  31.203  1.00  0.00    +0.000 C 
ATOM     59  F7  UNL A   1      45.613  38.086  30.424  1.00  0.00    +0.000 F 
ATOM     60  C42 UNL A   1      45.587  37.080  32.560  1.00  0.00    +0.000 C 
ATOM     61  F8  UNL A   1      46.150  38.170  33.097  1.00  0.00    +0.000 F 
ATOM     62  C43 UNL A   1      45.292  35.985  33.360  1.00  0.00    +0.000 C 
ATOM     63  F9  UNL A   1      45.553  36.027  34.674  1.00  0.00    +0.000 F 
ATOM     64  C44 UNL A   1      44.725  34.845  32.799  1.00  0.00    +0.000 C 
ENDBRANCH   54   55
BRANCH   69   70
ATOM     70  C48 UNL A   1      46.932  28.873  28.742  1.00  0.00    +0.000 C 
ATOM     71  C49 UNL A   1      47.500  28.974  27.465  1.00  0.00    +0.000 C 
ATOM     72  F11 UNL A   1      46.797  29.518  26.461  1.00  0.00    +0.000 F 
ATOM     73  C50 UNL A   1      48.774  28.476  27.202  1.00  0.00    +0.000 C 
ATOM     74  F12 UNL A   1      49.273  28.540  25.961  1.00  0.00    +0.000 F 
ATOM     75  C51 UNL A   1      49.517  27.894  28.218  1.00  0.00    +0.000 C 
ATOM     76  F13 UNL A   1      50.742  27.414  27.965  1.00  0.00    +0.000 F 
ATOM     77  C52 UNL A   1      48.984  27.802  29.495  1.00  0.00    +0.000 C 
ATOM     78  F14 UNL A   1      49.703  27.253  30.483  1.00  0.00    +0.000 F 
ATOM     79  C53 UNL A   1      47.698  28.275  29.752  1.00  0.00    +0.000 C 
ATOM     80  F15 UNL A   1      47.202  28.158  30.993  1.00  0.00    +0.000 F 
ENDBRANCH   69   70
TORSDOF 23
ENDMDL
MODEL 5
REMARK VINA RESULT:      -9.5     45.465     50.982
ROOT
ATOM    129  H38 UNL A   1      15.776  47.262   0.943  1.00  0.00    +0.000 H 
ATOM    130  H39 UNL A   1      14.339  47.355   3.060  1.00  0.00    +0.000 H 
ATOM     33  C24 UNL A   1      14.202  49.946   4.239  1.00  0.00    +0.000 C 
ATOM     34  C25 UNL A   1      14.845  49.563   2.935  1.00  0.00    +0.000 C 
ATOM     35  N5  UNL A   1      15.470  50.316   2.065  1.00  0.00    +0.000 N 
ATOM     36  C26 UNL A   1      15.911  49.456   1.068  1.00  0.00    +0.000 C 
ATOM     37  C27 UNL A   1      16.560  49.758  -0.081  1.00  0.00    +0.000 C 
ATOM     49  C34 UNL A   1      16.916  51.093  -0.487  1.00  0.00    +0.000 C 
ATOM     50  C35 UNL A   1      17.522  51.505  -1.661  1.00  0.00    +0.000 C 
ATOM     51  C36 UNL A   1      17.704  52.890  -1.597  1.00  0.00    +0.000 C 
ATOM     52  C37 UNL A   1      17.166  53.347  -0.405  1.00  0.00    +0.000 C 
ATOM     53  N6  UNL A   1      16.692  52.232   0.269  1.00  0.00    +0.000 N 
ATOM     54  C38 UNL A   1      17.091  54.699   0.085  1.00  0.00    +0.000 C 
ATOM     66  C45 UNL A   1      16.549  55.065   1.272  1.00  0.00    +0.000 C 
ATOM     67  N7  UNL A   1      15.951  54.271   2.239  1.00  0.00    +0.000 N 
ATOM     68  C46 UNL A   1      15.593  55.085   3.203  1.00  0.00    +0.000 C 
ATOM     69  C47 UNL A   1      14.871  54.777   4.488  1.00  0.00    +0.000 C 
ATOM     81  C54 UNL A   1      14.488  53.512   4.743  1.00  0.00    +0.000 C 
ATOM     82  C55 UNL A   1      13.785  53.065   5.942  1.00  0.00    +0.000 C 
ATOM     83  C56 UNL A   1      13.625  51.733   5.885  1.00  0.00    +0.000 C 
ATOM     84  C57 UNL A   1      14.181  51.236   4.626  1.00  0.00    +0.000 C 
ATOM     85  N8  UNL A   1      14.655  52.365   4.004  1.00  0.00    +0.000 N 
ATOM     86  C58 UNL A   1      15.957  56.490   2.967  1.00  0.00    +0.000 C 
ATOM     87  C59 UNL A   1      16.498  56.428   1.758  1.00  0.00    +0.000 C 
ATOM     88  C60 UNL A   1      15.524  48.118   1.461  1.00  0.00    +0.000 C 
ATOM     89  C61 UNL A   1      14.804  48.137   2.574  1.00  0.00    +0.000 C 
ATOM    121  H30 UNL A   1      17.795  50.895  -2.448  1.00  0.00    +0.000 H 
ATOM    122  H31 UNL A   1      18.161  53.473  -2.316  1.00  0.00    +0.000 H 
ATOM    123  H32 UNL A   1      16.260  52.249   1.154  1.00  0.00    +0.000 H 
ATOM    124  H33 UNL A   1      13.463  53.675   6.709  1.00  0.00    +0.000 H 
ATOM    125  H34 UNL A   1      13.181  51.153   6.614  1.00  0.00    +0.000 H 
ATOM    126  H35 UNL A   1      15.074  52.355   3.113  1.00  0.00    +0.000 H 
ATOM    127  H36 UNL A   1      15.825  57.308   3.581  1.00  0.00    +0.000 H 
ATOM    128  H37 UNL A   1      16.841  57.247   1.232  1.00  0.00    +0.000 H 
ENDROOT
BRANCH   33   32
ATOM    131  H40 UNL A   1      11.674  49.085   4.436  1.00  0.00    +0.000 H 
ATOM    132  H41 UNL A   1      10.745  47.433   5.948  1.00  0.00    +0.000 H 
ATOM    119  H28 UNL A   1      14.588  46.656   7.471  1.00  0.00    +0.000 H 
ATOM    120  H29 UNL A   1      15.484  48.463   6.121  1.00  0.00    +0.000 H 
ATOM     90  C62 UNL A   1      12.292  48.584   5.095  1.00  0.00    +0.000 C 
ATOM     91  C63 UNL A   1      11.763  47.603   5.932  1.00  0.00    +0.000 C 
ATOM     29  C20 UNL A   1      12.611  46.852   6.748  1.00  0.00    +0.000 C 
ATOM     30  C21 UNL A   1      13.969  47.176   6.830  1.00  0.00    +0.000 C 
ATOM     31  C22 UNL A   1      14.488  48.208   6.041  1.00  0.00    +0.000 C 
ATOM     32  C23 UNL A   1      13.660  48.896   5.140  1.00  0.00    +0.000 C 
BRANCH   29   27
ATOM     27  C19 UNL A   1      12.098  45.718   7.549  1.00  0.00    +0.000 C 
ATOM     28  O5  UNL A   1      11.582  44.760   6.981  1.00  0.00    +0.000 O 
BRANCH   27   26
ATOM     26  N4  UNL A   1      12.177  45.747   8.920  1.00  0.00    +0.000 N 
ATOM    118  H27 UNL A   1      13.027  45.425   9.298  1.00  0.00    +0.000 H 
BRANCH   26   25
ATOM     25  C18 UNL A   1      11.191  46.182   9.899  1.00  0.00    +0.000 C 
ATOM    116  H25 UNL A   1      10.273  46.391   9.389  1.00  0.00    +0.000 H 
ATOM    117  H26 UNL A   1      11.077  45.395  10.614  1.00  0.00    +0.000 H 
BRANCH   25   24
ATOM    114  H23 UNL A   1      11.190  48.281  10.169  1.00  0.00    +0.000 H 
ATOM    115  H24 UNL A   1      11.287  47.300  11.664  1.00  0.00    +0.000 H 
ATOM     24  C17 UNL A   1      11.624  47.433  10.657  1.00  0.00    +0.000 C 
BRANCH   24   23
ATOM    113  H22 UNL A   1      13.571  46.918  10.102  1.00  0.00    +0.000 H 
ATOM     23  C16 UNL A   1      13.132  47.656  10.740  1.00  0.00    +0.000 C 
ATOM    112  H21 UNL A   1      13.421  47.570  11.767  1.00  0.00    +0.000 H 
BRANCH   23   22
ATOM    110  H19 UNL A   1      13.721  49.664  11.062  1.00  0.00    +0.000 H 
ATOM     22  C15 UNL A   1      13.632  49.006  10.222  1.00  0.00    +0.000 C 
ATOM    111  H20 UNL A   1      14.556  48.796   9.727  1.00  0.00    +0.000 H 
BRANCH   22   21
ATOM    109  H18 UNL A   1      11.960  49.018   8.950  1.00  0.00    +0.000 H 
ATOM    108  H17 UNL A   1      13.366  49.932   8.328  1.00  0.00    +0.000 H 
ATOM     21  C14 UNL A   1      12.753  49.701   9.174  1.00  0.00    +0.000 C 
BRANCH   21   20
ATOM    106  H15 UNL A   1      12.608  51.351  10.507  1.00  0.00    +0.000 H 
ATOM    107  H16 UNL A   1      12.127  51.687   8.832  1.00  0.00    +0.000 H 
ATOM     20  C13 UNL A   1      12.086  50.992   9.645  1.00  0.00    +0.000 C 
BRANCH   20   19
ATOM    105  H14 UNL A   1      10.040  50.657   9.271  1.00  0.00    +0.000 H 
ATOM     19  N3  UNL A   1      10.689  50.818   9.993  1.00  0.00    +0.000 N 
BRANCH   19    2
ATOM      1  O1  UNL A   1       9.043  50.808  11.595  1.00  0.00    +0.000 O 
ATOM      2  C1  UNL A   1      10.232  50.870  11.291  1.00  0.00    +0.000 C 
BRANCH    2    3
ATOM      3  C2  UNL A   1      11.314  51.091  12.358  1.00  0.00    +0.000 C 
ATOM     92  H1  UNL A   1      12.182  51.494  11.876  1.00  0.00    +0.000 H 
ATOM     93  H2  UNL A   1      11.497  50.140  12.812  1.00  0.00    +0.000 H 
BRANCH    3    4
ATOM      4  N1  UNL A   1      10.924  51.999  13.430  1.00  0.00    +0.000 N 
ATOM     94  H3  UNL A   1       9.962  52.199  13.488  1.00  0.00    +0.000 H 
BRANCH    4    5
ATOM      5  C3  UNL A   1      11.707  52.612  14.366  1.00  0.00    +0.000 C 
ATOM      6  O2  UNL A   1      12.056  51.958  15.350  1.00  0.00    +0.000 O 
BRANCH    5    7
ATOM     95  H4  UNL A   1      12.314  54.525  15.114  1.00  0.00    +0.000 H 
ATOM      7  C4  UNL A   1      12.167  54.055  14.163  1.00  0.00    +0.000 C 
ATOM     96  H5  UNL A   1      11.426  54.604  13.619  1.00  0.00    +0.000 H 
BRANCH    7    8
ATOM     97  H6  UNL A   1      14.241  54.061  13.960  1.00  0.00    +0.000 H 
ATOM      8  N2  UNL A   1      13.414  54.042  13.427  1.00  0.00    +0.000 N 
BRANCH    8    9
ATOM      9  C5  UNL A   1      13.562  54.004  12.077  1.00  0.00    +0.000 C 
ATOM     10  O3  UNL A   1      12.635  54.321  11.345  1.00  0.00    +0.000 O 
BRANCH    9   11
ATOM     11  O4  UNL A   1      14.795  53.621  11.675  1.00  0.00    +0.000 O 
BRANCH   11   12
ATOM     98  H7  UNL A   1      14.365  51.773  12.453  1.00  0.00    +0.000 H 
ATOM     99  H8  UNL A   1      15.875  52.506  12.999  1.00  0.00    +0.000 H 
ATOM     12  C6  UNL A   1      15.225  52.340  12.166  1.00  0.00    +0.000 C 
BRANCH   12   13
ATOM    100  H9  UNL A   1      15.095  52.531   9.471  1.00  0.00    +0.000 H 
ATOM    101  H10 UNL A   1      16.213  51.207   7.783  1.00  0.00    +0.000 H 
ATOM    102  H11 UNL A   1      17.808  49.502   8.440  1.00  0.00    +0.000 H 
ATOM    103  H12 UNL A   1      18.270  49.118  10.790  1.00  0.00    +0.000 H 
ATOM    104  H13 UNL A   1      17.105  50.398  12.488  1.00  0.00    +0.000 H 
ATOM     13  C7  UNL A   1      15.994  51.566  11.122  1.00  0.00    +0.000 C 
ATOM     14  C8  UNL A   1      15.758  51.795   9.757  1.00  0.00    +0.000 C 
ATOM     15  C9  UNL A   1      16.409  51.040   8.782  1.00  0.00    +0.000 C 
ATOM     16  C10 UNL A   1      17.322  50.061   9.160  1.00  0.00    +0.000 C 
ATOM     17  C11 UNL A   1      17.583  49.836  10.512  1.00  0.00    +0.000 C 
ATOM     18  C12 UNL A   1      16.916  50.579  11.489  1.00  0.00    +0.000 C 
ENDBRANCH   12   13
ENDBRANCH   11   12
ENDBRANCH    9   11
ENDBRANCH    8    9
ENDBRANCH    7    8
ENDBRANCH    5    7
ENDBRANCH    4    5
ENDBRANCH    3    4
ENDBRANCH    2    3
ENDBRANCH   19    2
ENDBRANCH   20   19
ENDBRANCH   21   20
ENDBRANCH   22   21
ENDBRANCH   23   22
ENDBRANCH   24   23
ENDBRANCH   25   24
ENDBRANCH   26   25
ENDBRANCH   27   26
ENDBRANCH   29   27
ENDBRANCH   33   32
BRANCH   37   38
ATOM     38  C28 UNL A   1      16.928  48.622  -0.991  1.00  0.00    +0.000 C 
ATOM     39  C29 UNL A   1      16.179  48.329  -2.140  1.00  0.00    +0.000 C 
ATOM     40  F1  UNL A   1      15.071  49.032  -2.422  1.00  0.00    +0.000 F 
ATOM     41  C30 UNL A   1      16.545  47.287  -2.989  1.00  0.00    +0.000 C 
ATOM     42  F2  UNL A   1      15.788  46.997  -4.056  1.00  0.00    +0.000 F 
ATOM     43  C31 UNL A   1      17.684  46.542  -2.725  1.00  0.00    +0.000 C 
ATOM     44  F3  UNL A   1      18.041  45.546  -3.548  1.00  0.00    +0.000 F 
ATOM     45  C32 UNL A   1      18.452  46.827  -1.605  1.00  0.00    +0.000 C 
ATOM     46  F4  UNL A   1      19.561  46.117  -1.357  1.00  0.00    +0.000 F 
ATOM     47  C33 UNL A   1      18.072  47.849  -0.739  1.00  0.00    +0.000 C 
ATOM     48  F5  UNL A   1      18.828  48.092   0.342  1.00  0.00    +0.000 F 
ENDBRANCH   37   38
BRANCH   54   55
ATOM     65  F10 UNL A   1      19.795  55.563   0.176  1.00  0.00    +0.000 F 
ATOM     55  C39 UNL A   1      17.632  55.789  -0.794  1.00  0.00    +0.000 C 
ATOM     56  C40 UNL A   1      16.816  56.475  -1.705  1.00  0.00    +0.000 C 
ATOM     57  F6  UNL A   1      15.529  56.124  -1.855  1.00  0.00    +0.000 F 
ATOM     58  C41 UNL A   1      17.331  57.500  -2.494  1.00  0.00    +0.000 C 
ATOM     59  F7  UNL A   1      16.545  58.112  -3.390  1.00  0.00    +0.000 F 
ATOM     60  C42 UNL A   1      18.659  57.881  -2.363  1.00  0.00    +0.000 C 
ATOM     61  F8  UNL A   1      19.150  58.874  -3.117  1.00  0.00    +0.000 F 
ATOM     62  C43 UNL A   1      19.479  57.227  -1.455  1.00  0.00    +0.000 C 
ATOM     63  F9  UNL A   1      20.758  57.603  -1.319  1.00  0.00    +0.000 F 
ATOM     64  C44 UNL A   1      18.974  56.183  -0.687  1.00  0.00    +0.000 C 
ENDBRANCH   54   55
BRANCH   69   70
ATOM     70  C48 UNL A   1      14.559  55.860   5.458  1.00  0.00    +0.000 C 
ATOM     71  C49 UNL A   1      15.575  56.458   6.217  1.00  0.00    +0.000 C 
ATOM     72  F11 UNL A   1      16.845  56.050   6.074  1.00  0.00    +0.000 F 
ATOM     73  C50 UNL A   1      15.286  57.446   7.156  1.00  0.00    +0.000 C 
ATOM     74  F12 UNL A   1      16.270  57.964   7.903  1.00  0.00    +0.000 F 
ATOM     75  C51 UNL A   1      13.980  57.875   7.334  1.00  0.00    +0.000 C 
ATOM     76  F13 UNL A   1      13.702  58.824   8.238  1.00  0.00    +0.000 F 
ATOM     77  C52 UNL A   1      12.961  57.313   6.580  1.00  0.00    +0.000 C 
ATOM     78  F14 UNL A   1      11.699  57.735   6.739  1.00  0.00    +0.000 F 
ATOM     79  C53 UNL A   1      13.246  56.306   5.660  1.00  0.00    +0.000 C 
ATOM     80  F15 UNL A   1      12.238  55.768   4.956  1.00  0.00    +0.000 F 
ENDBRANCH   69   70
TORSDOF 23
ENDMDL
MODEL 6
REMARK VINA RESULT:      -9.4     40.235     46.841
ROOT
ATOM    129  H38 UNL A   1      28.965  34.738  43.033  1.00  0.00    +0.000 H 
ATOM    130  H39 UNL A   1      26.514  34.843  43.764  1.00  0.00    +0.000 H 
ATOM     33  C24 UNL A   1      26.003  36.788  45.783  1.00  0.00    +0.000 C 
ATOM     34  C25 UNL A   1      27.290  36.549  45.042  1.00  0.00    +0.000 C 
ATOM     35  N5  UNL A   1      28.437  37.169  45.152  1.00  0.00    +0.000 N 
ATOM     36  C26 UNL A   1      29.302  36.522  44.278  1.00  0.00    +0.000 C 
ATOM     37  C27 UNL A   1      30.589  36.823  43.985  1.00  0.00    +0.000 C 
ATOM     49  C34 UNL A   1      31.315  37.927  44.557  1.00  0.00    +0.000 C 
ATOM     50  C35 UNL A   1      32.604  38.348  44.280  1.00  0.00    +0.000 C 
ATOM     51  C36 UNL A   1      32.896  39.437  45.107  1.00  0.00    +0.000 C 
ATOM     52  C37 UNL A   1      31.773  39.725  45.864  1.00  0.00    +0.000 C 
ATOM     53  N6  UNL A   1      30.812  38.786  45.521  1.00  0.00    +0.000 N 
ATOM     54  C38 UNL A   1      31.588  40.777  46.829  1.00  0.00    +0.000 C 
ATOM     66  C45 UNL A   1      30.451  40.992  47.536  1.00  0.00    +0.000 C 
ATOM     67  N7  UNL A   1      29.250  40.298  47.487  1.00  0.00    +0.000 N 
ATOM     68  C46 UNL A   1      28.463  40.879  48.360  1.00  0.00    +0.000 C 
ATOM     69  C47 UNL A   1      27.031  40.566  48.703  1.00  0.00    +0.000 C 
ATOM     81  C54 UNL A   1      26.396  39.576  48.047  1.00  0.00    +0.000 C 
ATOM     82  C55 UNL A   1      25.015  39.160  48.273  1.00  0.00    +0.000 C 
ATOM     83  C56 UNL A   1      24.741  38.104  47.490  1.00  0.00    +0.000 C 
ATOM     84  C57 UNL A   1      25.917  37.793  46.676  1.00  0.00    +0.000 C 
ATOM     85  N8  UNL A   1      26.844  38.730  47.062  1.00  0.00    +0.000 N 
ATOM     86  C58 UNL A   1      29.092  41.991  49.087  1.00  0.00    +0.000 C 
ATOM     87  C59 UNL A   1      30.287  42.044  48.517  1.00  0.00    +0.000 C 
ATOM     88  C60 UNL A   1      28.560  35.433  43.678  1.00  0.00    +0.000 C 
ATOM     89  C61 UNL A   1      27.293  35.448  44.067  1.00  0.00    +0.000 C 
ATOM    121  H30 UNL A   1      33.241  37.929  43.583  1.00  0.00    +0.000 H 
ATOM    122  H31 UNL A   1      33.796  39.941  45.146  1.00  0.00    +0.000 H 
ATOM    123  H32 UNL A   1      29.907  38.738  45.906  1.00  0.00    +0.000 H 
ATOM    124  H33 UNL A   1      24.356  39.606  48.930  1.00  0.00    +0.000 H 
ATOM    125  H34 UNL A   1      23.845  37.595  47.465  1.00  0.00    +0.000 H 
ATOM    126  H35 UNL A   1      27.746  38.790  46.669  1.00  0.00    +0.000 H 
ATOM    127  H36 UNL A   1      28.705  42.575  49.843  1.00  0.00    +0.000 H 
ATOM    128  H37 UNL A   1      31.010  42.745  48.744  1.00  0.00    +0.000 H 
ENDROOT
BRANCH   33   32
ATOM    131  H40 UNL A   1      23.877  37.118  44.188  1.00  0.00    +0.000 H 
ATOM    132  H41 UNL A   1      21.946  35.679  43.914  1.00  0.00    +0.000 H 
ATOM    119  H28 UNL A   1      23.660  32.868  46.531  1.00  0.00    +0.000 H 
ATOM    120  H29 UNL A   1      25.485  34.404  46.981  1.00  0.00    +0.000 H 
ATOM     90  C62 UNL A   1      23.824  36.224  44.703  1.00  0.00    +0.000 C 
ATOM     91  C63 UNL A   1      22.734  35.378  44.509  1.00  0.00    +0.000 C 
ATOM     29  C20 UNL A   1      22.708  34.124  45.123  1.00  0.00    +0.000 C 
ATOM     30  C21 UNL A   1      23.705  33.773  46.038  1.00  0.00    +0.000 C 
ATOM     31  C22 UNL A   1      24.763  34.652  46.285  1.00  0.00    +0.000 C 
ATOM     32  C23 UNL A   1      24.851  35.870  45.592  1.00  0.00    +0.000 C 
BRANCH   29   27
ATOM     27  C19 UNL A   1      21.630  33.151  44.834  1.00  0.00    +0.000 C 
ATOM     28  O5  UNL A   1      21.699  32.016  45.297  1.00  0.00    +0.000 O 
BRANCH   27   26
ATOM     26  N4  UNL A   1      20.571  33.507  44.035  1.00  0.00    +0.000 N 
ATOM    118  H27 UNL A   1      20.805  33.731  43.106  1.00  0.00    +0.000 H 
BRANCH   26   25
ATOM     25  C18 UNL A   1      19.154  33.601  44.356  1.00  0.00    +0.000 C 
ATOM    116  H25 UNL A   1      18.977  33.083  45.276  1.00  0.00    +0.000 H 
ATOM    117  H26 UNL A   1      18.909  34.640  44.432  1.00  0.00    +0.000 H 
BRANCH   25   24
ATOM    114  H23 UNL A   1      17.419  33.641  43.144  1.00  0.00    +0.000 H 
ATOM    115  H24 UNL A   1      18.874  32.909  42.402  1.00  0.00    +0.000 H 
ATOM     24  C17 UNL A   1      18.263  32.996  43.276  1.00  0.00    +0.000 C 
BRANCH   24   23
ATOM    113  H22 UNL A   1      17.282  31.255  42.666  1.00  0.00    +0.000 H 
ATOM     23  C16 UNL A   1      17.742  31.592  43.571  1.00  0.00    +0.000 C 
ATOM    112  H21 UNL A   1      17.069  31.658  44.401  1.00  0.00    +0.000 H 
BRANCH   23   22
ATOM    110  H19 UNL A   1      19.376  30.361  43.024  1.00  0.00    +0.000 H 
ATOM     22  C15 UNL A   1      18.807  30.548  43.911  1.00  0.00    +0.000 C 
ATOM    111  H20 UNL A   1      19.371  30.968  44.717  1.00  0.00    +0.000 H 
BRANCH   22   21
ATOM    109  H18 UNL A   1      17.523  29.423  45.136  1.00  0.00    +0.000 H 
ATOM    108  H17 UNL A   1      19.121  28.671  44.858  1.00  0.00    +0.000 H 
ATOM     21  C14 UNL A   1      18.295  29.198  44.430  1.00  0.00    +0.000 C 
BRANCH   21   20
ATOM    106  H15 UNL A   1      16.796  28.797  42.975  1.00  0.00    +0.000 H 
ATOM    107  H16 UNL A   1      18.397  28.117  42.619  1.00  0.00    +0.000 H 
ATOM     20  C13 UNL A   1      17.657  28.299  43.370  1.00  0.00    +0.000 C 
BRANCH   20   19
ATOM    105  H14 UNL A   1      17.921  26.301  43.985  1.00  0.00    +0.000 H 
ATOM     19  N3  UNL A   1      17.244  27.010  43.890  1.00  0.00    +0.000 N 
BRANCH   19    2
ATOM      1  O1  UNL A   1      15.541  26.783  45.413  1.00  0.00    +0.000 O 
ATOM      2  C1  UNL A   1      15.945  26.734  44.254  1.00  0.00    +0.000 C 
BRANCH    2    3
ATOM      3  C2  UNL A   1      15.027  26.279  43.111  1.00  0.00    +0.000 C 
ATOM     92  H1  UNL A   1      15.468  26.587  42.185  1.00  0.00    +0.000 H 
ATOM     93  H2  UNL A   1      14.073  26.729  43.285  1.00  0.00    +0.000 H 
BRANCH    3    4
ATOM      4  N1  UNL A   1      14.807  24.838  43.055  1.00  0.00    +0.000 N 
ATOM     94  H3  UNL A   1      14.875  24.365  43.915  1.00  0.00    +0.000 H 
BRANCH    4    5
ATOM      5  C3  UNL A   1      14.521  24.053  41.975  1.00  0.00    +0.000 C 
ATOM      6  O2  UNL A   1      14.415  24.594  40.874  1.00  0.00    +0.000 O 
BRANCH    5    7
ATOM     95  H4  UNL A   1      14.482  22.274  43.168  1.00  0.00    +0.000 H 
ATOM      7  C4  UNL A   1      14.382  22.539  42.136  1.00  0.00    +0.000 C 
ATOM     96  H5  UNL A   1      15.144  22.039  41.576  1.00  0.00    +0.000 H 
BRANCH    7    8
ATOM     97  H6  UNL A   1      12.309  22.684  41.961  1.00  0.00    +0.000 H 
ATOM      8  N2  UNL A   1      13.073  22.144  41.656  1.00  0.00    +0.000 N 
BRANCH    8    9
ATOM      9  C5  UNL A   1      12.790  21.105  40.827  1.00  0.00    +0.000 C 
ATOM     10  O3  UNL A   1      12.536  20.001  41.286  1.00  0.00    +0.000 O 
BRANCH    9   11
ATOM     11  O4  UNL A   1      12.800  21.437  39.516  1.00  0.00    +0.000 O 
BRANCH   11   12
ATOM     98  H7  UNL A   1      13.686  20.175  38.165  1.00  0.00    +0.000 H 
ATOM     99  H8  UNL A   1      14.711  20.722  39.494  1.00  0.00    +0.000 H 
ATOM     12  C6  UNL A   1      13.959  21.001  38.786  1.00  0.00    +0.000 C 
BRANCH   12   13
ATOM    100  H9  UNL A   1      16.120  20.942  37.160  1.00  0.00    +0.000 H 
ATOM    101  H10 UNL A   1      17.119  22.727  35.870  1.00  0.00    +0.000 H 
ATOM    102  H11 UNL A   1      16.079  24.919  35.825  1.00  0.00    +0.000 H 
ATOM    103  H12 UNL A   1      14.046  25.320  37.085  1.00  0.00    +0.000 H 
ATOM    104  H13 UNL A   1      13.076  23.552  38.432  1.00  0.00    +0.000 H 
ATOM     13  C7  UNL A   1      14.523  22.100  37.917  1.00  0.00    +0.000 C 
ATOM     14  C8  UNL A   1      15.684  21.876  37.160  1.00  0.00    +0.000 C 
ATOM     15  C9  UNL A   1      16.255  22.901  36.408  1.00  0.00    +0.000 C 
ATOM     16  C10 UNL A   1      15.660  24.158  36.384  1.00  0.00    +0.000 C 
ATOM     17  C11 UNL A   1      14.494  24.390  37.114  1.00  0.00    +0.000 C 
ATOM     18  C12 UNL A   1      13.932  23.369  37.884  1.00  0.00    +0.000 C 
ENDBRANCH   12   13
ENDBRANCH   11   12
ENDBRANCH    9   11
ENDBRANCH    8    9
ENDBRANCH    7    8
ENDBRANCH    5    7
ENDBRANCH    4    5
ENDBRANCH    3    4
ENDBRANCH    2    3
ENDBRANCH   19    2
ENDBRANCH   20   19
ENDBRANCH   21   20
ENDBRANCH   22   21
ENDBRANCH   23   22
ENDBRANCH   24   23
ENDBRANCH   25   24
ENDBRANCH   26   25
ENDBRANCH   27   26
ENDBRANCH   29   27
ENDBRANCH   33   32
BRANCH   37   38
ATOM     38  C28 UNL A   1      31.300  35.948  42.995  1.00  0.00    +0.000 C 
ATOM     39  C29 UNL A   1      31.885  34.731  43.377  1.00  0.00    +0.000 C 
ATOM     40  F1  UNL A   1      31.868  34.348  44.663  1.00  0.00    +0.000 F 
ATOM     41  C30 UNL A   1      32.523  33.917  42.444  1.00  0.00    +0.000 C 
ATOM     42  F2  UNL A   1      33.112  32.781  42.840  1.00  0.00    +0.000 F 
ATOM     43  C31 UNL A   1      32.557  34.286  41.108  1.00  0.00    +0.000 C 
ATOM     44  F3  UNL A   1      33.162  33.497  40.209  1.00  0.00    +0.000 F 
ATOM     45  C32 UNL A   1      31.969  35.475  40.704  1.00  0.00    +0.000 C 
ATOM     46  F4  UNL A   1      31.990  35.826  39.410  1.00  0.00    +0.000 F 
ATOM     47  C33 UNL A   1      31.357  36.305  41.639  1.00  0.00    +0.000 C 
ATOM     48  F5  UNL A   1      30.807  37.455  41.219  1.00  0.00    +0.000 F 
ENDBRANCH   37   38
BRANCH   54   55
ATOM     65  F10 UNL A   1      31.639  43.417  45.785  1.00  0.00    +0.000 F 
ATOM     55  C39 UNL A   1      32.730  41.725  47.055  1.00  0.00    +0.000 C 
ATOM     56  C40 UNL A   1      33.868  41.348  47.782  1.00  0.00    +0.000 C 
ATOM     57  F6  UNL A   1      33.935  40.134  48.350  1.00  0.00    +0.000 F 
ATOM     58  C41 UNL A   1      34.928  42.234  47.960  1.00  0.00    +0.000 C 
ATOM     59  F7  UNL A   1      35.987  41.868  48.695  1.00  0.00    +0.000 F 
ATOM     60  C42 UNL A   1      34.885  43.496  47.387  1.00  0.00    +0.000 C 
ATOM     61  F8  UNL A   1      35.910  44.344  47.552  1.00  0.00    +0.000 F 
ATOM     62  C43 UNL A   1      33.775  43.883  46.650  1.00  0.00    +0.000 C 
ATOM     63  F9  UNL A   1      33.738  45.098  46.085  1.00  0.00    +0.000 F 
ATOM     64  C44 UNL A   1      32.702  43.011  46.495  1.00  0.00    +0.000 C 
ENDBRANCH   54   55
BRANCH   69   70
ATOM     70  C48 UNL A   1      26.312  41.354  49.738  1.00  0.00    +0.000 C 
ATOM     71  C49 UNL A   1      26.308  40.944  51.079  1.00  0.00    +0.000 C 
ATOM     72  F11 UNL A   1      26.953  39.824  51.437  1.00  0.00    +0.000 F 
ATOM     73  C50 UNL A   1      25.604  41.655  52.048  1.00  0.00    +0.000 C 
ATOM     74  F12 UNL A   1      25.576  41.213  53.312  1.00  0.00    +0.000 F 
ATOM     75  C51 UNL A   1      24.915  42.808  51.702  1.00  0.00    +0.000 C 
ATOM     76  F13 UNL A   1      24.238  43.491  52.634  1.00  0.00    +0.000 F 
ATOM     77  C52 UNL A   1      24.923  43.245  50.386  1.00  0.00    +0.000 C 
ATOM     78  F14 UNL A   1      24.270  44.366  50.050  1.00  0.00    +0.000 F 
ATOM     79  C53 UNL A   1      25.603  42.518  49.411  1.00  0.00    +0.000 C 
ATOM     80  F15 UNL A   1      25.579  42.956  48.143  1.00  0.00    +0.000 F 
ENDBRANCH   69   70
TORSDOF 23
ENDMDL
MODEL 7
REMARK VINA RESULT:      -9.3     40.072     46.743
ROOT
ATOM    129  H38 UNL A   1      29.044  34.705  43.157  1.00  0.00    +0.000 H 
ATOM    130  H39 UNL A   1      26.588  34.925  43.844  1.00  0.00    +0.000 H 
ATOM     33  C24 UNL A   1      26.119  36.958  45.786  1.00  0.00    +0.000 C 
ATOM     34  C25 UNL A   1      27.407  36.646  45.074  1.00  0.00    +0.000 C 
ATOM     35  N5  UNL A   1      28.575  37.227  45.181  1.00  0.00    +0.000 N 
ATOM     36  C26 UNL A   1      29.428  36.518  44.344  1.00  0.00    +0.000 C 
ATOM     37  C27 UNL A   1      30.729  36.762  44.062  1.00  0.00    +0.000 C 
ATOM     49  C34 UNL A   1      31.487  37.858  44.607  1.00  0.00    +0.000 C 
ATOM     50  C35 UNL A   1      32.795  38.222  44.336  1.00  0.00    +0.000 C 
ATOM     51  C36 UNL A   1      33.114  39.328  45.129  1.00  0.00    +0.000 C 
ATOM     52  C37 UNL A   1      31.991  39.683  45.858  1.00  0.00    +0.000 C 
ATOM     53  N6  UNL A   1      31.002  38.769  45.532  1.00  0.00    +0.000 N 
ATOM     54  C38 UNL A   1      31.831  40.775  46.783  1.00  0.00    +0.000 C 
ATOM     66  C45 UNL A   1      30.693  41.056  47.463  1.00  0.00    +0.000 C 
ATOM     67  N7  UNL A   1      29.468  40.405  47.419  1.00  0.00    +0.000 N 
ATOM     68  C46 UNL A   1      28.689  41.044  48.258  1.00  0.00    +0.000 C 
ATOM     69  C47 UNL A   1      27.242  40.796  48.589  1.00  0.00    +0.000 C 
ATOM     81  C54 UNL A   1      26.581  39.807  47.957  1.00  0.00    +0.000 C 
ATOM     82  C55 UNL A   1      25.182  39.450  48.175  1.00  0.00    +0.000 C 
ATOM     83  C56 UNL A   1      24.881  38.379  47.424  1.00  0.00    +0.000 C 
ATOM     84  C57 UNL A   1      26.057  37.996  46.642  1.00  0.00    +0.000 C 
ATOM     85  N8  UNL A   1      27.012  38.912  47.010  1.00  0.00    +0.000 N 
ATOM     86  C58 UNL A   1      29.348  42.158  48.956  1.00  0.00    +0.000 C 
ATOM     87  C59 UNL A   1      30.553  42.147  48.404  1.00  0.00    +0.000 C 
ATOM     88  C60 UNL A   1      28.655  35.437  43.770  1.00  0.00    +0.000 C 
ATOM     89  C61 UNL A   1      27.384  35.511  44.138  1.00  0.00    +0.000 C 
ATOM    121  H30 UNL A   1      33.426  37.756  43.665  1.00  0.00    +0.000 H 
ATOM    122  H31 UNL A   1      34.032  39.800  45.166  1.00  0.00    +0.000 H 
ATOM    123  H32 UNL A   1      30.090  38.767  45.904  1.00  0.00    +0.000 H 
ATOM    124  H33 UNL A   1      24.530  39.943  48.805  1.00  0.00    +0.000 H 
ATOM    125  H34 UNL A   1      23.967  37.901  47.403  1.00  0.00    +0.000 H 
ATOM    126  H35 UNL A   1      27.921  38.925  46.630  1.00  0.00    +0.000 H 
ATOM    127  H36 UNL A   1      28.972  42.782  49.686  1.00  0.00    +0.000 H 
ATOM    128  H37 UNL A   1      31.298  42.829  48.618  1.00  0.00    +0.000 H 
ENDROOT
BRANCH   33   32
ATOM    131  H40 UNL A   1      24.124  37.209  44.016  1.00  0.00    +0.000 H 
ATOM    132  H41 UNL A   1      22.144  35.835  43.754  1.00  0.00    +0.000 H 
ATOM    119  H28 UNL A   1      23.533  33.246  46.763  1.00  0.00    +0.000 H 
ATOM    120  H29 UNL A   1      25.400  34.740  47.182  1.00  0.00    +0.000 H 
ATOM     90  C62 UNL A   1      23.991  36.378  44.615  1.00  0.00    +0.000 C 
ATOM     91  C63 UNL A   1      22.874  35.565  44.432  1.00  0.00    +0.000 C 
ATOM     29  C20 UNL A   1      22.743  34.386  45.168  1.00  0.00    +0.000 C 
ATOM     30  C21 UNL A   1      23.657  34.091  46.184  1.00  0.00    +0.000 C 
ATOM     31  C22 UNL A   1      24.740  34.944  46.415  1.00  0.00    +0.000 C 
ATOM     32  C23 UNL A   1      24.936  36.076  45.607  1.00  0.00    +0.000 C 
BRANCH   29   27
ATOM     27  C19 UNL A   1      21.638  33.437  44.905  1.00  0.00    +0.000 C 
ATOM     28  O5  UNL A   1      20.672  33.801  44.241  1.00  0.00    +0.000 O 
BRANCH   27   26
ATOM     26  N4  UNL A   1      21.680  32.164  45.420  1.00  0.00    +0.000 N 
ATOM    118  H27 UNL A   1      21.524  32.099  46.389  1.00  0.00    +0.000 H 
BRANCH   26   25
ATOM     25  C18 UNL A   1      21.919  30.896  44.746  1.00  0.00    +0.000 C 
ATOM    116  H25 UNL A   1      21.702  31.016  43.704  1.00  0.00    +0.000 H 
ATOM    117  H26 UNL A   1      22.943  30.632  44.910  1.00  0.00    +0.000 H 
BRANCH   25   24
ATOM    114  H23 UNL A   1      21.578  28.843  45.130  1.00  0.00    +0.000 H 
ATOM    115  H24 UNL A   1      20.902  29.986  46.331  1.00  0.00    +0.000 H 
ATOM     24  C17 UNL A   1      21.058  29.763  45.296  1.00  0.00    +0.000 C 
BRANCH   24   23
ATOM    113  H22 UNL A   1      19.163  28.885  45.240  1.00  0.00    +0.000 H 
ATOM     23  C16 UNL A   1      19.669  29.639  44.675  1.00  0.00    +0.000 C 
ATOM    112  H21 UNL A   1      19.792  29.396  43.639  1.00  0.00    +0.000 H 
BRANCH   23   22
ATOM    110  H19 UNL A   1      18.530  31.031  45.793  1.00  0.00    +0.000 H 
ATOM     22  C15 UNL A   1      18.789  30.887  44.764  1.00  0.00    +0.000 C 
ATOM    111  H20 UNL A   1      19.372  31.677  44.341  1.00  0.00    +0.000 H 
BRANCH   22   21
ATOM    109  H18 UNL A   1      17.773  30.720  42.933  1.00  0.00    +0.000 H 
ATOM    108  H17 UNL A   1      16.969  31.780  44.127  1.00  0.00    +0.000 H 
ATOM     21  C14 UNL A   1      17.486  30.860  43.954  1.00  0.00    +0.000 C 
BRANCH   21   20
ATOM    106  H15 UNL A   1      17.105  28.805  44.343  1.00  0.00    +0.000 H 
ATOM    107  H16 UNL A   1      16.076  29.946  45.230  1.00  0.00    +0.000 H 
ATOM     20  C13 UNL A   1      16.538  29.711  44.294  1.00  0.00    +0.000 C 
BRANCH   20   19
ATOM    105  H14 UNL A   1      14.564  29.812  43.566  1.00  0.00    +0.000 H 
ATOM     19  N3  UNL A   1      15.478  29.539  43.320  1.00  0.00    +0.000 N 
BRANCH   19    2
ATOM      1  O1  UNL A   1      16.092  29.669  41.112  1.00  0.00    +0.000 O 
ATOM      2  C1  UNL A   1      15.694  29.009  42.068  1.00  0.00    +0.000 C 
BRANCH    2    3
ATOM      3  C2  UNL A   1      15.330  27.525  41.914  1.00  0.00    +0.000 C 
ATOM     92  H1  UNL A   1      14.474  27.325  42.525  1.00  0.00    +0.000 H 
ATOM     93  H2  UNL A   1      16.192  26.965  42.211  1.00  0.00    +0.000 H 
BRANCH    3    4
ATOM      4  N1  UNL A   1      15.019  27.123  40.547  1.00  0.00    +0.000 N 
ATOM     94  H3  UNL A   1      15.308  27.749  39.844  1.00  0.00    +0.000 H 
BRANCH    4    5
ATOM      5  C3  UNL A   1      14.384  25.998  40.105  1.00  0.00    +0.000 C 
ATOM      6  O2  UNL A   1      13.549  25.474  40.843  1.00  0.00    +0.000 O 
BRANCH    5    7
ATOM     95  H4  UNL A   1      15.310  26.119  38.178  1.00  0.00    +0.000 H 
ATOM      7  C4  UNL A   1      14.678  25.441  38.712  1.00  0.00    +0.000 C 
ATOM     96  H5  UNL A   1      13.766  25.318  38.166  1.00  0.00    +0.000 H 
BRANCH    7    8
ATOM     97  H6  UNL A   1      16.188  24.162  39.366  1.00  0.00    +0.000 H 
ATOM      8  N2  UNL A   1      15.345  24.164  38.858  1.00  0.00    +0.000 N 
BRANCH    8    9
ATOM      9  C5  UNL A   1      14.928  22.967  38.368  1.00  0.00    +0.000 C 
ATOM     10  O3  UNL A   1      15.688  22.270  37.711  1.00  0.00    +0.000 O 
BRANCH    9   11
ATOM     11  O4  UNL A   1      13.656  22.656  38.704  1.00  0.00    +0.000 O 
BRANCH   11   12
ATOM     98  H7  UNL A   1      12.775  22.881  40.542  1.00  0.00    +0.000 H 
ATOM     99  H8  UNL A   1      14.424  22.251  40.550  1.00  0.00    +0.000 H 
ATOM     12  C6  UNL A   1      13.472  22.226  40.063  1.00  0.00    +0.000 C 
BRANCH   12   13
ATOM    100  H9  UNL A   1      12.329  20.951  42.157  1.00  0.00    +0.000 H 
ATOM    101  H10 UNL A   1      11.608  18.649  42.345  1.00  0.00    +0.000 H 
ATOM    102  H11 UNL A   1      11.749  17.175  40.424  1.00  0.00    +0.000 H 
ATOM    103  H12 UNL A   1      12.626  18.007  38.321  1.00  0.00    +0.000 H 
ATOM    104  H13 UNL A   1      13.411  20.295  38.146  1.00  0.00    +0.000 H 
ATOM     13  C7  UNL A   1      12.945  20.813  40.141  1.00  0.00    +0.000 C 
ATOM     14  C8  UNL A   1      12.409  20.324  41.343  1.00  0.00    +0.000 C 
ATOM     15  C9  UNL A   1      11.984  19.000  41.450  1.00  0.00    +0.000 C 
ATOM     16  C10 UNL A   1      12.067  18.155  40.348  1.00  0.00    +0.000 C 
ATOM     17  C11 UNL A   1      12.578  18.632  39.141  1.00  0.00    +0.000 C 
ATOM     18  C12 UNL A   1      13.022  19.952  39.039  1.00  0.00    +0.000 C 
ENDBRANCH   12   13
ENDBRANCH   11   12
ENDBRANCH    9   11
ENDBRANCH    8    9
ENDBRANCH    7    8
ENDBRANCH    5    7
ENDBRANCH    4    5
ENDBRANCH    3    4
ENDBRANCH    2    3
ENDBRANCH   19    2
ENDBRANCH   20   19
ENDBRANCH   21   20
ENDBRANCH   22   21
ENDBRANCH   23   22
ENDBRANCH   24   23
ENDBRANCH   25   24
ENDBRANCH   26   25
ENDBRANCH   27   26
ENDBRANCH   29   27
ENDBRANCH   33   32
BRANCH   37   38
ATOM     38  C28 UNL A   1      31.423  35.827  43.115  1.00  0.00    +0.000 C 
ATOM     39  C29 UNL A   1      31.498  36.096  41.740  1.00  0.00    +0.000 C 
ATOM     40  F1  UNL A   1      30.894  37.181  41.230  1.00  0.00    +0.000 F 
ATOM     41  C30 UNL A   1      32.164  35.231  40.875  1.00  0.00    +0.000 C 
ATOM     42  F2  UNL A   1      32.184  35.487  39.559  1.00  0.00    +0.000 F 
ATOM     43  C31 UNL A   1      32.797  34.102  41.371  1.00  0.00    +0.000 C 
ATOM     44  F3  UNL A   1      33.447  33.276  40.539  1.00  0.00    +0.000 F 
ATOM     45  C32 UNL A   1      32.753  33.826  42.730  1.00  0.00    +0.000 C 
ATOM     46  F4  UNL A   1      33.376  32.742  43.212  1.00  0.00    +0.000 F 
ATOM     47  C33 UNL A   1      32.062  34.673  43.593  1.00  0.00    +0.000 C 
ATOM     48  F5  UNL A   1      32.027  34.372  44.900  1.00  0.00    +0.000 F 
ENDBRANCH   37   38
BRANCH   54   55
ATOM     65  F10 UNL A   1      32.137  43.245  45.417  1.00  0.00    +0.000 F 
ATOM     55  C39 UNL A   1      33.004  41.687  46.994  1.00  0.00    +0.000 C 
ATOM     56  C40 UNL A   1      34.047  41.357  47.870  1.00  0.00    +0.000 C 
ATOM     57  F6  UNL A   1      33.989  40.228  48.594  1.00  0.00    +0.000 F 
ATOM     58  C41 UNL A   1      35.139  42.206  48.034  1.00  0.00    +0.000 C 
ATOM     59  F7  UNL A   1      36.104  41.891  48.910  1.00  0.00    +0.000 F 
ATOM     60  C42 UNL A   1      35.224  43.381  47.302  1.00  0.00    +0.000 C 
ATOM     61  F8  UNL A   1      36.280  44.192  47.455  1.00  0.00    +0.000 F 
ATOM     62  C43 UNL A   1      34.211  43.719  46.417  1.00  0.00    +0.000 C 
ATOM     63  F9  UNL A   1      34.298  44.848  45.700  1.00  0.00    +0.000 F 
ATOM     64  C44 UNL A   1      33.105  42.887  46.273  1.00  0.00    +0.000 C 
ENDBRANCH   54   55
BRANCH   69   70
ATOM     70  C48 UNL A   1      26.537  41.646  49.584  1.00  0.00    +0.000 C 
ATOM     71  C49 UNL A   1      26.508  41.290  50.940  1.00  0.00    +0.000 C 
ATOM     72  F11 UNL A   1      27.115  40.166  51.349  1.00  0.00    +0.000 F 
ATOM     73  C50 UNL A   1      25.817  42.060  51.873  1.00  0.00    +0.000 C 
ATOM     74  F12 UNL A   1      25.763  41.669  53.152  1.00  0.00    +0.000 F 
ATOM     75  C51 UNL A   1      25.166  43.218  51.473  1.00  0.00    +0.000 C 
ATOM     76  F13 UNL A   1      24.502  43.958  52.370  1.00  0.00    +0.000 F 
ATOM     77  C52 UNL A   1      25.200  43.602  50.141  1.00  0.00    +0.000 C 
ATOM     78  F14 UNL A   1      24.585  44.728  49.754  1.00  0.00    +0.000 F 
ATOM     79  C53 UNL A   1      25.868  42.817  49.203  1.00  0.00    +0.000 C 
ATOM     80  F15 UNL A   1      25.869  43.205  47.919  1.00  0.00    +0.000 F 
ENDBRANCH   69   70
TORSDOF 23
ENDMDL
MODEL 8
REMARK VINA RESULT:      -9.3     20.180     24.251
ROOT
ATOM    129  H38 UNL A   1      36.932  30.151  28.855  1.00  0.00    +0.000 H 
ATOM    130  H39 UNL A   1      37.954  27.845  28.417  1.00  0.00    +0.000 H 
ATOM     33  C24 UNL A   1      40.785  27.766  28.739  1.00  0.00    +0.000 C 
ATOM     34  C25 UNL A   1      39.858  28.912  29.037  1.00  0.00    +0.000 C 
ATOM     35  N5  UNL A   1      40.134  30.103  29.505  1.00  0.00    +0.000 N 
ATOM     36  C26 UNL A   1      38.925  30.785  29.543  1.00  0.00    +0.000 C 
ATOM     37  C27 UNL A   1      38.673  32.033  30.003  1.00  0.00    +0.000 C 
ATOM     49  C34 UNL A   1      39.668  32.908  30.565  1.00  0.00    +0.000 C 
ATOM     50  C35 UNL A   1      39.500  34.168  31.111  1.00  0.00    +0.000 C 
ATOM     51  C36 UNL A   1      40.756  34.651  31.493  1.00  0.00    +0.000 C 
ATOM     52  C37 UNL A   1      41.699  33.672  31.230  1.00  0.00    +0.000 C 
ATOM     53  N6  UNL A   1      41.019  32.610  30.655  1.00  0.00    +0.000 N 
ATOM     54  C38 UNL A   1      43.116  33.701  31.484  1.00  0.00    +0.000 C 
ATOM     66  C45 UNL A   1      43.978  32.697  31.192  1.00  0.00    +0.000 C 
ATOM     67  N7  UNL A   1      43.713  31.457  30.627  1.00  0.00    +0.000 N 
ATOM     68  C46 UNL A   1      44.870  30.846  30.540  1.00  0.00    +0.000 C 
ATOM     69  C47 UNL A   1      45.178  29.462  30.035  1.00  0.00    +0.000 C 
ATOM     81  C54 UNL A   1      44.170  28.673  29.618  1.00  0.00    +0.000 C 
ATOM     82  C55 UNL A   1      44.315  27.314  29.103  1.00  0.00    +0.000 C 
ATOM     83  C56 UNL A   1      43.111  26.858  28.722  1.00  0.00    +0.000 C 
ATOM     84  C57 UNL A   1      42.101  27.880  29.002  1.00  0.00    +0.000 C 
ATOM     85  N8  UNL A   1      42.819  28.914  29.550  1.00  0.00    +0.000 N 
ATOM     86  C58 UNL A   1      46.008  31.649  31.011  1.00  0.00    +0.000 C 
ATOM     87  C59 UNL A   1      45.404  32.749  31.437  1.00  0.00    +0.000 C 
ATOM     88  C60 UNL A   1      37.918  29.892  29.010  1.00  0.00    +0.000 C 
ATOM     89  C61 UNL A   1      38.432  28.699  28.745  1.00  0.00    +0.000 C 
ATOM    121  H30 UNL A   1      38.603  34.667  31.217  1.00  0.00    +0.000 H 
ATOM    122  H31 UNL A   1      40.947  35.579  31.902  1.00  0.00    +0.000 H 
ATOM    123  H32 UNL A   1      41.435  31.769  30.354  1.00  0.00    +0.000 H 
ATOM    124  H33 UNL A   1      45.202  26.789  29.042  1.00  0.00    +0.000 H 
ATOM    125  H34 UNL A   1      42.927  25.935  28.300  1.00  0.00    +0.000 H 
ATOM    126  H35 UNL A   1      42.405  29.751  29.864  1.00  0.00    +0.000 H 
ATOM    127  H36 UNL A   1      47.013  31.416  31.010  1.00  0.00    +0.000 H 
ATOM    128  H37 UNL A   1      45.889  33.543  31.885  1.00  0.00    +0.000 H 
ENDROOT
BRANCH   33   32
ATOM    131  H40 UNL A   1      41.192  26.942  26.224  1.00  0.00    +0.000 H 
ATOM    132  H41 UNL A   1      40.295  24.990  25.101  1.00  0.00    +0.000 H 
ATOM    119  H28 UNL A   1      38.449  23.771  28.678  1.00  0.00    +0.000 H 
ATOM    120  H29 UNL A   1      39.157  25.835  29.742  1.00  0.00    +0.000 H 
ATOM     90  C62 UNL A   1      40.593  26.279  26.742  1.00  0.00    +0.000 C 
ATOM     91  C63 UNL A   1      40.115  25.135  26.107  1.00  0.00    +0.000 C 
ATOM     29  C20 UNL A   1      39.391  24.186  26.832  1.00  0.00    +0.000 C 
ATOM     30  C21 UNL A   1      39.027  24.448  28.157  1.00  0.00    +0.000 C 
ATOM     31  C22 UNL A   1      39.448  25.630  28.773  1.00  0.00    +0.000 C 
ATOM     32  C23 UNL A   1      40.266  26.539  28.083  1.00  0.00    +0.000 C 
BRANCH   29   27
ATOM     27  C19 UNL A   1      38.984  22.902  26.220  1.00  0.00    +0.000 C 
ATOM     28  O5  UNL A   1      39.773  21.961  26.205  1.00  0.00    +0.000 O 
BRANCH   27   26
ATOM     26  N4  UNL A   1      37.740  22.769  25.651  1.00  0.00    +0.000 N 
ATOM    118  H27 UNL A   1      37.437  21.842  25.520  1.00  0.00    +0.000 H 
BRANCH   26   25
ATOM     25  C18 UNL A   1      36.804  23.794  25.214  1.00  0.00    +0.000 C 
ATOM    116  H25 UNL A   1      37.023  24.702  25.737  1.00  0.00    +0.000 H 
ATOM    117  H26 UNL A   1      36.920  23.906  24.157  1.00  0.00    +0.000 H 
BRANCH   25   24
ATOM    114  H23 UNL A   1      34.934  23.039  24.569  1.00  0.00    +0.000 H 
ATOM    115  H24 UNL A   1      35.370  22.696  26.271  1.00  0.00    +0.000 H 
ATOM     24  C17 UNL A   1      35.350  23.417  25.480  1.00  0.00    +0.000 C 
BRANCH   24   23
ATOM    113  H22 UNL A   1      34.982  25.006  26.786  1.00  0.00    +0.000 H 
ATOM     23  C16 UNL A   1      34.459  24.557  25.969  1.00  0.00    +0.000 C 
ATOM    112  H21 UNL A   1      33.510  24.140  26.236  1.00  0.00    +0.000 H 
BRANCH   23   22
ATOM    110  H19 UNL A   1      35.166  26.046  24.640  1.00  0.00    +0.000 H 
ATOM     22  C15 UNL A   1      34.212  25.683  24.963  1.00  0.00    +0.000 C 
ATOM    111  H20 UNL A   1      33.620  25.247  24.187  1.00  0.00    +0.000 H 
BRANCH   22   21
ATOM    109  H18 UNL A   1      34.100  27.520  25.977  1.00  0.00    +0.000 H 
ATOM    108  H17 UNL A   1      32.627  26.515  26.108  1.00  0.00    +0.000 H 
ATOM     21  C14 UNL A   1      33.404  26.883  25.471  1.00  0.00    +0.000 C 
BRANCH   21   20
ATOM    106  H15 UNL A   1      33.133  28.735  24.462  1.00  0.00    +0.000 H 
ATOM    107  H16 UNL A   1      33.006  27.290  23.439  1.00  0.00    +0.000 H 
ATOM     20  C13 UNL A   1      32.758  27.736  24.379  1.00  0.00    +0.000 C 
BRANCH   20   19
ATOM    105  H14 UNL A   1      30.900  28.307  25.190  1.00  0.00    +0.000 H 
ATOM     19  N3  UNL A   1      31.312  27.778  24.469  1.00  0.00    +0.000 N 
BRANCH   19    2
ATOM      1  O1  UNL A   1      29.376  27.509  23.265  1.00  0.00    +0.000 O 
ATOM      2  C1  UNL A   1      30.490  27.109  23.590  1.00  0.00    +0.000 C 
BRANCH    2    3
ATOM      3  C2  UNL A   1      31.032  25.764  23.083  1.00  0.00    +0.000 C 
ATOM     92  H1  UNL A   1      32.093  25.754  23.229  1.00  0.00    +0.000 H 
ATOM     93  H2  UNL A   1      30.754  25.689  22.053  1.00  0.00    +0.000 H 
BRANCH    3    4
ATOM      4  N1  UNL A   1      30.467  24.599  23.755  1.00  0.00    +0.000 N 
ATOM     94  H3  UNL A   1      29.774  24.113  23.251  1.00  0.00    +0.000 H 
BRANCH    4    5
ATOM      5  C3  UNL A   1      30.764  24.087  24.985  1.00  0.00    +0.000 C 
ATOM      6  O2  UNL A   1      30.597  24.807  25.970  1.00  0.00    +0.000 O 
BRANCH    5    7
ATOM     95  H4  UNL A   1      30.443  21.970  24.915  1.00  0.00    +0.000 H 
ATOM      7  C4  UNL A   1      31.248  22.644  25.125  1.00  0.00    +0.000 C 
ATOM     96  H5  UNL A   1      31.593  22.467  26.123  1.00  0.00    +0.000 H 
BRANCH    7    8
ATOM     97  H6  UNL A   1      33.163  22.917  24.347  1.00  0.00    +0.000 H 
ATOM      8  N2  UNL A   1      32.325  22.426  24.182  1.00  0.00    +0.000 N 
BRANCH    8    9
ATOM      9  C5  UNL A   1      32.302  21.614  23.092  1.00  0.00    +0.000 C 
ATOM     10  O3  UNL A   1      32.311  22.091  21.967  1.00  0.00    +0.000 O 
BRANCH    9   11
ATOM     11  O4  UNL A   1      32.295  20.297  23.397  1.00  0.00    +0.000 O 
BRANCH   11   12
ATOM     98  H7  UNL A   1      32.673  20.324  25.412  1.00  0.00    +0.000 H 
ATOM     99  H8  UNL A   1      34.092  20.323  24.363  1.00  0.00    +0.000 H 
ATOM     12  C6  UNL A   1      33.111  19.927  24.521  1.00  0.00    +0.000 C 
BRANCH   12   13
ATOM    100  H9  UNL A   1      34.278  18.150  22.849  1.00  0.00    +0.000 H 
ATOM    101  H10 UNL A   1      34.357  15.736  22.988  1.00  0.00    +0.000 H 
ATOM    102  H11 UNL A   1      33.403  14.600  24.907  1.00  0.00    +0.000 H 
ATOM    103  H12 UNL A   1      32.360  15.886  26.679  1.00  0.00    +0.000 H 
ATOM    104  H13 UNL A   1      32.221  18.302  26.515  1.00  0.00    +0.000 H 
ATOM     13  C7  UNL A   1      33.230  18.428  24.662  1.00  0.00    +0.000 C 
ATOM     14  C8  UNL A   1      33.854  17.672  23.659  1.00  0.00    +0.000 C 
ATOM     15  C9  UNL A   1      33.909  16.281  23.742  1.00  0.00    +0.000 C 
ATOM     16  C10 UNL A   1      33.361  15.630  24.842  1.00  0.00    +0.000 C 
ATOM     17  C11 UNL A   1      32.755  16.370  25.858  1.00  0.00    +0.000 C 
ATOM     18  C12 UNL A   1      32.682  17.762  25.766  1.00  0.00    +0.000 C 
ENDBRANCH   12   13
ENDBRANCH   11   12
ENDBRANCH    9   11
ENDBRANCH    8    9
ENDBRANCH    7    8
ENDBRANCH    5    7
ENDBRANCH    4    5
ENDBRANCH    3    4
ENDBRANCH    2    3
ENDBRANCH   19    2
ENDBRANCH   20   19
ENDBRANCH   21   20
ENDBRANCH   22   21
ENDBRANCH   23   22
ENDBRANCH   24   23
ENDBRANCH   25   24
ENDBRANCH   26   25
ENDBRANCH   27   26
ENDBRANCH   29   27
ENDBRANCH   33   32
BRANCH   37   38
ATOM     38  C28 UNL A   1      37.260  32.532  29.923  1.00  0.00    +0.000 C 
ATOM     39  C29 UNL A   1      36.782  33.210  28.792  1.00  0.00    +0.000 C 
ATOM     40  F1  UNL A   1      37.607  33.478  27.767  1.00  0.00    +0.000 F 
ATOM     41  C30 UNL A   1      35.462  33.647  28.721  1.00  0.00    +0.000 C 
ATOM     42  F2  UNL A   1      35.041  34.331  27.648  1.00  0.00    +0.000 F 
ATOM     43  C31 UNL A   1      34.586  33.386  29.763  1.00  0.00    +0.000 C 
ATOM     44  F3  UNL A   1      33.312  33.798  29.690  1.00  0.00    +0.000 F 
ATOM     45  C32 UNL A   1      35.030  32.700  30.884  1.00  0.00    +0.000 C 
ATOM     46  F4  UNL A   1      34.181  32.434  31.886  1.00  0.00    +0.000 F 
ATOM     47  C33 UNL A   1      36.357  32.287  30.970  1.00  0.00    +0.000 C 
ATOM     48  F5  UNL A   1      36.760  31.637  32.072  1.00  0.00    +0.000 F 
ENDBRANCH   37   38
BRANCH   54   55
ATOM     65  F10 UNL A   1      43.459  33.929  34.294  1.00  0.00    +0.000 F 
ATOM     55  C39 UNL A   1      43.681  34.926  32.143  1.00  0.00    +0.000 C 
ATOM     56  C40 UNL A   1      44.053  36.057  31.403  1.00  0.00    +0.000 C 
ATOM     57  F6  UNL A   1      43.966  36.046  30.064  1.00  0.00    +0.000 F 
ATOM     58  C41 UNL A   1      44.553  37.193  32.036  1.00  0.00    +0.000 C 
ATOM     59  F7  UNL A   1      44.943  38.246  31.306  1.00  0.00    +0.000 F 
ATOM     60  C42 UNL A   1      44.657  37.231  33.419  1.00  0.00    +0.000 C 
ATOM     61  F8  UNL A   1      45.130  38.328  34.026  1.00  0.00    +0.000 F 
ATOM     62  C43 UNL A   1      44.280  36.129  34.171  1.00  0.00    +0.000 C 
ATOM     63  F9  UNL A   1      44.369  36.169  35.508  1.00  0.00    +0.000 F 
ATOM     64  C44 UNL A   1      43.808  34.982  33.540  1.00  0.00    +0.000 C 
ENDBRANCH   54   55
BRANCH   69   70
ATOM     70  C48 UNL A   1      46.576  28.956  30.018  1.00  0.00    +0.000 C 
ATOM     71  C49 UNL A   1      47.118  28.309  31.137  1.00  0.00    +0.000 C 
ATOM     72  F11 UNL A   1      46.375  28.147  32.242  1.00  0.00    +0.000 F 
ATOM     73  C50 UNL A   1      48.439  27.867  31.144  1.00  0.00    +0.000 C 
ATOM     74  F12 UNL A   1      48.947  27.297  32.244  1.00  0.00    +0.000 F 
ATOM     75  C51 UNL A   1      49.235  28.036  30.021  1.00  0.00    +0.000 C 
ATOM     76  F13 UNL A   1      50.505  27.612  30.027  1.00  0.00    +0.000 F 
ATOM     77  C52 UNL A   1      48.714  28.654  28.894  1.00  0.00    +0.000 C 
ATOM     78  F14 UNL A   1      49.475  28.807  27.802  1.00  0.00    +0.000 F 
ATOM     79  C53 UNL A   1      47.400  29.122  28.897  1.00  0.00    +0.000 C 
ATOM     80  F15 UNL A   1      46.928  29.731  27.799  1.00  0.00    +0.000 F 
ENDBRANCH   69   70
TORSDOF 23
ENDMDL
MODEL 9
REMARK VINA RESULT:      -9.3     46.183     50.496
ROOT
ATOM    129  H38 UNL A   1      17.861  50.908  -1.049  1.00  0.00    +0.000 H 
ATOM    130  H39 UNL A   1      18.522  53.200  -0.120  1.00  0.00    +0.000 H 
ATOM     33  C24 UNL A   1      17.016  53.987   2.168  1.00  0.00    +0.000 C 
ATOM     34  C25 UNL A   1      16.978  52.664   1.454  1.00  0.00    +0.000 C 
ATOM     35  N5  UNL A   1      16.264  51.599   1.717  1.00  0.00    +0.000 N 
ATOM     36  C26 UNL A   1      16.574  50.680   0.722  1.00  0.00    +0.000 C 
ATOM     37  C27 UNL A   1      16.138  49.406   0.584  1.00  0.00    +0.000 C 
ATOM     49  C34 UNL A   1      15.239  48.751   1.498  1.00  0.00    +0.000 C 
ATOM     50  C35 UNL A   1      14.786  47.443   1.475  1.00  0.00    +0.000 C 
ATOM     51  C36 UNL A   1      13.898  47.269   2.541  1.00  0.00    +0.000 C 
ATOM     52  C37 UNL A   1      13.835  48.453   3.256  1.00  0.00    +0.000 C 
ATOM     53  N6  UNL A   1      14.658  49.356   2.601  1.00  0.00    +0.000 N 
ATOM     54  C38 UNL A   1      13.080  48.742   4.448  1.00  0.00    +0.000 C 
ATOM     66  C45 UNL A   1      13.069  49.935   5.090  1.00  0.00    +0.000 C 
ATOM     67  N7  UNL A   1      13.761  51.098   4.781  1.00  0.00    +0.000 N 
ATOM     68  C46 UNL A   1      13.414  51.976   5.691  1.00  0.00    +0.000 C 
ATOM     69  C47 UNL A   1      13.882  53.396   5.868  1.00  0.00    +0.000 C 
ATOM     81  C54 UNL A   1      14.802  53.898   5.022  1.00  0.00    +0.000 C 
ATOM     82  C55 UNL A   1      15.347  55.251   5.069  1.00  0.00    +0.000 C 
ATOM     83  C56 UNL A   1      16.188  55.422   4.037  1.00  0.00    +0.000 C 
ATOM     84  C57 UNL A   1      16.272  54.175   3.275  1.00  0.00    +0.000 C 
ATOM     85  N8  UNL A   1      15.430  53.321   3.945  1.00  0.00    +0.000 N 
ATOM     86  C58 UNL A   1      12.433  51.475   6.664  1.00  0.00    +0.000 C 
ATOM     87  C59 UNL A   1      12.290  50.215   6.278  1.00  0.00    +0.000 C 
ATOM     88  C60 UNL A   1      17.505  51.328  -0.177  1.00  0.00    +0.000 C 
ATOM     89  C61 UNL A   1      17.838  52.531   0.267  1.00  0.00    +0.000 C 
ATOM    121  H30 UNL A   1      15.057  46.721   0.789  1.00  0.00    +0.000 H 
ATOM    122  H31 UNL A   1      13.377  46.404   2.758  1.00  0.00    +0.000 H 
ATOM    123  H32 UNL A   1      14.807  50.289   2.879  1.00  0.00    +0.000 H 
ATOM    124  H33 UNL A   1      15.121  55.963   5.782  1.00  0.00    +0.000 H 
ATOM    125  H34 UNL A   1      16.694  56.293   3.815  1.00  0.00    +0.000 H 
ATOM    126  H35 UNL A   1      15.289  52.383   3.678  1.00  0.00    +0.000 H 
ATOM    127  H36 UNL A   1      11.976  51.973   7.443  1.00  0.00    +0.000 H 
ATOM    128  H37 UNL A   1      11.697  49.522   6.761  1.00  0.00    +0.000 H 
ENDROOT
BRANCH   33   32
ATOM    131  H40 UNL A   1      16.223  55.868   0.434  1.00  0.00    +0.000 H 
ATOM    132  H41 UNL A   1      17.515  57.665  -0.553  1.00  0.00    +0.000 H 
ATOM    119  H28 UNL A   1      20.841  56.562   1.774  1.00  0.00    +0.000 H 
ATOM    120  H29 UNL A   1      19.622  54.630   2.593  1.00  0.00    +0.000 H 
ATOM     90  C62 UNL A   1      17.211  56.001   0.706  1.00  0.00    +0.000 C 
ATOM     91  C63 UNL A   1      17.938  57.062   0.170  1.00  0.00    +0.000 C 
ATOM     29  C20 UNL A   1      19.240  57.308   0.612  1.00  0.00    +0.000 C 
ATOM     30  C21 UNL A   1      19.862  56.410   1.486  1.00  0.00    +0.000 C 
ATOM     31  C22 UNL A   1      19.154  55.306   1.969  1.00  0.00    +0.000 C 
ATOM     32  C23 UNL A   1      17.810  55.112   1.612  1.00  0.00    +0.000 C 
BRANCH   29   27
ATOM     27  C19 UNL A   1      19.990  58.501   0.161  1.00  0.00    +0.000 C 
ATOM     28  O5  UNL A   1      19.585  59.620   0.463  1.00  0.00    +0.000 O 
BRANCH   27   26
ATOM     26  N4  UNL A   1      21.118  58.360  -0.610  1.00  0.00    +0.000 N 
ATOM    118  H27 UNL A   1      20.975  58.443  -1.580  1.00  0.00    +0.000 H 
BRANCH   26   25
ATOM     25  C18 UNL A   1      22.494  58.107  -0.207  1.00  0.00    +0.000 C 
ATOM    116  H25 UNL A   1      22.986  59.047  -0.064  1.00  0.00    +0.000 H 
ATOM    117  H26 UNL A   1      22.464  57.533   0.695  1.00  0.00    +0.000 H 
BRANCH   25   24
ATOM    114  H23 UNL A   1      24.043  57.929  -1.638  1.00  0.00    +0.000 H 
ATOM    115  H24 UNL A   1      23.646  56.440  -0.725  1.00  0.00    +0.000 H 
ATOM     24  C17 UNL A   1      23.273  57.301  -1.241  1.00  0.00    +0.000 C 
BRANCH   24   23
ATOM    113  H22 UNL A   1      21.688  57.500  -2.588  1.00  0.00    +0.000 H 
ATOM     23  C16 UNL A   1      22.448  56.769  -2.410  1.00  0.00    +0.000 C 
ATOM    112  H21 UNL A   1      22.069  55.806  -2.134  1.00  0.00    +0.000 H 
BRANCH   23   22
ATOM    110  H19 UNL A   1      23.255  57.584  -4.190  1.00  0.00    +0.000 H 
ATOM     22  C15 UNL A   1      23.197  56.617  -3.736  1.00  0.00    +0.000 C 
ATOM    111  H20 UNL A   1      24.145  56.192  -3.480  1.00  0.00    +0.000 H 
BRANCH   22   21
ATOM    109  H18 UNL A   1      23.169  54.763  -4.723  1.00  0.00    +0.000 H 
ATOM    108  H17 UNL A   1      22.595  56.135  -5.716  1.00  0.00    +0.000 H 
ATOM     21  C14 UNL A   1      22.580  55.655  -4.759  1.00  0.00    +0.000 C 
BRANCH   21   20
ATOM    106  H15 UNL A   1      20.961  55.351  -3.414  1.00  0.00    +0.000 H 
ATOM    107  H16 UNL A   1      20.499  55.850  -5.054  1.00  0.00    +0.000 H 
ATOM     20  C13 UNL A   1      21.142  55.232  -4.462  1.00  0.00    +0.000 C 
BRANCH   20   19
ATOM    105  H14 UNL A   1      21.593  53.194  -4.749  1.00  0.00    +0.000 H 
ATOM     19  N3  UNL A   1      20.867  53.854  -4.823  1.00  0.00    +0.000 N 
BRANCH   19    2
ATOM      1  O1  UNL A   1      19.197  53.676  -6.389  1.00  0.00    +0.000 O 
ATOM      2  C1  UNL A   1      19.634  53.432  -5.267  1.00  0.00    +0.000 C 
BRANCH    2    3
ATOM      3  C2  UNL A   1      18.786  52.683  -4.229  1.00  0.00    +0.000 C 
ATOM     92  H1  UNL A   1      18.504  53.376  -3.464  1.00  0.00    +0.000 H 
ATOM     93  H2  UNL A   1      19.390  51.881  -3.860  1.00  0.00    +0.000 H 
BRANCH    3    4
ATOM      4  N1  UNL A   1      17.573  52.079  -4.768  1.00  0.00    +0.000 N 
ATOM     94  H3  UNL A   1      17.710  51.297  -5.350  1.00  0.00    +0.000 H 
BRANCH    4    5
ATOM      5  C3  UNL A   1      16.271  52.447  -4.580  1.00  0.00    +0.000 C 
ATOM      6  O2  UNL A   1      15.886  53.499  -5.090  1.00  0.00    +0.000 O 
BRANCH    5    7
ATOM     95  H4  UNL A   1      15.773  50.590  -3.637  1.00  0.00    +0.000 H 
ATOM      7  C4  UNL A   1      15.320  51.547  -3.791  1.00  0.00    +0.000 C 
ATOM     96  H5  UNL A   1      14.407  51.414  -4.333  1.00  0.00    +0.000 H 
BRANCH    7    8
ATOM     97  H6  UNL A   1      15.831  52.494  -2.006  1.00  0.00    +0.000 H 
ATOM      8  N2  UNL A   1      15.051  52.171  -2.512  1.00  0.00    +0.000 N 
BRANCH    8    9
ATOM      9  C5  UNL A   1      13.833  52.358  -1.938  1.00  0.00    +0.000 C 
ATOM     10  O3  UNL A   1      12.850  52.572  -2.632  1.00  0.00    +0.000 O 
BRANCH    9   11
ATOM     11  O4  UNL A   1      13.847  52.256  -0.590  1.00  0.00    +0.000 O 
BRANCH   11   12
ATOM     98  H7  UNL A   1      13.631  50.386   0.223  1.00  0.00    +0.000 H 
ATOM     99  H8  UNL A   1      12.302  50.940  -0.798  1.00  0.00    +0.000 H 
ATOM     12  C6  UNL A   1      13.015  51.216  -0.049  1.00  0.00    +0.000 C 
BRANCH   12   13
ATOM    100  H9  UNL A   1      11.112  49.913   1.364  1.00  0.00    +0.000 H 
ATOM    101  H10 UNL A   1       9.786  50.690   3.232  1.00  0.00    +0.000 H 
ATOM    102  H11 UNL A   1      10.185  52.891   4.169  1.00  0.00    +0.000 H 
ATOM    103  H12 UNL A   1      11.906  54.315   3.224  1.00  0.00    +0.000 H 
ATOM    104  H13 UNL A   1      13.195  53.567   1.311  1.00  0.00    +0.000 H 
ATOM     13  C7  UNL A   1      12.254  51.679   1.170  1.00  0.00    +0.000 C 
ATOM     14  C8  UNL A   1      11.274  50.857   1.746  1.00  0.00    +0.000 C 
ATOM     15  C9  UNL A   1      10.515  51.299   2.829  1.00  0.00    +0.000 C 
ATOM     16  C10 UNL A   1      10.744  52.562   3.366  1.00  0.00    +0.000 C 
ATOM     17  C11 UNL A   1      11.729  53.384   2.817  1.00  0.00    +0.000 C 
ATOM     18  C12 UNL A   1      12.476  52.949   1.719  1.00  0.00    +0.000 C 
ENDBRANCH   12   13
ENDBRANCH   11   12
ENDBRANCH    9   11
ENDBRANCH    8    9
ENDBRANCH    7    8
ENDBRANCH    5    7
ENDBRANCH    4    5
ENDBRANCH    3    4
ENDBRANCH    2    3
ENDBRANCH   19    2
ENDBRANCH   20   19
ENDBRANCH   21   20
ENDBRANCH   22   21
ENDBRANCH   23   22
ENDBRANCH   24   23
ENDBRANCH   25   24
ENDBRANCH   26   25
ENDBRANCH   27   26
ENDBRANCH   29   27
ENDBRANCH   33   32
BRANCH   37   38
ATOM     38  C28 UNL A   1      16.633  48.626  -0.599  1.00  0.00    +0.000 C 
ATOM     39  C29 UNL A   1      15.859  48.483  -1.760  1.00  0.00    +0.000 C 
ATOM     40  F1  UNL A   1      14.622  49.001  -1.815  1.00  0.00    +0.000 F 
ATOM     41  C30 UNL A   1      16.339  47.776  -2.860  1.00  0.00    +0.000 C 
ATOM     42  F2  UNL A   1      15.564  47.616  -3.941  1.00  0.00    +0.000 F 
ATOM     43  C31 UNL A   1      17.613  47.229  -2.833  1.00  0.00    +0.000 C 
ATOM     44  F3  UNL A   1      18.078  46.558  -3.896  1.00  0.00    +0.000 F 
ATOM     45  C32 UNL A   1      18.403  47.374  -1.703  1.00  0.00    +0.000 C 
ATOM     46  F4  UNL A   1      19.640  46.858  -1.682  1.00  0.00    +0.000 F 
ATOM     47  C33 UNL A   1      17.915  48.055  -0.591  1.00  0.00    +0.000 C 
ATOM     48  F5  UNL A   1      18.699  48.168   0.491  1.00  0.00    +0.000 F 
ENDBRANCH   37   38
BRANCH   54   55
ATOM     65  F10 UNL A   1      10.498  48.044   3.494  1.00  0.00    +0.000 F 
ATOM     55  C39 UNL A   1      12.261  47.632   5.040  1.00  0.00    +0.000 C 
ATOM     56  C40 UNL A   1      12.717  46.880   6.132  1.00  0.00    +0.000 C 
ATOM     57  F6  UNL A   1      13.939  47.102   6.642  1.00  0.00    +0.000 F 
ATOM     58  C41 UNL A   1      11.932  45.871   6.683  1.00  0.00    +0.000 C 
ATOM     59  F7  UNL A   1      12.405  45.136   7.699  1.00  0.00    +0.000 F 
ATOM     60  C42 UNL A   1      10.666  45.617   6.174  1.00  0.00    +0.000 C 
ATOM     61  F8  UNL A   1       9.908  44.650   6.712  1.00  0.00    +0.000 F 
ATOM     62  C43 UNL A   1      10.189  46.359   5.105  1.00  0.00    +0.000 C 
ATOM     63  F9  UNL A   1       8.962  46.123   4.621  1.00  0.00    +0.000 F 
ATOM     64  C44 UNL A   1      10.983  47.349   4.534  1.00  0.00    +0.000 C 
ENDBRANCH   54   55
BRANCH   69   70
ATOM     70  C48 UNL A   1      13.356  54.233   6.978  1.00  0.00    +0.000 C 
ATOM     71  C49 UNL A   1      13.922  54.164   8.259  1.00  0.00    +0.000 C 
ATOM     72  F11 UNL A   1      14.947  53.331   8.494  1.00  0.00    +0.000 F 
ATOM     73  C50 UNL A   1      13.411  54.916   9.314  1.00  0.00    +0.000 C 
ATOM     74  F12 UNL A   1      13.938  54.793  10.539  1.00  0.00    +0.000 F 
ATOM     75  C51 UNL A   1      12.342  55.774   9.103  1.00  0.00    +0.000 C 
ATOM     76  F13 UNL A   1      11.849  56.497  10.117  1.00  0.00    +0.000 F 
ATOM     77  C52 UNL A   1      11.779  55.875   7.839  1.00  0.00    +0.000 C 
ATOM     78  F14 UNL A   1      10.755  56.713   7.627  1.00  0.00    +0.000 F 
ATOM     79  C53 UNL A   1      12.273  55.102   6.789  1.00  0.00    +0.000 C 
ATOM     80  F15 UNL A   1      11.698  55.208   5.582  1.00  0.00    +0.000 F 
ENDBRANCH   69   70
TORSDOF 23
ENDMDL
MODEL 10
REMARK VINA RESULT:      -9.1     40.557     47.390
ROOT
ATOM    129  H38 UNL A   1      30.154  32.758  44.356  1.00  0.00    +0.000 H 
ATOM    130  H39 UNL A   1      27.602  32.694  44.556  1.00  0.00    +0.000 H 
ATOM     33  C24 UNL A   1      26.495  34.988  45.835  1.00  0.00    +0.000 C 
ATOM     34  C25 UNL A   1      27.929  34.756  45.444  1.00  0.00    +0.000 C 
ATOM     35  N5  UNL A   1      28.966  35.540  45.595  1.00  0.00    +0.000 N 
ATOM     36  C26 UNL A   1      30.054  34.825  45.109  1.00  0.00    +0.000 C 
ATOM     37  C27 UNL A   1      31.343  35.223  44.994  1.00  0.00    +0.000 C 
ATOM     49  C34 UNL A   1      31.828  36.525  45.370  1.00  0.00    +0.000 C 
ATOM     50  C35 UNL A   1      33.105  37.042  45.237  1.00  0.00    +0.000 C 
ATOM     51  C36 UNL A   1      33.113  38.331  45.776  1.00  0.00    +0.000 C 
ATOM     52  C37 UNL A   1      31.831  38.637  46.201  1.00  0.00    +0.000 C 
ATOM     53  N6  UNL A   1      31.053  37.517  45.951  1.00  0.00    +0.000 N 
ATOM     54  C38 UNL A   1      31.348  39.859  46.790  1.00  0.00    +0.000 C 
ATOM     66  C45 UNL A   1      30.070  40.079  47.184  1.00  0.00    +0.000 C 
ATOM     67  N7  UNL A   1      28.974  39.233  47.100  1.00  0.00    +0.000 N 
ATOM     68  C46 UNL A   1      27.967  39.895  47.617  1.00  0.00    +0.000 C 
ATOM     69  C47 UNL A   1      26.527  39.478  47.757  1.00  0.00    +0.000 C 
ATOM     81  C54 UNL A   1      26.140  38.277  47.287  1.00  0.00    +0.000 C 
ATOM     82  C55 UNL A   1      24.784  37.739  47.353  1.00  0.00    +0.000 C 
ATOM     83  C56 UNL A   1      24.781  36.494  46.849  1.00  0.00    +0.000 C 
ATOM     84  C57 UNL A   1      26.129  36.160  46.388  1.00  0.00    +0.000 C 
ATOM     85  N8  UNL A   1      26.865  37.285  46.672  1.00  0.00    +0.000 N 
ATOM     86  C58 UNL A   1      28.323  41.230  48.120  1.00  0.00    +0.000 C 
ATOM     87  C59 UNL A   1      29.605  41.308  47.793  1.00  0.00    +0.000 C 
ATOM     88  C60 UNL A   1      29.559  33.528  44.699  1.00  0.00    +0.000 C 
ATOM     89  C61 UNL A   1      28.241  33.459  44.823  1.00  0.00    +0.000 C 
ATOM    121  H30 UNL A   1      33.913  36.557  44.814  1.00  0.00    +0.000 H 
ATOM    122  H31 UNL A   1      33.936  38.951  45.846  1.00  0.00    +0.000 H 
ATOM    123  H32 UNL A   1      30.093  37.438  46.157  1.00  0.00    +0.000 H 
ATOM    124  H33 UNL A   1      23.961  38.236  47.727  1.00  0.00    +0.000 H 
ATOM    125  H34 UNL A   1      23.959  35.873  46.795  1.00  0.00    +0.000 H 
ATOM    126  H35 UNL A   1      27.821  37.372  46.455  1.00  0.00    +0.000 H 
ATOM    127  H36 UNL A   1      27.730  41.923  48.602  1.00  0.00    +0.000 H 
ATOM    128  H37 UNL A   1      30.197  42.138  47.953  1.00  0.00    +0.000 H 
ENDROOT
BRANCH   33   32
ATOM    131  H40 UNL A   1      24.777  34.586  43.820  1.00  0.00    +0.000 H 
ATOM    132  H41 UNL A   1      23.085  32.867  43.587  1.00  0.00    +0.000 H 
ATOM    119  H28 UNL A   1      24.367  31.106  47.185  1.00  0.00    +0.000 H 
ATOM    120  H29 UNL A   1      25.908  32.949  47.534  1.00  0.00    +0.000 H 
ATOM     90  C62 UNL A   1      24.678  33.858  44.547  1.00  0.00    +0.000 C 
ATOM     91  C63 UNL A   1      23.735  32.846  44.389  1.00  0.00    +0.000 C 
ATOM     29  C20 UNL A   1      23.669  31.804  45.316  1.00  0.00    +0.000 C 
ATOM     30  C21 UNL A   1      24.452  31.849  46.474  1.00  0.00    +0.000 C 
ATOM     31  C22 UNL A   1      25.349  32.903  46.667  1.00  0.00    +0.000 C 
ATOM     32  C23 UNL A   1      25.497  33.897  45.687  1.00  0.00    +0.000 C 
BRANCH   29   27
ATOM     27  C19 UNL A   1      22.769  30.647  45.107  1.00  0.00    +0.000 C 
ATOM     28  O5  UNL A   1      23.072  29.785  44.287  1.00  0.00    +0.000 O 
BRANCH   27   26
ATOM     26  N4  UNL A   1      21.591  30.550  45.807  1.00  0.00    +0.000 N 
ATOM    118  H27 UNL A   1      21.671  30.168  46.710  1.00  0.00    +0.000 H 
BRANCH   26   25
ATOM     25  C18 UNL A   1      20.242  30.930  45.413  1.00  0.00    +0.000 C 
ATOM    116  H25 UNL A   1      19.768  30.085  44.957  1.00  0.00    +0.000 H 
ATOM    117  H26 UNL A   1      19.726  31.246  46.295  1.00  0.00    +0.000 H 
BRANCH   25   24
ATOM    114  H23 UNL A   1      21.132  32.068  43.867  1.00  0.00    +0.000 H 
ATOM    115  H24 UNL A   1      19.346  31.955  43.825  1.00  0.00    +0.000 H 
ATOM     24  C17 UNL A   1      20.220  32.093  44.426  1.00  0.00    +0.000 C 
BRANCH   24   23
ATOM    113  H22 UNL A   1      19.038  33.665  45.132  1.00  0.00    +0.000 H 
ATOM     23  C16 UNL A   1      20.089  33.478  45.054  1.00  0.00    +0.000 C 
ATOM    112  H21 UNL A   1      20.608  34.174  44.427  1.00  0.00    +0.000 H 
BRANCH   23   22
ATOM    110  H19 UNL A   1      20.983  32.654  46.787  1.00  0.00    +0.000 H 
ATOM     22  C15 UNL A   1      20.643  33.619  46.473  1.00  0.00    +0.000 C 
ATOM    111  H20 UNL A   1      21.413  34.357  46.406  1.00  0.00    +0.000 H 
BRANCH   22   21
ATOM    109  H18 UNL A   1      19.635  33.395  48.303  1.00  0.00    +0.000 H 
ATOM    108  H17 UNL A   1      18.721  34.306  47.065  1.00  0.00    +0.000 H 
ATOM     21  C14 UNL A   1      19.667  34.140  47.536  1.00  0.00    +0.000 C 
BRANCH   21   20
ATOM    106  H15 UNL A   1      19.274  35.794  48.814  1.00  0.00    +0.000 H 
ATOM    107  H16 UNL A   1      20.954  35.221  48.813  1.00  0.00    +0.000 H 
ATOM     20  C13 UNL A   1      20.091  35.440  48.220  1.00  0.00    +0.000 C 
BRANCH   20   19
ATOM    105  H14 UNL A   1      21.303  36.382  46.776  1.00  0.00    +0.000 H 
ATOM     19  N3  UNL A   1      20.464  36.482  47.283  1.00  0.00    +0.000 N 
BRANCH   19    2
ATOM      1  O1  UNL A   1      19.545  38.489  47.913  1.00  0.00    +0.000 O 
ATOM      2  C1  UNL A   1      19.697  37.606  47.073  1.00  0.00    +0.000 C 
BRANCH    2    3
ATOM      3  C2  UNL A   1      18.966  37.657  45.724  1.00  0.00    +0.000 C 
ATOM     92  H1  UNL A   1      19.695  37.800  44.953  1.00  0.00    +0.000 H 
ATOM     93  H2  UNL A   1      18.263  38.461  45.786  1.00  0.00    +0.000 H 
BRANCH    3    4
ATOM      4  N1  UNL A   1      18.200  36.456  45.411  1.00  0.00    +0.000 N 
ATOM     94  H3  UNL A   1      18.701  35.739  44.960  1.00  0.00    +0.000 H 
BRANCH    4    5
ATOM      5  C3  UNL A   1      16.884  36.186  45.655  1.00  0.00    +0.000 C 
ATOM      6  O2  UNL A   1      16.181  37.089  46.110  1.00  0.00    +0.000 O 
BRANCH    5    7
ATOM     95  H4  UNL A   1      15.266  34.784  45.590  1.00  0.00    +0.000 H 
ATOM      7  C4  UNL A   1      16.303  34.811  45.326  1.00  0.00    +0.000 C 
ATOM     96  H5  UNL A   1      16.818  34.053  45.878  1.00  0.00    +0.000 H 
BRANCH    7    8
ATOM     97  H6  UNL A   1      16.303  35.350  43.313  1.00  0.00    +0.000 H 
ATOM      8  N2  UNL A   1      16.450  34.577  43.905  1.00  0.00    +0.000 N 
BRANCH    8    9
ATOM      9  C5  UNL A   1      16.772  33.402  43.302  1.00  0.00    +0.000 C 
ATOM     10  O3  UNL A   1      17.627  33.370  42.428  1.00  0.00    +0.000 O 
BRANCH    9   11
ATOM     11  O4  UNL A   1      16.087  32.340  43.783  1.00  0.00    +0.000 O 
BRANCH   11   12
ATOM     98  H7  UNL A   1      15.966  31.732  41.828  1.00  0.00    +0.000 H 
ATOM     99  H8  UNL A   1      14.528  31.452  42.812  1.00  0.00    +0.000 H 
ATOM     12  C6  UNL A   1      15.597  31.429  42.785  1.00  0.00    +0.000 C 
BRANCH   12   13
ATOM    100  H9  UNL A   1      14.229  29.125  42.415  1.00  0.00    +0.000 H 
ATOM    101  H10 UNL A   1      14.866  26.857  42.965  1.00  0.00    +0.000 H 
ATOM    102  H11 UNL A   1      17.069  26.404  43.874  1.00  0.00    +0.000 H 
ATOM    103  H12 UNL A   1      18.625  28.227  44.241  1.00  0.00    +0.000 H 
ATOM    104  H13 UNL A   1      17.969  30.509  43.752  1.00  0.00    +0.000 H 
ATOM     13  C7  UNL A   1      16.039  30.010  43.051  1.00  0.00    +0.000 C 
ATOM     14  C8  UNL A   1      15.160  28.941  42.818  1.00  0.00    +0.000 C 
ATOM     15  C9  UNL A   1      15.529  27.632  43.126  1.00  0.00    +0.000 C 
ATOM     16  C10 UNL A   1      16.792  27.372  43.648  1.00  0.00    +0.000 C 
ATOM     17  C11 UNL A   1      17.684  28.422  43.866  1.00  0.00    +0.000 C 
ATOM     18  C12 UNL A   1      17.308  29.736  43.577  1.00  0.00    +0.000 C 
ENDBRANCH   12   13
ENDBRANCH   11   12
ENDBRANCH    9   11
ENDBRANCH    8    9
ENDBRANCH    7    8
ENDBRANCH    5    7
ENDBRANCH    4    5
ENDBRANCH    3    4
ENDBRANCH    2    3
ENDBRANCH   19    2
ENDBRANCH   20   19
ENDBRANCH   21   20
ENDBRANCH   22   21
ENDBRANCH   23   22
ENDBRANCH   24   23
ENDBRANCH   25   24
ENDBRANCH   26   25
ENDBRANCH   27   26
ENDBRANCH   29   27
ENDBRANCH   33   32
BRANCH   37   38
ATOM     38  C28 UNL A   1      32.327  34.239  44.432  1.00  0.00    +0.000 C 
ATOM     39  C29 UNL A   1      32.682  34.248  43.074  1.00  0.00    +0.000 C 
ATOM     40  F1  UNL A   1      32.099  35.113  42.230  1.00  0.00    +0.000 F 
ATOM     41  C30 UNL A   1      33.614  33.344  42.571  1.00  0.00    +0.000 C 
ATOM     42  F2  UNL A   1      33.904  33.343  41.262  1.00  0.00    +0.000 F 
ATOM     43  C31 UNL A   1      34.234  32.439  43.418  1.00  0.00    +0.000 C 
ATOM     44  F3  UNL A   1      35.139  31.576  42.934  1.00  0.00    +0.000 F 
ATOM     45  C32 UNL A   1      33.913  32.424  44.767  1.00  0.00    +0.000 C 
ATOM     46  F4  UNL A   1      34.522  31.559  45.590  1.00  0.00    +0.000 F 
ATOM     47  C33 UNL A   1      32.960  33.307  45.269  1.00  0.00    +0.000 C 
ATOM     48  F5  UNL A   1      32.662  33.260  46.576  1.00  0.00    +0.000 F 
ENDBRANCH   37   38
BRANCH   54   55
ATOM     65  F10 UNL A   1      32.574  40.481  49.275  1.00  0.00    +0.000 F 
ATOM     55  C39 UNL A   1      32.327  40.984  46.961  1.00  0.00    +0.000 C 
ATOM     56  C40 UNL A   1      32.679  41.824  45.895  1.00  0.00    +0.000 C 
ATOM     57  F6  UNL A   1      32.185  41.600  44.667  1.00  0.00    +0.000 F 
ATOM     58  C41 UNL A   1      33.570  42.878  46.080  1.00  0.00    +0.000 C 
ATOM     59  F7  UNL A   1      33.926  43.642  45.038  1.00  0.00    +0.000 F 
ATOM     60  C42 UNL A   1      34.099  43.131  47.337  1.00  0.00    +0.000 C 
ATOM     61  F8  UNL A   1      34.950  44.151  47.514  1.00  0.00    +0.000 F 
ATOM     62  C43 UNL A   1      33.752  42.322  48.409  1.00  0.00    +0.000 C 
ATOM     63  F9  UNL A   1      34.252  42.574  49.626  1.00  0.00    +0.000 F 
ATOM     64  C44 UNL A   1      32.884  41.251  48.221  1.00  0.00    +0.000 C 
ENDBRANCH   54   55
BRANCH   69   70
ATOM     70  C48 UNL A   1      25.533  40.389  48.383  1.00  0.00    +0.000 C 
ATOM     71  C49 UNL A   1      24.857  41.348  47.617  1.00  0.00    +0.000 C 
ATOM     72  F11 UNL A   1      25.110  41.456  46.304  1.00  0.00    +0.000 F 
ATOM     73  C50 UNL A   1      23.953  42.232  48.203  1.00  0.00    +0.000 C 
ATOM     74  F12 UNL A   1      23.359  43.171  47.457  1.00  0.00    +0.000 F 
ATOM     75  C51 UNL A   1      23.685  42.153  49.562  1.00  0.00    +0.000 C 
ATOM     76  F13 UNL A   1      22.817  43.002  50.126  1.00  0.00    +0.000 F 
ATOM     77  C52 UNL A   1      24.326  41.197  50.336  1.00  0.00    +0.000 C 
ATOM     78  F14 UNL A   1      24.060  41.109  51.646  1.00  0.00    +0.000 F 
ATOM     79  C53 UNL A   1      25.251  40.332  49.755  1.00  0.00    +0.000 C 
ATOM     80  F15 UNL A   1      25.869  39.429  50.531  1.00  0.00    +0.000 F 
ENDBRANCH   69   70
TORSDOF 23
ENDMDL
