MODEL 1
REMARK VINA RESULT:      -8.7      0.000      0.000
ROOT
ATOM    129  H36 UNL A   1      44.544  16.738  47.139  1.00  0.00    +0.000 H 
ATOM    130  H37 UNL A   1      43.784  15.235  49.067  1.00  0.00    +0.000 H 
ATOM     29  C25 UNL A   1      45.859  13.601  50.134  1.00  0.00    +0.000 C 
ATOM     30  C26 UNL A   1      45.980  14.672  49.087  1.00  0.00    +0.000 C 
ATOM     31  N3  UNL A   1      47.044  15.090  48.447  1.00  0.00    +0.000 N 
ATOM     32  C27 UNL A   1      46.597  16.063  47.564  1.00  0.00    +0.000 C 
ATOM     33  C28 UNL A   1      47.321  16.835  46.720  1.00  0.00    +0.000 C 
ATOM     45  C35 UNL A   1      48.754  16.774  46.590  1.00  0.00    +0.000 C 
ATOM     46  C36 UNL A   1      49.583  17.547  45.796  1.00  0.00    +0.000 C 
ATOM     47  C37 UNL A   1      50.899  17.104  45.977  1.00  0.00    +0.000 C 
ATOM     48  C38 UNL A   1      50.893  16.084  46.915  1.00  0.00    +0.000 C 
ATOM     49  N4  UNL A   1      49.569  15.887  47.277  1.00  0.00    +0.000 N 
ATOM     50  C39 UNL A   1      52.009  15.343  47.441  1.00  0.00    +0.000 C 
ATOM     62  C46 UNL A   1      51.920  14.353  48.362  1.00  0.00    +0.000 C 
ATOM     63  N5  UNL A   1      50.793  13.848  48.996  1.00  0.00    +0.000 N 
ATOM     64  C47 UNL A   1      51.221  12.897  49.790  1.00  0.00    +0.000 C 
ATOM     65  C48 UNL A   1      50.441  12.029  50.738  1.00  0.00    +0.000 C 
ATOM     77  C55 UNL A   1      49.111  12.206  50.852  1.00  0.00    +0.000 C 
ATOM     78  C56 UNL A   1      48.226  11.445  51.728  1.00  0.00    +0.000 C 
ATOM     79  C57 UNL A   1      46.963  11.863  51.545  1.00  0.00    +0.000 C 
ATOM     80  C58 UNL A   1      46.955  12.945  50.561  1.00  0.00    +0.000 C 
ATOM     81  N6  UNL A   1      48.274  13.088  50.211  1.00  0.00    +0.000 N 
ATOM     82  C59 UNL A   1      52.672  12.670  49.725  1.00  0.00    +0.000 C 
ATOM     83  C60 UNL A   1      53.054  13.608  48.871  1.00  0.00    +0.000 C 
ATOM     84  C61 UNL A   1      45.159  16.142  47.715  1.00  0.00    +0.000 C 
ATOM     85  C62 UNL A   1      44.737  15.348  48.688  1.00  0.00    +0.000 C 
ATOM    121  H28 UNL A   1      49.284  18.316  45.177  1.00  0.00    +0.000 H 
ATOM    122  H29 UNL A   1      51.732  17.475  45.495  1.00  0.00    +0.000 H 
ATOM    123  H30 UNL A   1      49.254  15.217  47.926  1.00  0.00    +0.000 H 
ATOM    124  H31 UNL A   1      48.524  10.706  52.384  1.00  0.00    +0.000 H 
ATOM    125  H32 UNL A   1      46.132  11.481  52.022  1.00  0.00    +0.000 H 
ATOM    126  H33 UNL A   1      48.592  13.756  49.562  1.00  0.00    +0.000 H 
ATOM    127  H34 UNL A   1      53.243  11.964  50.216  1.00  0.00    +0.000 H 
ATOM    128  H35 UNL A   1      54.034  13.787  48.603  1.00  0.00    +0.000 H 
ENDROOT
BRANCH   29   28
ATOM    131  H38 UNL A   1      44.082  11.921  49.041  1.00  0.00    +0.000 H 
ATOM    132  H39 UNL A   1      41.856  11.354  49.813  1.00  0.00    +0.000 H 
ATOM    120  H27 UNL A   1      44.592  14.430  52.387  1.00  0.00    +0.000 H 
ATOM     86  C63 UNL A   1      43.728  12.318  49.925  1.00  0.00    +0.000 C 
ATOM     87  C64 UNL A   1      42.463  11.958  50.387  1.00  0.00    +0.000 C 
ATOM    119  H26 UNL A   1      42.445  13.702  53.254  1.00  0.00    +0.000 H 
ATOM     25  C21 UNL A   1      42.018  12.418  51.630  1.00  0.00    +0.000 C 
ATOM     26  C22 UNL A   1      42.791  13.331  52.355  1.00  0.00    +0.000 C 
ATOM     27  C23 UNL A   1      44.033  13.739  51.861  1.00  0.00    +0.000 C 
ATOM     28  C24 UNL A   1      44.523  13.215  50.655  1.00  0.00    +0.000 C 
BRANCH   25   23
ATOM     23  C20 UNL A   1      40.707  12.001  52.177  1.00  0.00    +0.000 C 
ATOM     24  O2  UNL A   1      39.684  12.555  51.791  1.00  0.00    +0.000 O 
BRANCH   23   22
ATOM    118  H25 UNL A   1      39.736  10.841  53.491  1.00  0.00    +0.000 H 
ATOM     22  N2  UNL A   1      40.632  10.996  53.111  1.00  0.00    +0.000 N 
BRANCH   22   21
ATOM    117  H24 UNL A   1      41.489   9.954  54.660  1.00  0.00    +0.000 H 
ATOM    116  H23 UNL A   1      42.626  10.608  53.478  1.00  0.00    +0.000 H 
ATOM     21  C19 UNL A   1      41.681  10.128  53.622  1.00  0.00    +0.000 C 
BRANCH   21   20
ATOM    114  H21 UNL A   1      41.757   8.011  53.661  1.00  0.00    +0.000 H 
ATOM    115  H22 UNL A   1      40.808   8.730  52.326  1.00  0.00    +0.000 H 
ATOM     20  C18 UNL A   1      41.701   8.775  52.914  1.00  0.00    +0.000 C 
BRANCH   20   19
ATOM    113  H20 UNL A   1      42.508   8.896  50.985  1.00  0.00    +0.000 H 
ATOM     19  C17 UNL A   1      42.867   8.574  51.940  1.00  0.00    +0.000 C 
ATOM    112  H19 UNL A   1      43.148   7.542  51.972  1.00  0.00    +0.000 H 
BRANCH   19   18
ATOM     18  C16 UNL A   1      44.121   9.413  52.219  1.00  0.00    +0.000 C 
ATOM    110  H17 UNL A   1      44.524   9.728  51.279  1.00  0.00    +0.000 H 
ATOM    111  H18 UNL A   1      43.803  10.222  52.842  1.00  0.00    +0.000 H 
BRANCH   18   17
ATOM     17  C15 UNL A   1      45.232   8.695  52.992  1.00  0.00    +0.000 C 
ATOM    108  H15 UNL A   1      46.141   8.781  52.433  1.00  0.00    +0.000 H 
ATOM    109  H16 UNL A   1      45.293   9.162  53.953  1.00  0.00    +0.000 H 
BRANCH   17   16
ATOM    106  H13 UNL A   1      45.530   6.889  54.085  1.00  0.00    +0.000 H 
ATOM    107  H14 UNL A   1      43.910   7.091  53.412  1.00  0.00    +0.000 H 
ATOM     16  C14 UNL A   1      44.959   7.210  53.239  1.00  0.00    +0.000 C 
BRANCH   16   15
ATOM    105  H12 UNL A   1      44.552   6.096  51.554  1.00  0.00    +0.000 H 
ATOM     15  N1  UNL A   1      45.317   6.393  52.097  1.00  0.00    +0.000 N 
BRANCH   15   13
ATOM     13  C13 UNL A   1      46.529   5.966  51.643  1.00  0.00    +0.000 C 
ATOM     14  O1  UNL A   1      46.775   4.761  51.786  1.00  0.00    +0.000 O 
BRANCH   13   11
ATOM     11  C11 UNL A   1      47.576   6.890  51.004  1.00  0.00    +0.000 C 
ATOM    101  H8  UNL A   1      48.234   6.246  50.458  1.00  0.00    +0.000 H 
BRANCH   11   10
ATOM     99  H6  UNL A   1      47.567  10.661  48.275  1.00  0.00    +0.000 H 
ATOM    100  H7  UNL A   1      48.616   9.150  49.826  1.00  0.00    +0.000 H 
ATOM    133  H40 UNL A   1      45.233   6.677  49.687  1.00  0.00    +0.000 H 
ATOM    134  H41 UNL A   1      44.254   8.108  48.004  1.00  0.00    +0.000 H 
ATOM      7  C7  UNL A   1      45.814   9.528  47.989  1.00  0.00    +0.000 C 
ATOM      8  C8  UNL A   1      47.071   9.800  48.552  1.00  0.00    +0.000 C 
ATOM      9  C9  UNL A   1      47.668   8.940  49.476  1.00  0.00    +0.000 C 
ATOM     10  C10 UNL A   1      47.003   7.801  49.930  1.00  0.00    +0.000 C 
ATOM     88  C65 UNL A   1      45.745   7.518  49.378  1.00  0.00    +0.000 C 
ATOM     89  C66 UNL A   1      45.169   8.357  48.411  1.00  0.00    +0.000 C 
BRANCH    7    6
ATOM     97  H4  UNL A   1      42.464   9.726  43.677  1.00  0.00    +0.000 H 
ATOM      2  C2  UNL A   1      42.805  11.812  43.261  1.00  0.00    +0.000 C 
ATOM      3  C3  UNL A   1      42.926  10.614  43.931  1.00  0.00    +0.000 C 
ATOM      4  C4  UNL A   1      43.798  10.817  45.032  1.00  0.00    +0.000 C 
ATOM      5  C5  UNL A   1      44.300   9.977  46.043  1.00  0.00    +0.000 C 
ATOM     98  H5  UNL A   1      43.988   8.994  46.088  1.00  0.00    +0.000 H 
ATOM      6  C6  UNL A   1      45.222  10.456  46.998  1.00  0.00    +0.000 C 
ATOM    136  H43 UNL A   1      45.331  13.682  45.945  1.00  0.00    +0.000 H 
ATOM    137  H44 UNL A   1      43.648  13.686  43.686  1.00  0.00    +0.000 H 
ATOM    135  H42 UNL A   1      46.240  12.185  47.639  1.00  0.00    +0.000 H 
ATOM     90  C67 UNL A   1      45.578  11.814  46.939  1.00  0.00    +0.000 C 
ATOM     91  C68 UNL A   1      45.068  12.684  45.962  1.00  0.00    +0.000 C 
ATOM     92  C69 UNL A   1      44.192  12.150  45.013  1.00  0.00    +0.000 C 
ATOM     93  N7  UNL A   1      43.564  12.737  43.937  1.00  0.00    +0.000 N 
BRANCH    2    1
ATOM      1  C1  UNL A   1      42.036  12.160  42.042  1.00  0.00    +0.000 C 
ATOM     94  H1  UNL A   1      42.202  11.417  41.290  1.00  0.00    +0.000 H 
ATOM     95  H2  UNL A   1      42.356  13.114  41.679  1.00  0.00    +0.000 H 
ATOM     96  H3  UNL A   1      40.993  12.201  42.278  1.00  0.00    +0.000 H 
ENDBRANCH    2    1
ENDBRANCH    7    6
ENDBRANCH   11   10
BRANCH   11   12
ATOM     12  C12 UNL A   1      48.523   7.552  52.007  1.00  0.00    +0.000 C 
ATOM    102  H9  UNL A   1      48.067   7.564  52.974  1.00  0.00    +0.000 H 
ATOM    103  H10 UNL A   1      48.727   8.556  51.697  1.00  0.00    +0.000 H 
ATOM    104  H11 UNL A   1      49.439   7.000  52.051  1.00  0.00    +0.000 H 
ENDBRANCH   11   12
ENDBRANCH   13   11
ENDBRANCH   15   13
ENDBRANCH   16   15
ENDBRANCH   17   16
ENDBRANCH   18   17
ENDBRANCH   19   18
ENDBRANCH   20   19
ENDBRANCH   21   20
ENDBRANCH   22   21
ENDBRANCH   23   22
ENDBRANCH   25   23
ENDBRANCH   29   28
BRANCH   33   34
ATOM     34  C29 UNL A   1      46.573  17.823  45.872  1.00  0.00    +0.000 C 
ATOM     35  C30 UNL A   1      46.203  17.523  44.552  1.00  0.00    +0.000 C 
ATOM     36  F1  UNL A   1      46.553  16.351  44.004  1.00  0.00    +0.000 F 
ATOM     37  C31 UNL A   1      45.504  18.445  43.778  1.00  0.00    +0.000 C 
ATOM     38  F2  UNL A   1      45.202  18.155  42.504  1.00  0.00    +0.000 F 
ATOM     39  C32 UNL A   1      45.131  19.667  44.316  1.00  0.00    +0.000 C 
ATOM     40  F3  UNL A   1      44.453  20.551  43.571  1.00  0.00    +0.000 F 
ATOM     41  C33 UNL A   1      45.468  19.977  45.626  1.00  0.00    +0.000 C 
ATOM     42  F4  UNL A   1      45.099  21.152  46.151  1.00  0.00    +0.000 F 
ATOM     43  C34 UNL A   1      46.192  19.068  46.395  1.00  0.00    +0.000 C 
ATOM     44  F5  UNL A   1      46.515  19.402  47.652  1.00  0.00    +0.000 F 
ENDBRANCH   33   34
BRANCH   50   51
ATOM     51  C40 UNL A   1      53.380  15.705  46.953  1.00  0.00    +0.000 C 
ATOM     52  C41 UNL A   1      53.935  15.107  45.812  1.00  0.00    +0.000 C 
ATOM     53  F6  UNL A   1      53.262  14.149  45.157  1.00  0.00    +0.000 F 
ATOM     54  C42 UNL A   1      55.204  15.467  45.364  1.00  0.00    +0.000 C 
ATOM     55  F7  UNL A   1      55.734  14.852  44.298  1.00  0.00    +0.000 F 
ATOM     56  C43 UNL A   1      55.924  16.449  46.026  1.00  0.00    +0.000 C 
ATOM     57  F8  UNL A   1      57.143  16.797  45.590  1.00  0.00    +0.000 F 
ATOM     58  C44 UNL A   1      55.386  17.066  47.146  1.00  0.00    +0.000 C 
ATOM     59  F9  UNL A   1      56.077  18.023  47.781  1.00  0.00    +0.000 F 
ATOM     60  C45 UNL A   1      54.130  16.690  47.613  1.00  0.00    +0.000 C 
ATOM     61  F10 UNL A   1      53.640  17.295  48.706  1.00  0.00    +0.000 F 
ENDBRANCH   50   51
BRANCH   65   66
ATOM     66  C49 UNL A   1      51.126  11.005  51.569  1.00  0.00    +0.000 C 
ATOM     67  C50 UNL A   1      51.578  11.316  52.859  1.00  0.00    +0.000 C 
ATOM     68  F11 UNL A   1      51.407  12.554  53.347  1.00  0.00    +0.000 F 
ATOM     69  C51 UNL A   1      52.243  10.370  53.635  1.00  0.00    +0.000 C 
ATOM     70  F12 UNL A   1      52.703  10.706  54.848  1.00  0.00    +0.000 F 
ATOM     71  C52 UNL A   1      52.444   9.088  53.148  1.00  0.00    +0.000 C 
ATOM     72  F13 UNL A   1      53.082   8.177  53.896  1.00  0.00    +0.000 F 
ATOM     73  C53 UNL A   1      51.990   8.752  51.881  1.00  0.00    +0.000 C 
ATOM     74  F14 UNL A   1      52.171   7.510  51.412  1.00  0.00    +0.000 F 
ATOM     75  C54 UNL A   1      51.347   9.705  51.093  1.00  0.00    +0.000 C 
ATOM     76  F15 UNL A   1      50.930   9.358  49.867  1.00  0.00    +0.000 F 
ENDBRANCH   65   66
TORSDOF 19
ENDMDL
MODEL 2
REMARK VINA RESULT:      -8.7     33.548     39.026
ROOT
ATOM    129  H36 UNL A   1      53.933  17.852   9.104  1.00  0.00    +0.000 H 
ATOM    130  H37 UNL A   1      56.200  16.726   9.488  1.00  0.00    +0.000 H 
ATOM     29  C25 UNL A   1      57.544  17.626  11.833  1.00  0.00    +0.000 C 
ATOM     30  C26 UNL A   1      56.159  17.985  11.373  1.00  0.00    +0.000 C 
ATOM     31  N3  UNL A   1      55.277  18.772  11.937  1.00  0.00    +0.000 N 
ATOM     32  C27 UNL A   1      54.184  18.789  11.081  1.00  0.00    +0.000 C 
ATOM     33  C28 UNL A   1      52.992  19.411  11.244  1.00  0.00    +0.000 C 
ATOM     45  C35 UNL A   1      52.639  20.201  12.395  1.00  0.00    +0.000 C 
ATOM     46  C36 UNL A   1      51.440  20.834  12.674  1.00  0.00    +0.000 C 
ATOM     47  C37 UNL A   1      51.575  21.508  13.893  1.00  0.00    +0.000 C 
ATOM     48  C38 UNL A   1      52.843  21.261  14.393  1.00  0.00    +0.000 C 
ATOM     49  N4  UNL A   1      53.488  20.464  13.459  1.00  0.00    +0.000 N 
ATOM     50  C39 UNL A   1      53.425  21.718  15.627  1.00  0.00    +0.000 C 
ATOM     62  C46 UNL A   1      54.682  21.432  16.048  1.00  0.00    +0.000 C 
ATOM     63  N5  UNL A   1      55.655  20.660  15.428  1.00  0.00    +0.000 N 
ATOM     64  C47 UNL A   1      56.699  20.692  16.220  1.00  0.00    +0.000 C 
ATOM     65  C48 UNL A   1      58.029  20.009  16.066  1.00  0.00    +0.000 C 
ATOM     77  C55 UNL A   1      58.247  19.225  14.992  1.00  0.00    +0.000 C 
ATOM     78  C56 UNL A   1      59.482  18.500  14.710  1.00  0.00    +0.000 C 
ATOM     79  C57 UNL A   1      59.356  17.863  13.534  1.00  0.00    +0.000 C 
ATOM     80  C58 UNL A   1      58.017  18.110  12.997  1.00  0.00    +0.000 C 
ATOM     81  N6  UNL A   1      57.427  18.921  13.933  1.00  0.00    +0.000 N 
ATOM     82  C59 UNL A   1      56.514  21.517  17.423  1.00  0.00    +0.000 C 
ATOM     83  C60 UNL A   1      55.256  21.912  17.288  1.00  0.00    +0.000 C 
ATOM     84  C61 UNL A   1      54.531  17.973   9.936  1.00  0.00    +0.000 C 
ATOM     85  C62 UNL A   1      55.716  17.403  10.098  1.00  0.00    +0.000 C 
ATOM    121  H28 UNL A   1      50.594  20.812  12.085  1.00  0.00    +0.000 H 
ATOM    122  H29 UNL A   1      50.851  22.090  14.344  1.00  0.00    +0.000 H 
ATOM    123  H30 UNL A   1      54.412  20.132  13.541  1.00  0.00    +0.000 H 
ATOM    124  H31 UNL A   1      60.316  18.478  15.316  1.00  0.00    +0.000 H 
ATOM    125  H32 UNL A   1      60.086  17.291  13.082  1.00  0.00    +0.000 H 
ATOM    126  H33 UNL A   1      56.504  19.254  13.855  1.00  0.00    +0.000 H 
ATOM    127  H34 UNL A   1      57.187  21.732  18.175  1.00  0.00    +0.000 H 
ATOM    128  H35 UNL A   1      54.750  22.487  17.979  1.00  0.00    +0.000 H 
ENDROOT
BRANCH   29   28
ATOM    131  H38 UNL A   1      57.724  14.954  11.763  1.00  0.00    +0.000 H 
ATOM    132  H39 UNL A   1      59.217  13.569  10.450  1.00  0.00    +0.000 H 
ATOM    120  H27 UNL A   1      59.376  18.398   9.985  1.00  0.00    +0.000 H 
ATOM     86  C63 UNL A   1      58.375  15.392  11.093  1.00  0.00    +0.000 C 
ATOM     87  C64 UNL A   1      59.205  14.590  10.310  1.00  0.00    +0.000 C 
ATOM    119  H26 UNL A   1      60.725  16.996   8.533  1.00  0.00    +0.000 H 
ATOM     25  C21 UNL A   1      60.021  15.172   9.336  1.00  0.00    +0.000 C 
ATOM     26  C22 UNL A   1      60.092  16.565   9.225  1.00  0.00    +0.000 C 
ATOM     27  C23 UNL A   1      59.306  17.370  10.053  1.00  0.00    +0.000 C 
ATOM     28  C24 UNL A   1      58.421  16.789  10.975  1.00  0.00    +0.000 C 
BRANCH   25   23
ATOM     23  C20 UNL A   1      60.863  14.341   8.445  1.00  0.00    +0.000 C 
ATOM     24  O2  UNL A   1      62.053  14.605   8.315  1.00  0.00    +0.000 O 
BRANCH   23   22
ATOM    118  H25 UNL A   1      60.598  12.387   8.090  1.00  0.00    +0.000 H 
ATOM     22  N2  UNL A   1      60.319  13.276   7.769  1.00  0.00    +0.000 N 
BRANCH   22   21
ATOM    117  H24 UNL A   1      58.397  13.260   7.044  1.00  0.00    +0.000 H 
ATOM    116  H23 UNL A   1      59.580  12.402   6.051  1.00  0.00    +0.000 H 
ATOM     21  C19 UNL A   1      59.392  13.269   6.649  1.00  0.00    +0.000 C 
BRANCH   21   20
ATOM    114  H21 UNL A   1      60.162  15.211   6.293  1.00  0.00    +0.000 H 
ATOM    115  H22 UNL A   1      59.954  14.180   4.846  1.00  0.00    +0.000 H 
ATOM     20  C18 UNL A   1      59.539  14.513   5.775  1.00  0.00    +0.000 C 
BRANCH   20   19
ATOM    113  H20 UNL A   1      57.557  14.445   5.098  1.00  0.00    +0.000 H 
ATOM     19  C17 UNL A   1      58.222  15.217   5.428  1.00  0.00    +0.000 C 
ATOM    112  H19 UNL A   1      58.431  15.957   4.684  1.00  0.00    +0.000 H 
BRANCH   19   18
ATOM     18  C16 UNL A   1      57.509  15.910   6.597  1.00  0.00    +0.000 C 
ATOM    110  H17 UNL A   1      58.219  16.036   7.388  1.00  0.00    +0.000 H 
ATOM    111  H18 UNL A   1      57.132  16.832   6.208  1.00  0.00    +0.000 H 
BRANCH   18   17
ATOM     17  C15 UNL A   1      56.298  15.162   7.163  1.00  0.00    +0.000 C 
ATOM    108  H15 UNL A   1      56.287  14.176   6.747  1.00  0.00    +0.000 H 
ATOM    109  H16 UNL A   1      56.406  15.159   8.228  1.00  0.00    +0.000 H 
BRANCH   17   16
ATOM    106  H13 UNL A   1      54.199  15.073   6.801  1.00  0.00    +0.000 H 
ATOM    107  H14 UNL A   1      54.747  16.528   7.638  1.00  0.00    +0.000 H 
ATOM     16  C14 UNL A   1      54.955  15.828   6.856  1.00  0.00    +0.000 C 
BRANCH   16   15
ATOM    105  H12 UNL A   1      55.340  16.040   4.844  1.00  0.00    +0.000 H 
ATOM     15  N1  UNL A   1      54.982  16.554   5.603  1.00  0.00    +0.000 N 
BRANCH   15   13
ATOM     13  C13 UNL A   1      54.596  17.823   5.291  1.00  0.00    +0.000 C 
ATOM     14  O1  UNL A   1      53.384  17.999   5.109  1.00  0.00    +0.000 O 
BRANCH   13   11
ATOM     11  C11 UNL A   1      55.571  18.998   5.135  1.00  0.00    +0.000 C 
ATOM    101  H8  UNL A   1      55.019  19.767   4.636  1.00  0.00    +0.000 H 
BRANCH   11   10
ATOM     99  H6  UNL A   1      58.435  19.845   8.706  1.00  0.00    +0.000 H 
ATOM    100  H7  UNL A   1      57.952  18.971   6.516  1.00  0.00    +0.000 H 
ATOM    133  H40 UNL A   1      54.075  20.547   6.755  1.00  0.00    +0.000 H 
ATOM    134  H41 UNL A   1      54.616  21.566   8.878  1.00  0.00    +0.000 H 
ATOM      7  C7  UNL A   1      56.575  20.792   8.999  1.00  0.00    +0.000 C 
ATOM      8  C8  UNL A   1      57.508  20.021   8.287  1.00  0.00    +0.000 C 
ATOM      9  C9  UNL A   1      57.220  19.487   7.029  1.00  0.00    +0.000 C 
ATOM     10  C10 UNL A   1      55.958  19.643   6.456  1.00  0.00    +0.000 C 
ATOM     88  C65 UNL A   1      55.014  20.407   7.158  1.00  0.00    +0.000 C 
ATOM     89  C66 UNL A   1      55.324  20.987   8.398  1.00  0.00    +0.000 C 
BRANCH    7    6
ATOM     97  H4  UNL A   1      54.656  23.941  13.029  1.00  0.00    +0.000 H 
ATOM      2  C2  UNL A   1      56.484  23.936  14.168  1.00  0.00    +0.000 C 
ATOM      3  C3  UNL A   1      55.629  23.615  13.136  1.00  0.00    +0.000 C 
ATOM      4  C4  UNL A   1      56.325  22.756  12.246  1.00  0.00    +0.000 C 
ATOM      5  C5  UNL A   1      55.984  22.129  11.034  1.00  0.00    +0.000 C 
ATOM     98  H5  UNL A   1      55.028  22.235  10.659  1.00  0.00    +0.000 H 
ATOM      6  C6  UNL A   1      56.926  21.357  10.322  1.00  0.00    +0.000 C 
ATOM    136  H43 UNL A   1      59.493  21.626  12.528  1.00  0.00    +0.000 H 
ATOM    137  H44 UNL A   1      58.457  23.317  14.528  1.00  0.00    +0.000 H 
ATOM    135  H42 UNL A   1      58.896  20.613  10.394  1.00  0.00    +0.000 H 
ATOM     90  C67 UNL A   1      58.199  21.188  10.893  1.00  0.00    +0.000 C 
ATOM     91  C68 UNL A   1      58.558  21.774  12.118  1.00  0.00    +0.000 C 
ATOM     92  C69 UNL A   1      57.602  22.566  12.762  1.00  0.00    +0.000 C 
ATOM     93  N7  UNL A   1      57.670  23.280  13.936  1.00  0.00    +0.000 N 
BRANCH    2    1
ATOM      1  C1  UNL A   1      56.280  24.804  15.353  1.00  0.00    +0.000 C 
ATOM     94  H1  UNL A   1      56.342  24.213  16.243  1.00  0.00    +0.000 H 
ATOM     95  H2  UNL A   1      55.316  25.264  15.297  1.00  0.00    +0.000 H 
ATOM     96  H3  UNL A   1      57.035  25.561  15.375  1.00  0.00    +0.000 H 
ENDBRANCH    2    1
ENDBRANCH    7    6
ENDBRANCH   11   10
BRANCH   11   12
ATOM     12  C12 UNL A   1      56.719  18.735   4.158  1.00  0.00    +0.000 C 
ATOM    102  H9  UNL A   1      56.974  17.696   4.179  1.00  0.00    +0.000 H 
ATOM    103  H10 UNL A   1      57.572  19.316   4.443  1.00  0.00    +0.000 H 
ATOM    104  H11 UNL A   1      56.417  19.008   3.168  1.00  0.00    +0.000 H 
ENDBRANCH   11   12
ENDBRANCH   13   11
ENDBRANCH   15   13
ENDBRANCH   16   15
ENDBRANCH   17   16
ENDBRANCH   18   17
ENDBRANCH   19   18
ENDBRANCH   20   19
ENDBRANCH   21   20
ENDBRANCH   22   21
ENDBRANCH   23   22
ENDBRANCH   25   23
ENDBRANCH   29   28
BRANCH   33   34
ATOM     34  C29 UNL A   1      51.975  19.256  10.150  1.00  0.00    +0.000 C 
ATOM     35  C30 UNL A   1      51.632  20.327   9.312  1.00  0.00    +0.000 C 
ATOM     36  F1  UNL A   1      52.182  21.535   9.502  1.00  0.00    +0.000 F 
ATOM     37  C31 UNL A   1      50.693  20.169   8.297  1.00  0.00    +0.000 C 
ATOM     38  F2  UNL A   1      50.346  21.218   7.538  1.00  0.00    +0.000 F 
ATOM     39  C32 UNL A   1      50.104  18.933   8.078  1.00  0.00    +0.000 C 
ATOM     40  F3  UNL A   1      49.203  18.781   7.098  1.00  0.00    +0.000 F 
ATOM     41  C33 UNL A   1      50.443  17.854   8.882  1.00  0.00    +0.000 C 
ATOM     42  F4  UNL A   1      49.884  16.657   8.665  1.00  0.00    +0.000 F 
ATOM     43  C34 UNL A   1      51.362  18.015   9.916  1.00  0.00    +0.000 C 
ATOM     44  F5  UNL A   1      51.659  16.958  10.686  1.00  0.00    +0.000 F 
ENDBRANCH   33   34
BRANCH   50   51
ATOM     51  C40 UNL A   1      52.574  22.557  16.532  1.00  0.00    +0.000 C 
ATOM     52  C41 UNL A   1      51.934  22.011  17.655  1.00  0.00    +0.000 C 
ATOM     53  F6  UNL A   1      52.032  20.698  17.915  1.00  0.00    +0.000 F 
ATOM     54  C42 UNL A   1      51.159  22.808  18.493  1.00  0.00    +0.000 C 
ATOM     55  F7  UNL A   1      50.521  22.258  19.535  1.00  0.00    +0.000 F 
ATOM     56  C43 UNL A   1      51.036  24.167  18.245  1.00  0.00    +0.000 C 
ATOM     57  F8  UNL A   1      50.294  24.933  19.056  1.00  0.00    +0.000 F 
ATOM     58  C44 UNL A   1      51.674  24.730  17.149  1.00  0.00    +0.000 C 
ATOM     59  F9  UNL A   1      51.564  26.045  16.914  1.00  0.00    +0.000 F 
ATOM     60  C45 UNL A   1      52.427  23.932  16.295  1.00  0.00    +0.000 C 
ATOM     61  F10 UNL A   1      53.024  24.502  15.236  1.00  0.00    +0.000 F 
ENDBRANCH   50   51
BRANCH   65   66
ATOM     66  C49 UNL A   1      59.088  20.165  17.097  1.00  0.00    +0.000 C 
ATOM     67  C50 UNL A   1      59.957  21.264  17.069  1.00  0.00    +0.000 C 
ATOM     68  F11 UNL A   1      59.848  22.179  16.095  1.00  0.00    +0.000 F 
ATOM     69  C51 UNL A   1      60.968  21.404  18.017  1.00  0.00    +0.000 C 
ATOM     70  F12 UNL A   1      61.814  22.441  17.942  1.00  0.00    +0.000 F 
ATOM     71  C52 UNL A   1      61.110  20.465  19.027  1.00  0.00    +0.000 C 
ATOM     72  F13 UNL A   1      62.082  20.602  19.940  1.00  0.00    +0.000 F 
ATOM     73  C53 UNL A   1      60.250  19.379  19.084  1.00  0.00    +0.000 C 
ATOM     74  F14 UNL A   1      60.377  18.475  20.067  1.00  0.00    +0.000 F 
ATOM     75  C54 UNL A   1      59.255  19.223  18.122  1.00  0.00    +0.000 C 
ATOM     76  F15 UNL A   1      58.445  18.157  18.194  1.00  0.00    +0.000 F 
ENDBRANCH   65   66
TORSDOF 19
ENDMDL
MODEL 3
REMARK VINA RESULT:      -8.7      2.986      9.645
ROOT
ATOM    129  H36 UNL A   1      45.985   8.104  49.734  1.00  0.00    +0.000 H 
ATOM    130  H37 UNL A   1      45.335   9.175  47.502  1.00  0.00    +0.000 H 
ATOM     29  C25 UNL A   1      46.564  11.703  47.042  1.00  0.00    +0.000 C 
ATOM     30  C26 UNL A   1      46.811  10.756  48.182  1.00  0.00    +0.000 C 
ATOM     31  N3  UNL A   1      47.631  10.875  49.196  1.00  0.00    +0.000 N 
ATOM     32  C27 UNL A   1      47.437   9.742  49.975  1.00  0.00    +0.000 C 
ATOM     33  C28 UNL A   1      48.088   9.369  51.102  1.00  0.00    +0.000 C 
ATOM     45  C35 UNL A   1      49.150  10.125  51.715  1.00  0.00    +0.000 C 
ATOM     46  C36 UNL A   1      49.903   9.808  52.832  1.00  0.00    +0.000 C 
ATOM     47  C37 UNL A   1      50.796  10.860  53.069  1.00  0.00    +0.000 C 
ATOM     48  C38 UNL A   1      50.627  11.811  52.077  1.00  0.00    +0.000 C 
ATOM     49  N4  UNL A   1      49.608  11.351  51.256  1.00  0.00    +0.000 N 
ATOM     50  C39 UNL A   1      51.339  13.048  51.890  1.00  0.00    +0.000 C 
ATOM     62  C46 UNL A   1      51.113  13.932  50.888  1.00  0.00    +0.000 C 
ATOM     63  N5  UNL A   1      50.197  13.856  49.847  1.00  0.00    +0.000 N 
ATOM     64  C47 UNL A   1      50.355  14.953  49.147  1.00  0.00    +0.000 C 
ATOM     65  C48 UNL A   1      49.650  15.389  47.893  1.00  0.00    +0.000 C 
ATOM     77  C55 UNL A   1      48.721  14.582  47.344  1.00  0.00    +0.000 C 
ATOM     78  C56 UNL A   1      47.959  14.869  46.133  1.00  0.00    +0.000 C 
ATOM     79  C57 UNL A   1      47.095  13.865  45.912  1.00  0.00    +0.000 C 
ATOM     80  C58 UNL A   1      47.267  12.848  46.951  1.00  0.00    +0.000 C 
ATOM     81  N6  UNL A   1      48.259  13.355  47.752  1.00  0.00    +0.000 N 
ATOM     82  C59 UNL A   1      51.373  15.867  49.686  1.00  0.00    +0.000 C 
ATOM     83  C60 UNL A   1      51.830  15.179  50.722  1.00  0.00    +0.000 C 
ATOM     84  C61 UNL A   1      46.387   8.970  49.344  1.00  0.00    +0.000 C 
ATOM     85  C62 UNL A   1      46.011   9.522  48.199  1.00  0.00    +0.000 C 
ATOM    121  H28 UNL A   1      49.821   8.947  53.392  1.00  0.00    +0.000 H 
ATOM    122  H29 UNL A   1      51.467  10.916  53.852  1.00  0.00    +0.000 H 
ATOM    123  H30 UNL A   1      49.262  11.824  50.465  1.00  0.00    +0.000 H 
ATOM    124  H31 UNL A   1      48.068  15.706  45.540  1.00  0.00    +0.000 H 
ATOM    125  H32 UNL A   1      46.418  13.818  45.135  1.00  0.00    +0.000 H 
ATOM    126  H33 UNL A   1      48.607  12.884  48.544  1.00  0.00    +0.000 H 
ATOM    127  H34 UNL A   1      51.657  16.799  49.346  1.00  0.00    +0.000 H 
ATOM    128  H35 UNL A   1      52.601  15.492  51.333  1.00  0.00    +0.000 H 
ENDROOT
BRANCH   29   28
ATOM    131  H38 UNL A   1      43.990  12.437  47.115  1.00  0.00    +0.000 H 
ATOM    132  H39 UNL A   1      42.212  11.890  45.562  1.00  0.00    +0.000 H 
ATOM    120  H27 UNL A   1      46.716  10.281  44.735  1.00  0.00    +0.000 H 
ATOM     86  C63 UNL A   1      44.197  11.882  46.271  1.00  0.00    +0.000 C 
ATOM     87  C64 UNL A   1      43.180  11.602  45.359  1.00  0.00    +0.000 C 
ATOM    119  H26 UNL A   1      44.975   9.908  43.085  1.00  0.00    +0.000 H 
ATOM     25  C21 UNL A   1      43.476  10.931  44.168  1.00  0.00    +0.000 C 
ATOM     26  C22 UNL A   1      44.766  10.438  43.946  1.00  0.00    +0.000 C 
ATOM     27  C23 UNL A   1      45.771  10.665  44.890  1.00  0.00    +0.000 C 
ATOM     28  C24 UNL A   1      45.500  11.412  46.048  1.00  0.00    +0.000 C 
BRANCH   25   23
ATOM     23  C20 UNL A   1      42.430  10.679  43.151  1.00  0.00    +0.000 C 
ATOM     24  O2  UNL A   1      42.525   9.707  42.411  1.00  0.00    +0.000 O 
BRANCH   23   22
ATOM    118  H25 UNL A   1      40.685  11.456  43.755  1.00  0.00    +0.000 H 
ATOM     22  N2  UNL A   1      41.354  11.526  43.036  1.00  0.00    +0.000 N 
BRANCH   22   21
ATOM    117  H24 UNL A   1      40.113  12.954  42.238  1.00  0.00    +0.000 H 
ATOM    116  H23 UNL A   1      41.036  12.021  41.057  1.00  0.00    +0.000 H 
ATOM     21  C19 UNL A   1      41.059  12.511  42.007  1.00  0.00    +0.000 C 
BRANCH   21   20
ATOM    114  H21 UNL A   1      43.061  13.176  41.808  1.00  0.00    +0.000 H 
ATOM    115  H22 UNL A   1      41.808  14.281  41.171  1.00  0.00    +0.000 H 
ATOM     20  C18 UNL A   1      42.103  13.625  41.963  1.00  0.00    +0.000 C 
BRANCH   20   19
ATOM    113  H20 UNL A   1      42.830  13.962  43.899  1.00  0.00    +0.000 H 
ATOM     19  C17 UNL A   1      42.180  14.486  43.229  1.00  0.00    +0.000 C 
ATOM    112  H19 UNL A   1      41.185  14.615  43.601  1.00  0.00    +0.000 H 
BRANCH   19   18
ATOM     18  C16 UNL A   1      42.801  15.878  43.050  1.00  0.00    +0.000 C 
ATOM    110  H17 UNL A   1      42.060  16.517  42.616  1.00  0.00    +0.000 H 
ATOM    111  H18 UNL A   1      43.118  16.188  44.023  1.00  0.00    +0.000 H 
BRANCH   18   17
ATOM     17  C15 UNL A   1      44.049  15.931  42.161  1.00  0.00    +0.000 C 
ATOM    108  H15 UNL A   1      44.022  15.094  41.495  1.00  0.00    +0.000 H 
ATOM    109  H16 UNL A   1      44.023  16.868  41.647  1.00  0.00    +0.000 H 
BRANCH   17   16
ATOM    106  H13 UNL A   1      45.217  15.338  43.843  1.00  0.00    +0.000 H 
ATOM    107  H14 UNL A   1      46.100  15.415  42.316  1.00  0.00    +0.000 H 
ATOM     16  C14 UNL A   1      45.367  15.886  42.937  1.00  0.00    +0.000 C 
BRANCH   16   15
ATOM    105  H12 UNL A   1      46.032  17.783  42.487  1.00  0.00    +0.000 H 
ATOM     15  N1  UNL A   1      45.849  17.212  43.267  1.00  0.00    +0.000 N 
BRANCH   15   13
ATOM     13  C13 UNL A   1      46.092  17.806  44.469  1.00  0.00    +0.000 C 
ATOM     14  O1  UNL A   1      47.267  18.119  44.699  1.00  0.00    +0.000 O 
BRANCH   13   11
ATOM     11  C11 UNL A   1      45.008  18.074  45.523  1.00  0.00    +0.000 C 
ATOM    101  H8  UNL A   1      44.082  18.089  44.987  1.00  0.00    +0.000 H 
BRANCH   11   10
ATOM     99  H6  UNL A   1      42.994  14.188  47.109  1.00  0.00    +0.000 H 
ATOM    100  H7  UNL A   1      43.380  15.857  45.418  1.00  0.00    +0.000 H 
ATOM    133  H40 UNL A   1      46.269  17.654  47.868  1.00  0.00    +0.000 H 
ATOM    134  H41 UNL A   1      45.999  15.883  49.490  1.00  0.00    +0.000 H 
ATOM      7  C7  UNL A   1      44.461  14.873  48.458  1.00  0.00    +0.000 C 
ATOM      8  C8  UNL A   1      43.714  14.911  47.270  1.00  0.00    +0.000 C 
ATOM      9  C9  UNL A   1      43.915  15.896  46.301  1.00  0.00    +0.000 C 
ATOM     10  C10 UNL A   1      44.827  16.930  46.508  1.00  0.00    +0.000 C 
ATOM     88  C65 UNL A   1      45.579  16.907  47.692  1.00  0.00    +0.000 C 
ATOM     89  C66 UNL A   1      45.412  15.887  48.641  1.00  0.00    +0.000 C 
BRANCH    7    6
ATOM     97  H4  UNL A   1      40.544  11.825  50.740  1.00  0.00    +0.000 H 
ATOM      2  C2  UNL A   1      41.848  10.859  52.156  1.00  0.00    +0.000 C 
ATOM      3  C3  UNL A   1      41.495  11.692  51.117  1.00  0.00    +0.000 C 
ATOM      4  C4  UNL A   1      42.673  12.336  50.656  1.00  0.00    +0.000 C 
ATOM      5  C5  UNL A   1      42.934  13.285  49.651  1.00  0.00    +0.000 C 
ATOM     98  H5  UNL A   1      42.161  13.610  49.047  1.00  0.00    +0.000 H 
ATOM      6  C6  UNL A   1      44.232  13.800  49.452  1.00  0.00    +0.000 C 
ATOM    136  H43 UNL A   1      45.821  11.946  51.812  1.00  0.00    +0.000 H 
ATOM    137  H44 UNL A   1      43.733  10.466  52.990  1.00  0.00    +0.000 H 
ATOM    135  H42 UNL A   1      46.227  13.645  50.113  1.00  0.00    +0.000 H 
ATOM     90  C67 UNL A   1      45.267  13.291  50.255  1.00  0.00    +0.000 C 
ATOM     91  C68 UNL A   1      45.044  12.318  51.243  1.00  0.00    +0.000 C 
ATOM     92  C69 UNL A   1      43.732  11.873  51.429  1.00  0.00    +0.000 C 
ATOM     93  N7  UNL A   1      43.208  10.966  52.323  1.00  0.00    +0.000 N 
BRANCH    2    1
ATOM      1  C1  UNL A   1      41.016   9.970  53.002  1.00  0.00    +0.000 C 
ATOM     94  H1  UNL A   1      40.510  10.554  53.743  1.00  0.00    +0.000 H 
ATOM     95  H2  UNL A   1      41.642   9.248  53.483  1.00  0.00    +0.000 H 
ATOM     96  H3  UNL A   1      40.296   9.467  52.392  1.00  0.00    +0.000 H 
ENDBRANCH    2    1
ENDBRANCH    7    6
ENDBRANCH   11   10
BRANCH   11   12
ATOM     12  C12 UNL A   1      45.057  19.477  46.131  1.00  0.00    +0.000 C 
ATOM    102  H9  UNL A   1      44.205  20.037  45.806  1.00  0.00    +0.000 H 
ATOM    103  H10 UNL A   1      45.951  19.973  45.813  1.00  0.00    +0.000 H 
ATOM    104  H11 UNL A   1      45.050  19.405  47.199  1.00  0.00    +0.000 H 
ENDBRANCH   11   12
ENDBRANCH   13   11
ENDBRANCH   15   13
ENDBRANCH   16   15
ENDBRANCH   17   16
ENDBRANCH   18   17
ENDBRANCH   19   18
ENDBRANCH   20   19
ENDBRANCH   21   20
ENDBRANCH   22   21
ENDBRANCH   23   22
ENDBRANCH   25   23
ENDBRANCH   29   28
BRANCH   33   34
ATOM     34  C29 UNL A   1      47.675   8.077  51.745  1.00  0.00    +0.000 C 
ATOM     35  C30 UNL A   1      46.554   8.004  52.586  1.00  0.00    +0.000 C 
ATOM     36  F1  UNL A   1      45.849   9.108  52.869  1.00  0.00    +0.000 F 
ATOM     37  C31 UNL A   1      46.176   6.798  53.171  1.00  0.00    +0.000 C 
ATOM     38  F2  UNL A   1      45.130   6.760  54.008  1.00  0.00    +0.000 F 
ATOM     39  C32 UNL A   1      46.888   5.639  52.902  1.00  0.00    +0.000 C 
ATOM     40  F3  UNL A   1      46.520   4.479  53.462  1.00  0.00    +0.000 F 
ATOM     41  C33 UNL A   1      47.987   5.684  52.057  1.00  0.00    +0.000 C 
ATOM     42  F4  UNL A   1      48.669   4.564  51.786  1.00  0.00    +0.000 F 
ATOM     43  C34 UNL A   1      48.385   6.894  51.491  1.00  0.00    +0.000 C 
ATOM     44  F5  UNL A   1      49.460   6.908  50.690  1.00  0.00    +0.000 F 
ENDBRANCH   33   34
BRANCH   50   51
ATOM     51  C40 UNL A   1      52.430  13.380  52.863  1.00  0.00    +0.000 C 
ATOM     52  C41 UNL A   1      52.173  14.101  54.038  1.00  0.00    +0.000 C 
ATOM     53  F6  UNL A   1      50.938  14.560  54.292  1.00  0.00    +0.000 F 
ATOM     54  C42 UNL A   1      53.196  14.387  54.938  1.00  0.00    +0.000 C 
ATOM     55  F7  UNL A   1      52.938  15.115  56.033  1.00  0.00    +0.000 F 
ATOM     56  C43 UNL A   1      54.483  13.931  54.698  1.00  0.00    +0.000 C 
ATOM     57  F8  UNL A   1      55.465  14.203  55.569  1.00  0.00    +0.000 F 
ATOM     58  C44 UNL A   1      54.756  13.201  53.551  1.00  0.00    +0.000 C 
ATOM     59  F9  UNL A   1      55.998  12.750  53.323  1.00  0.00    +0.000 F 
ATOM     60  C45 UNL A   1      53.742  12.936  52.636  1.00  0.00    +0.000 C 
ATOM     61  F10 UNL A   1      54.037  12.238  51.528  1.00  0.00    +0.000 F 
ENDBRANCH   50   51
BRANCH   65   66
ATOM     66  C49 UNL A   1      49.990  16.680  47.239  1.00  0.00    +0.000 C 
ATOM     67  C50 UNL A   1      49.349  17.866  47.622  1.00  0.00    +0.000 C 
ATOM     68  F11 UNL A   1      48.406  17.839  48.577  1.00  0.00    +0.000 F 
ATOM     69  C51 UNL A   1      49.643  19.076  46.998  1.00  0.00    +0.000 C 
ATOM     70  F12 UNL A   1      48.984  20.188  47.353  1.00  0.00    +0.000 F 
ATOM     71  C52 UNL A   1      50.603  19.128  46.000  1.00  0.00    +0.000 C 
ATOM     72  F13 UNL A   1      50.888  20.293  45.401  1.00  0.00    +0.000 F 
ATOM     73  C53 UNL A   1      51.263  17.969  45.617  1.00  0.00    +0.000 C 
ATOM     74  F14 UNL A   1      52.201  18.018  44.660  1.00  0.00    +0.000 F 
ATOM     75  C54 UNL A   1      50.952  16.754  46.223  1.00  0.00    +0.000 C 
ATOM     76  F15 UNL A   1      51.596  15.647  45.824  1.00  0.00    +0.000 F 
ENDBRANCH   65   66
TORSDOF 19
ENDMDL
MODEL 4
REMARK VINA RESULT:      -8.6     30.525     37.620
ROOT
ATOM    129  H36 UNL A   1      23.674  35.471  45.930  1.00  0.00    +0.000 H 
ATOM    130  H37 UNL A   1      25.262  37.438  46.337  1.00  0.00    +0.000 H 
ATOM     29  C25 UNL A   1      24.028  39.660  47.621  1.00  0.00    +0.000 C 
ATOM     30  C26 UNL A   1      23.426  38.312  47.340  1.00  0.00    +0.000 C 
ATOM     31  N3  UNL A   1      22.228  37.864  47.619  1.00  0.00    +0.000 N 
ATOM     32  C27 UNL A   1      22.176  36.575  47.107  1.00  0.00    +0.000 C 
ATOM     33  C28 UNL A   1      21.171  35.672  47.189  1.00  0.00    +0.000 C 
ATOM     45  C35 UNL A   1      19.918  35.910  47.858  1.00  0.00    +0.000 C 
ATOM     46  C36 UNL A   1      18.854  35.043  48.035  1.00  0.00    +0.000 C 
ATOM     47  C37 UNL A   1      17.842  35.726  48.719  1.00  0.00    +0.000 C 
ATOM     48  C38 UNL A   1      18.291  37.005  49.003  1.00  0.00    +0.000 C 
ATOM     49  N4  UNL A   1      19.564  37.107  48.463  1.00  0.00    +0.000 N 
ATOM     50  C39 UNL A   1      17.612  38.057  49.714  1.00  0.00    +0.000 C 
ATOM     62  C46 UNL A   1      18.122  39.290  49.952  1.00  0.00    +0.000 C 
ATOM     63  N5  UNL A   1      19.361  39.805  49.599  1.00  0.00    +0.000 N 
ATOM     64  C47 UNL A   1      19.380  41.038  50.044  1.00  0.00    +0.000 C 
ATOM     65  C48 UNL A   1      20.482  42.057  49.970  1.00  0.00    +0.000 C 
ATOM     77  C55 UNL A   1      21.652  41.724  49.391  1.00  0.00    +0.000 C 
ATOM     78  C56 UNL A   1      22.808  42.603  49.249  1.00  0.00    +0.000 C 
ATOM     79  C57 UNL A   1      23.774  41.950  48.583  1.00  0.00    +0.000 C 
ATOM     80  C58 UNL A   1      23.315  40.594  48.281  1.00  0.00    +0.000 C 
ATOM     81  N6  UNL A   1      22.049  40.546  48.806  1.00  0.00    +0.000 N 
ATOM     82  C59 UNL A   1      18.135  41.454  50.706  1.00  0.00    +0.000 C 
ATOM     83  C60 UNL A   1      17.419  40.341  50.657  1.00  0.00    +0.000 C 
ATOM     84  C61 UNL A   1      23.446  36.328  46.457  1.00  0.00    +0.000 C 
ATOM     85  C62 UNL A   1      24.276  37.347  46.627  1.00  0.00    +0.000 C 
ATOM    121  H28 UNL A   1      18.814  34.062  47.718  1.00  0.00    +0.000 H 
ATOM    122  H29 UNL A   1      16.917  35.341  48.969  1.00  0.00    +0.000 H 
ATOM    123  H30 UNL A   1      20.133  37.910  48.503  1.00  0.00    +0.000 H 
ATOM    124  H31 UNL A   1      22.873  43.569  49.605  1.00  0.00    +0.000 H 
ATOM    125  H32 UNL A   1      24.693  42.342  48.325  1.00  0.00    +0.000 H 
ATOM    126  H33 UNL A   1      21.478  39.745  48.767  1.00  0.00    +0.000 H 
ATOM    127  H34 UNL A   1      17.886  42.373  51.104  1.00  0.00    +0.000 H 
ATOM    128  H35 UNL A   1      16.479  40.236  51.071  1.00  0.00    +0.000 H 
ENDROOT
BRANCH   29   28
ATOM    131  H38 UNL A   1      26.346  39.616  48.962  1.00  0.00    +0.000 H 
ATOM    132  H39 UNL A   1      28.554  40.251  48.195  1.00  0.00    +0.000 H 
ATOM    120  H27 UNL A   1      24.782  40.490  45.149  1.00  0.00    +0.000 H 
ATOM     86  C63 UNL A   1      26.483  39.916  47.985  1.00  0.00    +0.000 C 
ATOM     87  C64 UNL A   1      27.762  40.242  47.535  1.00  0.00    +0.000 C 
ATOM    119  H26 UNL A   1      27.025  40.932  44.335  1.00  0.00    +0.000 H 
ATOM     25  C21 UNL A   1      27.969  40.558  46.189  1.00  0.00    +0.000 C 
ATOM     26  C22 UNL A   1      26.877  40.660  45.319  1.00  0.00    +0.000 C 
ATOM     27  C23 UNL A   1      25.588  40.392  45.786  1.00  0.00    +0.000 C 
ATOM     28  C24 UNL A   1      25.384  39.992  47.116  1.00  0.00    +0.000 C 
BRANCH   25   23
ATOM     23  C20 UNL A   1      29.325  40.844  45.668  1.00  0.00    +0.000 C 
ATOM     24  O2  UNL A   1      29.853  41.923  45.912  1.00  0.00    +0.000 O 
BRANCH   23   22
ATOM    118  H25 UNL A   1      29.955  40.046  43.943  1.00  0.00    +0.000 H 
ATOM     22  N2  UNL A   1      29.994  39.908  44.917  1.00  0.00    +0.000 N 
BRANCH   22   21
ATOM    117  H24 UNL A   1      31.230  38.987  46.275  1.00  0.00    +0.000 H 
ATOM    116  H23 UNL A   1      31.464  38.495  44.595  1.00  0.00    +0.000 H 
ATOM     21  C19 UNL A   1      30.749  38.743  45.350  1.00  0.00    +0.000 C 
BRANCH   21   20
ATOM    114  H21 UNL A   1      30.440  36.650  45.473  1.00  0.00    +0.000 H 
ATOM    115  H22 UNL A   1      29.454  37.647  46.582  1.00  0.00    +0.000 H 
ATOM     20  C18 UNL A   1      29.849  37.534  45.594  1.00  0.00    +0.000 C 
BRANCH   20   19
ATOM    113  H20 UNL A   1      29.029  37.536  43.666  1.00  0.00    +0.000 H 
ATOM     19  C17 UNL A   1      28.640  37.430  44.658  1.00  0.00    +0.000 C 
ATOM    112  H19 UNL A   1      27.944  38.194  44.934  1.00  0.00    +0.000 H 
BRANCH   19   18
ATOM     18  C16 UNL A   1      27.898  36.086  44.674  1.00  0.00    +0.000 C 
ATOM    110  H17 UNL A   1      27.495  35.944  45.654  1.00  0.00    +0.000 H 
ATOM    111  H18 UNL A   1      27.154  36.150  43.908  1.00  0.00    +0.000 H 
BRANCH   18   17
ATOM     17  C15 UNL A   1      28.754  34.861  44.332  1.00  0.00    +0.000 C 
ATOM    108  H15 UNL A   1      28.821  34.785  43.267  1.00  0.00    +0.000 H 
ATOM    109  H16 UNL A   1      29.706  35.010  44.796  1.00  0.00    +0.000 H 
BRANCH   17   16
ATOM    106  H13 UNL A   1      27.378  33.235  44.260  1.00  0.00    +0.000 H 
ATOM    107  H14 UNL A   1      28.986  32.820  44.858  1.00  0.00    +0.000 H 
ATOM     16  C14 UNL A   1      28.198  33.543  44.875  1.00  0.00    +0.000 C 
BRANCH   16   15
ATOM    105  H12 UNL A   1      26.757  33.658  46.342  1.00  0.00    +0.000 H 
ATOM     15  N1  UNL A   1      27.736  33.668  46.241  1.00  0.00    +0.000 N 
BRANCH   15   13
ATOM     13  C13 UNL A   1      28.419  33.797  47.413  1.00  0.00    +0.000 C 
ATOM     14  O1  UNL A   1      28.977  32.776  47.838  1.00  0.00    +0.000 O 
BRANCH   13   11
ATOM     11  C11 UNL A   1      28.503  35.104  48.215  1.00  0.00    +0.000 C 
ATOM    101  H8  UNL A   1      28.715  35.869  47.497  1.00  0.00    +0.000 H 
BRANCH   11   10
ATOM     99  H6  UNL A   1      25.684  38.007  50.516  1.00  0.00    +0.000 H 
ATOM    100  H7  UNL A   1      27.755  37.464  49.416  1.00  0.00    +0.000 H 
ATOM    133  H40 UNL A   1      26.183  33.736  48.321  1.00  0.00    +0.000 H 
ATOM    134  H41 UNL A   1      24.051  34.350  49.279  1.00  0.00    +0.000 H 
ATOM      7  C7  UNL A   1      24.669  36.234  49.999  1.00  0.00    +0.000 C 
ATOM      8  C8  UNL A   1      25.773  37.102  50.028  1.00  0.00    +0.000 C 
ATOM      9  C9  UNL A   1      26.985  36.776  49.417  1.00  0.00    +0.000 C 
ATOM     10  C10 UNL A   1      27.171  35.536  48.807  1.00  0.00    +0.000 C 
ATOM     88  C65 UNL A   1      26.078  34.657  48.774  1.00  0.00    +0.000 C 
ATOM     89  C66 UNL A   1      24.844  35.008  49.343  1.00  0.00    +0.000 C 
BRANCH    7    6
ATOM     97  H4  UNL A   1      22.181  40.361  52.572  1.00  0.00    +0.000 H 
ATOM      2  C2  UNL A   1      20.396  39.251  53.043  1.00  0.00    +0.000 C 
ATOM      3  C3  UNL A   1      21.645  39.481  52.507  1.00  0.00    +0.000 C 
ATOM      4  C4  UNL A   1      22.063  38.295  51.851  1.00  0.00    +0.000 C 
ATOM      5  C5  UNL A   1      23.228  37.929  51.151  1.00  0.00    +0.000 C 
ATOM     98  H5  UNL A   1      23.973  38.629  51.006  1.00  0.00    +0.000 H 
ATOM      6  C6  UNL A   1      23.394  36.624  50.642  1.00  0.00    +0.000 C 
ATOM    136  H43 UNL A   1      20.372  35.387  51.574  1.00  0.00    +0.000 H 
ATOM    137  H44 UNL A   1      19.186  37.538  52.953  1.00  0.00    +0.000 H 
ATOM    135  H42 UNL A   1      22.431  34.762  50.430  1.00  0.00    +0.000 H 
ATOM     90  C67 UNL A   1      22.333  35.717  50.810  1.00  0.00    +0.000 C 
ATOM     91  C68 UNL A   1      21.145  36.063  51.475  1.00  0.00    +0.000 C 
ATOM     92  C69 UNL A   1      21.049  37.356  51.998  1.00  0.00    +0.000 C 
ATOM     93  N7  UNL A   1      20.041  37.964  52.712  1.00  0.00    +0.000 N 
BRANCH    2    1
ATOM      1  C1  UNL A   1      19.509  40.135  53.836  1.00  0.00    +0.000 C 
ATOM     94  H1  UNL A   1      19.938  41.114  53.890  1.00  0.00    +0.000 H 
ATOM     95  H2  UNL A   1      19.399  39.738  54.822  1.00  0.00    +0.000 H 
ATOM     96  H3  UNL A   1      18.550  40.193  53.365  1.00  0.00    +0.000 H 
ENDBRANCH    2    1
ENDBRANCH    7    6
ENDBRANCH   11   10
BRANCH   11   12
ATOM     12  C12 UNL A   1      29.710  35.189  49.151  1.00  0.00    +0.000 C 
ATOM    102  H9  UNL A   1      29.372  35.308  50.159  1.00  0.00    +0.000 H 
ATOM    103  H10 UNL A   1      30.316  36.028  48.877  1.00  0.00    +0.000 H 
ATOM    104  H11 UNL A   1      30.288  34.292  49.072  1.00  0.00    +0.000 H 
ENDBRANCH   11   12
ENDBRANCH   13   11
ENDBRANCH   15   13
ENDBRANCH   16   15
ENDBRANCH   17   16
ENDBRANCH   18   17
ENDBRANCH   19   18
ENDBRANCH   20   19
ENDBRANCH   21   20
ENDBRANCH   22   21
ENDBRANCH   23   22
ENDBRANCH   25   23
ENDBRANCH   29   28
BRANCH   33   34
ATOM     34  C29 UNL A   1      21.387  34.335  46.542  1.00  0.00    +0.000 C 
ATOM     35  C30 UNL A   1      22.000  33.279  47.232  1.00  0.00    +0.000 C 
ATOM     36  F1  UNL A   1      22.449  33.460  48.482  1.00  0.00    +0.000 F 
ATOM     37  C31 UNL A   1      22.189  32.040  46.624  1.00  0.00    +0.000 C 
ATOM     38  F2  UNL A   1      22.819  31.060  47.286  1.00  0.00    +0.000 F 
ATOM     39  C32 UNL A   1      21.739  31.823  45.331  1.00  0.00    +0.000 C 
ATOM     40  F3  UNL A   1      21.917  30.629  44.749  1.00  0.00    +0.000 F 
ATOM     41  C33 UNL A   1      21.111  32.847  44.637  1.00  0.00    +0.000 C 
ATOM     42  F4  UNL A   1      20.666  32.635  43.392  1.00  0.00    +0.000 F 
ATOM     43  C34 UNL A   1      20.945  34.095  45.232  1.00  0.00    +0.000 C 
ATOM     44  F5  UNL A   1      20.347  35.070  44.531  1.00  0.00    +0.000 F 
ENDBRANCH   33   34
BRANCH   50   51
ATOM     51  C40 UNL A   1      16.243  37.765  50.252  1.00  0.00    +0.000 C 
ATOM     52  C41 UNL A   1      16.008  37.631  51.628  1.00  0.00    +0.000 C 
ATOM     53  F6  UNL A   1      17.027  37.710  52.498  1.00  0.00    +0.000 F 
ATOM     54  C42 UNL A   1      14.728  37.374  52.112  1.00  0.00    +0.000 C 
ATOM     55  F7  UNL A   1      14.532  37.206  53.427  1.00  0.00    +0.000 F 
ATOM     56  C43 UNL A   1      13.658  37.280  51.235  1.00  0.00    +0.000 C 
ATOM     57  F8  UNL A   1      12.425  37.039  51.704  1.00  0.00    +0.000 F 
ATOM     58  C44 UNL A   1      13.865  37.427  49.871  1.00  0.00    +0.000 C 
ATOM     59  F9  UNL A   1      12.830  37.347  49.024  1.00  0.00    +0.000 F 
ATOM     60  C45 UNL A   1      15.147  37.656  49.383  1.00  0.00    +0.000 C 
ATOM     61  F10 UNL A   1      15.321  37.783  48.058  1.00  0.00    +0.000 F 
ENDBRANCH   50   51
BRANCH   65   66
ATOM     66  C49 UNL A   1      20.305  43.412  50.555  1.00  0.00    +0.000 C 
ATOM     67  C50 UNL A   1      19.756  44.453  49.795  1.00  0.00    +0.000 C 
ATOM     68  F11 UNL A   1      19.401  44.236  48.520  1.00  0.00    +0.000 F 
ATOM     69  C51 UNL A   1      19.610  45.732  50.327  1.00  0.00    +0.000 C 
ATOM     70  F12 UNL A   1      19.123  46.721  49.565  1.00  0.00    +0.000 F 
ATOM     71  C52 UNL A   1      19.981  45.986  51.638  1.00  0.00    +0.000 C 
ATOM     72  F13 UNL A   1      19.838  47.217  52.151  1.00  0.00    +0.000 F 
ATOM     73  C53 UNL A   1      20.511  44.966  52.415  1.00  0.00    +0.000 C 
ATOM     74  F14 UNL A   1      20.859  45.206  53.687  1.00  0.00    +0.000 F 
ATOM     75  C54 UNL A   1      20.681  43.693  51.876  1.00  0.00    +0.000 C 
ATOM     76  F15 UNL A   1      21.207  42.729  52.645  1.00  0.00    +0.000 F 
ENDBRANCH   65   66
TORSDOF 19
ENDMDL
MODEL 5
REMARK VINA RESULT:      -8.6     40.036     46.716
ROOT
ATOM    129  H36 UNL A   1      10.931   2.162  28.751  1.00  0.00    +0.000 H 
ATOM    130  H37 UNL A   1       9.274   1.084  27.124  1.00  0.00    +0.000 H 
ATOM     29  C25 UNL A   1       7.479   2.938  25.919  1.00  0.00    +0.000 C 
ATOM     30  C26 UNL A   1       8.642   3.240  26.822  1.00  0.00    +0.000 C 
ATOM     31  N3  UNL A   1       9.085   4.398  27.245  1.00  0.00    +0.000 N 
ATOM     32  C27 UNL A   1      10.153   4.111  28.084  1.00  0.00    +0.000 C 
ATOM     33  C28 UNL A   1      10.979   4.971  28.725  1.00  0.00    +0.000 C 
ATOM     45  C35 UNL A   1      10.885   6.405  28.637  1.00  0.00    +0.000 C 
ATOM     46  C36 UNL A   1      11.703   7.362  29.213  1.00  0.00    +0.000 C 
ATOM     47  C37 UNL A   1      11.203   8.625  28.876  1.00  0.00    +0.000 C 
ATOM     48  C38 UNL A   1      10.098   8.455  28.057  1.00  0.00    +0.000 C 
ATOM     49  N4  UNL A   1       9.910   7.087  27.925  1.00  0.00    +0.000 N 
ATOM     50  C39 UNL A   1       9.275   9.462  27.442  1.00  0.00    +0.000 C 
ATOM     62  C46 UNL A   1       8.203   9.214  26.650  1.00  0.00    +0.000 C 
ATOM     63  N5  UNL A   1       7.677   7.993  26.251  1.00  0.00    +0.000 N 
ATOM     64  C47 UNL A   1       6.640   8.276  25.500  1.00  0.00    +0.000 C 
ATOM     65  C48 UNL A   1       5.710   7.343  24.775  1.00  0.00    +0.000 C 
ATOM     77  C55 UNL A   1       5.919   6.014  24.851  1.00  0.00    +0.000 C 
ATOM     78  C56 UNL A   1       5.105   4.990  24.202  1.00  0.00    +0.000 C 
ATOM     79  C57 UNL A   1       5.578   3.779  24.536  1.00  0.00    +0.000 C 
ATOM     80  C58 UNL A   1       6.751   3.943  25.396  1.00  0.00    +0.000 C 
ATOM     81  N6  UNL A   1       6.884   5.303  25.522  1.00  0.00    +0.000 N 
ATOM     82  C59 UNL A   1       6.374   9.715  25.363  1.00  0.00    +0.000 C 
ATOM     83  C60 UNL A   1       7.377  10.241  26.049  1.00  0.00    +0.000 C 
ATOM     84  C61 UNL A   1      10.262   2.669  28.150  1.00  0.00    +0.000 C 
ATOM     85  C62 UNL A   1       9.392   2.086  27.338  1.00  0.00    +0.000 C 
ATOM    121  H28 UNL A   1      12.537   7.176  29.790  1.00  0.00    +0.000 H 
ATOM    122  H29 UNL A   1      11.592   9.529  29.184  1.00  0.00    +0.000 H 
ATOM    123  H30 UNL A   1       9.191   6.664  27.403  1.00  0.00    +0.000 H 
ATOM    124  H31 UNL A   1       4.297   5.169  23.586  1.00  0.00    +0.000 H 
ATOM    125  H32 UNL A   1       5.179   2.876  24.234  1.00  0.00    +0.000 H 
ATOM    126  H33 UNL A   1       7.601   5.729  26.044  1.00  0.00    +0.000 H 
ATOM    127  H34 UNL A   1       5.606  10.190  24.862  1.00  0.00    +0.000 H 
ATOM    128  H35 UNL A   1       7.549  11.254  26.143  1.00  0.00    +0.000 H 
ENDROOT
BRANCH   29   28
ATOM    131  H38 UNL A   1       5.874   1.365  27.375  1.00  0.00    +0.000 H 
ATOM    132  H39 UNL A   1       5.301  -0.962  27.020  1.00  0.00    +0.000 H 
ATOM    120  H27 UNL A   1       8.223   1.310  23.879  1.00  0.00    +0.000 H 
ATOM     86  C63 UNL A   1       6.235   0.868  26.547  1.00  0.00    +0.000 C 
ATOM     87  C64 UNL A   1       5.872  -0.460  26.324  1.00  0.00    +0.000 C 
ATOM    119  H26 UNL A   1       7.486  -0.958  23.424  1.00  0.00    +0.000 H 
ATOM     25  C21 UNL A   1       6.282  -1.108  25.155  1.00  0.00    +0.000 C 
ATOM     26  C22 UNL A   1       7.151  -0.465  24.267  1.00  0.00    +0.000 C 
ATOM     27  C23 UNL A   1       7.564   0.845  24.523  1.00  0.00    +0.000 C 
ATOM     28  C24 UNL A   1       7.088   1.531  25.652  1.00  0.00    +0.000 C 
BRANCH   25   23
ATOM     23  C20 UNL A   1       5.857  -2.496  24.859  1.00  0.00    +0.000 C 
ATOM     24  O2  UNL A   1       4.861  -2.693  24.174  1.00  0.00    +0.000 O 
BRANCH   23   22
ATOM    118  H25 UNL A   1       6.252  -3.928  26.204  1.00  0.00    +0.000 H 
ATOM     22  N2  UNL A   1       6.574  -3.560  25.348  1.00  0.00    +0.000 N 
BRANCH   22   21
ATOM    117  H24 UNL A   1       7.624  -4.254  23.724  1.00  0.00    +0.000 H 
ATOM    116  H23 UNL A   1       7.807  -5.210  25.198  1.00  0.00    +0.000 H 
ATOM     21  C19 UNL A   1       7.741  -4.225  24.788  1.00  0.00    +0.000 C 
BRANCH   21   20
ATOM    114  H21 UNL A   1       9.854  -4.134  24.914  1.00  0.00    +0.000 H 
ATOM    115  H22 UNL A   1       9.036  -2.607  24.469  1.00  0.00    +0.000 H 
ATOM     20  C18 UNL A   1       9.033  -3.473  25.098  1.00  0.00    +0.000 C 
BRANCH   20   19
ATOM    113  H20 UNL A   1       9.694  -3.710  27.072  1.00  0.00    +0.000 H 
ATOM     19  C17 UNL A   1       9.151  -2.959  26.537  1.00  0.00    +0.000 C 
ATOM    112  H19 UNL A   1       8.162  -2.792  26.909  1.00  0.00    +0.000 H 
BRANCH   19   18
ATOM     18  C16 UNL A   1       9.948  -1.660  26.717  1.00  0.00    +0.000 C 
ATOM    110  H17 UNL A   1      10.347  -1.383  25.763  1.00  0.00    +0.000 H 
ATOM    111  H18 UNL A   1       9.262  -0.945  27.120  1.00  0.00    +0.000 H 
BRANCH   18   17
ATOM     17  C15 UNL A   1      11.112  -1.737  27.712  1.00  0.00    +0.000 C 
ATOM    108  H15 UNL A   1      11.393  -0.740  27.978  1.00  0.00    +0.000 H 
ATOM    109  H16 UNL A   1      10.766  -2.306  28.549  1.00  0.00    +0.000 H 
BRANCH   17   16
ATOM    106  H13 UNL A   1      13.187  -2.219  27.790  1.00  0.00    +0.000 H 
ATOM    107  H14 UNL A   1      12.148  -3.507  27.172  1.00  0.00    +0.000 H 
ATOM     16  C14 UNL A   1      12.349  -2.456  27.168  1.00  0.00    +0.000 C 
BRANCH   16   15
ATOM    105  H12 UNL A   1      12.000  -2.379  25.140  1.00  0.00    +0.000 H 
ATOM     15  N1  UNL A   1      12.652  -2.065  25.807  1.00  0.00    +0.000 N 
BRANCH   15   13
ATOM     13  C13 UNL A   1      13.680  -1.336  25.289  1.00  0.00    +0.000 C 
ATOM     14  O1  UNL A   1      14.632  -1.980  24.830  1.00  0.00    +0.000 O 
BRANCH   13   11
ATOM     11  C11 UNL A   1      13.716   0.199  25.274  1.00  0.00    +0.000 C 
ATOM    101  H8  UNL A   1      14.700   0.460  24.943  1.00  0.00    +0.000 H 
BRANCH   11   10
ATOM     99  H6  UNL A   1      12.692   1.667  20.976  1.00  0.00    +0.000 H 
ATOM    100  H7  UNL A   1      14.075   0.498  22.561  1.00  0.00    +0.000 H 
ATOM    133  H40 UNL A   1      11.260   1.269  25.570  1.00  0.00    +0.000 H 
ATOM    134  H41 UNL A   1       9.797   2.294  23.943  1.00  0.00    +0.000 H 
ATOM      7  C7  UNL A   1      11.112   2.088  22.306  1.00  0.00    +0.000 C 
ATOM      8  C8  UNL A   1      12.366   1.566  21.951  1.00  0.00    +0.000 C 
ATOM      9  C9  UNL A   1      13.184   0.913  22.875  1.00  0.00    +0.000 C 
ATOM     10  C10 UNL A   1      12.814   0.815  24.217  1.00  0.00    +0.000 C 
ATOM     88  C65 UNL A   1      11.565   1.336  24.587  1.00  0.00    +0.000 C 
ATOM     89  C66 UNL A   1      10.722   1.944  23.645  1.00  0.00    +0.000 C 
BRANCH    7    6
ATOM     97  H4  UNL A   1       8.323   6.679  21.311  1.00  0.00    +0.000 H 
ATOM      2  C2  UNL A   1       7.482   5.997  19.449  1.00  0.00    +0.000 C 
ATOM      3  C3  UNL A   1       8.247   5.940  20.594  1.00  0.00    +0.000 C 
ATOM      4  C4  UNL A   1       8.912   4.687  20.611  1.00  0.00    +0.000 C 
ATOM      5  C5  UNL A   1       9.796   4.068  21.514  1.00  0.00    +0.000 C 
ATOM     98  H5  UNL A   1      10.108   4.582  22.353  1.00  0.00    +0.000 H 
ATOM      6  C6  UNL A   1      10.265   2.756  21.292  1.00  0.00    +0.000 C 
ATOM    136  H43 UNL A   1       8.740   2.230  18.304  1.00  0.00    +0.000 H 
ATOM    137  H44 UNL A   1       7.269   4.598  17.899  1.00  0.00    +0.000 H 
ATOM    135  H42 UNL A   1      10.211   1.155  19.922  1.00  0.00    +0.000 H 
ATOM     90  C67 UNL A   1       9.865   2.110  20.109  1.00  0.00    +0.000 C 
ATOM     91  C68 UNL A   1       9.010   2.715  19.173  1.00  0.00    +0.000 C 
ATOM     92  C69 UNL A   1       8.539   4.000  19.462  1.00  0.00    +0.000 C 
ATOM     93  N7  UNL A   1       7.682   4.821  18.765  1.00  0.00    +0.000 N 
BRANCH    2    1
ATOM      1  C1  UNL A   1       6.583   7.061  18.943  1.00  0.00    +0.000 C 
ATOM     94  H1  UNL A   1       5.926   6.652  18.203  1.00  0.00    +0.000 H 
ATOM     95  H2  UNL A   1       7.166   7.845  18.508  1.00  0.00    +0.000 H 
ATOM     96  H3  UNL A   1       6.005   7.455  19.753  1.00  0.00    +0.000 H 
ENDBRANCH    2    1
ENDBRANCH    7    6
ENDBRANCH   11   10
BRANCH   11   12
ATOM     12  C12 UNL A   1      13.656   0.841  26.661  1.00  0.00    +0.000 C 
ATOM    102  H9  UNL A   1      13.699   0.078  27.410  1.00  0.00    +0.000 H 
ATOM    103  H10 UNL A   1      12.741   1.388  26.762  1.00  0.00    +0.000 H 
ATOM    104  H11 UNL A   1      14.485   1.507  26.783  1.00  0.00    +0.000 H 
ENDBRANCH   11   12
ENDBRANCH   13   11
ENDBRANCH   15   13
ENDBRANCH   16   15
ENDBRANCH   17   16
ENDBRANCH   18   17
ENDBRANCH   19   18
ENDBRANCH   20   19
ENDBRANCH   21   20
ENDBRANCH   22   21
ENDBRANCH   23   22
ENDBRANCH   25   23
ENDBRANCH   29   28
BRANCH   33   34
ATOM     34  C29 UNL A   1      12.068   4.382  29.575  1.00  0.00    +0.000 C 
ATOM     35  C30 UNL A   1      11.942   4.297  30.969  1.00  0.00    +0.000 C 
ATOM     36  F1  UNL A   1      10.853   4.785  31.580  1.00  0.00    +0.000 F 
ATOM     37  C31 UNL A   1      12.955   3.741  31.746  1.00  0.00    +0.000 C 
ATOM     38  F2  UNL A   1      12.834   3.713  33.081  1.00  0.00    +0.000 F 
ATOM     39  C32 UNL A   1      14.095   3.232  31.144  1.00  0.00    +0.000 C 
ATOM     40  F3  UNL A   1      15.067   2.693  31.893  1.00  0.00    +0.000 F 
ATOM     41  C33 UNL A   1      14.232   3.286  29.765  1.00  0.00    +0.000 C 
ATOM     42  F4  UNL A   1      15.327   2.784  29.181  1.00  0.00    +0.000 F 
ATOM     43  C34 UNL A   1      13.232   3.866  28.986  1.00  0.00    +0.000 C 
ATOM     44  F5  UNL A   1      13.399   3.917  27.657  1.00  0.00    +0.000 F 
ENDBRANCH   33   34
BRANCH   50   51
ATOM     51  C40 UNL A   1       9.638  10.899  27.674  1.00  0.00    +0.000 C 
ATOM     52  C41 UNL A   1      10.689  11.513  26.977  1.00  0.00    +0.000 C 
ATOM     53  F6  UNL A   1      11.434  10.802  26.116  1.00  0.00    +0.000 F 
ATOM     54  C42 UNL A   1      11.003  12.852  27.195  1.00  0.00    +0.000 C 
ATOM     55  F7  UNL A   1      12.039  13.407  26.551  1.00  0.00    +0.000 F 
ATOM     56  C43 UNL A   1      10.255  13.607  28.084  1.00  0.00    +0.000 C 
ATOM     57  F8  UNL A   1      10.556  14.898  28.287  1.00  0.00    +0.000 F 
ATOM     58  C44 UNL A   1       9.200  13.024  28.771  1.00  0.00    +0.000 C 
ATOM     59  F9  UNL A   1       8.469  13.757  29.623  1.00  0.00    +0.000 F 
ATOM     60  C45 UNL A   1       8.900  11.680  28.576  1.00  0.00    +0.000 C 
ATOM     61  F10 UNL A   1       7.882  11.139  29.263  1.00  0.00    +0.000 F 
ENDBRANCH   50   51
BRANCH   65   66
ATOM     66  C49 UNL A   1       4.590   7.872  23.956  1.00  0.00    +0.000 C 
ATOM     67  C50 UNL A   1       4.753   8.099  22.582  1.00  0.00    +0.000 C 
ATOM     68  F11 UNL A   1       5.936   7.853  21.999  1.00  0.00    +0.000 F 
ATOM     69  C51 UNL A   1       3.716   8.618  21.811  1.00  0.00    +0.000 C 
ATOM     70  F12 UNL A   1       3.912   8.866  20.509  1.00  0.00    +0.000 F 
ATOM     71  C52 UNL A   1       2.488   8.893  22.392  1.00  0.00    +0.000 C 
ATOM     72  F13 UNL A   1       1.489   9.391  21.649  1.00  0.00    +0.000 F 
ATOM     73  C53 UNL A   1       2.298   8.660  23.746  1.00  0.00    +0.000 C 
ATOM     74  F14 UNL A   1       1.107   8.913  24.308  1.00  0.00    +0.000 F 
ATOM     75  C54 UNL A   1       3.342   8.164  24.524  1.00  0.00    +0.000 C 
ATOM     76  F15 UNL A   1       3.135   7.960  25.833  1.00  0.00    +0.000 F 
ENDBRANCH   65   66
TORSDOF 19
ENDMDL
MODEL 6
REMARK VINA RESULT:      -8.5     62.219     67.648
ROOT
ATOM    129  H36 UNL A   1      16.566  56.558   2.639  1.00  0.00    +0.000 H 
ATOM    130  H37 UNL A   1      15.205  56.264   4.787  1.00  0.00    +0.000 H 
ATOM     29  C25 UNL A   1      14.026  53.685   5.054  1.00  0.00    +0.000 C 
ATOM     30  C26 UNL A   1      14.973  54.156   3.986  1.00  0.00    +0.000 C 
ATOM     31  N3  UNL A   1      15.462  53.499   2.964  1.00  0.00    +0.000 N 
ATOM     32  C27 UNL A   1      16.250  54.409   2.272  1.00  0.00    +0.000 C 
ATOM     33  C28 UNL A   1      17.015  54.202   1.174  1.00  0.00    +0.000 C 
ATOM     45  C35 UNL A   1      17.147  52.935   0.504  1.00  0.00    +0.000 C 
ATOM     46  C36 UNL A   1      17.933  52.613  -0.589  1.00  0.00    +0.000 C 
ATOM     47  C37 UNL A   1      17.711  51.268  -0.906  1.00  0.00    +0.000 C 
ATOM     48  C38 UNL A   1      16.818  50.742   0.013  1.00  0.00    +0.000 C 
ATOM     49  N4  UNL A   1      16.474  51.778   0.869  1.00  0.00    +0.000 N 
ATOM     50  C39 UNL A   1      16.314  49.397   0.105  1.00  0.00    +0.000 C 
ATOM     62  C46 UNL A   1      15.436  48.958   1.040  1.00  0.00    +0.000 C 
ATOM     63  N5  UNL A   1      14.851  49.659   2.086  1.00  0.00    +0.000 N 
ATOM     64  C47 UNL A   1      14.072  48.803   2.702  1.00  0.00    +0.000 C 
ATOM     65  C48 UNL A   1      13.217  49.005   3.922  1.00  0.00    +0.000 C 
ATOM     77  C55 UNL A   1      13.212  50.206   4.532  1.00  0.00    +0.000 C 
ATOM     78  C56 UNL A   1      12.438  50.550   5.721  1.00  0.00    +0.000 C 
ATOM     79  C57 UNL A   1      12.644  51.843   6.018  1.00  0.00    +0.000 C 
ATOM     80  C58 UNL A   1      13.591  52.410   5.058  1.00  0.00    +0.000 C 
ATOM     81  N6  UNL A   1      13.881  51.364   4.218  1.00  0.00    +0.000 N 
ATOM     82  C59 UNL A   1      14.051  47.465   2.093  1.00  0.00    +0.000 C 
ATOM     83  C60 UNL A   1      14.928  47.603   1.110  1.00  0.00    +0.000 C 
ATOM     84  C61 UNL A   1      16.137  55.677   2.962  1.00  0.00    +0.000 C 
ATOM     85  C62 UNL A   1      15.409  55.558   4.064  1.00  0.00    +0.000 C 
ATOM    121  H28 UNL A   1      18.573  53.253  -1.083  1.00  0.00    +0.000 H 
ATOM    122  H29 UNL A   1      18.140  50.755  -1.693  1.00  0.00    +0.000 H 
ATOM    123  H30 UNL A   1      15.847  51.703   1.623  1.00  0.00    +0.000 H 
ATOM    124  H31 UNL A   1      11.833  49.902   6.249  1.00  0.00    +0.000 H 
ATOM    125  H32 UNL A   1      12.204  52.355   6.799  1.00  0.00    +0.000 H 
ATOM    126  H33 UNL A   1      14.508  51.436   3.463  1.00  0.00    +0.000 H 
ATOM    127  H34 UNL A   1      13.499  46.636   2.362  1.00  0.00    +0.000 H 
ATOM    128  H35 UNL A   1      15.214  46.842   0.475  1.00  0.00    +0.000 H 
ENDROOT
BRANCH   29   28
ATOM    131  H38 UNL A   1      15.138  54.359   7.395  1.00  0.00    +0.000 H 
ATOM    132  H39 UNL A   1      14.276  55.831   9.116  1.00  0.00    +0.000 H 
ATOM    120  H27 UNL A   1      11.738  55.145   5.035  1.00  0.00    +0.000 H 
ATOM     86  C63 UNL A   1      14.244  54.853   7.248  1.00  0.00    +0.000 C 
ATOM     87  C64 UNL A   1      13.770  55.730   8.223  1.00  0.00    +0.000 C 
ATOM    119  H26 UNL A   1      10.981  56.768   6.674  1.00  0.00    +0.000 H 
ATOM     25  C21 UNL A   1      12.609  56.472   7.989  1.00  0.00    +0.000 C 
ATOM     26  C22 UNL A   1      11.860  56.249   6.829  1.00  0.00    +0.000 C 
ATOM     27  C23 UNL A   1      12.303  55.325   5.880  1.00  0.00    +0.000 C 
ATOM     28  C24 UNL A   1      13.514  54.639   6.070  1.00  0.00    +0.000 C 
BRANCH   25   23
ATOM     23  C20 UNL A   1      12.118  57.459   8.978  1.00  0.00    +0.000 C 
ATOM     24  O2  UNL A   1      12.215  58.657   8.740  1.00  0.00    +0.000 O 
BRANCH   23   22
ATOM    118  H25 UNL A   1      11.846  57.526  10.962  1.00  0.00    +0.000 H 
ATOM     22  N2  UNL A   1      11.553  57.038  10.158  1.00  0.00    +0.000 N 
BRANCH   22   21
ATOM    117  H24 UNL A   1       9.937  55.928   9.543  1.00  0.00    +0.000 H 
ATOM    116  H23 UNL A   1      10.039  56.201  11.285  1.00  0.00    +0.000 H 
ATOM     21  C19 UNL A   1      10.586  55.978  10.393  1.00  0.00    +0.000 C 
BRANCH   21   20
ATOM    114  H21 UNL A   1      10.518  53.920  10.892  1.00  0.00    +0.000 H 
ATOM    115  H22 UNL A   1      11.664  54.367   9.595  1.00  0.00    +0.000 H 
ATOM     20  C18 UNL A   1      11.256  54.615  10.552  1.00  0.00    +0.000 C 
BRANCH   20   19
ATOM    113  H20 UNL A   1      12.013  54.273  12.476  1.00  0.00    +0.000 H 
ATOM     19  C17 UNL A   1      12.428  54.584  11.540  1.00  0.00    +0.000 C 
ATOM    112  H19 UNL A   1      12.865  55.560  11.562  1.00  0.00    +0.000 H 
BRANCH   19   18
ATOM     18  C16 UNL A   1      13.540  53.575  11.222  1.00  0.00    +0.000 C 
ATOM    110  H17 UNL A   1      13.078  52.644  10.967  1.00  0.00    +0.000 H 
ATOM    111  H18 UNL A   1      14.109  54.004  10.424  1.00  0.00    +0.000 H 
BRANCH   18   17
ATOM     17  C15 UNL A   1      14.534  53.315  12.359  1.00  0.00    +0.000 C 
ATOM    108  H15 UNL A   1      15.372  53.968  12.229  1.00  0.00    +0.000 H 
ATOM    109  H16 UNL A   1      14.010  53.493  13.274  1.00  0.00    +0.000 H 
BRANCH   17   16
ATOM    106  H13 UNL A   1      15.241  51.618  13.438  1.00  0.00    +0.000 H 
ATOM    107  H14 UNL A   1      14.306  51.239  11.989  1.00  0.00    +0.000 H 
ATOM     16  C14 UNL A   1      15.051  51.876  12.417  1.00  0.00    +0.000 C 
BRANCH   16   15
ATOM    105  H12 UNL A   1      16.735  52.546  11.437  1.00  0.00    +0.000 H 
ATOM     15  N1  UNL A   1      16.272  51.705  11.657  1.00  0.00    +0.000 N 
BRANCH   15   13
ATOM     13  C13 UNL A   1      16.894  50.585  11.194  1.00  0.00    +0.000 C 
ATOM     14  O1  UNL A   1      17.681  50.032  11.974  1.00  0.00    +0.000 O 
BRANCH   13   11
ATOM     11  C11 UNL A   1      16.687  50.013   9.784  1.00  0.00    +0.000 C 
ATOM    101  H8  UNL A   1      17.310  49.145   9.731  1.00  0.00    +0.000 H 
BRANCH   11   10
ATOM     99  H6  UNL A   1      13.574  46.597   9.224  1.00  0.00    +0.000 H 
ATOM    100  H7  UNL A   1      15.762  47.421   9.794  1.00  0.00    +0.000 H 
ATOM    133  H40 UNL A   1      14.399  51.354   9.301  1.00  0.00    +0.000 H 
ATOM    134  H41 UNL A   1      12.164  50.532   8.894  1.00  0.00    +0.000 H 
ATOM      7  C7  UNL A   1      12.660  48.484   9.009  1.00  0.00    +0.000 C 
ATOM      8  C8  UNL A   1      13.734  47.617   9.261  1.00  0.00    +0.000 C 
ATOM      9  C9  UNL A   1      15.013  48.091   9.563  1.00  0.00    +0.000 C 
ATOM     10  C10 UNL A   1      15.290  49.458   9.557  1.00  0.00    +0.000 C 
ATOM     88  C65 UNL A   1      14.226  50.337   9.302  1.00  0.00    +0.000 C 
ATOM     89  C66 UNL A   1      12.931  49.859   9.051  1.00  0.00    +0.000 C 
BRANCH    7    6
ATOM     97  H4  UNL A   1       8.054  49.539   6.267  1.00  0.00    +0.000 H 
ATOM      2  C2  UNL A   1       6.980  47.833   7.024  1.00  0.00    +0.000 C 
ATOM      3  C3  UNL A   1       8.047  48.687   6.849  1.00  0.00    +0.000 C 
ATOM      4  C4  UNL A   1       9.134  48.188   7.612  1.00  0.00    +0.000 C 
ATOM      5  C5  UNL A   1      10.451  48.631   7.834  1.00  0.00    +0.000 C 
ATOM     98  H5  UNL A   1      10.792  49.474   7.346  1.00  0.00    +0.000 H 
ATOM      6  C6  UNL A   1      11.314  47.942   8.712  1.00  0.00    +0.000 C 
ATOM    136  H43 UNL A   1       9.206  45.406   9.522  1.00  0.00    +0.000 H 
ATOM    137  H44 UNL A   1       6.841  46.059   8.138  1.00  0.00    +0.000 H 
ATOM    135  H42 UNL A   1      11.456  46.239   9.946  1.00  0.00    +0.000 H 
ATOM     90  C67 UNL A   1      10.833  46.766   9.313  1.00  0.00    +0.000 C 
ATOM     91  C68 UNL A   1       9.535  46.280   9.084  1.00  0.00    +0.000 C 
ATOM     92  C69 UNL A   1       8.705  47.024   8.240  1.00  0.00    +0.000 C 
ATOM     93  N7  UNL A   1       7.399  46.821   7.856  1.00  0.00    +0.000 N 
BRANCH    2    1
ATOM      1  C1  UNL A   1       5.604  47.886   6.476  1.00  0.00    +0.000 C 
ATOM     94  H1  UNL A   1       5.324  46.916   6.121  1.00  0.00    +0.000 H 
ATOM     95  H2  UNL A   1       5.568  48.586   5.668  1.00  0.00    +0.000 H 
ATOM     96  H3  UNL A   1       4.925  48.193   7.244  1.00  0.00    +0.000 H 
ENDBRANCH    2    1
ENDBRANCH    7    6
ENDBRANCH   11   10
BRANCH   11   12
ATOM     12  C12 UNL A   1      17.249  50.889   8.663  1.00  0.00    +0.000 C 
ATOM    102  H9  UNL A   1      16.552  51.668   8.436  1.00  0.00    +0.000 H 
ATOM    103  H10 UNL A   1      17.412  50.292   7.790  1.00  0.00    +0.000 H 
ATOM    104  H11 UNL A   1      18.176  51.322   8.978  1.00  0.00    +0.000 H 
ENDBRANCH   11   12
ENDBRANCH   13   11
ENDBRANCH   15   13
ENDBRANCH   16   15
ENDBRANCH   17   16
ENDBRANCH   18   17
ENDBRANCH   19   18
ENDBRANCH   20   19
ENDBRANCH   21   20
ENDBRANCH   22   21
ENDBRANCH   23   22
ENDBRANCH   25   23
ENDBRANCH   29   28
BRANCH   33   34
ATOM     34  C29 UNL A   1      17.778  55.376   0.630  1.00  0.00    +0.000 C 
ATOM     35  C30 UNL A   1      19.032  55.735   1.144  1.00  0.00    +0.000 C 
ATOM     36  F1  UNL A   1      19.560  55.055   2.172  1.00  0.00    +0.000 F 
ATOM     37  C31 UNL A   1      19.733  56.821   0.627  1.00  0.00    +0.000 C 
ATOM     38  F2  UNL A   1      20.909  57.175   1.164  1.00  0.00    +0.000 F 
ATOM     39  C32 UNL A   1      19.211  57.546  -0.434  1.00  0.00    +0.000 C 
ATOM     40  F3  UNL A   1      19.889  58.588  -0.934  1.00  0.00    +0.000 F 
ATOM     41  C33 UNL A   1      17.981  57.196  -0.971  1.00  0.00    +0.000 C 
ATOM     42  F4  UNL A   1      17.481  57.888  -2.003  1.00  0.00    +0.000 F 
ATOM     43  C34 UNL A   1      17.265  56.127  -0.438  1.00  0.00    +0.000 C 
ATOM     44  F5  UNL A   1      16.072  55.821  -0.970  1.00  0.00    +0.000 F 
ENDBRANCH   33   34
BRANCH   50   51
ATOM     51  C40 UNL A   1      16.811  48.395  -0.893  1.00  0.00    +0.000 C 
ATOM     52  C41 UNL A   1      16.072  48.072  -2.041  1.00  0.00    +0.000 C 
ATOM     53  F6  UNL A   1      14.865  48.623  -2.244  1.00  0.00    +0.000 F 
ATOM     54  C42 UNL A   1      16.556  47.151  -2.966  1.00  0.00    +0.000 C 
ATOM     55  F7  UNL A   1      15.815  46.824  -4.033  1.00  0.00    +0.000 F 
ATOM     56  C43 UNL A   1      17.797  46.561  -2.778  1.00  0.00    +0.000 C 
ATOM     57  F8  UNL A   1      18.263  45.678  -3.672  1.00  0.00    +0.000 F 
ATOM     58  C44 UNL A   1      18.552  46.879  -1.658  1.00  0.00    +0.000 C 
ATOM     59  F9  UNL A   1      19.756  46.317  -1.480  1.00  0.00    +0.000 F 
ATOM     60  C45 UNL A   1      18.059  47.779  -0.718  1.00  0.00    +0.000 C 
ATOM     61  F10 UNL A   1      18.806  48.058   0.362  1.00  0.00    +0.000 F 
ENDBRANCH   50   51
BRANCH   65   66
ATOM     66  C49 UNL A   1      12.408  47.889   4.476  1.00  0.00    +0.000 C 
ATOM     67  C50 UNL A   1      11.105  47.653   4.017  1.00  0.00    +0.000 C 
ATOM     68  F11 UNL A   1      10.572  48.449   3.078  1.00  0.00    +0.000 F 
ATOM     69  C51 UNL A   1      10.330  46.625   4.549  1.00  0.00    +0.000 C 
ATOM     70  F12 UNL A   1       9.073  46.447   4.122  1.00  0.00    +0.000 F 
ATOM     71  C52 UNL A   1      10.854  45.796   5.529  1.00  0.00    +0.000 C 
ATOM     72  F13 UNL A   1      10.109  44.805   6.039  1.00  0.00    +0.000 F 
ATOM     73  C53 UNL A   1      12.147  46.000   5.987  1.00  0.00    +0.000 C 
ATOM     74  F14 UNL A   1      12.660  45.192   6.926  1.00  0.00    +0.000 F 
ATOM     75  C54 UNL A   1      12.914  47.044   5.474  1.00  0.00    +0.000 C 
ATOM     76  F15 UNL A   1      14.157  47.227   5.944  1.00  0.00    +0.000 F 
ENDBRANCH   65   66
TORSDOF 19
ENDMDL
MODEL 7
REMARK VINA RESULT:      -8.5     62.060     67.922
ROOT
ATOM    129  H36 UNL A   1      11.988  49.987   5.939  1.00  0.00    +0.000 H 
ATOM    130  H37 UNL A   1      12.100  52.502   6.403  1.00  0.00    +0.000 H 
ATOM     29  C25 UNL A   1      13.968  53.889   4.761  1.00  0.00    +0.000 C 
ATOM     30  C26 UNL A   1      13.567  52.443   4.676  1.00  0.00    +0.000 C 
ATOM     31  N3  UNL A   1      13.974  51.517   3.844  1.00  0.00    +0.000 N 
ATOM     32  C27 UNL A   1      13.324  50.352   4.227  1.00  0.00    +0.000 C 
ATOM     33  C28 UNL A   1      13.366  49.130   3.646  1.00  0.00    +0.000 C 
ATOM     45  C35 UNL A   1      14.134  48.817   2.468  1.00  0.00    +0.000 C 
ATOM     46  C36 UNL A   1      14.206  47.620   1.776  1.00  0.00    +0.000 C 
ATOM     47  C37 UNL A   1      15.105  47.782   0.716  1.00  0.00    +0.000 C 
ATOM     48  C38 UNL A   1      15.560  49.090   0.722  1.00  0.00    +0.000 C 
ATOM     49  N4  UNL A   1      14.962  49.712   1.808  1.00  0.00    +0.000 N 
ATOM     50  C39 UNL A   1      16.473  49.727  -0.190  1.00  0.00    +0.000 C 
ATOM     62  C46 UNL A   1      16.873  51.020  -0.116  1.00  0.00    +0.000 C 
ATOM     63  N5  UNL A   1      16.508  51.994   0.803  1.00  0.00    +0.000 N 
ATOM     64  C47 UNL A   1      17.166  53.076   0.462  1.00  0.00    +0.000 C 
ATOM     65  C48 UNL A   1      17.135  54.443   1.086  1.00  0.00    +0.000 C 
ATOM     77  C55 UNL A   1      16.328  54.668   2.141  1.00  0.00    +0.000 C 
ATOM     78  C56 UNL A   1      16.190  55.938   2.847  1.00  0.00    +0.000 C 
ATOM     79  C57 UNL A   1      15.336  55.778   3.871  1.00  0.00    +0.000 C 
ATOM     80  C58 UNL A   1      14.842  54.401   3.872  1.00  0.00    +0.000 C 
ATOM     81  N6  UNL A   1      15.478  53.818   2.806  1.00  0.00    +0.000 N 
ATOM     82  C59 UNL A   1      18.050  52.898  -0.699  1.00  0.00    +0.000 C 
ATOM     83  C60 UNL A   1      17.804  51.640  -1.036  1.00  0.00    +0.000 C 
ATOM     84  C61 UNL A   1      12.532  50.675   5.395  1.00  0.00    +0.000 C 
ATOM     85  C62 UNL A   1      12.599  51.968   5.675  1.00  0.00    +0.000 C 
ATOM    121  H28 UNL A   1      13.687  46.758   2.003  1.00  0.00    +0.000 H 
ATOM    122  H29 UNL A   1      15.381  47.050   0.043  1.00  0.00    +0.000 H 
ATOM    123  H30 UNL A   1      15.103  50.651   2.070  1.00  0.00    +0.000 H 
ATOM    124  H31 UNL A   1      16.670  56.817   2.598  1.00  0.00    +0.000 H 
ATOM    125  H32 UNL A   1      15.071  56.510   4.549  1.00  0.00    +0.000 H 
ATOM    126  H33 UNL A   1      15.338  52.880   2.541  1.00  0.00    +0.000 H 
ATOM    127  H34 UNL A   1      18.694  53.576  -1.138  1.00  0.00    +0.000 H 
ATOM    128  H35 UNL A   1      18.221  51.164  -1.850  1.00  0.00    +0.000 H 
ENDROOT
BRANCH   29   28
ATOM    131  H38 UNL A   1      11.707  55.323   4.822  1.00  0.00    +0.000 H 
ATOM    132  H39 UNL A   1      10.897  56.804   6.560  1.00  0.00    +0.000 H 
ATOM    120  H27 UNL A   1      15.080  54.419   7.180  1.00  0.00    +0.000 H 
ATOM     86  C63 UNL A   1      12.242  55.428   5.698  1.00  0.00    +0.000 C 
ATOM     87  C64 UNL A   1      11.753  56.249   6.713  1.00  0.00    +0.000 C 
ATOM    119  H26 UNL A   1      14.162  55.746   8.993  1.00  0.00    +0.000 H 
ATOM     25  C21 UNL A   1      12.424  56.321   7.937  1.00  0.00    +0.000 C 
ATOM     26  C22 UNL A   1      13.646  55.661   8.103  1.00  0.00    +0.000 C 
ATOM     27  C23 UNL A   1      14.167  54.887   7.063  1.00  0.00    +0.000 C 
ATOM     28  C24 UNL A   1      13.455  54.743   5.862  1.00  0.00    +0.000 C 
BRANCH   25   23
ATOM     23  C20 UNL A   1      11.893  57.133   9.056  1.00  0.00    +0.000 C 
ATOM     24  O2  UNL A   1      12.056  58.348   9.054  1.00  0.00    +0.000 O 
BRANCH   23   22
ATOM    118  H25 UNL A   1      11.057  57.107  10.876  1.00  0.00    +0.000 H 
ATOM     22  N2  UNL A   1      11.219  56.533  10.092  1.00  0.00    +0.000 N 
BRANCH   22   21
ATOM    117  H24 UNL A   1      10.620  54.777   9.211  1.00  0.00    +0.000 H 
ATOM    116  H23 UNL A   1       9.763  55.200  10.696  1.00  0.00    +0.000 H 
ATOM     21  C19 UNL A   1      10.711  55.175  10.200  1.00  0.00    +0.000 C 
BRANCH   21   20
ATOM    114  H21 UNL A   1      12.515  54.844  11.261  1.00  0.00    +0.000 H 
ATOM    115  H22 UNL A   1      11.098  53.911  11.827  1.00  0.00    +0.000 H 
ATOM     20  C18 UNL A   1      11.656  54.269  10.986  1.00  0.00    +0.000 C 
BRANCH   20   19
ATOM    113  H20 UNL A   1      12.613  53.391   9.343  1.00  0.00    +0.000 H 
ATOM     19  C17 UNL A   1      12.137  53.026  10.229  1.00  0.00    +0.000 C 
ATOM    112  H19 UNL A   1      11.286  52.406  10.041  1.00  0.00    +0.000 H 
BRANCH   19   18
ATOM     18  C16 UNL A   1      13.192  52.175  10.949  1.00  0.00    +0.000 C 
ATOM    110  H17 UNL A   1      12.850  51.999  11.947  1.00  0.00    +0.000 H 
ATOM    111  H18 UNL A   1      13.299  51.283  10.368  1.00  0.00    +0.000 H 
BRANCH   18   17
ATOM     17  C15 UNL A   1      14.591  52.797  11.032  1.00  0.00    +0.000 C 
ATOM    108  H15 UNL A   1      15.111  52.577  10.123  1.00  0.00    +0.000 H 
ATOM    109  H16 UNL A   1      14.454  53.847  11.185  1.00  0.00    +0.000 H 
BRANCH   17   16
ATOM    106  H13 UNL A   1      16.267  52.938  12.340  1.00  0.00    +0.000 H 
ATOM    107  H14 UNL A   1      14.809  52.263  13.072  1.00  0.00    +0.000 H 
ATOM     16  C14 UNL A   1      15.432  52.284  12.203  1.00  0.00    +0.000 C 
BRANCH   16   15
ATOM    105  H12 UNL A   1      15.368  50.232  12.372  1.00  0.00    +0.000 H 
ATOM     15  N1  UNL A   1      15.923  50.941  11.973  1.00  0.00    +0.000 N 
BRANCH   15   13
ATOM     13  C13 UNL A   1      17.017  50.486  11.301  1.00  0.00    +0.000 C 
ATOM     14  O1  UNL A   1      18.109  50.634  11.865  1.00  0.00    +0.000 O 
BRANCH   13   11
ATOM     11  C11 UNL A   1      16.957  49.843   9.908  1.00  0.00    +0.000 C 
ATOM    101  H8  UNL A   1      17.550  48.955   9.975  1.00  0.00    +0.000 H 
BRANCH   11   10
ATOM     99  H6  UNL A   1      12.842  50.026   7.737  1.00  0.00    +0.000 H 
ATOM    100  H7  UNL A   1      15.092  50.790   8.118  1.00  0.00    +0.000 H 
ATOM    133  H40 UNL A   1      15.686  47.655  10.837  1.00  0.00    +0.000 H 
ATOM    134  H41 UNL A   1      13.487  46.793  10.327  1.00  0.00    +0.000 H 
ATOM      7  C7  UNL A   1      12.951  48.336   8.991  1.00  0.00    +0.000 C 
ATOM      8  C8  UNL A   1      13.451  49.498   8.383  1.00  0.00    +0.000 C 
ATOM      9  C9  UNL A   1      14.746  49.961   8.626  1.00  0.00    +0.000 C 
ATOM     10  C10 UNL A   1      15.577  49.319   9.543  1.00  0.00    +0.000 C 
ATOM     88  C65 UNL A   1      15.090  48.157  10.161  1.00  0.00    +0.000 C 
ATOM     89  C66 UNL A   1      13.807  47.665   9.876  1.00  0.00    +0.000 C 
BRANCH    7    6
ATOM     97  H4  UNL A   1       8.377  49.686   6.327  1.00  0.00    +0.000 H 
ATOM      2  C2  UNL A   1       7.229  48.012   7.048  1.00  0.00    +0.000 C 
ATOM      3  C3  UNL A   1       8.334  48.819   6.886  1.00  0.00    +0.000 C 
ATOM      4  C4  UNL A   1       9.403  48.247   7.623  1.00  0.00    +0.000 C 
ATOM      5  C5  UNL A   1      10.742  48.621   7.844  1.00  0.00    +0.000 C 
ATOM     98  H5  UNL A   1      11.118  49.460   7.376  1.00  0.00    +0.000 H 
ATOM      6  C6  UNL A   1      11.579  47.867   8.693  1.00  0.00    +0.000 C 
ATOM    136  H43 UNL A   1       9.358  45.413   9.454  1.00  0.00    +0.000 H 
ATOM    137  H44 UNL A   1       7.016  46.216   8.113  1.00  0.00    +0.000 H 
ATOM    135  H42 UNL A   1      11.650  46.125   9.878  1.00  0.00    +0.000 H 
ATOM     90  C67 UNL A   1      11.047  46.698   9.266  1.00  0.00    +0.000 C 
ATOM     91  C68 UNL A   1       9.725  46.282   9.037  1.00  0.00    +0.000 C 
ATOM     92  C69 UNL A   1       8.924  47.088   8.222  1.00  0.00    +0.000 C 
ATOM     93  N7  UNL A   1       7.606  46.958   7.847  1.00  0.00    +0.000 N 
BRANCH    2    1
ATOM      1  C1  UNL A   1       5.852  48.146   6.516  1.00  0.00    +0.000 C 
ATOM     94  H1  UNL A   1       5.877  48.686   5.592  1.00  0.00    +0.000 H 
ATOM     95  H2  UNL A   1       5.246  48.674   7.221  1.00  0.00    +0.000 H 
ATOM     96  H3  UNL A   1       5.439  47.173   6.348  1.00  0.00    +0.000 H 
ENDBRANCH    2    1
ENDBRANCH    7    6
ENDBRANCH   11   10
BRANCH   11   12
ATOM     12  C12 UNL A   1      17.680  50.637   8.818  1.00  0.00    +0.000 C 
ATOM    102  H9  UNL A   1      18.427  51.258   9.266  1.00  0.00    +0.000 H 
ATOM    103  H10 UNL A   1      16.974  51.250   8.295  1.00  0.00    +0.000 H 
ATOM    104  H11 UNL A   1      18.143  49.961   8.130  1.00  0.00    +0.000 H 
ENDBRANCH   11   12
ENDBRANCH   13   11
ENDBRANCH   15   13
ENDBRANCH   16   15
ENDBRANCH   17   16
ENDBRANCH   18   17
ENDBRANCH   19   18
ENDBRANCH   20   19
ENDBRANCH   21   20
ENDBRANCH   22   21
ENDBRANCH   23   22
ENDBRANCH   25   23
ENDBRANCH   29   28
BRANCH   33   34
ATOM     34  C29 UNL A   1      12.550  48.036   4.272  1.00  0.00    +0.000 C 
ATOM     35  C30 UNL A   1      11.249  47.751   3.833  1.00  0.00    +0.000 C 
ATOM     36  F1  UNL A   1      10.687  48.486   2.863  1.00  0.00    +0.000 F 
ATOM     37  C31 UNL A   1      10.504  46.729   4.417  1.00  0.00    +0.000 C 
ATOM     38  F2  UNL A   1       9.246  46.504   4.013  1.00  0.00    +0.000 F 
ATOM     39  C32 UNL A   1      11.056  45.954   5.425  1.00  0.00    +0.000 C 
ATOM     40  F3  UNL A   1      10.340  44.968   5.983  1.00  0.00    +0.000 F 
ATOM     41  C33 UNL A   1      12.349  46.205   5.861  1.00  0.00    +0.000 C 
ATOM     42  F4  UNL A   1      12.888  45.450   6.827  1.00  0.00    +0.000 F 
ATOM     43  C34 UNL A   1      13.087  47.244   5.298  1.00  0.00    +0.000 C 
ATOM     44  F5  UNL A   1      14.329  47.472   5.750  1.00  0.00    +0.000 F 
ENDBRANCH   33   34
BRANCH   50   51
ATOM     51  C40 UNL A   1      17.010  48.907  -1.326  1.00  0.00    +0.000 C 
ATOM     52  C41 UNL A   1      18.142  48.093  -1.173  1.00  0.00    +0.000 C 
ATOM     53  F6  UNL A   1      18.806  48.071  -0.008  1.00  0.00    +0.000 F 
ATOM     54  C42 UNL A   1      18.618  47.327  -2.234  1.00  0.00    +0.000 C 
ATOM     55  F7  UNL A   1      19.726  46.590  -2.081  1.00  0.00    +0.000 F 
ATOM     56  C43 UNL A   1      17.955  47.336  -3.452  1.00  0.00    +0.000 C 
ATOM     57  F8  UNL A   1      18.412  46.593  -4.470  1.00  0.00    +0.000 F 
ATOM     58  C44 UNL A   1      16.824  48.121  -3.619  1.00  0.00    +0.000 C 
ATOM     59  F9  UNL A   1      16.176  48.122  -4.793  1.00  0.00    +0.000 F 
ATOM     60  C45 UNL A   1      16.361  48.908  -2.570  1.00  0.00    +0.000 C 
ATOM     61  F10 UNL A   1      15.271  49.667  -2.763  1.00  0.00    +0.000 F 
ENDBRANCH   50   51
BRANCH   65   66
ATOM     66  C49 UNL A   1      17.956  55.550   0.532  1.00  0.00    +0.000 C 
ATOM     67  C50 UNL A   1      17.526  56.267  -0.592  1.00  0.00    +0.000 C 
ATOM     68  F11 UNL A   1      16.368  55.945  -1.189  1.00  0.00    +0.000 F 
ATOM     69  C51 UNL A   1      18.301  57.290  -1.133  1.00  0.00    +0.000 C 
ATOM     70  F12 UNL A   1      17.887  57.931  -2.235  1.00  0.00    +0.000 F 
ATOM     71  C52 UNL A   1      19.508  57.634  -0.543  1.00  0.00    +0.000 C 
ATOM     72  F13 UNL A   1      20.253  58.620  -1.063  1.00  0.00    +0.000 F 
ATOM     73  C53 UNL A   1      19.946  56.950   0.581  1.00  0.00    +0.000 C 
ATOM     74  F14 UNL A   1      21.106  57.288   1.161  1.00  0.00    +0.000 F 
ATOM     75  C54 UNL A   1      19.183  55.909   1.108  1.00  0.00    +0.000 C 
ATOM     76  F15 UNL A   1      19.637  55.256   2.187  1.00  0.00    +0.000 F 
ENDBRANCH   65   66
TORSDOF 19
ENDMDL
MODEL 8
REMARK VINA RESULT:      -8.4     39.925     46.814
ROOT
ATOM    129  H36 UNL A   1      11.065   1.997  28.795  1.00  0.00    +0.000 H 
ATOM    130  H37 UNL A   1       9.468   0.876  27.138  1.00  0.00    +0.000 H 
ATOM     29  C25 UNL A   1       7.645   2.682  25.901  1.00  0.00    +0.000 C 
ATOM     30  C26 UNL A   1       8.783   3.014  26.826  1.00  0.00    +0.000 C 
ATOM     31  N3  UNL A   1       9.186   4.183  27.258  1.00  0.00    +0.000 N 
ATOM     32  C27 UNL A   1      10.246   3.925  28.116  1.00  0.00    +0.000 C 
ATOM     33  C28 UNL A   1      11.037   4.806  28.773  1.00  0.00    +0.000 C 
ATOM     45  C35 UNL A   1      10.904   6.237  28.685  1.00  0.00    +0.000 C 
ATOM     46  C36 UNL A   1      11.686   7.215  29.276  1.00  0.00    +0.000 C 
ATOM     47  C37 UNL A   1      11.158   8.464  28.931  1.00  0.00    +0.000 C 
ATOM     48  C38 UNL A   1      10.073   8.266  28.092  1.00  0.00    +0.000 C 
ATOM     49  N4  UNL A   1       9.924   6.893  27.956  1.00  0.00    +0.000 N 
ATOM     50  C39 UNL A   1       9.233   9.251  27.463  1.00  0.00    +0.000 C 
ATOM     62  C46 UNL A   1       8.184   8.975  26.651  1.00  0.00    +0.000 C 
ATOM     63  N5  UNL A   1       7.698   7.740  26.242  1.00  0.00    +0.000 N 
ATOM     64  C47 UNL A   1       6.668   7.995  25.472  1.00  0.00    +0.000 C 
ATOM     65  C48 UNL A   1       5.778   7.038  24.730  1.00  0.00    +0.000 C 
ATOM     77  C55 UNL A   1       6.021   5.715  24.808  1.00  0.00    +0.000 C 
ATOM     78  C56 UNL A   1       5.248   4.671  24.144  1.00  0.00    +0.000 C 
ATOM     79  C57 UNL A   1       5.748   3.472  24.485  1.00  0.00    +0.000 C 
ATOM     80  C58 UNL A   1       6.900   3.668  25.366  1.00  0.00    +0.000 C 
ATOM     81  N6  UNL A   1       6.993   5.030  25.496  1.00  0.00    +0.000 N 
ATOM     82  C59 UNL A   1       6.365   9.426  25.331  1.00  0.00    +0.000 C 
ATOM     83  C60 UNL A   1       7.341   9.979  26.037  1.00  0.00    +0.000 C 
ATOM     84  C61 UNL A   1      10.394   2.486  28.183  1.00  0.00    +0.000 C 
ATOM     85  C62 UNL A   1       9.555   1.880  27.355  1.00  0.00    +0.000 C 
ATOM    121  H28 UNL A   1      12.514   7.051  29.868  1.00  0.00    +0.000 H 
ATOM    122  H29 UNL A   1      11.516   9.379  29.247  1.00  0.00    +0.000 H 
ATOM    123  H30 UNL A   1       9.227   6.451  27.420  1.00  0.00    +0.000 H 
ATOM    124  H31 UNL A   1       4.447   4.828  23.512  1.00  0.00    +0.000 H 
ATOM    125  H32 UNL A   1       5.379   2.560  24.174  1.00  0.00    +0.000 H 
ATOM    126  H33 UNL A   1       7.689   5.476  26.031  1.00  0.00    +0.000 H 
ATOM    127  H34 UNL A   1       5.594   9.881  24.817  1.00  0.00    +0.000 H 
ATOM    128  H35 UNL A   1       7.484  10.997  26.135  1.00  0.00    +0.000 H 
ENDROOT
BRANCH   29   28
ATOM    131  H38 UNL A   1       8.532   1.120  23.915  1.00  0.00    +0.000 H 
ATOM    132  H39 UNL A   1       7.903  -1.159  23.381  1.00  0.00    +0.000 H 
ATOM    120  H27 UNL A   1       5.946   1.043  27.240  1.00  0.00    +0.000 H 
ATOM     86  C63 UNL A   1       7.866   0.616  24.520  1.00  0.00    +0.000 C 
ATOM     87  C64 UNL A   1       7.536  -0.709  24.233  1.00  0.00    +0.000 C 
ATOM    119  H26 UNL A   1       5.475  -1.300  26.814  1.00  0.00    +0.000 H 
ATOM     25  C21 UNL A   1       6.709  -1.426  25.103  1.00  0.00    +0.000 C 
ATOM     26  C22 UNL A   1       6.118  -0.782  26.195  1.00  0.00    +0.000 C 
ATOM     27  C23 UNL A   1       6.400   0.563  26.446  1.00  0.00    +0.000 C 
ATOM     28  C24 UNL A   1       7.297   1.265  25.626  1.00  0.00    +0.000 C 
BRANCH   25   23
ATOM     23  C20 UNL A   1       6.395  -2.852  24.859  1.00  0.00    +0.000 C 
ATOM     24  O2  UNL A   1       5.975  -3.547  25.778  1.00  0.00    +0.000 O 
BRANCH   23   22
ATOM    118  H25 UNL A   1       6.605  -2.751  22.870  1.00  0.00    +0.000 H 
ATOM     22  N2  UNL A   1       6.570  -3.399  23.611  1.00  0.00    +0.000 N 
BRANCH   22   21
ATOM    117  H24 UNL A   1       5.882  -5.046  22.595  1.00  0.00    +0.000 H 
ATOM    116  H23 UNL A   1       6.724  -5.397  24.107  1.00  0.00    +0.000 H 
ATOM     21  C19 UNL A   1       6.710  -4.793  23.224  1.00  0.00    +0.000 C 
BRANCH   21   20
ATOM    114  H21 UNL A   1       8.660  -5.605  23.053  1.00  0.00    +0.000 H 
ATOM    115  H22 UNL A   1       7.702  -5.562  21.544  1.00  0.00    +0.000 H 
ATOM     20  C18 UNL A   1       7.993  -5.043  22.434  1.00  0.00    +0.000 C 
BRANCH   20   19
ATOM    113  H20 UNL A   1       8.074  -2.961  22.214  1.00  0.00    +0.000 H 
ATOM     19  C17 UNL A   1       8.724  -3.777  21.973  1.00  0.00    +0.000 C 
ATOM    112  H19 UNL A   1       8.926  -3.876  20.927  1.00  0.00    +0.000 H 
BRANCH   19   18
ATOM     18  C16 UNL A   1      10.051  -3.478  22.685  1.00  0.00    +0.000 C 
ATOM    110  H17 UNL A   1      10.838  -3.571  21.967  1.00  0.00    +0.000 H 
ATOM    111  H18 UNL A   1       9.953  -2.492  23.090  1.00  0.00    +0.000 H 
BRANCH   18   17
ATOM     17  C15 UNL A   1      10.380  -4.392  23.870  1.00  0.00    +0.000 C 
ATOM    108  H15 UNL A   1       9.850  -5.313  23.742  1.00  0.00    +0.000 H 
ATOM    109  H16 UNL A   1      11.441  -4.524  23.873  1.00  0.00    +0.000 H 
BRANCH   17   16
ATOM    106  H13 UNL A   1       8.958  -3.570  25.229  1.00  0.00    +0.000 H 
ATOM    107  H14 UNL A   1      10.232  -4.535  25.981  1.00  0.00    +0.000 H 
ATOM     16  C14 UNL A   1      10.002  -3.806  25.232  1.00  0.00    +0.000 C 
BRANCH   16   15
ATOM    105  H12 UNL A   1      10.195  -1.805  25.680  1.00  0.00    +0.000 H 
ATOM     15  N1  UNL A   1      10.751  -2.604  25.534  1.00  0.00    +0.000 N 
BRANCH   15   13
ATOM     13  C13 UNL A   1      12.090  -2.386  25.654  1.00  0.00    +0.000 C 
ATOM     14  O1  UNL A   1      12.621  -2.789  26.697  1.00  0.00    +0.000 O 
BRANCH   13   11
ATOM     11  C11 UNL A   1      12.936  -1.663  24.595  1.00  0.00    +0.000 C 
ATOM    101  H8  UNL A   1      13.039  -2.356  23.787  1.00  0.00    +0.000 H 
BRANCH   11   10
ATOM     99  H6  UNL A   1      11.226   0.762  21.008  1.00  0.00    +0.000 H 
ATOM    100  H7  UNL A   1      12.169  -1.223  21.989  1.00  0.00    +0.000 H 
ATOM    133  H40 UNL A   1      12.031   0.590  25.766  1.00  0.00    +0.000 H 
ATOM    134  H41 UNL A   1      10.932   2.515  24.805  1.00  0.00    +0.000 H 
ATOM      7  C7  UNL A   1      10.985   1.826  22.812  1.00  0.00    +0.000 C 
ATOM      8  C8  UNL A   1      11.372   0.726  22.030  1.00  0.00    +0.000 C 
ATOM      9  C9  UNL A   1      11.947  -0.416  22.592  1.00  0.00    +0.000 C 
ATOM     10  C10 UNL A   1      12.225  -0.480  23.958  1.00  0.00    +0.000 C 
ATOM     88  C65 UNL A   1      11.847   0.613  24.751  1.00  0.00    +0.000 C 
ATOM     89  C66 UNL A   1      11.222   1.738  24.191  1.00  0.00    +0.000 C 
BRANCH    7    6
ATOM     97  H4  UNL A   1      11.209   5.015  18.382  1.00  0.00    +0.000 H 
ATOM      2  C2  UNL A   1       9.741   6.426  19.082  1.00  0.00    +0.000 C 
ATOM      3  C3  UNL A   1      10.538   5.303  19.111  1.00  0.00    +0.000 C 
ATOM      4  C4  UNL A   1      10.274   4.612  20.322  1.00  0.00    +0.000 C 
ATOM      5  C5  UNL A   1      10.782   3.435  20.902  1.00  0.00    +0.000 C 
ATOM     98  H5  UNL A   1      11.475   2.872  20.383  1.00  0.00    +0.000 H 
ATOM      6  C6  UNL A   1      10.361   3.010  22.180  1.00  0.00    +0.000 C 
ATOM    136  H43 UNL A   1       8.088   5.468  22.748  1.00  0.00    +0.000 H 
ATOM    137  H44 UNL A   1       8.316   7.105  20.467  1.00  0.00    +0.000 H 
ATOM    135  H42 UNL A   1       9.042   3.466  23.758  1.00  0.00    +0.000 H 
ATOM     90  C67 UNL A   1       9.374   3.771  22.829  1.00  0.00    +0.000 C 
ATOM     91  C68 UNL A   1       8.823   4.931  22.261  1.00  0.00    +0.000 C 
ATOM     92  C69 UNL A   1       9.306   5.334  21.013  1.00  0.00    +0.000 C 
ATOM     93  N7  UNL A   1       8.988   6.423  20.233  1.00  0.00    +0.000 N 
BRANCH    2    1
ATOM      1  C1  UNL A   1       9.624   7.499  18.067  1.00  0.00    +0.000 C 
ATOM     94  H1  UNL A   1      10.574   7.978  17.942  1.00  0.00    +0.000 H 
ATOM     95  H2  UNL A   1       8.902   8.219  18.388  1.00  0.00    +0.000 H 
ATOM     96  H3  UNL A   1       9.314   7.076  17.134  1.00  0.00    +0.000 H 
ENDBRANCH    2    1
ENDBRANCH    7    6
ENDBRANCH   11   10
BRANCH   11   12
ATOM     12  C12 UNL A   1      14.389  -1.425  25.009  1.00  0.00    +0.000 C 
ATOM    102  H9  UNL A   1      15.018  -2.153  24.540  1.00  0.00    +0.000 H 
ATOM    103  H10 UNL A   1      14.477  -1.512  26.073  1.00  0.00    +0.000 H 
ATOM    104  H11 UNL A   1      14.692  -0.444  24.706  1.00  0.00    +0.000 H 
ENDBRANCH   11   12
ENDBRANCH   13   11
ENDBRANCH   15   13
ENDBRANCH   16   15
ENDBRANCH   17   16
ENDBRANCH   18   17
ENDBRANCH   19   18
ENDBRANCH   20   19
ENDBRANCH   21   20
ENDBRANCH   22   21
ENDBRANCH   23   22
ENDBRANCH   25   23
ENDBRANCH   29   28
BRANCH   33   34
ATOM     34  C29 UNL A   1      12.125   4.246  29.642  1.00  0.00    +0.000 C 
ATOM     35  C30 UNL A   1      13.280   3.671  29.090  1.00  0.00    +0.000 C 
ATOM     36  F1  UNL A   1      13.414   3.572  27.760  1.00  0.00    +0.000 F 
ATOM     37  C31 UNL A   1      14.286   3.161  29.906  1.00  0.00    +0.000 C 
ATOM     38  F2  UNL A   1      15.359   2.575  29.357  1.00  0.00    +0.000 F 
ATOM     39  C32 UNL A   1      14.174   3.246  31.286  1.00  0.00    +0.000 C 
ATOM     40  F3  UNL A   1      15.145   2.759  32.070  1.00  0.00    +0.000 F 
ATOM     41  C33 UNL A   1      13.050   3.828  31.853  1.00  0.00    +0.000 C 
ATOM     42  F4  UNL A   1      12.945   3.921  33.185  1.00  0.00    +0.000 F 
ATOM     43  C34 UNL A   1      12.029   4.315  31.040  1.00  0.00    +0.000 C 
ATOM     44  F5  UNL A   1      10.948   4.860  31.618  1.00  0.00    +0.000 F 
ENDBRANCH   33   34
BRANCH   50   51
ATOM     51  C40 UNL A   1       9.553  10.696  27.703  1.00  0.00    +0.000 C 
ATOM     52  C41 UNL A   1      10.594  11.342  27.019  1.00  0.00    +0.000 C 
ATOM     53  F6  UNL A   1      11.368  10.656  26.165  1.00  0.00    +0.000 F 
ATOM     54  C42 UNL A   1      10.867  12.689  27.244  1.00  0.00    +0.000 C 
ATOM     55  F7  UNL A   1      11.894  13.275  26.614  1.00  0.00    +0.000 F 
ATOM     56  C43 UNL A   1      10.088  13.420  28.127  1.00  0.00    +0.000 C 
ATOM     57  F8  UNL A   1      10.349  14.718  28.337  1.00  0.00    +0.000 F 
ATOM     58  C44 UNL A   1       9.042  12.805  28.800  1.00  0.00    +0.000 C 
ATOM     59  F9  UNL A   1       8.281  13.514  29.646  1.00  0.00    +0.000 F 
ATOM     60  C45 UNL A   1       8.783  11.453  28.599  1.00  0.00    +0.000 C 
ATOM     61  F10 UNL A   1       7.773  10.882  29.273  1.00  0.00    +0.000 F 
ENDBRANCH   50   51
BRANCH   65   66
ATOM     66  C49 UNL A   1       4.658   7.537  23.890  1.00  0.00    +0.000 C 
ATOM     67  C50 UNL A   1       3.459   7.965  24.477  1.00  0.00    +0.000 C 
ATOM     68  F11 UNL A   1       3.309   7.910  25.809  1.00  0.00    +0.000 F 
ATOM     69  C51 UNL A   1       2.395   8.411  23.696  1.00  0.00    +0.000 C 
ATOM     70  F12 UNL A   1       1.245   8.773  24.279  1.00  0.00    +0.000 F 
ATOM     71  C52 UNL A   1       2.520   8.465  22.317  1.00  0.00    +0.000 C 
ATOM     72  F13 UNL A   1       1.497   8.896  21.565  1.00  0.00    +0.000 F 
ATOM     73  C53 UNL A   1       3.704   8.063  21.715  1.00  0.00    +0.000 C 
ATOM     74  F14 UNL A   1       3.833   8.127  20.382  1.00  0.00    +0.000 F 
ATOM     75  C54 UNL A   1       4.760   7.593  22.493  1.00  0.00    +0.000 C 
ATOM     76  F15 UNL A   1       5.888   7.199  21.885  1.00  0.00    +0.000 F 
ENDBRANCH   65   66
TORSDOF 19
ENDMDL
MODEL 9
REMARK VINA RESULT:      -8.4     41.316     48.382
ROOT
ATOM    129  H36 UNL A   1      45.868  53.751  14.914  1.00  0.00    +0.000 H 
ATOM    130  H37 UNL A   1      44.777  51.730  16.044  1.00  0.00    +0.000 H 
ATOM     29  C25 UNL A   1      46.357  50.585  18.119  1.00  0.00    +0.000 C 
ATOM     30  C26 UNL A   1      46.638  51.837  17.336  1.00  0.00    +0.000 C 
ATOM     31  N3  UNL A   1      47.646  52.667  17.432  1.00  0.00    +0.000 N 
ATOM     32  C27 UNL A   1      47.439  53.628  16.452  1.00  0.00    +0.000 C 
ATOM     33  C28 UNL A   1      48.174  54.733  16.184  1.00  0.00    +0.000 C 
ATOM     45  C35 UNL A   1      49.356  55.118  16.910  1.00  0.00    +0.000 C 
ATOM     46  C36 UNL A   1      50.145  56.244  16.743  1.00  0.00    +0.000 C 
ATOM     47  C37 UNL A   1      51.204  56.175  17.655  1.00  0.00    +0.000 C 
ATOM     48  C38 UNL A   1      51.053  55.027  18.416  1.00  0.00    +0.000 C 
ATOM     49  N4  UNL A   1      49.919  54.384  17.943  1.00  0.00    +0.000 N 
ATOM     50  C39 UNL A   1      51.880  54.550  19.494  1.00  0.00    +0.000 C 
ATOM     62  C46 UNL A   1      51.665  53.410  20.193  1.00  0.00    +0.000 C 
ATOM     63  N5  UNL A   1      50.642  52.481  20.056  1.00  0.00    +0.000 N 
ATOM     64  C47 UNL A   1      50.875  51.553  20.952  1.00  0.00    +0.000 C 
ATOM     65  C48 UNL A   1      50.075  50.321  21.273  1.00  0.00    +0.000 C 
ATOM     77  C55 UNL A   1      48.938  50.078  20.593  1.00  0.00    +0.000 C 
ATOM     78  C56 UNL A   1      48.060  48.930  20.795  1.00  0.00    +0.000 C 
ATOM     79  C57 UNL A   1      47.050  48.991  19.912  1.00  0.00    +0.000 C 
ATOM     80  C58 UNL A   1      47.193  50.203  19.104  1.00  0.00    +0.000 C 
ATOM     81  N6  UNL A   1      48.337  50.790  19.585  1.00  0.00    +0.000 N 
ATOM     82  C59 UNL A   1      52.095  51.775  21.741  1.00  0.00    +0.000 C 
ATOM     83  C60 UNL A   1      52.516  52.938  21.266  1.00  0.00    +0.000 C 
ATOM     84  C61 UNL A   1      46.236  53.254  15.740  1.00  0.00    +0.000 C 
ATOM     85  C62 UNL A   1      45.668  52.189  16.288  1.00  0.00    +0.000 C 
ATOM    121  H28 UNL A   1      49.979  57.003  16.065  1.00  0.00    +0.000 H 
ATOM    122  H29 UNL A   1      51.968  56.862  17.745  1.00  0.00    +0.000 H 
ATOM    123  H30 UNL A   1      49.565  53.534  18.290  1.00  0.00    +0.000 H 
ATOM    124  H31 UNL A   1      48.193  48.191  21.502  1.00  0.00    +0.000 H 
ATOM    125  H32 UNL A   1      46.294  48.295  19.818  1.00  0.00    +0.000 H 
ATOM    126  H33 UNL A   1      48.693  51.641  19.240  1.00  0.00    +0.000 H 
ATOM    127  H34 UNL A   1      52.514  51.180  22.474  1.00  0.00    +0.000 H 
ATOM    128  H35 UNL A   1      53.344  53.444  21.617  1.00  0.00    +0.000 H 
ENDROOT
BRANCH   29   28
ATOM    131  H38 UNL A   1      46.312  48.431  16.528  1.00  0.00    +0.000 H 
ATOM    132  H39 UNL A   1      44.416  47.081  15.857  1.00  0.00    +0.000 H 
ATOM    120  H27 UNL A   1      43.764  50.819  18.885  1.00  0.00    +0.000 H 
ATOM     86  C63 UNL A   1      45.374  48.641  16.903  1.00  0.00    +0.000 C 
ATOM     87  C64 UNL A   1      44.292  47.837  16.546  1.00  0.00    +0.000 C 
ATOM    119  H26 UNL A   1      41.908  49.342  18.367  1.00  0.00    +0.000 H 
ATOM     25  C21 UNL A   1      43.038  48.059  17.125  1.00  0.00    +0.000 C 
ATOM     26  C22 UNL A   1      42.843  49.156  17.971  1.00  0.00    +0.000 C 
ATOM     27  C23 UNL A   1      43.915  49.997  18.279  1.00  0.00    +0.000 C 
ATOM     28  C24 UNL A   1      45.195  49.730  17.769  1.00  0.00    +0.000 C 
BRANCH   25   23
ATOM     23  C20 UNL A   1      41.886  47.181  16.816  1.00  0.00    +0.000 C 
ATOM     24  O2  UNL A   1      41.306  47.298  15.742  1.00  0.00    +0.000 O 
BRANCH   23   22
ATOM    118  H25 UNL A   1      41.194  46.593  18.601  1.00  0.00    +0.000 H 
ATOM     22  N2  UNL A   1      41.467  46.239  17.723  1.00  0.00    +0.000 N 
BRANCH   22   21
ATOM    117  H24 UNL A   1      42.360  44.393  17.599  1.00  0.00    +0.000 H 
ATOM    116  H23 UNL A   1      40.880  44.574  16.652  1.00  0.00    +0.000 H 
ATOM     21  C19 UNL A   1      41.369  44.795  17.578  1.00  0.00    +0.000 C 
BRANCH   21   20
ATOM    114  H21 UNL A   1      40.086  44.937  19.258  1.00  0.00    +0.000 H 
ATOM    115  H22 UNL A   1      39.902  43.462  18.263  1.00  0.00    +0.000 H 
ATOM     20  C18 UNL A   1      40.579  44.157  18.718  1.00  0.00    +0.000 C 
BRANCH   20   19
ATOM    113  H20 UNL A   1      41.306  42.323  19.425  1.00  0.00    +0.000 H 
ATOM     19  C17 UNL A   1      41.420  43.348  19.712  1.00  0.00    +0.000 C 
ATOM    112  H19 UNL A   1      41.063  43.564  20.697  1.00  0.00    +0.000 H 
BRANCH   19   18
ATOM     18  C16 UNL A   1      42.929  43.623  19.686  1.00  0.00    +0.000 C 
ATOM    110  H17 UNL A   1      43.281  43.437  18.692  1.00  0.00    +0.000 H 
ATOM    111  H18 UNL A   1      43.051  44.638  20.002  1.00  0.00    +0.000 H 
BRANCH   18   17
ATOM     17  C15 UNL A   1      43.767  42.776  20.650  1.00  0.00    +0.000 C 
ATOM    108  H15 UNL A   1      43.274  41.837  20.788  1.00  0.00    +0.000 H 
ATOM    109  H16 UNL A   1      44.736  42.672  20.208  1.00  0.00    +0.000 H 
BRANCH   17   16
ATOM    106  H13 UNL A   1      43.842  44.476  21.934  1.00  0.00    +0.000 H 
ATOM    107  H14 UNL A   1      43.258  42.994  22.697  1.00  0.00    +0.000 H 
ATOM     16  C14 UNL A   1      43.973  43.418  22.024  1.00  0.00    +0.000 C 
BRANCH   16   15
ATOM    105  H12 UNL A   1      45.313  42.515  23.302  1.00  0.00    +0.000 H 
ATOM     15  N1  UNL A   1      45.295  43.155  22.554  1.00  0.00    +0.000 N 
BRANCH   15   13
ATOM     13  C13 UNL A   1      46.518  43.638  22.199  1.00  0.00    +0.000 C 
ATOM     14  O1  UNL A   1      46.976  44.547  22.904  1.00  0.00    +0.000 O 
BRANCH   13   11
ATOM     11  C11 UNL A   1      47.316  43.134  20.987  1.00  0.00    +0.000 C 
ATOM    101  H8  UNL A   1      46.639  42.520  20.432  1.00  0.00    +0.000 H 
BRANCH   11   10
ATOM     99  H6  UNL A   1      46.473  46.046  17.454  1.00  0.00    +0.000 H 
ATOM    100  H7  UNL A   1      45.782  44.454  19.121  1.00  0.00    +0.000 H 
ATOM    133  H40 UNL A   1      49.688  44.368  20.642  1.00  0.00    +0.000 H 
ATOM    134  H41 UNL A   1      50.338  46.090  19.077  1.00  0.00    +0.000 H 
ATOM      7  C7  UNL A   1      48.469  46.223  18.109  1.00  0.00    +0.000 C 
ATOM      8  C8  UNL A   1      47.162  45.712  18.147  1.00  0.00    +0.000 C 
ATOM      9  C9  UNL A   1      46.766  44.765  19.094  1.00  0.00    +0.000 C 
ATOM     10  C10 UNL A   1      47.681  44.235  20.004  1.00  0.00    +0.000 C 
ATOM     88  C65 UNL A   1      48.992  44.734  19.975  1.00  0.00    +0.000 C 
ATOM     89  C66 UNL A   1      49.373  45.724  19.056  1.00  0.00    +0.000 C 
BRANCH    7    6
ATOM     97  H4  UNL A   1      51.017  51.019  17.513  1.00  0.00    +0.000 H 
ATOM      2  C2  UNL A   1      50.528  51.243  15.427  1.00  0.00    +0.000 C 
ATOM      3  C3  UNL A   1      50.571  50.637  16.664  1.00  0.00    +0.000 C 
ATOM      4  C4  UNL A   1      49.894  49.394  16.564  1.00  0.00    +0.000 C 
ATOM      5  C5  UNL A   1      49.607  48.366  17.481  1.00  0.00    +0.000 C 
ATOM     98  H5  UNL A   1      49.960  48.435  18.448  1.00  0.00    +0.000 H 
ATOM      6  C6  UNL A   1      48.844  47.241  17.101  1.00  0.00    +0.000 C 
ATOM    136  H43 UNL A   1      48.430  48.059  13.831  1.00  0.00    +0.000 H 
ATOM    137  H44 UNL A   1      49.698  50.565  13.622  1.00  0.00    +0.000 H 
ATOM    135  H42 UNL A   1      47.885  46.331  15.461  1.00  0.00    +0.000 H 
ATOM     90  C67 UNL A   1      48.430  47.155  15.761  1.00  0.00    +0.000 C 
ATOM     91  C68 UNL A   1      48.730  48.148  14.815  1.00  0.00    +0.000 C 
ATOM     92  C69 UNL A   1      49.451  49.264  15.253  1.00  0.00    +0.000 C 
ATOM     93  N7  UNL A   1      49.860  50.391  14.578  1.00  0.00    +0.000 N 
BRANCH    2    1
ATOM      1  C1  UNL A   1      51.061  52.550  14.976  1.00  0.00    +0.000 C 
ATOM     94  H1  UNL A   1      51.929  52.391  14.370  1.00  0.00    +0.000 H 
ATOM     95  H2  UNL A   1      51.323  53.142  15.827  1.00  0.00    +0.000 H 
ATOM     96  H3  UNL A   1      50.316  53.061  14.403  1.00  0.00    +0.000 H 
ENDBRANCH    2    1
ENDBRANCH    7    6
ENDBRANCH   11   10
BRANCH   11   12
ATOM     12  C12 UNL A   1      48.436  42.153  21.338  1.00  0.00    +0.000 C 
ATOM    102  H9  UNL A   1      48.555  41.448  20.542  1.00  0.00    +0.000 H 
ATOM    103  H10 UNL A   1      48.187  41.633  22.240  1.00  0.00    +0.000 H 
ATOM    104  H11 UNL A   1      49.352  42.690  21.478  1.00  0.00    +0.000 H 
ENDBRANCH   11   12
ENDBRANCH   13   11
ENDBRANCH   15   13
ENDBRANCH   16   15
ENDBRANCH   17   16
ENDBRANCH   18   17
ENDBRANCH   19   18
ENDBRANCH   20   19
ENDBRANCH   21   20
ENDBRANCH   22   21
ENDBRANCH   23   22
ENDBRANCH   25   23
ENDBRANCH   29   28
BRANCH   33   34
ATOM     34  C29 UNL A   1      47.714  55.614  15.058  1.00  0.00    +0.000 C 
ATOM     35  C30 UNL A   1      46.970  56.778  15.297  1.00  0.00    +0.000 C 
ATOM     36  F1  UNL A   1      46.614  57.107  16.547  1.00  0.00    +0.000 F 
ATOM     37  C31 UNL A   1      46.555  57.591  14.245  1.00  0.00    +0.000 C 
ATOM     38  F2  UNL A   1      45.804  58.674  14.493  1.00  0.00    +0.000 F 
ATOM     39  C32 UNL A   1      46.904  57.275  12.941  1.00  0.00    +0.000 C 
ATOM     40  F3  UNL A   1      46.508  58.061  11.930  1.00  0.00    +0.000 F 
ATOM     41  C33 UNL A   1      47.657  56.139  12.683  1.00  0.00    +0.000 C 
ATOM     42  F4  UNL A   1      48.005  55.839  11.425  1.00  0.00    +0.000 F 
ATOM     43  C34 UNL A   1      48.051  55.309  13.730  1.00  0.00    +0.000 C 
ATOM     44  F5  UNL A   1      48.767  54.211  13.448  1.00  0.00    +0.000 F 
ENDBRANCH   33   34
BRANCH   50   51
ATOM     51  C40 UNL A   1      53.060  55.387  19.891  1.00  0.00    +0.000 C 
ATOM     52  C41 UNL A   1      54.310  55.234  19.274  1.00  0.00    +0.000 C 
ATOM     53  F6  UNL A   1      54.491  54.288  18.340  1.00  0.00    +0.000 F 
ATOM     54  C42 UNL A   1      55.391  56.030  19.646  1.00  0.00    +0.000 C 
ATOM     55  F7  UNL A   1      56.588  55.838  19.075  1.00  0.00    +0.000 F 
ATOM     56  C43 UNL A   1      55.234  57.010  20.613  1.00  0.00    +0.000 C 
ATOM     57  F8  UNL A   1      56.274  57.779  20.965  1.00  0.00    +0.000 F 
ATOM     58  C44 UNL A   1      54.001  57.190  21.224  1.00  0.00    +0.000 C 
ATOM     59  F9  UNL A   1      53.846  58.144  22.152  1.00  0.00    +0.000 F 
ATOM     60  C45 UNL A   1      52.927  56.378  20.875  1.00  0.00    +0.000 C 
ATOM     61  F10 UNL A   1      51.749  56.566  21.491  1.00  0.00    +0.000 F 
ENDBRANCH   50   51
BRANCH   65   66
ATOM     66  C49 UNL A   1      50.509  49.392  22.348  1.00  0.00    +0.000 C 
ATOM     67  C50 UNL A   1      50.192  49.652  23.689  1.00  0.00    +0.000 C 
ATOM     68  F11 UNL A   1      49.504  50.757  24.012  1.00  0.00    +0.000 F 
ATOM     69  C51 UNL A   1      50.616  48.800  24.706  1.00  0.00    +0.000 C 
ATOM     70  F12 UNL A   1      50.337  49.094  25.983  1.00  0.00    +0.000 F 
ATOM     71  C52 UNL A   1      51.340  47.658  24.399  1.00  0.00    +0.000 C 
ATOM     72  F13 UNL A   1      51.746  46.837  25.378  1.00  0.00    +0.000 F 
ATOM     73  C53 UNL A   1      51.651  47.372  23.078  1.00  0.00    +0.000 C 
ATOM     74  F14 UNL A   1      52.340  46.262  22.778  1.00  0.00    +0.000 F 
ATOM     75  C54 UNL A   1      51.249  48.236  22.062  1.00  0.00    +0.000 C 
ATOM     76  F15 UNL A   1      51.574  47.942  20.795  1.00  0.00    +0.000 F 
ENDBRANCH   65   66
TORSDOF 19
ENDMDL
MODEL 10
REMARK VINA RESULT:      -8.4     63.183     70.336
ROOT
ATOM    129  H36 UNL A   1      17.211  50.579  -1.987  1.00  0.00    +0.000 H 
ATOM    130  H37 UNL A   1      17.431  53.126  -2.106  1.00  0.00    +0.000 H 
ATOM     29  C25 UNL A   1      16.481  54.469   0.220  1.00  0.00    +0.000 C 
ATOM     30  C26 UNL A   1      16.609  52.987   0.003  1.00  0.00    +0.000 C 
ATOM     31  N3  UNL A   1      16.323  52.002   0.817  1.00  0.00    +0.000 N 
ATOM     32  C27 UNL A   1      16.586  50.837   0.109  1.00  0.00    +0.000 C 
ATOM     33  C28 UNL A   1      16.502  49.554   0.531  1.00  0.00    +0.000 C 
ATOM     45  C35 UNL A   1      16.107  49.160   1.859  1.00  0.00    +0.000 C 
ATOM     46  C36 UNL A   1      16.035  47.887   2.398  1.00  0.00    +0.000 C 
ATOM     47  C37 UNL A   1      15.570  47.995   3.713  1.00  0.00    +0.000 C 
ATOM     48  C38 UNL A   1      15.390  49.337   4.007  1.00  0.00    +0.000 C 
ATOM     49  N4  UNL A   1      15.717  50.040   2.857  1.00  0.00    +0.000 N 
ATOM     50  C39 UNL A   1      14.954  49.934   5.241  1.00  0.00    +0.000 C 
ATOM     62  C46 UNL A   1      14.802  51.265   5.450  1.00  0.00    +0.000 C 
ATOM     63  N5  UNL A   1      15.030  52.317   4.575  1.00  0.00    +0.000 N 
ATOM     64  C47 UNL A   1      14.732  53.409   5.238  1.00  0.00    +0.000 C 
ATOM     65  C48 UNL A   1      14.818  54.843   4.795  1.00  0.00    +0.000 C 
ATOM     77  C55 UNL A   1      15.273  55.124   3.558  1.00  0.00    +0.000 C 
ATOM     78  C56 UNL A   1      15.415  56.462   2.992  1.00  0.00    +0.000 C 
ATOM     79  C57 UNL A   1      15.850  56.357   1.726  1.00  0.00    +0.000 C 
ATOM     80  C58 UNL A   1      16.050  54.944   1.404  1.00  0.00    +0.000 C 
ATOM     81  N6  UNL A   1      15.691  54.286   2.554  1.00  0.00    +0.000 N 
ATOM     82  C59 UNL A   1      14.248  53.166   6.605  1.00  0.00    +0.000 C 
ATOM     83  C60 UNL A   1      14.348  51.848   6.696  1.00  0.00    +0.000 C 
ATOM     84  C61 UNL A   1      17.008  51.236  -1.218  1.00  0.00    +0.000 C 
ATOM     85  C62 UNL A   1      17.100  52.554  -1.314  1.00  0.00    +0.000 C 
ATOM    121  H28 UNL A   1      16.282  47.011   1.913  1.00  0.00    +0.000 H 
ATOM    122  H29 UNL A   1      15.390  47.207   4.356  1.00  0.00    +0.000 H 
ATOM    123  H30 UNL A   1      15.678  51.020   2.764  1.00  0.00    +0.000 H 
ATOM    124  H31 UNL A   1      15.214  57.345   3.485  1.00  0.00    +0.000 H 
ATOM    125  H32 UNL A   1      16.017  57.147   1.083  1.00  0.00    +0.000 H 
ATOM    126  H33 UNL A   1      15.728  53.307   2.650  1.00  0.00    +0.000 H 
ATOM    127  H34 UNL A   1      13.918  53.845   7.309  1.00  0.00    +0.000 H 
ATOM    128  H35 UNL A   1      14.131  51.306   7.547  1.00  0.00    +0.000 H 
ENDROOT
BRANCH   29   28
ATOM    131  H38 UNL A   1      14.816  55.313  -1.701  1.00  0.00    +0.000 H 
ATOM    132  H39 UNL A   1      15.283  56.769  -3.580  1.00  0.00    +0.000 H 
ATOM    120  H27 UNL A   1      18.800  55.737  -0.398  1.00  0.00    +0.000 H 
ATOM     86  C63 UNL A   1      15.755  55.727  -1.809  1.00  0.00    +0.000 C 
ATOM     87  C64 UNL A   1      16.009  56.596  -2.869  1.00  0.00    +0.000 C 
ATOM    119  H26 UNL A   1      19.203  57.349  -2.167  1.00  0.00    +0.000 H 
ATOM     25  C21 UNL A   1      17.250  57.233  -2.968  1.00  0.00    +0.000 C 
ATOM     26  C22 UNL A   1      18.274  56.909  -2.071  1.00  0.00    +0.000 C 
ATOM     27  C23 UNL A   1      18.037  55.991  -1.045  1.00  0.00    +0.000 C 
ATOM     28  C24 UNL A   1      16.767  55.413  -0.890  1.00  0.00    +0.000 C 
BRANCH   25   23
ATOM     23  C20 UNL A   1      17.527  58.210  -4.045  1.00  0.00    +0.000 C 
ATOM     24  O2  UNL A   1      17.131  59.365  -3.933  1.00  0.00    +0.000 O 
BRANCH   23   22
ATOM    118  H25 UNL A   1      18.777  58.535  -5.576  1.00  0.00    +0.000 H 
ATOM     22  N2  UNL A   1      18.224  57.830  -5.166  1.00  0.00    +0.000 N 
BRANCH   22   21
ATOM    117  H24 UNL A   1      18.309  56.717  -6.890  1.00  0.00    +0.000 H 
ATOM    116  H23 UNL A   1      17.391  55.985  -5.571  1.00  0.00    +0.000 H 
ATOM     21  C19 UNL A   1      18.266  56.540  -5.835  1.00  0.00    +0.000 C 
BRANCH   21   20
ATOM    114  H21 UNL A   1      19.977  55.398  -6.341  1.00  0.00    +0.000 H 
ATOM    115  H22 UNL A   1      20.112  56.381  -4.854  1.00  0.00    +0.000 H 
ATOM     20  C18 UNL A   1      19.501  55.730  -5.444  1.00  0.00    +0.000 C 
BRANCH   20   19
ATOM    113  H20 UNL A   1      19.305  54.836  -3.559  1.00  0.00    +0.000 H 
ATOM     19  C17 UNL A   1      19.217  54.501  -4.572  1.00  0.00    +0.000 C 
ATOM    112  H19 UNL A   1      19.918  53.739  -4.841  1.00  0.00    +0.000 H 
BRANCH   19   18
ATOM     18  C16 UNL A   1      17.806  53.910  -4.695  1.00  0.00    +0.000 C 
ATOM    110  H17 UNL A   1      17.467  53.660  -3.711  1.00  0.00    +0.000 H 
ATOM    111  H18 UNL A   1      17.212  54.658  -5.177  1.00  0.00    +0.000 H 
BRANCH   18   17
ATOM     17  C15 UNL A   1      17.695  52.654  -5.566  1.00  0.00    +0.000 C 
ATOM    108  H15 UNL A   1      16.687  52.575  -5.915  1.00  0.00    +0.000 H 
ATOM    109  H16 UNL A   1      18.399  52.768  -6.364  1.00  0.00    +0.000 H 
BRANCH   17   16
ATOM    106  H13 UNL A   1      18.982  50.989  -5.227  1.00  0.00    +0.000 H 
ATOM    107  H14 UNL A   1      18.133  51.575  -3.794  1.00  0.00    +0.000 H 
ATOM     16  C14 UNL A   1      18.056  51.357  -4.838  1.00  0.00    +0.000 C 
BRANCH   16   15
ATOM    105  H12 UNL A   1      17.037  49.649  -4.305  1.00  0.00    +0.000 H 
ATOM     15  N1  UNL A   1      17.041  50.338  -5.007  1.00  0.00    +0.000 N 
BRANCH   15   13
ATOM     13  C13 UNL A   1      16.090  50.167  -5.968  1.00  0.00    +0.000 C 
ATOM     14  O1  UNL A   1      16.455  49.605  -7.008  1.00  0.00    +0.000 O 
BRANCH   13   11
ATOM     11  C11 UNL A   1      14.638  50.648  -5.827  1.00  0.00    +0.000 C 
ATOM    101  H8  UNL A   1      14.031  49.782  -5.991  1.00  0.00    +0.000 H 
BRANCH   11   10
ATOM     99  H6  UNL A   1      13.242  49.887  -1.452  1.00  0.00    +0.000 H 
ATOM    100  H7  UNL A   1      14.006  49.144  -3.610  1.00  0.00    +0.000 H 
ATOM    133  H40 UNL A   1      14.491  53.135  -4.799  1.00  0.00    +0.000 H 
ATOM    134  H41 UNL A   1      13.885  53.873  -2.579  1.00  0.00    +0.000 H 
ATOM      7  C7  UNL A   1      13.495  51.948  -1.808  1.00  0.00    +0.000 C 
ATOM      8  C8  UNL A   1      13.530  50.588  -2.153  1.00  0.00    +0.000 C 
ATOM      9  C9  UNL A   1      13.944  50.156  -3.415  1.00  0.00    +0.000 C 
ATOM     10  C10 UNL A   1      14.276  51.071  -4.413  1.00  0.00    +0.000 C 
ATOM     88  C65 UNL A   1      14.241  52.435  -4.084  1.00  0.00    +0.000 C 
ATOM     89  C66 UNL A   1      13.876  52.864  -2.798  1.00  0.00    +0.000 C 
BRANCH    7    6
ATOM     97  H4  UNL A   1      12.016  49.999   3.077  1.00  0.00    +0.000 H 
ATOM      2  C2  UNL A   1      11.524  51.922   3.914  1.00  0.00    +0.000 C 
ATOM      3  C3  UNL A   1      11.966  51.024   2.966  1.00  0.00    +0.000 C 
ATOM      4  C4  UNL A   1      12.339  51.759   1.811  1.00  0.00    +0.000 C 
ATOM      5  C5  UNL A   1      12.837  51.396   0.546  1.00  0.00    +0.000 C 
ATOM     98  H5  UNL A   1      13.037  50.403   0.345  1.00  0.00    +0.000 H 
ATOM      6  C6  UNL A   1      13.069  52.365  -0.452  1.00  0.00    +0.000 C 
ATOM    136  H43 UNL A   1      12.228  55.104   1.371  1.00  0.00    +0.000 H 
ATOM    137  H44 UNL A   1      11.408  54.016   3.837  1.00  0.00    +0.000 H 
ATOM    135  H42 UNL A   1      13.019  54.437  -0.835  1.00  0.00    +0.000 H 
ATOM     90  C67 UNL A   1      12.840  53.712  -0.122  1.00  0.00    +0.000 C 
ATOM     91  C68 UNL A   1      12.375  54.108   1.143  1.00  0.00    +0.000 C 
ATOM     92  C69 UNL A   1      12.119  53.105   2.083  1.00  0.00    +0.000 C 
ATOM     93  N7  UNL A   1      11.639  53.180   3.370  1.00  0.00    +0.000 N 
BRANCH    2    1
ATOM      1  C1  UNL A   1      11.007  51.699   5.285  1.00  0.00    +0.000 C 
ATOM     94  H1  UNL A   1       9.946  51.565   5.249  1.00  0.00    +0.000 H 
ATOM     95  H2  UNL A   1      11.239  52.546   5.896  1.00  0.00    +0.000 H 
ATOM     96  H3  UNL A   1      11.463  50.825   5.701  1.00  0.00    +0.000 H 
ENDBRANCH    2    1
ENDBRANCH    7    6
ENDBRANCH   11   10
BRANCH   11   12
ATOM     12  C12 UNL A   1      14.178  51.586  -6.945  1.00  0.00    +0.000 C 
ATOM    102  H9  UNL A   1      14.670  52.531  -6.843  1.00  0.00    +0.000 H 
ATOM    103  H10 UNL A   1      13.119  51.727  -6.879  1.00  0.00    +0.000 H 
ATOM    104  H11 UNL A   1      14.422  51.157  -7.895  1.00  0.00    +0.000 H 
ENDBRANCH   11   12
ENDBRANCH   13   11
ENDBRANCH   15   13
ENDBRANCH   16   15
ENDBRANCH   17   16
ENDBRANCH   18   17
ENDBRANCH   19   18
ENDBRANCH   20   19
ENDBRANCH   21   20
ENDBRANCH   22   21
ENDBRANCH   23   22
ENDBRANCH   25   23
ENDBRANCH   29   28
BRANCH   33   34
ATOM     34  C29 UNL A   1      16.854  48.476  -0.453  1.00  0.00    +0.000 C 
ATOM     35  C30 UNL A   1      15.864  47.782  -1.163  1.00  0.00    +0.000 C 
ATOM     36  F1  UNL A   1      14.567  48.040  -0.941  1.00  0.00    +0.000 F 
ATOM     37  C31 UNL A   1      16.203  46.789  -2.079  1.00  0.00    +0.000 C 
ATOM     38  F2  UNL A   1      15.239  46.106  -2.711  1.00  0.00    +0.000 F 
ATOM     39  C32 UNL A   1      17.535  46.496  -2.327  1.00  0.00    +0.000 C 
ATOM     40  F3  UNL A   1      17.860  45.544  -3.213  1.00  0.00    +0.000 F 
ATOM     41  C33 UNL A   1      18.532  47.185  -1.652  1.00  0.00    +0.000 C 
ATOM     42  F4  UNL A   1      19.819  46.911  -1.899  1.00  0.00    +0.000 F 
ATOM     43  C34 UNL A   1      18.196  48.159  -0.715  1.00  0.00    +0.000 C 
ATOM     44  F5  UNL A   1      19.181  48.798  -0.068  1.00  0.00    +0.000 F 
ENDBRANCH   33   34
BRANCH   50   51
ATOM     51  C40 UNL A   1      14.664  49.021   6.395  1.00  0.00    +0.000 C 
ATOM     52  C41 UNL A   1      13.398  48.445   6.576  1.00  0.00    +0.000 C 
ATOM     53  F6  UNL A   1      12.393  48.746   5.738  1.00  0.00    +0.000 F 
ATOM     54  C42 UNL A   1      13.150  47.587   7.644  1.00  0.00    +0.000 C 
ATOM     55  F7  UNL A   1      11.922  47.082   7.824  1.00  0.00    +0.000 F 
ATOM     56  C43 UNL A   1      14.168  47.264   8.529  1.00  0.00    +0.000 C 
ATOM     57  F8  UNL A   1      13.929  46.434   9.553  1.00  0.00    +0.000 F 
ATOM     58  C44 UNL A   1      15.432  47.809   8.358  1.00  0.00    +0.000 C 
ATOM     59  F9  UNL A   1      16.419  47.490   9.207  1.00  0.00    +0.000 F 
ATOM     60  C45 UNL A   1      15.676  48.688   7.307  1.00  0.00    +0.000 C 
ATOM     61  F10 UNL A   1      16.905  49.210   7.174  1.00  0.00    +0.000 F 
ENDBRANCH   50   51
BRANCH   65   66
ATOM     66  C49 UNL A   1      14.440  55.946   5.715  1.00  0.00    +0.000 C 
ATOM     67  C50 UNL A   1      15.424  56.695   6.376  1.00  0.00    +0.000 C 
ATOM     68  F11 UNL A   1      16.721  56.407   6.192  1.00  0.00    +0.000 F 
ATOM     69  C51 UNL A   1      15.078  57.715   7.259  1.00  0.00    +0.000 C 
ATOM     70  F12 UNL A   1      16.036  58.387   7.911  1.00  0.00    +0.000 F 
ATOM     71  C52 UNL A   1      13.744  58.025   7.476  1.00  0.00    +0.000 C 
ATOM     72  F13 UNL A   1      13.411  59.008   8.325  1.00  0.00    +0.000 F 
ATOM     73  C53 UNL A   1      12.754  57.308   6.820  1.00  0.00    +0.000 C 
ATOM     74  F14 UNL A   1      11.464  57.613   7.018  1.00  0.00    +0.000 F 
ATOM     75  C54 UNL A   1      13.098  56.271   5.955  1.00  0.00    +0.000 C 
ATOM     76  F15 UNL A   1      12.121  55.586   5.344  1.00  0.00    +0.000 F 
ENDBRANCH   65   66
TORSDOF 19
ENDMDL
