MODEL 1
REMARK VINA RESULT:      -6.2      0.000      0.000
ROOT
ATOM    153  H43 UNL A   1      13.762  -2.893  23.043  1.00  0.00    +0.000 H 
ATOM    154  H44 UNL A   1      11.506  -4.295  23.098  1.00  0.00    +0.000 H 
ATOM    155  H45 UNL A   1      11.115  -1.042  25.510  1.00  0.00    +0.000 H 
ATOM    156  H46 UNL A   1       5.192   0.290  20.487  1.00  0.00    +0.000 H 
ATOM    157  H47 UNL A   1       7.200  -0.034  18.956  1.00  0.00    +0.000 H 
ATOM    158  H48 UNL A   1       8.624  -0.138  22.857  1.00  0.00    +0.000 H 
ATOM    159  H49 UNL A   1       7.483   1.382  25.457  1.00  0.00    +0.000 H 
ATOM    160  H50 UNL A   1       9.531  -0.147  25.806  1.00  0.00    +0.000 H 
ATOM    161  H51 UNL A   1      13.365   2.365  22.036  1.00  0.00    +0.000 H 
ATOM    162  H52 UNL A   1      11.179   2.727  20.703  1.00  0.00    +0.000 H 
ATOM     42  C29 UNL A   1       9.741   0.251  20.325  1.00  0.00    +0.000 C 
ATOM     43  C30 UNL A   1      10.898   0.530  21.209  1.00  0.00    +0.000 C 
ATOM     44  N8  UNL A   1      11.580  -0.335  21.883  1.00  0.00    +0.000 N 
ATOM     45  C31 UNL A   1      12.534   0.402  22.575  1.00  0.00    +0.000 C 
ATOM     46  C32 UNL A   1      12.935  -0.006  23.811  1.00  0.00    +0.000 C 
ATOM     58  C39 UNL A   1      12.557  -1.384  24.027  1.00  0.00    +0.000 C 
ATOM     59  C40 UNL A   1      12.857  -2.597  23.440  1.00  0.00    +0.000 C 
ATOM     60  C41 UNL A   1      11.648  -3.355  23.500  1.00  0.00    +0.000 C 
ATOM     61  C42 UNL A   1      10.691  -2.613  24.193  1.00  0.00    +0.000 C 
ATOM     62  N9  UNL A   1      11.398  -1.574  24.732  1.00  0.00    +0.000 N 
ATOM     63  C43 UNL A   1       9.254  -2.723  24.300  1.00  0.00    +0.000 C 
ATOM     75  C50 UNL A   1       8.419  -1.740  24.756  1.00  0.00    +0.000 C 
ATOM     76  N10 UNL A   1       7.088  -1.727  24.369  1.00  0.00    +0.000 N 
ATOM     77  C51 UNL A   1       6.765  -0.463  24.364  1.00  0.00    +0.000 C 
ATOM     78  C52 UNL A   1       5.912   0.155  23.323  1.00  0.00    +0.000 C 
ATOM     90  C59 UNL A   1       6.622   0.104  22.165  1.00  0.00    +0.000 C 
ATOM     91  C60 UNL A   1       6.171   0.173  20.795  1.00  0.00    +0.000 C 
ATOM     92  C61 UNL A   1       7.242   0.057  19.984  1.00  0.00    +0.000 C 
ATOM     93  C62 UNL A   1       8.477   0.079  20.776  1.00  0.00    +0.000 C 
ATOM     94  N11 UNL A   1       8.032  -0.010  22.080  1.00  0.00    +0.000 N 
ATOM     95  C63 UNL A   1       7.627   0.410  25.140  1.00  0.00    +0.000 C 
ATOM     96  C64 UNL A   1       8.660  -0.415  25.322  1.00  0.00    +0.000 C 
ATOM     97  C65 UNL A   1      12.594   1.686  21.932  1.00  0.00    +0.000 C 
ATOM     98  C66 UNL A   1      11.507   1.871  21.179  1.00  0.00    +0.000 C 
ENDROOT
BRANCH   42   41
ATOM     99  C67 UNL A   1      10.763  -0.644  18.313  1.00  0.00    +0.000 C 
ATOM    164  H54 UNL A   1      11.740  -1.218  16.562  1.00  0.00    +0.000 H 
ATOM    100  C68 UNL A   1      11.069  -0.556  16.981  1.00  0.00    +0.000 C 
ATOM     38  C25 UNL A   1      10.475   0.426  16.190  1.00  0.00    +0.000 C 
ATOM     39  C26 UNL A   1       9.742   1.463  16.772  1.00  0.00    +0.000 C 
ATOM     40  C27 UNL A   1       9.569   1.467  18.153  1.00  0.00    +0.000 C 
ATOM    163  H53 UNL A   1      11.041  -1.473  18.860  1.00  0.00    +0.000 H 
ATOM     41  C28 UNL A   1      10.073   0.398  18.914  1.00  0.00    +0.000 C 
ATOM    151  H41 UNL A   1       9.336   2.212  16.189  1.00  0.00    +0.000 H 
ATOM    152  H42 UNL A   1       9.076   2.247  18.614  1.00  0.00    +0.000 H 
BRANCH   38   36
ATOM     36  C24 UNL A   1      10.644   0.342  14.728  1.00  0.00    +0.000 C 
ATOM     37  O5  UNL A   1      11.763   0.249  14.239  1.00  0.00    +0.000 O 
BRANCH   36   35
ATOM     35  N7  UNL A   1       9.525   0.358  13.922  1.00  0.00    +0.000 N 
ATOM    150  H40 UNL A   1       8.907   1.113  14.053  1.00  0.00    +0.000 H 
BRANCH   35   34
ATOM     34  C23 UNL A   1       9.148  -0.613  12.894  1.00  0.00    +0.000 C 
ATOM    148  H38 UNL A   1       8.925  -0.090  11.988  1.00  0.00    +0.000 H 
ATOM    149  H39 UNL A   1       9.967  -1.287  12.757  1.00  0.00    +0.000 H 
BRANCH   34   33
ATOM     33  C22 UNL A   1       7.930  -1.427  13.305  1.00  0.00    +0.000 C 
ATOM    146  H36 UNL A   1       7.123  -0.753  13.498  1.00  0.00    +0.000 H 
ATOM    147  H37 UNL A   1       7.716  -2.099  12.500  1.00  0.00    +0.000 H 
BRANCH   33   32
ATOM    145  H35 UNL A   1       7.225  -2.774  14.744  1.00  0.00    +0.000 H 
ATOM    144  H34 UNL A   1       8.477  -1.633  15.346  1.00  0.00    +0.000 H 
ATOM     32  C21 UNL A   1       8.158  -2.284  14.559  1.00  0.00    +0.000 C 
BRANCH   32   31
ATOM    143  H33 UNL A   1       9.921  -3.234  15.197  1.00  0.00    +0.000 H 
ATOM    142  H32 UNL A   1       9.606  -3.370  13.443  1.00  0.00    +0.000 H 
ATOM     31  C20 UNL A   1       9.196  -3.407  14.430  1.00  0.00    +0.000 C 
BRANCH   31   30
ATOM    140  H30 UNL A   1       7.593  -4.742  14.826  1.00  0.00    +0.000 H 
ATOM    141  H31 UNL A   1       8.893  -5.392  13.799  1.00  0.00    +0.000 H 
ATOM     30  C19 UNL A   1       8.649  -4.813  14.666  1.00  0.00    +0.000 C 
BRANCH   30   29
ATOM    138  H28 UNL A   1       9.198  -6.585  15.724  1.00  0.00    +0.000 H 
ATOM    139  H29 UNL A   1      10.296  -5.230  15.948  1.00  0.00    +0.000 H 
ATOM     29  C18 UNL A   1       9.272  -5.528  15.869  1.00  0.00    +0.000 C 
BRANCH   29   28
ATOM    137  H27 UNL A   1       7.808  -5.725  17.313  1.00  0.00    +0.000 H 
ATOM     28  N6  UNL A   1       8.594  -5.172  17.098  1.00  0.00    +0.000 N 
BRANCH   28   26
ATOM     26  C17 UNL A   1       8.870  -4.194  18.003  1.00  0.00    +0.000 C 
ATOM     27  O4  UNL A   1       9.900  -4.293  18.671  1.00  0.00    +0.000 O 
BRANCH   26   25
ATOM     25  C16 UNL A   1       7.930  -3.024  18.201  1.00  0.00    +0.000 C 
ATOM    135  H25 UNL A   1       7.868  -2.821  19.249  1.00  0.00    +0.000 H 
ATOM    136  H26 UNL A   1       8.339  -2.215  17.633  1.00  0.00    +0.000 H 
BRANCH   25   24
ATOM    133  H23 UNL A   1       6.214  -2.335  17.181  1.00  0.00    +0.000 H 
ATOM    134  H24 UNL A   1       6.579  -4.102  17.050  1.00  0.00    +0.000 H 
ATOM     24  C15 UNL A   1       6.511  -3.236  17.676  1.00  0.00    +0.000 C 
BRANCH   24   23
ATOM    131  H21 UNL A   1       4.942  -4.479  18.376  1.00  0.00    +0.000 H 
ATOM    132  H22 UNL A   1       5.915  -3.675  19.638  1.00  0.00    +0.000 H 
ATOM     23  C14 UNL A   1       5.425  -3.578  18.693  1.00  0.00    +0.000 C 
BRANCH   23   22
ATOM    129  H19 UNL A   1       4.817  -1.538  18.749  1.00  0.00    +0.000 H 
ATOM    130  H20 UNL A   1       3.600  -2.676  18.129  1.00  0.00    +0.000 H 
ATOM     22  C13 UNL A   1       4.353  -2.497  18.867  1.00  0.00    +0.000 C 
BRANCH   22   21
ATOM     21  C12 UNL A   1       3.670  -2.535  20.221  1.00  0.00    +0.000 C 
ATOM    127  H17 UNL A   1       3.071  -3.420  20.273  1.00  0.00    +0.000 H 
ATOM    128  H18 UNL A   1       4.442  -2.522  20.962  1.00  0.00    +0.000 H 
BRANCH   21   20
ATOM     20  C11 UNL A   1       2.774  -1.329  20.486  1.00  0.00    +0.000 C 
ATOM    125  H15 UNL A   1       1.761  -1.674  20.497  1.00  0.00    +0.000 H 
ATOM    126  H16 UNL A   1       3.116  -0.922  21.415  1.00  0.00    +0.000 H 
BRANCH   20   19
ATOM     19  C10 UNL A   1       2.863  -0.175  19.480  1.00  0.00    +0.000 C 
ATOM    124  H14 UNL A   1       2.496  -0.571  18.556  1.00  0.00    +0.000 H 
ATOM    123  H13 UNL A   1       3.883   0.149  19.444  1.00  0.00    +0.000 H 
BRANCH   19   18
ATOM    121  H11 UNL A   1       2.622   1.914  19.750  1.00  0.00    +0.000 H 
ATOM     18  C9  UNL A   1       1.992   1.050  19.778  1.00  0.00    +0.000 C 
ATOM    122  H12 UNL A   1       1.222   1.043  19.034  1.00  0.00    +0.000 H 
BRANCH   18   17
ATOM     17  C8  UNL A   1       1.263   1.046  21.120  1.00  0.00    +0.000 C 
ATOM    119  H9  UNL A   1       0.860   0.067  21.271  1.00  0.00    +0.000 H 
ATOM    120  H10 UNL A   1       1.993   1.336  21.846  1.00  0.00    +0.000 H 
BRANCH   17   16
ATOM    117  H7  UNL A   1      -0.357   2.121  20.310  1.00  0.00    +0.000 H 
ATOM    118  H8  UNL A   1      -0.492   1.659  22.045  1.00  0.00    +0.000 H 
ATOM     16  C7  UNL A   1       0.126   2.043  21.261  1.00  0.00    +0.000 C 
BRANCH   16   15
ATOM    116  H6  UNL A   1       0.932   3.444  22.552  1.00  0.00    +0.000 H 
ATOM     15  N5  UNL A   1       0.486   3.375  21.678  1.00  0.00    +0.000 N 
BRANCH   15   13
ATOM     13  C6  UNL A   1       0.289   4.546  21.023  1.00  0.00    +0.000 C 
ATOM     14  O3  UNL A   1       0.174   4.502  19.794  1.00  0.00    +0.000 O 
BRANCH   13   12
ATOM    115  H5  UNL A   1      -0.876   5.884  21.888  1.00  0.00    +0.000 H 
ATOM     12  N4  UNL A   1       0.068   5.722  21.661  1.00  0.00    +0.000 N 
BRANCH   12   11
ATOM    101  C69 UNL A   1       0.569   8.104  22.089  1.00  0.00    +0.000 C 
ATOM    102  C70 UNL A   1       1.632   8.748  22.694  1.00  0.00    +0.000 C 
ATOM    165  H55 UNL A   1      -0.303   8.532  21.737  1.00  0.00    +0.000 H 
ATOM      9  N2  UNL A   1       2.505   7.728  23.048  1.00  0.00    +0.000 N 
ATOM     10  N3  UNL A   1       2.200   6.578  22.410  1.00  0.00    +0.000 N 
ATOM     11  C5  UNL A   1       0.923   6.732  22.052  1.00  0.00    +0.000 C 
BRANCH    9    8
ATOM      5  C1  UNL A   1       5.626   7.704  25.869  1.00  0.00    +0.000 C 
ATOM      6  C2  UNL A   1       5.928   7.716  24.505  1.00  0.00    +0.000 C 
ATOM      7  C3  UNL A   1       4.893   7.742  23.574  1.00  0.00    +0.000 C 
ATOM      8  C4  UNL A   1       3.557   7.775  24.004  1.00  0.00    +0.000 C 
ATOM    171  H61 UNL A   1       2.280   7.921  25.686  1.00  0.00    +0.000 H 
ATOM    172  H62 UNL A   1       4.087   7.790  27.317  1.00  0.00    +0.000 H 
ATOM    109  C77 UNL A   1       3.259   7.835  25.371  1.00  0.00    +0.000 C 
ATOM    110  C78 UNL A   1       4.299   7.777  26.308  1.00  0.00    +0.000 C 
ATOM    113  H3  UNL A   1       6.911   7.706  24.190  1.00  0.00    +0.000 H 
ATOM    114  H4  UNL A   1       5.109   7.737  22.564  1.00  0.00    +0.000 H 
BRANCH    5    2
ATOM      2  S1  UNL A   1       6.976   7.650  27.006  1.00  0.00    +0.000 S 
ATOM      3  O1  UNL A   1       6.551   8.235  28.251  1.00  0.00    +0.000 O 
ATOM      4  O2  UNL A   1       8.175   8.063  26.308  1.00  0.00    +0.000 O 
BRANCH    2    1
ATOM      1  N1  UNL A   1       7.176   6.018  27.342  1.00  0.00    +0.000 N 
ATOM    111  H1  UNL A   1       6.558   5.750  28.108  1.00  0.00    +0.000 H 
ATOM    112  H2  UNL A   1       8.145   5.842  27.608  1.00  0.00    +0.000 H 
ENDBRANCH    2    1
ENDBRANCH    5    2
ENDBRANCH    9    8
BRANCH  102  103
ATOM    166  H56 UNL A   1       0.199  10.434  24.166  1.00  0.00    +0.000 H 
ATOM    103  C71 UNL A   1       1.909  10.161  22.950  1.00  0.00    +0.000 C 
ATOM    104  C72 UNL A   1       0.994  10.910  23.711  1.00  0.00    +0.000 C 
ATOM    105  C73 UNL A   1       1.148  12.285  23.861  1.00  0.00    +0.000 C 
ATOM    170  H60 UNL A   1       3.710  10.262  21.852  1.00  0.00    +0.000 H 
ATOM    107  C75 UNL A   1       3.173  12.183  22.551  1.00  0.00    +0.000 C 
ATOM    108  C76 UNL A   1       3.013  10.804  22.388  1.00  0.00    +0.000 C 
ATOM    167  H57 UNL A   1       0.457  12.829  24.402  1.00  0.00    +0.000 H 
ATOM    169  H59 UNL A   1       3.989  12.658  22.133  1.00  0.00    +0.000 H 
ATOM    106  C74 UNL A   1       2.237  12.923  23.277  1.00  0.00    +0.000 C 
ATOM    168  H58 UNL A   1       2.353  13.942  23.379  1.00  0.00    +0.000 H 
ENDBRANCH  102  103
ENDBRANCH   12   11
ENDBRANCH   13   12
ENDBRANCH   15   13
ENDBRANCH   16   15
ENDBRANCH   17   16
ENDBRANCH   18   17
ENDBRANCH   19   18
ENDBRANCH   20   19
ENDBRANCH   21   20
ENDBRANCH   22   21
ENDBRANCH   23   22
ENDBRANCH   24   23
ENDBRANCH   25   24
ENDBRANCH   26   25
ENDBRANCH   28   26
ENDBRANCH   29   28
ENDBRANCH   30   29
ENDBRANCH   31   30
ENDBRANCH   32   31
ENDBRANCH   33   32
ENDBRANCH   34   33
ENDBRANCH   35   34
ENDBRANCH   36   35
ENDBRANCH   38   36
ENDBRANCH   42   41
BRANCH   46   47
ATOM     47  C33 UNL A   1      13.198   0.934  24.974  1.00  0.00    +0.000 C 
ATOM     48  C34 UNL A   1      14.421   0.817  25.667  1.00  0.00    +0.000 C 
ATOM     49  F1  UNL A   1      15.429   0.094  25.156  1.00  0.00    +0.000 F 
ATOM     50  C35 UNL A   1      14.602   1.345  26.949  1.00  0.00    +0.000 C 
ATOM     51  F2  UNL A   1      15.730   1.081  27.623  1.00  0.00    +0.000 F 
ATOM     52  C36 UNL A   1      13.594   2.065  27.561  1.00  0.00    +0.000 C 
ATOM     53  F3  UNL A   1      13.740   2.510  28.816  1.00  0.00    +0.000 F 
ATOM     54  C37 UNL A   1      12.409   2.268  26.889  1.00  0.00    +0.000 C 
ATOM     55  F4  UNL A   1      11.407   2.929  27.485  1.00  0.00    +0.000 F 
ATOM     56  C38 UNL A   1      12.205   1.697  25.633  1.00  0.00    +0.000 C 
ATOM     57  F5  UNL A   1      10.961   1.820  25.163  1.00  0.00    +0.000 F 
ENDBRANCH   46   47
BRANCH   63   64
ATOM     65  C45 UNL A   1       8.350  -4.125  22.330  1.00  0.00    +0.000 C 
ATOM     66  F6  UNL A   1       8.627  -3.160  21.444  1.00  0.00    +0.000 F 
ATOM     67  C46 UNL A   1       7.832  -5.328  21.845  1.00  0.00    +0.000 C 
ATOM     68  F7  UNL A   1       7.566  -5.467  20.537  1.00  0.00    +0.000 F 
ATOM     69  C47 UNL A   1       7.620  -6.392  22.706  1.00  0.00    +0.000 C 
ATOM     70  F8  UNL A   1       7.162  -7.560  22.236  1.00  0.00    +0.000 F 
ATOM     71  C48 UNL A   1       7.908  -6.253  24.054  1.00  0.00    +0.000 C 
ATOM     72  F9  UNL A   1       7.751  -7.291  24.885  1.00  0.00    +0.000 F 
ATOM     73  C49 UNL A   1       8.385  -5.041  24.546  1.00  0.00    +0.000 C 
ATOM     74  F10 UNL A   1       8.666  -4.947  25.856  1.00  0.00    +0.000 F 
ATOM     64  C44 UNL A   1       8.619  -3.950  23.700  1.00  0.00    +0.000 C 
ENDBRANCH   63   64
BRANCH   78   79
ATOM     79  C53 UNL A   1       4.699   0.936  23.668  1.00  0.00    +0.000 C 
ATOM     80  C54 UNL A   1       3.481   0.296  23.968  1.00  0.00    +0.000 C 
ATOM     81  F11 UNL A   1       3.322  -1.010  23.704  1.00  0.00    +0.000 F 
ATOM     82  C55 UNL A   1       2.436   0.965  24.616  1.00  0.00    +0.000 C 
ATOM     83  F12 UNL A   1       1.318   0.302  24.946  1.00  0.00    +0.000 F 
ATOM     84  C56 UNL A   1       2.576   2.294  24.979  1.00  0.00    +0.000 C 
ATOM     85  F13 UNL A   1       1.605   2.916  25.662  1.00  0.00    +0.000 F 
ATOM     86  C57 UNL A   1       3.746   2.962  24.668  1.00  0.00    +0.000 C 
ATOM     87  F14 UNL A   1       3.909   4.236  25.050  1.00  0.00    +0.000 F 
ATOM     88  C58 UNL A   1       4.791   2.294  24.022  1.00  0.00    +0.000 C 
ATOM     89  F15 UNL A   1       5.932   2.973  23.840  1.00  0.00    +0.000 F 
ENDBRANCH   78   79
TORSDOF 32
ENDMDL
MODEL 2
REMARK VINA RESULT:      -6.0     43.527     51.207
ROOT
ATOM    153  H43 UNL A   1       5.676  48.594  14.551  1.00  0.00    +0.000 H 
ATOM    154  H44 UNL A   1       5.097  50.670  16.105  1.00  0.00    +0.000 H 
ATOM    155  H45 UNL A   1       6.367  47.579  18.426  1.00  0.00    +0.000 H 
ATOM    156  H46 UNL A   1      11.723  53.016  20.380  1.00  0.00    +0.000 H 
ATOM    157  H47 UNL A   1      11.852  52.950  17.839  1.00  0.00    +0.000 H 
ATOM    158  H48 UNL A   1       9.198  49.971  18.992  1.00  0.00    +0.000 H 
ATOM    159  H49 UNL A   1       9.185  48.224  21.698  1.00  0.00    +0.000 H 
ATOM    160  H50 UNL A   1       7.287  47.773  20.012  1.00  0.00    +0.000 H 
ATOM    161  H51 UNL A   1      10.470  46.277  15.231  1.00  0.00    +0.000 H 
ATOM    162  H52 UNL A   1      12.048  48.062  16.235  1.00  0.00    +0.000 H 
ATOM     42  C29 UNL A   1      10.674  50.561  16.694  1.00  0.00    +0.000 C 
ATOM     43  C30 UNL A   1      10.106  49.234  16.354  1.00  0.00    +0.000 C 
ATOM     44  N8  UNL A   1       8.877  48.975  16.055  1.00  0.00    +0.000 N 
ATOM     45  C31 UNL A   1       8.827  47.602  15.845  1.00  0.00    +0.000 C 
ATOM     46  C32 UNL A   1       7.704  46.909  16.181  1.00  0.00    +0.000 C 
ATOM     58  C39 UNL A   1       6.592  47.816  16.355  1.00  0.00    +0.000 C 
ATOM     59  C40 UNL A   1       5.902  48.702  15.552  1.00  0.00    +0.000 C 
ATOM     60  C41 UNL A   1       5.569  49.801  16.401  1.00  0.00    +0.000 C 
ATOM     61  C42 UNL A   1       5.990  49.504  17.698  1.00  0.00    +0.000 C 
ATOM     62  N9  UNL A   1       6.324  48.180  17.648  1.00  0.00    +0.000 N 
ATOM     63  C43 UNL A   1       6.193  50.321  18.874  1.00  0.00    +0.000 C 
ATOM     75  C50 UNL A   1       6.908  49.949  19.979  1.00  0.00    +0.000 C 
ATOM     76  N10 UNL A   1       7.464  50.915  20.802  1.00  0.00    +0.000 N 
ATOM     77  C51 UNL A   1       8.537  50.351  21.284  1.00  0.00    +0.000 C 
ATOM     78  C52 UNL A   1       9.824  51.064  21.457  1.00  0.00    +0.000 C 
ATOM     90  C59 UNL A   1      10.271  51.356  20.207  1.00  0.00    +0.000 C 
ATOM     91  C60 UNL A   1      11.217  52.356  19.769  1.00  0.00    +0.000 C 
ATOM     92  C61 UNL A   1      11.327  52.284  18.427  1.00  0.00    +0.000 C 
ATOM     93  C62 UNL A   1      10.591  51.119  17.924  1.00  0.00    +0.000 C 
ATOM     94  N11 UNL A   1       9.886  50.675  19.025  1.00  0.00    +0.000 N 
ATOM     95  C63 UNL A   1       8.569  48.902  21.221  1.00  0.00    +0.000 C 
ATOM     96  C64 UNL A   1       7.566  48.702  20.363  1.00  0.00    +0.000 C 
ATOM     97  C65 UNL A   1      10.186  47.175  15.654  1.00  0.00    +0.000 C 
ATOM     98  C66 UNL A   1      11.026  48.112  16.101  1.00  0.00    +0.000 C 
ENDROOT
BRANCH   42   41
ATOM     99  C67 UNL A   1      11.046  52.212  14.954  1.00  0.00    +0.000 C 
ATOM    164  H54 UNL A   1      11.416  53.463  13.326  1.00  0.00    +0.000 H 
ATOM    100  C68 UNL A   1      11.820  52.761  13.965  1.00  0.00    +0.000 C 
ATOM     38  C25 UNL A   1      13.150  52.373  13.821  1.00  0.00    +0.000 C 
ATOM     39  C26 UNL A   1      13.652  51.273  14.522  1.00  0.00    +0.000 C 
ATOM     40  C27 UNL A   1      12.813  50.606  15.410  1.00  0.00    +0.000 C 
ATOM    163  H53 UNL A   1      10.131  52.625  15.192  1.00  0.00    +0.000 H 
ATOM     41  C28 UNL A   1      11.513  51.094  15.630  1.00  0.00    +0.000 C 
ATOM    151  H41 UNL A   1      14.626  50.961  14.385  1.00  0.00    +0.000 H 
ATOM    152  H42 UNL A   1      13.141  49.761  15.903  1.00  0.00    +0.000 H 
BRANCH   38   36
ATOM     36  C24 UNL A   1      14.009  53.149  12.909  1.00  0.00    +0.000 C 
ATOM     37  O5  UNL A   1      13.998  54.374  12.942  1.00  0.00    +0.000 O 
BRANCH   36   35
ATOM     35  N7  UNL A   1      14.832  52.478  12.028  1.00  0.00    +0.000 N 
ATOM    150  H40 UNL A   1      14.492  52.375  11.111  1.00  0.00    +0.000 H 
BRANCH   35   34
ATOM     34  C23 UNL A   1      16.150  51.903  12.297  1.00  0.00    +0.000 C 
ATOM    148  H38 UNL A   1      16.901  52.569  11.926  1.00  0.00    +0.000 H 
ATOM    149  H39 UNL A   1      16.244  51.767  13.354  1.00  0.00    +0.000 H 
BRANCH   34   33
ATOM     33  C22 UNL A   1      16.321  50.547  11.629  1.00  0.00    +0.000 C 
ATOM    146  H36 UNL A   1      16.634  49.843  12.371  1.00  0.00    +0.000 H 
ATOM    147  H37 UNL A   1      15.378  50.289  11.195  1.00  0.00    +0.000 H 
BRANCH   33   32
ATOM    145  H35 UNL A   1      18.300  50.372  10.966  1.00  0.00    +0.000 H 
ATOM    144  H34 UNL A   1      17.285  51.488   9.988  1.00  0.00    +0.000 H 
ATOM     32  C21 UNL A   1      17.355  50.547  10.494  1.00  0.00    +0.000 C 
BRANCH   32   31
ATOM    143  H33 UNL A   1      18.140  48.914   9.427  1.00  0.00    +0.000 H 
ATOM    142  H32 UNL A   1      16.961  49.895   8.509  1.00  0.00    +0.000 H 
ATOM     31  C20 UNL A   1      17.207  49.438   9.444  1.00  0.00    +0.000 C 
BRANCH   31   30
ATOM    140  H30 UNL A   1      16.472  47.809  10.590  1.00  0.00    +0.000 H 
ATOM    141  H31 UNL A   1      15.235  48.932   9.976  1.00  0.00    +0.000 H 
ATOM     30  C19 UNL A   1      16.136  48.396   9.760  1.00  0.00    +0.000 C 
BRANCH   30   29
ATOM    138  H28 UNL A   1      16.314  47.811   7.714  1.00  0.00    +0.000 H 
ATOM    139  H29 UNL A   1      16.176  46.473   8.848  1.00  0.00    +0.000 H 
ATOM     29  C18 UNL A   1      15.825  47.452   8.594  1.00  0.00    +0.000 C 
BRANCH   29   28
ATOM    137  H27 UNL A   1      14.143  47.424   7.397  1.00  0.00    +0.000 H 
ATOM     28  N6  UNL A   1      14.401  47.377   8.347  1.00  0.00    +0.000 N 
BRANCH   28   26
ATOM     26  C17 UNL A   1      13.362  47.254   9.216  1.00  0.00    +0.000 C 
ATOM     27  O4  UNL A   1      13.180  46.162   9.755  1.00  0.00    +0.000 O 
BRANCH   26   25
ATOM     25  C16 UNL A   1      12.440  48.419   9.503  1.00  0.00    +0.000 C 
ATOM    135  H25 UNL A   1      12.637  49.185   8.783  1.00  0.00    +0.000 H 
ATOM    136  H26 UNL A   1      11.444  48.031   9.451  1.00  0.00    +0.000 H 
BRANCH   25   24
ATOM    133  H23 UNL A   1      13.612  48.954  11.176  1.00  0.00    +0.000 H 
ATOM    134  H24 UNL A   1      12.210  50.030  10.792  1.00  0.00    +0.000 H 
ATOM     24  C15 UNL A   1      12.583  49.032  10.896  1.00  0.00    +0.000 C 
BRANCH   24   23
ATOM    131  H21 UNL A   1      11.163  47.631  11.615  1.00  0.00    +0.000 H 
ATOM    132  H22 UNL A   1      12.449  48.090  12.765  1.00  0.00    +0.000 H 
ATOM     23  C14 UNL A   1      11.753  48.424  12.024  1.00  0.00    +0.000 C 
BRANCH   23   22
ATOM    129  H19 UNL A   1      10.885  49.256  13.782  1.00  0.00    +0.000 H 
ATOM    130  H20 UNL A   1      11.114  50.394  12.436  1.00  0.00    +0.000 H 
ATOM     22  C13 UNL A   1      10.811  49.410  12.724  1.00  0.00    +0.000 C 
BRANCH   22   21
ATOM     21  C12 UNL A   1       9.359  49.252  12.317  1.00  0.00    +0.000 C 
ATOM    127  H17 UNL A   1       9.317  48.633  11.445  1.00  0.00    +0.000 H 
ATOM    128  H18 UNL A   1       8.846  48.816  13.149  1.00  0.00    +0.000 H 
BRANCH   21   20
ATOM     20  C11 UNL A   1       8.665  50.574  12.005  1.00  0.00    +0.000 C 
ATOM    125  H15 UNL A   1       9.060  51.312  12.672  1.00  0.00    +0.000 H 
ATOM    126  H16 UNL A   1       8.861  50.759  10.970  1.00  0.00    +0.000 H 
BRANCH   20   19
ATOM     19  C10 UNL A   1       7.138  50.594  12.140  1.00  0.00    +0.000 C 
ATOM    124  H14 UNL A   1       6.875  49.649  12.567  1.00  0.00    +0.000 H 
ATOM    123  H13 UNL A   1       6.727  50.765  11.167  1.00  0.00    +0.000 H 
BRANCH   19   18
ATOM    121  H11 UNL A   1       6.274  52.497  12.497  1.00  0.00    +0.000 H 
ATOM     18  C9  UNL A   1       6.557  51.650  13.087  1.00  0.00    +0.000 C 
ATOM    122  H12 UNL A   1       5.741  51.171  13.586  1.00  0.00    +0.000 H 
BRANCH   18   17
ATOM     17  C8  UNL A   1       7.484  52.142  14.196  1.00  0.00    +0.000 C 
ATOM    119  H9  UNL A   1       7.326  51.521  15.053  1.00  0.00    +0.000 H 
ATOM    120  H10 UNL A   1       8.473  52.087  13.792  1.00  0.00    +0.000 H 
BRANCH   17   16
ATOM    117  H7  UNL A   1       6.865  54.117  13.804  1.00  0.00    +0.000 H 
ATOM    118  H8  UNL A   1       6.680  53.543  15.501  1.00  0.00    +0.000 H 
ATOM     16  C7  UNL A   1       7.296  53.586  14.627  1.00  0.00    +0.000 C 
BRANCH   16   15
ATOM    116  H6  UNL A   1       9.094  53.806  15.626  1.00  0.00    +0.000 H 
ATOM     15  N5  UNL A   1       8.483  54.297  15.031  1.00  0.00    +0.000 N 
BRANCH   15   13
ATOM     13  C6  UNL A   1       8.867  55.554  14.699  1.00  0.00    +0.000 C 
ATOM     14  O3  UNL A   1       9.188  56.315  15.618  1.00  0.00    +0.000 O 
BRANCH   13   12
ATOM    115  H5  UNL A   1       8.651  56.833  13.212  1.00  0.00    +0.000 H 
ATOM     12  N4  UNL A   1       9.050  55.958  13.418  1.00  0.00    +0.000 N 
BRANCH   12   11
ATOM    101  C69 UNL A   1       9.107  54.400  11.500  1.00  0.00    +0.000 C 
ATOM    102  C70 UNL A   1      10.011  54.205  10.473  1.00  0.00    +0.000 C 
ATOM    165  H55 UNL A   1       8.192  53.937  11.623  1.00  0.00    +0.000 H 
ATOM      9  N2  UNL A   1      11.031  55.113  10.726  1.00  0.00    +0.000 N 
ATOM     10  N3  UNL A   1      10.962  55.589  11.987  1.00  0.00    +0.000 N 
ATOM     11  C5  UNL A   1       9.696  55.369  12.350  1.00  0.00    +0.000 C 
BRANCH    9    8
ATOM      5  C1  UNL A   1      13.845  56.473   7.910  1.00  0.00    +0.000 C 
ATOM      6  C2  UNL A   1      12.719  57.250   8.191  1.00  0.00    +0.000 C 
ATOM      7  C3  UNL A   1      11.798  56.806   9.137  1.00  0.00    +0.000 C 
ATOM      8  C4  UNL A   1      12.012  55.595   9.815  1.00  0.00    +0.000 C 
ATOM    171  H61 UNL A   1      13.364  53.997  10.126  1.00  0.00    +0.000 H 
ATOM    172  H62 UNL A   1      14.933  54.730   8.410  1.00  0.00    +0.000 H 
ATOM    109  C77 UNL A   1      13.176  54.854   9.583  1.00  0.00    +0.000 C 
ATOM    110  C78 UNL A   1      14.087  55.285   8.610  1.00  0.00    +0.000 C 
ATOM    113  H3  UNL A   1      12.570  58.147   7.702  1.00  0.00    +0.000 H 
ATOM    114  H4  UNL A   1      10.956  57.368   9.339  1.00  0.00    +0.000 H 
BRANCH    5    2
ATOM      2  S1  UNL A   1      14.969  57.073   6.687  1.00  0.00    +0.000 S 
ATOM      3  O1  UNL A   1      16.188  57.473   7.340  1.00  0.00    +0.000 O 
ATOM      4  O2  UNL A   1      14.239  57.936   5.783  1.00  0.00    +0.000 O 
BRANCH    2    1
ATOM      1  N1  UNL A   1      15.383  55.713   5.796  1.00  0.00    +0.000 N 
ATOM    111  H1  UNL A   1      15.926  55.994   4.979  1.00  0.00    +0.000 H 
ATOM    112  H2  UNL A   1      14.535  55.234   5.493  1.00  0.00    +0.000 H 
ENDBRANCH    2    1
ENDBRANCH    5    2
ENDBRANCH    9    8
BRANCH  102  103
ATOM    166  H56 UNL A   1      11.261  51.866  10.305  1.00  0.00    +0.000 H 
ATOM    103  C71 UNL A   1      10.025  53.284   9.337  1.00  0.00    +0.000 C 
ATOM    104  C72 UNL A   1      10.800  52.113   9.415  1.00  0.00    +0.000 C 
ATOM    105  C73 UNL A   1      10.952  51.283   8.309  1.00  0.00    +0.000 C 
ATOM    170  H60 UNL A   1       8.760  54.419   8.084  1.00  0.00    +0.000 H 
ATOM    107  C75 UNL A   1       9.500  52.736   7.041  1.00  0.00    +0.000 C 
ATOM    108  C76 UNL A   1       9.357  53.579   8.147  1.00  0.00    +0.000 C 
ATOM    167  H57 UNL A   1      11.543  50.438   8.370  1.00  0.00    +0.000 H 
ATOM    169  H59 UNL A   1       9.007  52.957   6.161  1.00  0.00    +0.000 H 
ATOM    106  C74 UNL A   1      10.304  51.597   7.119  1.00  0.00    +0.000 C 
ATOM    168  H58 UNL A   1      10.417  50.989   6.294  1.00  0.00    +0.000 H 
ENDBRANCH  102  103
ENDBRANCH   12   11
ENDBRANCH   13   12
ENDBRANCH   15   13
ENDBRANCH   16   15
ENDBRANCH   17   16
ENDBRANCH   18   17
ENDBRANCH   19   18
ENDBRANCH   20   19
ENDBRANCH   21   20
ENDBRANCH   22   21
ENDBRANCH   23   22
ENDBRANCH   24   23
ENDBRANCH   25   24
ENDBRANCH   26   25
ENDBRANCH   28   26
ENDBRANCH   29   28
ENDBRANCH   30   29
ENDBRANCH   31   30
ENDBRANCH   32   31
ENDBRANCH   33   32
ENDBRANCH   34   33
ENDBRANCH   35   34
ENDBRANCH   36   35
ENDBRANCH   38   36
ENDBRANCH   42   41
BRANCH   46   47
ATOM     47  C33 UNL A   1       7.713  45.536  16.830  1.00  0.00    +0.000 C 
ATOM     48  C34 UNL A   1       6.918  44.520  16.260  1.00  0.00    +0.000 C 
ATOM     49  F1  UNL A   1       6.384  44.674  15.038  1.00  0.00    +0.000 F 
ATOM     50  C35 UNL A   1       6.557  43.372  16.971  1.00  0.00    +0.000 C 
ATOM     51  F2  UNL A   1       5.681  42.508  16.438  1.00  0.00    +0.000 F 
ATOM     52  C36 UNL A   1       7.030  43.162  18.252  1.00  0.00    +0.000 C 
ATOM     53  F3  UNL A   1       6.629  42.097  18.960  1.00  0.00    +0.000 F 
ATOM     54  C37 UNL A   1       7.871  44.092  18.820  1.00  0.00    +0.000 C 
ATOM     55  F4  UNL A   1       8.306  43.924  20.077  1.00  0.00    +0.000 F 
ATOM     56  C38 UNL A   1       8.189  45.265  18.134  1.00  0.00    +0.000 C 
ATOM     57  F5  UNL A   1       8.868  46.162  18.855  1.00  0.00    +0.000 F 
ENDBRANCH   46   47
BRANCH   63   64
ATOM     65  C45 UNL A   1       4.530  52.237  19.348  1.00  0.00    +0.000 C 
ATOM     66  F6  UNL A   1       3.679  51.416  19.977  1.00  0.00    +0.000 F 
ATOM     67  C46 UNL A   1       4.212  53.596  19.301  1.00  0.00    +0.000 C 
ATOM     68  F7  UNL A   1       3.054  54.035  19.818  1.00  0.00    +0.000 F 
ATOM     69  C47 UNL A   1       5.104  54.501  18.748  1.00  0.00    +0.000 C 
ATOM     70  F8  UNL A   1       4.818  55.810  18.739  1.00  0.00    +0.000 F 
ATOM     71  C48 UNL A   1       6.305  54.049  18.227  1.00  0.00    +0.000 C 
ATOM     72  F9  UNL A   1       7.193  54.922  17.734  1.00  0.00    +0.000 F 
ATOM     73  C49 UNL A   1       6.606  52.690  18.236  1.00  0.00    +0.000 C 
ATOM     74  F10 UNL A   1       7.785  52.291  17.735  1.00  0.00    +0.000 F 
ATOM     64  C44 UNL A   1       5.729  51.752  18.796  1.00  0.00    +0.000 C 
ENDBRANCH   63   64
BRANCH   78   79
ATOM     79  C53 UNL A   1      10.536  51.088  22.758  1.00  0.00    +0.000 C 
ATOM     80  C54 UNL A   1      10.285  52.097  23.707  1.00  0.00    +0.000 C 
ATOM     81  F11 UNL A   1       9.590  53.192  23.361  1.00  0.00    +0.000 F 
ATOM     82  C55 UNL A   1      10.671  51.964  25.046  1.00  0.00    +0.000 C 
ATOM     83  F12 UNL A   1      10.352  52.917  25.934  1.00  0.00    +0.000 F 
ATOM     84  C56 UNL A   1      11.324  50.821  25.474  1.00  0.00    +0.000 C 
ATOM     85  F13 UNL A   1      11.631  50.659  26.768  1.00  0.00    +0.000 F 
ATOM     86  C57 UNL A   1      11.617  49.825  24.560  1.00  0.00    +0.000 C 
ATOM     87  F14 UNL A   1      12.212  48.696  24.970  1.00  0.00    +0.000 F 
ATOM     88  C58 UNL A   1      11.230  49.957  23.223  1.00  0.00    +0.000 C 
ATOM     89  F15 UNL A   1      11.458  48.913  22.413  1.00  0.00    +0.000 F 
ENDBRANCH   78   79
TORSDOF 32
ENDMDL
MODEL 3
REMARK VINA RESULT:      -5.9     50.547     56.533
ROOT
ATOM    153  H43 UNL A   1      54.747  20.599   4.436  1.00  0.00    +0.000 H 
ATOM    154  H44 UNL A   1      57.368  20.304   4.756  1.00  0.00    +0.000 H 
ATOM    155  H45 UNL A   1      55.422  17.993   7.481  1.00  0.00    +0.000 H 
ATOM    156  H46 UNL A   1      59.537  12.437   3.702  1.00  0.00    +0.000 H 
ATOM    157  H47 UNL A   1      58.315  13.644   1.823  1.00  0.00    +0.000 H 
ATOM    158  H48 UNL A   1      56.977  15.295   5.392  1.00  0.00    +0.000 H 
ATOM    159  H49 UNL A   1      56.690  13.891   8.276  1.00  0.00    +0.000 H 
ATOM    160  H50 UNL A   1      56.053  16.385   8.127  1.00  0.00    +0.000 H 
ATOM    161  H51 UNL A   1      51.806  16.131   3.989  1.00  0.00    +0.000 H 
ATOM    162  H52 UNL A   1      53.366  14.274   3.093  1.00  0.00    +0.000 H 
ATOM     42  C29 UNL A   1      56.070  15.228   2.750  1.00  0.00    +0.000 C 
ATOM     43  C30 UNL A   1      54.932  15.882   3.441  1.00  0.00    +0.000 C 
ATOM     44  N8  UNL A   1      54.901  17.086   3.907  1.00  0.00    +0.000 N 
ATOM     45  C31 UNL A   1      53.645  17.228   4.486  1.00  0.00    +0.000 C 
ATOM     46  C32 UNL A   1      53.498  18.009   5.591  1.00  0.00    +0.000 C 
ATOM     58  C39 UNL A   1      54.644  18.876   5.746  1.00  0.00    +0.000 C 
ATOM     59  C40 UNL A   1      55.227  19.888   5.010  1.00  0.00    +0.000 C 
ATOM     60  C41 UNL A   1      56.633  19.740   5.210  1.00  0.00    +0.000 C 
ATOM     61  C42 UNL A   1      56.846  18.706   6.122  1.00  0.00    +0.000 C 
ATOM     62  N9  UNL A   1      55.602  18.437   6.621  1.00  0.00    +0.000 N 
ATOM     63  C43 UNL A   1      58.014  17.928   6.467  1.00  0.00    +0.000 C 
ATOM     75  C50 UNL A   1      58.000  16.741   7.147  1.00  0.00    +0.000 C 
ATOM     76  N10 UNL A   1      59.047  15.845   6.999  1.00  0.00    +0.000 N 
ATOM     77  C51 UNL A   1      58.497  14.674   7.164  1.00  0.00    +0.000 C 
ATOM     78  C52 UNL A   1      58.845  13.489   6.347  1.00  0.00    +0.000 C 
ATOM     90  C59 UNL A   1      58.421  13.757   5.083  1.00  0.00    +0.000 C 
ATOM     91  C60 UNL A   1      58.833  13.182   3.823  1.00  0.00    +0.000 C 
ATOM     92  C61 UNL A   1      58.144  13.783   2.832  1.00  0.00    +0.000 C 
ATOM     93  C62 UNL A   1      57.117  14.666   3.396  1.00  0.00    +0.000 C 
ATOM     94  N11 UNL A   1      57.414  14.694   4.745  1.00  0.00    +0.000 N 
ATOM     95  C63 UNL A   1      57.220  14.670   7.853  1.00  0.00    +0.000 C 
ATOM     96  C64 UNL A   1      56.931  15.971   7.779  1.00  0.00    +0.000 C 
ATOM     97  C65 UNL A   1      52.838  16.162   3.959  1.00  0.00    +0.000 C 
ATOM     98  C66 UNL A   1      53.617  15.218   3.426  1.00  0.00    +0.000 C 
ENDROOT
BRANCH   42   41
ATOM     99  C67 UNL A   1      56.345  16.041   0.479  1.00  0.00    +0.000 C 
ATOM    164  H54 UNL A   1      56.365  16.706  -1.498  1.00  0.00    +0.000 H 
ATOM    100  C68 UNL A   1      56.166  15.910  -0.873  1.00  0.00    +0.000 C 
ATOM     38  C25 UNL A   1      55.717  14.703  -1.406  1.00  0.00    +0.000 C 
ATOM     39  C26 UNL A   1      55.233  13.692  -0.572  1.00  0.00    +0.000 C 
ATOM     40  C27 UNL A   1      55.259  13.891   0.806  1.00  0.00    +0.000 C 
ATOM    163  H53 UNL A   1      56.854  16.852   0.863  1.00  0.00    +0.000 H 
ATOM     41  C28 UNL A   1      55.832  15.067   1.322  1.00  0.00    +0.000 C 
ATOM    151  H41 UNL A   1      54.863  12.814  -0.969  1.00  0.00    +0.000 H 
ATOM    152  H42 UNL A   1      54.861  13.183   1.442  1.00  0.00    +0.000 H 
BRANCH   38   36
ATOM     36  C24 UNL A   1      55.764  14.525  -2.868  1.00  0.00    +0.000 C 
ATOM     37  O5  UNL A   1      54.752  14.672  -3.542  1.00  0.00    +0.000 O 
BRANCH   36   35
ATOM     35  N7  UNL A   1      56.964  14.201  -3.466  1.00  0.00    +0.000 N 
ATOM    150  H40 UNL A   1      57.229  14.754  -4.235  1.00  0.00    +0.000 H 
BRANCH   35   34
ATOM     34  C23 UNL A   1      57.890  13.131  -3.091  1.00  0.00    +0.000 C 
ATOM    148  H38 UNL A   1      58.869  13.381  -3.444  1.00  0.00    +0.000 H 
ATOM    149  H39 UNL A   1      57.878  13.039  -2.026  1.00  0.00    +0.000 H 
BRANCH   34   33
ATOM     33  C22 UNL A   1      57.479  11.793  -3.686  1.00  0.00    +0.000 C 
ATOM    146  H36 UNL A   1      56.469  11.591  -3.398  1.00  0.00    +0.000 H 
ATOM    147  H37 UNL A   1      57.592  11.874  -4.748  1.00  0.00    +0.000 H 
BRANCH   33   32
ATOM    145  H35 UNL A   1      59.144  10.550  -3.954  1.00  0.00    +0.000 H 
ATOM    144  H34 UNL A   1      57.738   9.751  -3.166  1.00  0.00    +0.000 H 
ATOM     32  C21 UNL A   1      58.359  10.621  -3.228  1.00  0.00    +0.000 C 
BRANCH   32   31
ATOM    143  H33 UNL A   1      58.333  10.567  -1.127  1.00  0.00    +0.000 H 
ATOM    142  H32 UNL A   1      59.434  11.794  -1.818  1.00  0.00    +0.000 H 
ATOM     31  C20 UNL A   1      59.063  10.792  -1.876  1.00  0.00    +0.000 C 
BRANCH   31   30
ATOM    140  H30 UNL A   1      60.674  10.077  -0.692  1.00  0.00    +0.000 H 
ATOM    141  H31 UNL A   1      59.834   8.845  -1.664  1.00  0.00    +0.000 H 
ATOM     30  C19 UNL A   1      60.232   9.838  -1.637  1.00  0.00    +0.000 C 
BRANCH   30   29
ATOM    138  H28 UNL A   1      61.037  10.630  -3.450  1.00  0.00    +0.000 H 
ATOM    139  H29 UNL A   1      62.241  10.195  -2.243  1.00  0.00    +0.000 H 
ATOM     29  C18 UNL A   1      61.322   9.910  -2.712  1.00  0.00    +0.000 C 
BRANCH   29   28
ATOM    137  H27 UNL A   1      62.242   8.081  -2.978  1.00  0.00    +0.000 H 
ATOM     28  N6  UNL A   1      61.511   8.626  -3.351  1.00  0.00    +0.000 N 
BRANCH   28   26
ATOM     26  C17 UNL A   1      60.841   8.051  -4.386  1.00  0.00    +0.000 C 
ATOM     27  O4  UNL A   1      60.947   8.559  -5.503  1.00  0.00    +0.000 O 
BRANCH   26   25
ATOM     25  C16 UNL A   1      59.973   6.830  -4.174  1.00  0.00    +0.000 C 
ATOM    135  H25 UNL A   1      60.055   6.208  -5.040  1.00  0.00    +0.000 H 
ATOM    136  H26 UNL A   1      60.329   6.363  -3.279  1.00  0.00    +0.000 H 
BRANCH   25   24
ATOM    133  H23 UNL A   1      58.361   8.181  -3.983  1.00  0.00    +0.000 H 
ATOM    134  H24 UNL A   1      57.982   6.563  -4.699  1.00  0.00    +0.000 H 
ATOM     24  C15 UNL A   1      58.491   7.120  -3.939  1.00  0.00    +0.000 C 
BRANCH   24   23
ATOM    131  H21 UNL A   1      57.156   7.362  -2.310  1.00  0.00    +0.000 H 
ATOM    132  H22 UNL A   1      57.447   5.678  -2.829  1.00  0.00    +0.000 H 
ATOM     23  C14 UNL A   1      57.876   6.637  -2.628  1.00  0.00    +0.000 C 
BRANCH   23   22
ATOM    129  H19 UNL A   1      59.871   6.467  -1.902  1.00  0.00    +0.000 H 
ATOM    130  H20 UNL A   1      58.715   7.213  -0.777  1.00  0.00    +0.000 H 
ATOM     22  C13 UNL A   1      58.883   6.434  -1.490  1.00  0.00    +0.000 C 
BRANCH   22   21
ATOM     21  C12 UNL A   1      58.712   5.115  -0.759  1.00  0.00    +0.000 C 
ATOM    127  H17 UNL A   1      57.777   5.134  -0.240  1.00  0.00    +0.000 H 
ATOM    128  H18 UNL A   1      58.751   4.341  -1.497  1.00  0.00    +0.000 H 
BRANCH   21   20
ATOM     20  C11 UNL A   1      59.820   4.829   0.250  1.00  0.00    +0.000 C 
ATOM    125  H15 UNL A   1      60.756   4.946  -0.255  1.00  0.00    +0.000 H 
ATOM    126  H16 UNL A   1      59.657   5.519   1.051  1.00  0.00    +0.000 H 
BRANCH   20   19
ATOM     19  C10 UNL A   1      59.810   3.440   0.900  1.00  0.00    +0.000 C 
ATOM    124  H14 UNL A   1      60.452   3.519   1.753  1.00  0.00    +0.000 H 
ATOM    123  H13 UNL A   1      60.140   2.734   0.167  1.00  0.00    +0.000 H 
BRANCH   19   18
ATOM    121  H11 UNL A   1      57.710   3.205   0.719  1.00  0.00    +0.000 H 
ATOM     18  C9  UNL A   1      58.460   2.958   1.442  1.00  0.00    +0.000 C 
ATOM    122  H12 UNL A   1      58.577   1.907   1.611  1.00  0.00    +0.000 H 
BRANCH   18   17
ATOM     17  C8  UNL A   1      58.026   3.542   2.784  1.00  0.00    +0.000 C 
ATOM    119  H9  UNL A   1      58.666   4.371   3.002  1.00  0.00    +0.000 H 
ATOM    120  H10 UNL A   1      56.996   3.804   2.666  1.00  0.00    +0.000 H 
BRANCH   17   16
ATOM    117  H7  UNL A   1      57.501   1.726   3.714  1.00  0.00    +0.000 H 
ATOM    118  H8  UNL A   1      59.114   2.404   4.138  1.00  0.00    +0.000 H 
ATOM     16  C7  UNL A   1      58.075   2.593   3.968  1.00  0.00    +0.000 C 
BRANCH   16   15
ATOM    116  H6  UNL A   1      56.636   2.867   5.429  1.00  0.00    +0.000 H 
ATOM     15  N5  UNL A   1      57.570   3.098   5.220  1.00  0.00    +0.000 N 
BRANCH   15   13
ATOM     13  C6  UNL A   1      58.212   3.851   6.146  1.00  0.00    +0.000 C 
ATOM     14  O3  UNL A   1      58.973   3.271   6.927  1.00  0.00    +0.000 O 
BRANCH   13   12
ATOM    115  H5  UNL A   1      57.449   5.581   6.712  1.00  0.00    +0.000 H 
ATOM     12  N4  UNL A   1      58.169   5.206   6.157  1.00  0.00    +0.000 N 
BRANCH   12   11
ATOM    101  C69 UNL A   1      59.604   7.218   6.210  1.00  0.00    +0.000 C 
ATOM    102  C70 UNL A   1      60.409   7.824   5.264  1.00  0.00    +0.000 C 
ATOM    165  H55 UNL A   1      59.500   7.481   7.203  1.00  0.00    +0.000 H 
ATOM      9  N2  UNL A   1      60.252   7.052   4.121  1.00  0.00    +0.000 N 
ATOM     10  N3  UNL A   1      59.175   6.245   4.220  1.00  0.00    +0.000 N 
ATOM     11  C5  UNL A   1      58.951   6.158   5.534  1.00  0.00    +0.000 C 
BRANCH    9    8
ATOM      5  C1  UNL A   1      62.881   6.985   0.838  1.00  0.00    +0.000 C 
ATOM      6  C2  UNL A   1      63.068   6.086   1.890  1.00  0.00    +0.000 C 
ATOM      7  C3  UNL A   1      62.185   6.098   2.968  1.00  0.00    +0.000 C 
ATOM      8  C4  UNL A   1      61.105   6.995   2.985  1.00  0.00    +0.000 C 
ATOM    171  H61 UNL A   1      60.051   8.461   1.880  1.00  0.00    +0.000 H 
ATOM    172  H62 UNL A   1      61.643   8.499   0.035  1.00  0.00    +0.000 H 
ATOM    109  C77 UNL A   1      60.879   7.846   1.896  1.00  0.00    +0.000 C 
ATOM    110  C78 UNL A   1      61.784   7.854   0.827  1.00  0.00    +0.000 C 
ATOM    113  H3  UNL A   1      63.854   5.417   1.870  1.00  0.00    +0.000 H 
ATOM    114  H4  UNL A   1      62.326   5.446   3.756  1.00  0.00    +0.000 H 
BRANCH    5    2
ATOM      2  S1  UNL A   1      64.041   6.940  -0.493  1.00  0.00    +0.000 S 
ATOM      3  O1  UNL A   1      65.227   6.257  -0.047  1.00  0.00    +0.000 O 
ATOM      4  O2  UNL A   1      64.070   8.248  -1.113  1.00  0.00    +0.000 O 
BRANCH    2    1
ATOM      1  N1  UNL A   1      63.346   5.910  -1.620  1.00  0.00    +0.000 N 
ATOM    111  H1  UNL A   1      62.466   5.547  -1.253  1.00  0.00    +0.000 H 
ATOM    112  H2  UNL A   1      63.982   5.134  -1.809  1.00  0.00    +0.000 H 
ENDBRANCH    2    1
ENDBRANCH    5    2
ENDBRANCH    9    8
BRANCH  102  103
ATOM    166  H56 UNL A   1      60.052  10.127   3.987  1.00  0.00    +0.000 H 
ATOM    103  C71 UNL A   1      61.263   9.011   5.315  1.00  0.00    +0.000 C 
ATOM    104  C72 UNL A   1      60.939  10.121   4.515  1.00  0.00    +0.000 C 
ATOM    105  C73 UNL A   1      61.797  11.213   4.428  1.00  0.00    +0.000 C 
ATOM    170  H60 UNL A   1      62.673   8.243   6.687  1.00  0.00    +0.000 H 
ATOM    107  C75 UNL A   1      63.291  10.141   5.992  1.00  0.00    +0.000 C 
ATOM    108  C76 UNL A   1      62.436   9.037   6.071  1.00  0.00    +0.000 C 
ATOM    167  H57 UNL A   1      61.560  12.012   3.819  1.00  0.00    +0.000 H 
ATOM    169  H59 UNL A   1      64.159  10.158   6.550  1.00  0.00    +0.000 H 
ATOM    106  C74 UNL A   1      62.977  11.221   5.165  1.00  0.00    +0.000 C 
ATOM    168  H58 UNL A   1      63.620  12.024   5.099  1.00  0.00    +0.000 H 
ENDBRANCH  102  103
ENDBRANCH   12   11
ENDBRANCH   13   12
ENDBRANCH   15   13
ENDBRANCH   16   15
ENDBRANCH   17   16
ENDBRANCH   18   17
ENDBRANCH   19   18
ENDBRANCH   20   19
ENDBRANCH   21   20
ENDBRANCH   22   21
ENDBRANCH   23   22
ENDBRANCH   24   23
ENDBRANCH   25   24
ENDBRANCH   26   25
ENDBRANCH   28   26
ENDBRANCH   29   28
ENDBRANCH   30   29
ENDBRANCH   31   30
ENDBRANCH   32   31
ENDBRANCH   33   32
ENDBRANCH   34   33
ENDBRANCH   35   34
ENDBRANCH   36   35
ENDBRANCH   38   36
ENDBRANCH   42   41
BRANCH   46   47
ATOM     47  C33 UNL A   1      52.609  17.655   6.771  1.00  0.00    +0.000 C 
ATOM     48  C34 UNL A   1      51.758  18.652   7.291  1.00  0.00    +0.000 C 
ATOM     49  F1  UNL A   1      51.535  19.786   6.608  1.00  0.00    +0.000 F 
ATOM     50  C35 UNL A   1      51.203  18.562   8.571  1.00  0.00    +0.000 C 
ATOM     51  F2  UNL A   1      50.522  19.600   9.075  1.00  0.00    +0.000 F 
ATOM     52  C36 UNL A   1      51.423  17.445   9.354  1.00  0.00    +0.000 C 
ATOM     53  F3  UNL A   1      50.951  17.387  10.607  1.00  0.00    +0.000 F 
ATOM     54  C37 UNL A   1      52.186  16.413   8.856  1.00  0.00    +0.000 C 
ATOM     55  F4  UNL A   1      52.443  15.341   9.618  1.00  0.00    +0.000 F 
ATOM     56  C38 UNL A   1      52.786  16.523   7.601  1.00  0.00    +0.000 C 
ATOM     57  F5  UNL A   1      53.638  15.538   7.305  1.00  0.00    +0.000 F 
ENDBRANCH   46   47
BRANCH   63   64
ATOM     65  C45 UNL A   1      59.770  18.068   4.579  1.00  0.00    +0.000 C 
ATOM     66  F6  UNL A   1      59.032  17.304   3.763  1.00  0.00    +0.000 F 
ATOM     67  C46 UNL A   1      60.965  18.589   4.082  1.00  0.00    +0.000 C 
ATOM     68  F7  UNL A   1      61.377  18.269   2.845  1.00  0.00    +0.000 F 
ATOM     69  C47 UNL A   1      61.716  19.464   4.851  1.00  0.00    +0.000 C 
ATOM     70  F8  UNL A   1      62.843  19.998   4.360  1.00  0.00    +0.000 F 
ATOM     71  C48 UNL A   1      61.284  19.805   6.121  1.00  0.00    +0.000 C 
ATOM     72  F9  UNL A   1      61.978  20.687   6.853  1.00  0.00    +0.000 F 
ATOM     73  C49 UNL A   1      60.113  19.254   6.635  1.00  0.00    +0.000 C 
ATOM     74  F10 UNL A   1      59.717  19.619   7.864  1.00  0.00    +0.000 F 
ATOM     64  C44 UNL A   1      59.327  18.375   5.878  1.00  0.00    +0.000 C 
ENDBRANCH   63   64
BRANCH   78   79
ATOM     79  C53 UNL A   1      59.258  12.206   6.965  1.00  0.00    +0.000 C 
ATOM     80  C54 UNL A   1      60.452  12.105   7.704  1.00  0.00    +0.000 C 
ATOM     81  F11 UNL A   1      61.362  13.089   7.655  1.00  0.00    +0.000 F 
ATOM     82  C55 UNL A   1      60.696  11.031   8.568  1.00  0.00    +0.000 C 
ATOM     83  F12 UNL A   1      61.815  11.006   9.308  1.00  0.00    +0.000 F 
ATOM     84  C56 UNL A   1      59.757  10.025   8.715  1.00  0.00    +0.000 C 
ATOM     85  F13 UNL A   1      59.956   9.033   9.594  1.00  0.00    +0.000 F 
ATOM     86  C57 UNL A   1      58.588  10.076   7.977  1.00  0.00    +0.000 C 
ATOM     87  F14 UNL A   1      57.653   9.129   8.141  1.00  0.00    +0.000 F 
ATOM     88  C58 UNL A   1      58.343  11.149   7.116  1.00  0.00    +0.000 C 
ATOM     89  F15 UNL A   1      57.149  11.185   6.507  1.00  0.00    +0.000 F 
ENDBRANCH   78   79
TORSDOF 32
ENDMDL
MODEL 4
REMARK VINA RESULT:      -5.8     44.631     50.497
ROOT
ATOM    153  H43 UNL A   1      46.172  28.833  36.169  1.00  0.00    +0.000 H 
ATOM    154  H44 UNL A   1      47.089  29.570  33.786  1.00  0.00    +0.000 H 
ATOM    155  H45 UNL A   1      46.266  25.586  33.725  1.00  0.00    +0.000 H 
ATOM    156  H46 UNL A   1      41.508  28.030  27.940  1.00  0.00    +0.000 H 
ATOM    157  H47 UNL A   1      40.865  29.521  29.900  1.00  0.00    +0.000 H 
ATOM    158  H48 UNL A   1      43.649  26.787  31.324  1.00  0.00    +0.000 H 
ATOM    159  H49 UNL A   1      44.182  23.765  30.348  1.00  0.00    +0.000 H 
ATOM    160  H50 UNL A   1      45.691  24.662  32.238  1.00  0.00    +0.000 H 
ATOM    161  H51 UNL A   1      41.578  26.058  36.283  1.00  0.00    +0.000 H 
ATOM    162  H52 UNL A   1      40.266  26.659  34.137  1.00  0.00    +0.000 H 
ATOM     42  C29 UNL A   1      41.747  28.488  32.462  1.00  0.00    +0.000 C 
ATOM     43  C30 UNL A   1      42.212  27.724  33.645  1.00  0.00    +0.000 C 
ATOM     44  N8  UNL A   1      43.350  27.845  34.242  1.00  0.00    +0.000 N 
ATOM     45  C31 UNL A   1      43.334  26.905  35.267  1.00  0.00    +0.000 C 
ATOM     46  C32 UNL A   1      44.490  26.286  35.631  1.00  0.00    +0.000 C 
ATOM     58  C39 UNL A   1      45.629  27.015  35.121  1.00  0.00    +0.000 C 
ATOM     59  C40 UNL A   1      46.156  28.278  35.298  1.00  0.00    +0.000 C 
ATOM     60  C41 UNL A   1      46.672  28.656  34.022  1.00  0.00    +0.000 C 
ATOM     61  C42 UNL A   1      46.519  27.581  33.145  1.00  0.00    +0.000 C 
ATOM     62  N9  UNL A   1      46.160  26.538  33.952  1.00  0.00    +0.000 N 
ATOM     63  C43 UNL A   1      46.572  27.476  31.704  1.00  0.00    +0.000 C 
ATOM     75  C50 UNL A   1      46.091  26.426  30.971  1.00  0.00    +0.000 C 
ATOM     76  N10 UNL A   1      45.729  26.614  29.646  1.00  0.00    +0.000 N 
ATOM     77  C51 UNL A   1      44.767  25.755  29.449  1.00  0.00    +0.000 C 
ATOM     78  C52 UNL A   1      43.555  26.060  28.655  1.00  0.00    +0.000 C 
ATOM     90  C59 UNL A   1      42.868  27.004  29.352  1.00  0.00    +0.000 C 
ATOM     91  C60 UNL A   1      41.869  27.946  28.904  1.00  0.00    +0.000 C 
ATOM     92  C61 UNL A   1      41.487  28.700  29.955  1.00  0.00    +0.000 C 
ATOM     93  C62 UNL A   1      42.087  28.180  31.189  1.00  0.00    +0.000 C 
ATOM     94  N11 UNL A   1      42.994  27.239  30.744  1.00  0.00    +0.000 N 
ATOM     95  C63 UNL A   1      44.700  24.657  30.394  1.00  0.00    +0.000 C 
ATOM     96  C64 UNL A   1      45.504  25.140  31.343  1.00  0.00    +0.000 C 
ATOM     97  C65 UNL A   1      41.958  26.534  35.449  1.00  0.00    +0.000 C 
ATOM     98  C66 UNL A   1      41.241  26.897  34.382  1.00  0.00    +0.000 C 
ENDROOT
BRANCH   42   41
ATOM     99  C67 UNL A   1      39.398  29.090  32.590  1.00  0.00    +0.000 C 
ATOM    164  H54 UNL A   1      37.435  29.796  32.601  1.00  0.00    +0.000 H 
ATOM    100  C68 UNL A   1      38.400  29.968  32.923  1.00  0.00    +0.000 C 
ATOM     38  C25 UNL A   1      38.685  31.092  33.696  1.00  0.00    +0.000 C 
ATOM     39  C26 UNL A   1      40.008  31.462  33.954  1.00  0.00    +0.000 C 
ATOM     40  C27 UNL A   1      41.036  30.657  33.471  1.00  0.00    +0.000 C 
ATOM    163  H53 UNL A   1      39.171  28.167  32.190  1.00  0.00    +0.000 H 
ATOM     41  C28 UNL A   1      40.718  29.462  32.801  1.00  0.00    +0.000 C 
ATOM    151  H41 UNL A   1      40.219  32.317  34.492  1.00  0.00    +0.000 H 
ATOM    152  H42 UNL A   1      42.020  30.933  33.603  1.00  0.00    +0.000 H 
BRANCH   38   36
ATOM     36  C24 UNL A   1      37.558  31.877  34.229  1.00  0.00    +0.000 C 
ATOM     37  O5  UNL A   1      36.515  31.972  33.593  1.00  0.00    +0.000 O 
BRANCH   36   35
ATOM     35  N7  UNL A   1      37.691  32.494  35.456  1.00  0.00    +0.000 N 
ATOM    150  H40 UNL A   1      37.634  31.907  36.244  1.00  0.00    +0.000 H 
BRANCH   35   34
ATOM     34  C23 UNL A   1      37.907  33.916  35.723  1.00  0.00    +0.000 C 
ATOM    148  H38 UNL A   1      36.966  34.371  35.954  1.00  0.00    +0.000 H 
ATOM    149  H39 UNL A   1      38.586  34.000  36.545  1.00  0.00    +0.000 H 
BRANCH   34   33
ATOM     33  C22 UNL A   1      38.519  34.630  34.529  1.00  0.00    +0.000 C 
ATOM    146  H36 UNL A   1      38.751  33.900  33.781  1.00  0.00    +0.000 H 
ATOM    147  H37 UNL A   1      37.801  35.347  34.190  1.00  0.00    +0.000 H 
BRANCH   33   32
ATOM    145  H35 UNL A   1      39.740  35.619  35.913  1.00  0.00    +0.000 H 
ATOM    144  H34 UNL A   1      39.837  36.270  34.240  1.00  0.00    +0.000 H 
ATOM     32  C21 UNL A   1      39.803  35.403  34.866  1.00  0.00    +0.000 C 
BRANCH   32   31
ATOM    143  H33 UNL A   1      40.857  33.606  34.582  1.00  0.00    +0.000 H 
ATOM    142  H32 UNL A   1      41.742  34.837  35.529  1.00  0.00    +0.000 H 
ATOM     31  C20 UNL A   1      41.121  34.639  34.681  1.00  0.00    +0.000 C 
BRANCH   31   30
ATOM    140  H30 UNL A   1      41.215  35.059  32.603  1.00  0.00    +0.000 H 
ATOM    141  H31 UNL A   1      42.382  35.942  33.615  1.00  0.00    +0.000 H 
ATOM     30  C19 UNL A   1      41.902  35.006  33.422  1.00  0.00    +0.000 C 
BRANCH   30   29
ATOM    138  H28 UNL A   1      43.943  34.518  33.024  1.00  0.00    +0.000 H 
ATOM    139  H29 UNL A   1      43.025  33.239  33.809  1.00  0.00    +0.000 H 
ATOM     29  C18 UNL A   1      43.005  34.005  33.062  1.00  0.00    +0.000 C 
BRANCH   29   28
ATOM    137  H27 UNL A   1      43.299  32.591  31.586  1.00  0.00    +0.000 H 
ATOM     28  N6  UNL A   1      42.752  33.388  31.778  1.00  0.00    +0.000 N 
BRANCH   28   26
ATOM     26  C17 UNL A   1      41.879  33.732  30.792  1.00  0.00    +0.000 C 
ATOM     27  O4  UNL A   1      40.674  33.681  31.039  1.00  0.00    +0.000 O 
BRANCH   26   25
ATOM     25  C16 UNL A   1      42.370  34.148  29.423  1.00  0.00    +0.000 C 
ATOM    135  H25 UNL A   1      43.427  33.988  29.386  1.00  0.00    +0.000 H 
ATOM    136  H26 UNL A   1      41.824  33.557  28.718  1.00  0.00    +0.000 H 
BRANCH   25   24
ATOM    133  H23 UNL A   1      41.330  35.965  29.703  1.00  0.00    +0.000 H 
ATOM    134  H24 UNL A   1      43.049  36.092  29.154  1.00  0.00    +0.000 H 
ATOM     24  C15 UNL A   1      42.100  35.606  29.053  1.00  0.00    +0.000 C 
BRANCH   24   23
ATOM    131  H21 UNL A   1      41.882  35.043  27.021  1.00  0.00    +0.000 H 
ATOM    132  H22 UNL A   1      40.621  36.132  27.662  1.00  0.00    +0.000 H 
ATOM     23  C14 UNL A   1      41.664  35.902  27.620  1.00  0.00    +0.000 C 
BRANCH   23   22
ATOM    129  H19 UNL A   1      43.412  36.972  27.041  1.00  0.00    +0.000 H 
ATOM    130  H20 UNL A   1      42.007  37.180  25.974  1.00  0.00    +0.000 H 
ATOM     22  C13 UNL A   1      42.352  37.115  26.983  1.00  0.00    +0.000 C 
BRANCH   22   21
ATOM     21  C12 UNL A   1      42.008  38.429  27.659  1.00  0.00    +0.000 C 
ATOM    127  H17 UNL A   1      40.997  38.378  28.005  1.00  0.00    +0.000 H 
ATOM    128  H18 UNL A   1      42.705  38.562  28.460  1.00  0.00    +0.000 H 
BRANCH   21   20
ATOM     20  C11 UNL A   1      42.144  39.640  26.742  1.00  0.00    +0.000 C 
ATOM    125  H15 UNL A   1      42.382  39.280  25.762  1.00  0.00    +0.000 H 
ATOM    126  H16 UNL A   1      41.207  40.154  26.811  1.00  0.00    +0.000 H 
BRANCH   20   19
ATOM     19  C10 UNL A   1      43.205  40.677  27.129  1.00  0.00    +0.000 C 
ATOM    124  H14 UNL A   1      44.125  40.134  27.197  1.00  0.00    +0.000 H 
ATOM    123  H13 UNL A   1      42.897  41.132  28.047  1.00  0.00    +0.000 H 
BRANCH   19   18
ATOM    121  H11 UNL A   1      43.164  42.720  26.563  1.00  0.00    +0.000 H 
ATOM     18  C9  UNL A   1      43.460  41.795  26.112  1.00  0.00    +0.000 C 
ATOM    122  H12 UNL A   1      44.502  41.736  25.875  1.00  0.00    +0.000 H 
BRANCH   18   17
ATOM     17  C8  UNL A   1      42.728  41.670  24.778  1.00  0.00    +0.000 C 
ATOM    119  H9  UNL A   1      42.697  40.633  24.518  1.00  0.00    +0.000 H 
ATOM    120  H10 UNL A   1      41.766  42.112  24.933  1.00  0.00    +0.000 H 
BRANCH   17   16
ATOM    117  H7  UNL A   1      43.310  43.467  23.844  1.00  0.00    +0.000 H 
ATOM    118  H8  UNL A   1      44.329  42.023  23.503  1.00  0.00    +0.000 H 
ATOM     16  C7  UNL A   1      43.343  42.424  23.611  1.00  0.00    +0.000 C 
BRANCH   16   15
ATOM    116  H6  UNL A   1      41.925  41.657  22.315  1.00  0.00    +0.000 H 
ATOM     15  N5  UNL A   1      42.715  42.244  22.327  1.00  0.00    +0.000 N 
BRANCH   15   13
ATOM     13  C6  UNL A   1      43.072  42.776  21.132  1.00  0.00    +0.000 C 
ATOM     14  O3  UNL A   1      42.258  42.699  20.205  1.00  0.00    +0.000 O 
BRANCH   13   12
ATOM    115  H5  UNL A   1      44.897  43.338  21.629  1.00  0.00    +0.000 H 
ATOM     12  N4  UNL A   1      44.201  43.506  20.954  1.00  0.00    +0.000 N 
BRANCH   12   11
ATOM    101  C69 UNL A   1      43.942  45.710  19.868  1.00  0.00    +0.000 C 
ATOM    102  C70 UNL A   1      44.694  46.390  18.927  1.00  0.00    +0.000 C 
ATOM    165  H55 UNL A   1      43.109  46.056  20.369  1.00  0.00    +0.000 H 
ATOM      9  N2  UNL A   1      45.739  45.527  18.622  1.00  0.00    +0.000 N 
ATOM     10  N3  UNL A   1      45.481  44.274  19.054  1.00  0.00    +0.000 N 
ATOM     11  C5  UNL A   1      44.554  44.439  20.001  1.00  0.00    +0.000 C 
BRANCH    9    8
ATOM      5  C1  UNL A   1      49.387  46.635  16.846  1.00  0.00    +0.000 C 
ATOM      6  C2  UNL A   1      49.327  46.423  18.226  1.00  0.00    +0.000 C 
ATOM      7  C3  UNL A   1      48.123  46.039  18.809  1.00  0.00    +0.000 C 
ATOM      8  C4  UNL A   1      46.982  45.847  18.011  1.00  0.00    +0.000 C 
ATOM    171  H61 UNL A   1      46.242  45.790  16.030  1.00  0.00    +0.000 H 
ATOM    172  H62 UNL A   1      48.328  46.545  15.019  1.00  0.00    +0.000 H 
ATOM    109  C77 UNL A   1      47.063  45.991  16.621  1.00  0.00    +0.000 C 
ATOM    110  C78 UNL A   1      48.267  46.407  16.039  1.00  0.00    +0.000 C 
ATOM    113  H3  UNL A   1      50.170  46.550  18.808  1.00  0.00    +0.000 H 
ATOM    114  H4  UNL A   1      48.067  45.895  19.830  1.00  0.00    +0.000 H 
BRANCH    5    2
ATOM      2  S1  UNL A   1      50.935  47.141  16.162  1.00  0.00    +0.000 S 
ATOM      3  O1  UNL A   1      51.051  48.569  16.295  1.00  0.00    +0.000 O 
ATOM      4  O2  UNL A   1      51.124  46.447  14.905  1.00  0.00    +0.000 O 
BRANCH    2    1
ATOM      1  N1  UNL A   1      52.083  46.514  17.213  1.00  0.00    +0.000 N 
ATOM    111  H1  UNL A   1      51.777  46.656  18.175  1.00  0.00    +0.000 H 
ATOM    112  H2  UNL A   1      52.974  46.988  17.065  1.00  0.00    +0.000 H 
ENDBRANCH    2    1
ENDBRANCH    5    2
ENDBRANCH    9    8
BRANCH  102  103
ATOM    166  H56 UNL A   1      42.959  47.074  17.034  1.00  0.00    +0.000 H 
ATOM    103  C71 UNL A   1      44.533  47.701  18.301  1.00  0.00    +0.000 C 
ATOM    104  C72 UNL A   1      43.594  47.855  17.266  1.00  0.00    +0.000 C 
ATOM    105  C73 UNL A   1      43.508  49.045  16.551  1.00  0.00    +0.000 C 
ATOM    170  H60 UNL A   1      46.020  48.695  19.424  1.00  0.00    +0.000 H 
ATOM    107  C75 UNL A   1      45.250  49.982  17.936  1.00  0.00    +0.000 C 
ATOM    108  C76 UNL A   1      45.347  48.782  18.646  1.00  0.00    +0.000 C 
ATOM    167  H57 UNL A   1      42.831  49.139  15.777  1.00  0.00    +0.000 H 
ATOM    169  H59 UNL A   1      45.853  50.779  18.190  1.00  0.00    +0.000 H 
ATOM    106  C74 UNL A   1      44.340  50.109  16.884  1.00  0.00    +0.000 C 
ATOM    168  H58 UNL A   1      44.284  50.992  16.354  1.00  0.00    +0.000 H 
ENDBRANCH  102  103
ENDBRANCH   12   11
ENDBRANCH   13   12
ENDBRANCH   15   13
ENDBRANCH   16   15
ENDBRANCH   17   16
ENDBRANCH   18   17
ENDBRANCH   19   18
ENDBRANCH   20   19
ENDBRANCH   21   20
ENDBRANCH   22   21
ENDBRANCH   23   22
ENDBRANCH   24   23
ENDBRANCH   25   24
ENDBRANCH   26   25
ENDBRANCH   28   26
ENDBRANCH   29   28
ENDBRANCH   30   29
ENDBRANCH   31   30
ENDBRANCH   32   31
ENDBRANCH   33   32
ENDBRANCH   34   33
ENDBRANCH   35   34
ENDBRANCH   36   35
ENDBRANCH   38   36
ENDBRANCH   42   41
BRANCH   46   47
ATOM     47  C33 UNL A   1      44.590  24.813  35.989  1.00  0.00    +0.000 C 
ATOM     48  C34 UNL A   1      45.369  24.447  37.107  1.00  0.00    +0.000 C 
ATOM     49  F1  UNL A   1      45.785  25.374  37.983  1.00  0.00    +0.000 F 
ATOM     50  C35 UNL A   1      45.835  23.142  37.293  1.00  0.00    +0.000 C 
ATOM     51  F2  UNL A   1      46.691  22.877  38.289  1.00  0.00    +0.000 F 
ATOM     52  C36 UNL A   1      45.486  22.139  36.408  1.00  0.00    +0.000 C 
ATOM     53  F3  UNL A   1      45.988  20.905  36.545  1.00  0.00    +0.000 F 
ATOM     54  C37 UNL A   1      44.664  22.437  35.344  1.00  0.00    +0.000 C 
ATOM     55  F4  UNL A   1      44.350  21.485  34.454  1.00  0.00    +0.000 F 
ATOM     56  C38 UNL A   1      44.243  23.749  35.125  1.00  0.00    +0.000 C 
ATOM     57  F5  UNL A   1      43.598  23.938  33.971  1.00  0.00    +0.000 F 
ENDBRANCH   46   47
BRANCH   63   64
ATOM     65  C45 UNL A   1      48.285  28.822  30.319  1.00  0.00    +0.000 C 
ATOM     66  F6  UNL A   1      49.189  27.835  30.376  1.00  0.00    +0.000 F 
ATOM     67  C46 UNL A   1      48.604  29.957  29.572  1.00  0.00    +0.000 C 
ATOM     68  F7  UNL A   1      49.810  30.065  28.992  1.00  0.00    +0.000 F 
ATOM     69  C47 UNL A   1      47.667  30.963  29.399  1.00  0.00    +0.000 C 
ATOM     70  F8  UNL A   1      47.958  32.035  28.649  1.00  0.00    +0.000 F 
ATOM     71  C48 UNL A   1      46.418  30.846  29.986  1.00  0.00    +0.000 C 
ATOM     72  F9  UNL A   1      45.490  31.791  29.786  1.00  0.00    +0.000 F 
ATOM     73  C49 UNL A   1      46.112  29.734  30.765  1.00  0.00    +0.000 C 
ATOM     74  F10 UNL A   1      44.887  29.647  31.307  1.00  0.00    +0.000 F 
ATOM     64  C44 UNL A   1      47.034  28.695  30.950  1.00  0.00    +0.000 C 
ENDBRANCH   63   64
BRANCH   78   79
ATOM     79  C53 UNL A   1      43.122  25.201  27.526  1.00  0.00    +0.000 C 
ATOM     80  C54 UNL A   1      43.842  25.171  26.317  1.00  0.00    +0.000 C 
ATOM     81  F11 UNL A   1      44.780  26.097  26.065  1.00  0.00    +0.000 F 
ATOM     82  C55 UNL A   1      43.669  24.144  25.380  1.00  0.00    +0.000 C 
ATOM     83  F12 UNL A   1      44.424  24.113  24.272  1.00  0.00    +0.000 F 
ATOM     84  C56 UNL A   1      42.768  23.121  25.623  1.00  0.00    +0.000 C 
ATOM     85  F13 UNL A   1      42.653  22.101  24.763  1.00  0.00    +0.000 F 
ATOM     86  C57 UNL A   1      42.020  23.139  26.786  1.00  0.00    +0.000 C 
ATOM     87  F14 UNL A   1      41.174  22.133  27.052  1.00  0.00    +0.000 F 
ATOM     88  C58 UNL A   1      42.193  24.163  27.722  1.00  0.00    +0.000 C 
ATOM     89  F15 UNL A   1      41.508  24.066  28.870  1.00  0.00    +0.000 F 
ENDBRANCH   78   79
TORSDOF 32
ENDMDL
MODEL 5
REMARK VINA RESULT:      -5.7      4.635      8.427
ROOT
ATOM    153  H43 UNL A   1      11.915  -2.096  21.561  1.00  0.00    +0.000 H 
ATOM    154  H44 UNL A   1      10.436  -4.181  22.283  1.00  0.00    +0.000 H 
ATOM    155  H45 UNL A   1      10.827  -1.661  25.453  1.00  0.00    +0.000 H 
ATOM    156  H46 UNL A   1       2.981  -1.721  24.744  1.00  0.00    +0.000 H 
ATOM    157  H47 UNL A   1       3.777  -1.100  22.408  1.00  0.00    +0.000 H 
ATOM    158  H48 UNL A   1       7.149  -1.286  24.825  1.00  0.00    +0.000 H 
ATOM    159  H49 UNL A   1       7.406  -0.659  27.974  1.00  0.00    +0.000 H 
ATOM    160  H50 UNL A   1       9.550  -1.421  26.760  1.00  0.00    +0.000 H 
ATOM    161  H51 UNL A   1       9.948   2.790  22.597  1.00  0.00    +0.000 H 
ATOM    162  H52 UNL A   1       7.374   2.570  22.716  1.00  0.00    +0.000 H 
ATOM     42  C29 UNL A   1       6.521  -0.164  22.345  1.00  0.00    +0.000 C 
ATOM     43  C30 UNL A   1       7.889   0.362  22.574  1.00  0.00    +0.000 C 
ATOM     44  N8  UNL A   1       8.993  -0.305  22.510  1.00  0.00    +0.000 N 
ATOM     45  C31 UNL A   1       9.995   0.604  22.828  1.00  0.00    +0.000 C 
ATOM     46  C32 UNL A   1      11.100   0.180  23.500  1.00  0.00    +0.000 C 
ATOM     58  C39 UNL A   1      11.205  -1.260  23.430  1.00  0.00    +0.000 C 
ATOM     59  C40 UNL A   1      11.359  -2.193  22.425  1.00  0.00    +0.000 C 
ATOM     60  C41 UNL A   1      10.585  -3.322  22.834  1.00  0.00    +0.000 C 
ATOM     61  C42 UNL A   1      10.064  -3.066  24.103  1.00  0.00    +0.000 C 
ATOM     62  N9  UNL A   1      10.720  -1.941  24.515  1.00  0.00    +0.000 N 
ATOM     63  C43 UNL A   1       9.002  -3.680  24.868  1.00  0.00    +0.000 C 
ATOM     75  C50 UNL A   1       8.394  -3.125  25.960  1.00  0.00    +0.000 C 
ATOM     76  N10 UNL A   1       7.111  -3.514  26.311  1.00  0.00    +0.000 N 
ATOM     77  C51 UNL A   1       6.592  -2.453  26.865  1.00  0.00    +0.000 C 
ATOM     78  C52 UNL A   1       5.193  -2.020  26.641  1.00  0.00    +0.000 C 
ATOM     90  C59 UNL A   1       5.112  -1.650  25.335  1.00  0.00    +0.000 C 
ATOM     91  C60 UNL A   1       3.959  -1.538  24.471  1.00  0.00    +0.000 C 
ATOM     92  C61 UNL A   1       4.376  -1.155  23.247  1.00  0.00    +0.000 C 
ATOM     93  C62 UNL A   1       5.805  -0.827  23.283  1.00  0.00    +0.000 C 
ATOM     94  N11 UNL A   1       6.210  -1.257  24.531  1.00  0.00    +0.000 N 
ATOM     95  C63 UNL A   1       7.540  -1.463  27.340  1.00  0.00    +0.000 C 
ATOM     96  C64 UNL A   1       8.636  -1.898  26.715  1.00  0.00    +0.000 C 
ATOM     97  C65 UNL A   1       9.413   1.910  22.682  1.00  0.00    +0.000 C 
ATOM     98  C66 UNL A   1       8.081   1.819  22.669  1.00  0.00    +0.000 C 
ENDROOT
BRANCH   42   41
ATOM     99  C67 UNL A   1       5.041   1.339  21.144  1.00  0.00    +0.000 C 
ATOM    164  H54 UNL A   1       3.693   2.453  20.007  1.00  0.00    +0.000 H 
ATOM    100  C68 UNL A   1       4.507   1.820  19.978  1.00  0.00    +0.000 C 
ATOM     38  C25 UNL A   1       5.060   1.456  18.752  1.00  0.00    +0.000 C 
ATOM     39  C26 UNL A   1       6.011   0.435  18.674  1.00  0.00    +0.000 C 
ATOM     40  C27 UNL A   1       6.437  -0.174  19.851  1.00  0.00    +0.000 C 
ATOM    163  H53 UNL A   1       4.768   1.747  22.051  1.00  0.00    +0.000 H 
ATOM     41  C28 UNL A   1       5.954   0.297  21.085  1.00  0.00    +0.000 C 
ATOM    151  H41 UNL A   1       6.391   0.138  17.762  1.00  0.00    +0.000 H 
ATOM    152  H42 UNL A   1       7.099  -0.964  19.819  1.00  0.00    +0.000 H 
BRANCH   38   36
ATOM     36  C24 UNL A   1       4.615   2.173  17.544  1.00  0.00    +0.000 C 
ATOM     37  O5  UNL A   1       4.091   3.277  17.637  1.00  0.00    +0.000 O 
BRANCH   36   35
ATOM     35  N7  UNL A   1       4.804   1.589  16.309  1.00  0.00    +0.000 N 
ATOM    150  H40 UNL A   1       5.712   1.650  15.934  1.00  0.00    +0.000 H 
BRANCH   35   34
ATOM     34  C23 UNL A   1       3.815   0.888  15.489  1.00  0.00    +0.000 C 
ATOM    148  H38 UNL A   1       2.868   1.376  15.596  1.00  0.00    +0.000 H 
ATOM    149  H39 UNL A   1       4.147   0.914  14.473  1.00  0.00    +0.000 H 
BRANCH   34   33
ATOM     33  C22 UNL A   1       3.667  -0.568  15.902  1.00  0.00    +0.000 C 
ATOM    146  H36 UNL A   1       4.142  -0.700  16.852  1.00  0.00    +0.000 H 
ATOM    147  H37 UNL A   1       2.619  -0.779  15.938  1.00  0.00    +0.000 H 
BRANCH   33   32
ATOM    145  H35 UNL A   1       4.643  -0.957  14.091  1.00  0.00    +0.000 H 
ATOM    144  H34 UNL A   1       3.540  -2.268  14.637  1.00  0.00    +0.000 H 
ATOM     32  C21 UNL A   1       4.292  -1.556  14.906  1.00  0.00    +0.000 C 
BRANCH   32   31
ATOM    143  H33 UNL A   1       5.203  -2.862  16.279  1.00  0.00    +0.000 H 
ATOM    142  H32 UNL A   1       6.303  -1.632  15.593  1.00  0.00    +0.000 H 
ATOM     31  C20 UNL A   1       5.518  -2.333  15.404  1.00  0.00    +0.000 C 
BRANCH   31   30
ATOM    140  H30 UNL A   1       5.208  -3.874  13.977  1.00  0.00    +0.000 H 
ATOM    141  H31 UNL A   1       6.658  -2.875  13.720  1.00  0.00    +0.000 H 
ATOM     30  C19 UNL A   1       6.045  -3.387  14.432  1.00  0.00    +0.000 C 
BRANCH   30   29
ATOM    138  H28 UNL A   1       6.599  -5.422  14.771  1.00  0.00    +0.000 H 
ATOM    139  H29 UNL A   1       7.940  -4.284  14.802  1.00  0.00    +0.000 H 
ATOM     29  C18 UNL A   1       6.924  -4.455  15.092  1.00  0.00    +0.000 C 
BRANCH   29   28
ATOM    137  H27 UNL A   1       7.279  -3.596  16.936  1.00  0.00    +0.000 H 
ATOM     28  N6  UNL A   1       6.841  -4.382  16.535  1.00  0.00    +0.000 N 
BRANCH   28   26
ATOM     26  C17 UNL A   1       6.255  -5.227  17.426  1.00  0.00    +0.000 C 
ATOM     27  O4  UNL A   1       5.517  -6.111  16.991  1.00  0.00    +0.000 O 
BRANCH   26   25
ATOM     25  C16 UNL A   1       6.486  -5.077  18.914  1.00  0.00    +0.000 C 
ATOM    135  H25 UNL A   1       5.566  -5.288  19.417  1.00  0.00    +0.000 H 
ATOM    136  H26 UNL A   1       7.274  -5.757  19.163  1.00  0.00    +0.000 H 
BRANCH   25   24
ATOM    133  H23 UNL A   1       6.768  -3.014  18.559  1.00  0.00    +0.000 H 
ATOM    134  H24 UNL A   1       6.426  -3.503  20.267  1.00  0.00    +0.000 H 
ATOM     24  C15 UNL A   1       6.963  -3.695  19.361  1.00  0.00    +0.000 C 
BRANCH   24   23
ATOM    131  H21 UNL A   1       8.933  -3.027  18.949  1.00  0.00    +0.000 H 
ATOM    132  H22 UNL A   1       8.453  -3.010  20.669  1.00  0.00    +0.000 H 
ATOM     23  C14 UNL A   1       8.433  -3.544  19.742  1.00  0.00    +0.000 C 
BRANCH   23   22
ATOM    129  H19 UNL A   1       9.358  -4.960  21.036  1.00  0.00    +0.000 H 
ATOM    130  H20 UNL A   1       8.536  -5.650  19.620  1.00  0.00    +0.000 H 
ATOM     22  C13 UNL A   1       9.166  -4.868  19.986  1.00  0.00    +0.000 C 
BRANCH   22   21
ATOM     21  C12 UNL A   1      10.486  -4.974  19.247  1.00  0.00    +0.000 C 
ATOM    127  H17 UNL A   1      10.525  -4.199  18.510  1.00  0.00    +0.000 H 
ATOM    128  H18 UNL A   1      11.263  -4.880  19.977  1.00  0.00    +0.000 H 
BRANCH   21   20
ATOM     20  C11 UNL A   1      10.687  -6.315  18.547  1.00  0.00    +0.000 C 
ATOM    125  H15 UNL A   1      11.604  -6.260  17.999  1.00  0.00    +0.000 H 
ATOM    126  H16 UNL A   1      10.679  -7.045  19.330  1.00  0.00    +0.000 H 
BRANCH   20   19
ATOM     19  C10 UNL A   1       9.586  -6.751  17.573  1.00  0.00    +0.000 C 
ATOM    124  H14 UNL A   1       9.753  -6.186  16.680  1.00  0.00    +0.000 H 
ATOM    123  H13 UNL A   1       8.643  -6.563  18.042  1.00  0.00    +0.000 H 
BRANCH   19   18
ATOM    121  H11 UNL A   1      10.537  -8.644  17.471  1.00  0.00    +0.000 H 
ATOM     18  C9  UNL A   1       9.610  -8.221  17.142  1.00  0.00    +0.000 C 
ATOM    122  H12 UNL A   1       8.743  -8.665  17.586  1.00  0.00    +0.000 H 
BRANCH   18   17
ATOM     17  C8  UNL A   1       9.483  -8.485  15.643  1.00  0.00    +0.000 C 
ATOM    119  H9  UNL A   1      10.314  -9.090  15.345  1.00  0.00    +0.000 H 
ATOM    120  H10 UNL A   1       8.531  -8.953  15.511  1.00  0.00    +0.000 H 
BRANCH   17   16
ATOM    117  H7  UNL A   1       8.451  -7.098  14.439  1.00  0.00    +0.000 H 
ATOM    118  H8  UNL A   1       9.870  -6.466  15.349  1.00  0.00    +0.000 H 
ATOM     16  C7  UNL A   1       9.462  -7.255  14.752  1.00  0.00    +0.000 C 
BRANCH   16   15
ATOM    116  H6  UNL A   1      10.628  -8.191  13.323  1.00  0.00    +0.000 H 
ATOM     15  N5  UNL A   1      10.283  -7.303  13.569  1.00  0.00    +0.000 N 
BRANCH   15   13
ATOM     13  C6  UNL A   1      10.644  -6.283  12.752  1.00  0.00    +0.000 C 
ATOM     14  O3  UNL A   1      11.797  -6.287  12.308  1.00  0.00    +0.000 O 
BRANCH   13   12
ATOM    115  H5  UNL A   1       9.073  -5.723  11.697  1.00  0.00    +0.000 H 
ATOM     12  N4  UNL A   1       9.766  -5.357  12.291  1.00  0.00    +0.000 N 
BRANCH   12   11
ATOM    101  C69 UNL A   1       8.739  -3.156  11.840  1.00  0.00    +0.000 C 
ATOM    102  C70 UNL A   1       8.845  -1.924  12.458  1.00  0.00    +0.000 C 
ATOM    165  H55 UNL A   1       8.114  -3.411  11.058  1.00  0.00    +0.000 H 
ATOM      9  N2  UNL A   1       9.754  -2.124  13.488  1.00  0.00    +0.000 N 
ATOM     10  N3  UNL A   1      10.436  -3.277  13.322  1.00  0.00    +0.000 N 
ATOM     11  C5  UNL A   1       9.665  -3.998  12.504  1.00  0.00    +0.000 C 
BRANCH    9    8
ATOM      5  C1  UNL A   1      10.471   0.165  16.944  1.00  0.00    +0.000 C 
ATOM      6  C2  UNL A   1      11.131   0.484  15.755  1.00  0.00    +0.000 C 
ATOM      7  C3  UNL A   1      10.879  -0.264  14.608  1.00  0.00    +0.000 C 
ATOM      8  C4  UNL A   1       9.952  -1.319  14.644  1.00  0.00    +0.000 C 
ATOM    171  H61 UNL A   1       8.514  -2.325  15.827  1.00  0.00    +0.000 H 
ATOM    172  H62 UNL A   1       9.017  -1.071  17.856  1.00  0.00    +0.000 H 
ATOM    109  C77 UNL A   1       9.239  -1.591  15.817  1.00  0.00    +0.000 C 
ATOM    110  C78 UNL A   1       9.516  -0.858  16.979  1.00  0.00    +0.000 C 
ATOM    113  H3  UNL A   1      11.801   1.269  15.727  1.00  0.00    +0.000 H 
ATOM    114  H4  UNL A   1      11.374  -0.044  13.730  1.00  0.00    +0.000 H 
BRANCH    5    2
ATOM      2  S1  UNL A   1      10.843   1.133  18.373  1.00  0.00    +0.000 S 
ATOM      3  O1  UNL A   1      12.240   0.975  18.684  1.00  0.00    +0.000 O 
ATOM      4  O2  UNL A   1       9.791   0.930  19.346  1.00  0.00    +0.000 O 
BRANCH    2    1
ATOM      1  N1  UNL A   1      10.693   2.721  17.855  1.00  0.00    +0.000 N 
ATOM    111  H1  UNL A   1      11.071   3.349  18.564  1.00  0.00    +0.000 H 
ATOM    112  H2  UNL A   1       9.707   2.937  17.701  1.00  0.00    +0.000 H 
ENDBRANCH    2    1
ENDBRANCH    5    2
ENDBRANCH    9    8
BRANCH  102  103
ATOM    166  H56 UNL A   1       9.763   0.014  10.889  1.00  0.00    +0.000 H 
ATOM    103  C71 UNL A   1       8.220  -0.630  12.185  1.00  0.00    +0.000 C 
ATOM    104  C72 UNL A   1       8.893   0.296  11.368  1.00  0.00    +0.000 C 
ATOM    105  C73 UNL A   1       8.402   1.586  11.197  1.00  0.00    +0.000 C 
ATOM    170  H60 UNL A   1       6.493  -0.937  13.360  1.00  0.00    +0.000 H 
ATOM    107  C75 UNL A   1       6.515   1.034  12.599  1.00  0.00    +0.000 C 
ATOM    108  C76 UNL A   1       7.014  -0.259  12.783  1.00  0.00    +0.000 C 
ATOM    167  H57 UNL A   1       8.917   2.265  10.615  1.00  0.00    +0.000 H 
ATOM    169  H59 UNL A   1       5.624   1.308  13.043  1.00  0.00    +0.000 H 
ATOM    106  C74 UNL A   1       7.213   1.957  11.816  1.00  0.00    +0.000 C 
ATOM    168  H58 UNL A   1       6.847   2.914  11.698  1.00  0.00    +0.000 H 
ENDBRANCH  102  103
ENDBRANCH   12   11
ENDBRANCH   13   12
ENDBRANCH   15   13
ENDBRANCH   16   15
ENDBRANCH   17   16
ENDBRANCH   18   17
ENDBRANCH   19   18
ENDBRANCH   20   19
ENDBRANCH   21   20
ENDBRANCH   22   21
ENDBRANCH   23   22
ENDBRANCH   24   23
ENDBRANCH   25   24
ENDBRANCH   26   25
ENDBRANCH   28   26
ENDBRANCH   29   28
ENDBRANCH   30   29
ENDBRANCH   31   30
ENDBRANCH   32   31
ENDBRANCH   33   32
ENDBRANCH   34   33
ENDBRANCH   35   34
ENDBRANCH   36   35
ENDBRANCH   38   36
ENDBRANCH   42   41
BRANCH   46   47
ATOM     47  C33 UNL A   1      11.777   0.969  24.607  1.00  0.00    +0.000 C 
ATOM     48  C34 UNL A   1      13.188   1.000  24.641  1.00  0.00    +0.000 C 
ATOM     49  F1  UNL A   1      13.906   0.582  23.588  1.00  0.00    +0.000 F 
ATOM     50  C35 UNL A   1      13.895   1.355  25.793  1.00  0.00    +0.000 C 
ATOM     51  F2  UNL A   1      15.229   1.228  25.819  1.00  0.00    +0.000 F 
ATOM     52  C36 UNL A   1      13.226   1.755  26.934  1.00  0.00    +0.000 C 
ATOM     53  F3  UNL A   1      13.899   2.028  28.059  1.00  0.00    +0.000 F 
ATOM     54  C37 UNL A   1      11.850   1.812  26.921  1.00  0.00    +0.000 C 
ATOM     55  F4  UNL A   1      11.183   2.158  28.032  1.00  0.00    +0.000 F 
ATOM     56  C38 UNL A   1      11.139   1.407  25.791  1.00  0.00    +0.000 C 
ATOM     57  F5  UNL A   1       9.815   1.343  25.962  1.00  0.00    +0.000 F 
ENDBRANCH   46   47
BRANCH   63   64
ATOM     65  C45 UNL A   1       7.427  -4.997  23.303  1.00  0.00    +0.000 C 
ATOM     66  F6  UNL A   1       6.923  -3.874  22.776  1.00  0.00    +0.000 F 
ATOM     67  C46 UNL A   1       6.986  -6.217  22.786  1.00  0.00    +0.000 C 
ATOM     68  F7  UNL A   1       6.038  -6.242  21.837  1.00  0.00    +0.000 F 
ATOM     69  C47 UNL A   1       7.548  -7.404  23.227  1.00  0.00    +0.000 C 
ATOM     70  F8  UNL A   1       7.154  -8.572  22.703  1.00  0.00    +0.000 F 
ATOM     71  C48 UNL A   1       8.536  -7.377  24.197  1.00  0.00    +0.000 C 
ATOM     72  F9  UNL A   1       9.118  -8.516  24.595  1.00  0.00    +0.000 F 
ATOM     73  C49 UNL A   1       8.949  -6.165  24.743  1.00  0.00    +0.000 C 
ATOM     74  F10 UNL A   1       9.919  -6.175  25.671  1.00  0.00    +0.000 F 
ATOM     64  C44 UNL A   1       8.407  -4.946  24.311  1.00  0.00    +0.000 C 
ENDBRANCH   63   64
BRANCH   78   79
ATOM     79  C53 UNL A   1       4.262  -1.766  27.767  1.00  0.00    +0.000 C 
ATOM     80  C54 UNL A   1       3.783  -2.820  28.568  1.00  0.00    +0.000 C 
ATOM     81  F11 UNL A   1       3.952  -4.093  28.180  1.00  0.00    +0.000 F 
ATOM     82  C55 UNL A   1       3.194  -2.588  29.816  1.00  0.00    +0.000 C 
ATOM     83  F12 UNL A   1       2.813  -3.623  30.580  1.00  0.00    +0.000 F 
ATOM     84  C56 UNL A   1       3.063  -1.298  30.299  1.00  0.00    +0.000 C 
ATOM     85  F13 UNL A   1       2.566  -1.078  31.524  1.00  0.00    +0.000 F 
ATOM     86  C57 UNL A   1       3.492  -0.237  29.522  1.00  0.00    +0.000 C 
ATOM     87  F14 UNL A   1       3.408   1.015  29.996  1.00  0.00    +0.000 F 
ATOM     88  C58 UNL A   1       4.082  -0.467  28.276  1.00  0.00    +0.000 C 
ATOM     89  F15 UNL A   1       4.564   0.599  27.620  1.00  0.00    +0.000 F 
ENDBRANCH   78   79
TORSDOF 32
ENDMDL
MODEL 6
REMARK VINA RESULT:      -5.6     47.260     52.567
ROOT
ATOM    153  H43 UNL A   1      13.084  49.319   9.381  1.00  0.00    +0.000 H 
ATOM    154  H44 UNL A   1      11.996  48.651   7.051  1.00  0.00    +0.000 H 
ATOM    155  H45 UNL A   1      10.010  46.744  10.047  1.00  0.00    +0.000 H 
ATOM    156  H46 UNL A   1       4.054  50.792   6.851  1.00  0.00    +0.000 H 
ATOM    157  H47 UNL A   1       5.805  52.583   7.305  1.00  0.00    +0.000 H 
ATOM    158  H48 UNL A   1       7.281  49.026   8.861  1.00  0.00    +0.000 H 
ATOM    159  H49 UNL A   1       5.649  46.534  10.087  1.00  0.00    +0.000 H 
ATOM    160  H50 UNL A   1       8.218  46.317  10.004  1.00  0.00    +0.000 H 
ATOM    161  H51 UNL A   1       9.770  51.047  13.235  1.00  0.00    +0.000 H 
ATOM    162  H52 UNL A   1       7.676  52.015  12.068  1.00  0.00    +0.000 H 
ATOM     42  C29 UNL A   1       7.837  51.744   9.197  1.00  0.00    +0.000 C 
ATOM     43  C30 UNL A   1       8.695  51.131  10.239  1.00  0.00    +0.000 C 
ATOM     44  N8  UNL A   1       9.782  50.461  10.048  1.00  0.00    +0.000 N 
ATOM     45  C31 UNL A   1      10.206  50.071  11.314  1.00  0.00    +0.000 C 
ATOM     46  C32 UNL A   1      10.840  48.877  11.473  1.00  0.00    +0.000 C 
ATOM     58  C39 UNL A   1      11.306  48.386  10.197  1.00  0.00    +0.000 C 
ATOM     59  C40 UNL A   1      12.193  48.820   9.232  1.00  0.00    +0.000 C 
ATOM     60  C41 UNL A   1      11.616  48.431   7.985  1.00  0.00    +0.000 C 
ATOM     61  C42 UNL A   1      10.452  47.705   8.241  1.00  0.00    +0.000 C 
ATOM     62  N9  UNL A   1      10.493  47.467   9.586  1.00  0.00    +0.000 N 
ATOM     63  C43 UNL A   1       9.328  47.331   7.412  1.00  0.00    +0.000 C 
ATOM     75  C50 UNL A   1       8.118  46.894   7.875  1.00  0.00    +0.000 C 
ATOM     76  N10 UNL A   1       6.983  47.038   7.091  1.00  0.00    +0.000 N 
ATOM     77  C51 UNL A   1       6.013  47.183   7.951  1.00  0.00    +0.000 C 
ATOM     78  C52 UNL A   1       4.898  48.141   7.766  1.00  0.00    +0.000 C 
ATOM     90  C59 UNL A   1       5.445  49.383   7.839  1.00  0.00    +0.000 C 
ATOM     91  C60 UNL A   1       4.949  50.647   7.345  1.00  0.00    +0.000 C 
ATOM     92  C61 UNL A   1       5.852  51.606   7.635  1.00  0.00    +0.000 C 
ATOM     93  C62 UNL A   1       6.912  51.056   8.488  1.00  0.00    +0.000 C 
ATOM     94  N11 UNL A   1       6.672  49.696   8.475  1.00  0.00    +0.000 N 
ATOM     95  C63 UNL A   1       6.289  46.716   9.297  1.00  0.00    +0.000 C 
ATOM     96  C64 UNL A   1       7.615  46.593   9.214  1.00  0.00    +0.000 C 
ATOM     97  C65 UNL A   1       9.502  50.907  12.247  1.00  0.00    +0.000 C 
ATOM     98  C66 UNL A   1       8.452  51.477  11.651  1.00  0.00    +0.000 C 
ENDROOT
BRANCH   42   41
ATOM     99  C67 UNL A   1       6.914  53.918   9.757  1.00  0.00    +0.000 C 
ATOM    164  H54 UNL A   1       6.161  55.844  10.029  1.00  0.00    +0.000 H 
ATOM    100  C68 UNL A   1       6.992  55.285   9.780  1.00  0.00    +0.000 C 
ATOM     38  C25 UNL A   1       8.190  55.924   9.467  1.00  0.00    +0.000 C 
ATOM     39  C26 UNL A   1       9.256  55.208   8.915  1.00  0.00    +0.000 C 
ATOM     40  C27 UNL A   1       9.118  53.834   8.734  1.00  0.00    +0.000 C 
ATOM    163  H53 UNL A   1       6.101  53.433  10.168  1.00  0.00    +0.000 H 
ATOM     41  C28 UNL A   1       7.944  53.196   9.173  1.00  0.00    +0.000 C 
ATOM    151  H41 UNL A   1      10.129  55.688   8.646  1.00  0.00    +0.000 H 
ATOM    152  H42 UNL A   1       9.868  53.290   8.282  1.00  0.00    +0.000 H 
BRANCH   38   36
ATOM     36  C24 UNL A   1       8.302  57.369   9.732  1.00  0.00    +0.000 C 
ATOM     37  O5  UNL A   1       8.731  57.770  10.807  1.00  0.00    +0.000 O 
BRANCH   36   35
ATOM     35  N7  UNL A   1       7.927  58.262   8.749  1.00  0.00    +0.000 N 
ATOM    150  H40 UNL A   1       7.525  59.104   9.059  1.00  0.00    +0.000 H 
BRANCH   35   34
ATOM     34  C23 UNL A   1       8.056  58.103   7.300  1.00  0.00    +0.000 C 
ATOM    148  H38 UNL A   1       8.138  57.061   7.071  1.00  0.00    +0.000 H 
ATOM    149  H39 UNL A   1       7.191  58.531   6.840  1.00  0.00    +0.000 H 
BRANCH   34   33
ATOM     33  C22 UNL A   1       9.283  58.823   6.760  1.00  0.00    +0.000 C 
ATOM    146  H36 UNL A   1       9.101  59.079   5.737  1.00  0.00    +0.000 H 
ATOM    147  H37 UNL A   1       9.437  59.685   7.375  1.00  0.00    +0.000 H 
BRANCH   33   32
ATOM    145  H35 UNL A   1      11.141  58.267   5.970  1.00  0.00    +0.000 H 
ATOM    144  H34 UNL A   1      10.284  56.952   6.848  1.00  0.00    +0.000 H 
ATOM     32  C21 UNL A   1      10.567  57.984   6.829  1.00  0.00    +0.000 C 
BRANCH   32   31
ATOM    143  H33 UNL A   1      11.030  57.735   8.865  1.00  0.00    +0.000 H 
ATOM    142  H32 UNL A   1      11.553  59.300   8.178  1.00  0.00    +0.000 H 
ATOM     31  C20 UNL A   1      11.479  58.242   8.036  1.00  0.00    +0.000 C 
BRANCH   31   30
ATOM    140  H30 UNL A   1      13.493  58.399   7.386  1.00  0.00    +0.000 H 
ATOM    141  H31 UNL A   1      13.246  57.488   8.895  1.00  0.00    +0.000 H 
ATOM     30  C19 UNL A   1      12.892  57.680   7.903  1.00  0.00    +0.000 C 
BRANCH   30   29
ATOM    138  H28 UNL A   1      12.213  56.348   6.377  1.00  0.00    +0.000 H 
ATOM    139  H29 UNL A   1      13.939  56.261   6.710  1.00  0.00    +0.000 H 
ATOM     29  C18 UNL A   1      12.963  56.353   7.140  1.00  0.00    +0.000 C 
BRANCH   29   28
ATOM    137  H27 UNL A   1      11.798  55.006   8.184  1.00  0.00    +0.000 H 
ATOM     28  N6  UNL A   1      12.744  55.228   8.024  1.00  0.00    +0.000 N 
BRANCH   28   26
ATOM     26  C17 UNL A   1      13.637  54.430   8.670  1.00  0.00    +0.000 C 
ATOM     27  O4  UNL A   1      14.704  54.925   9.034  1.00  0.00    +0.000 O 
BRANCH   26   25
ATOM     25  C16 UNL A   1      13.339  52.968   8.921  1.00  0.00    +0.000 C 
ATOM    135  H25 UNL A   1      13.000  52.534   8.003  1.00  0.00    +0.000 H 
ATOM    136  H26 UNL A   1      14.247  52.537   9.286  1.00  0.00    +0.000 H 
BRANCH   25   24
ATOM    133  H23 UNL A   1      11.343  52.572   9.489  1.00  0.00    +0.000 H 
ATOM    134  H24 UNL A   1      12.639  51.833  10.513  1.00  0.00    +0.000 H 
ATOM     24  C15 UNL A   1      12.281  52.696   9.990  1.00  0.00    +0.000 C 
BRANCH   24   23
ATOM    131  H21 UNL A   1      12.505  54.671  10.726  1.00  0.00    +0.000 H 
ATOM    132  H22 UNL A   1      11.032  53.812  11.253  1.00  0.00    +0.000 H 
ATOM     23  C14 UNL A   1      12.085  53.752  11.075  1.00  0.00    +0.000 C 
BRANCH   23   22
ATOM    129  H19 UNL A   1      12.197  53.918  13.195  1.00  0.00    +0.000 H 
ATOM    130  H20 UNL A   1      12.693  52.346  12.530  1.00  0.00    +0.000 H 
ATOM     22  C13 UNL A   1      12.734  53.409  12.421  1.00  0.00    +0.000 C 
BRANCH   22   21
ATOM     21  C12 UNL A   1      14.194  53.811  12.507  1.00  0.00    +0.000 C 
ATOM    127  H17 UNL A   1      14.489  54.223  11.565  1.00  0.00    +0.000 H 
ATOM    128  H18 UNL A   1      14.278  54.519  13.305  1.00  0.00    +0.000 H 
BRANCH   21   20
ATOM     20  C11 UNL A   1      15.128  52.651  12.838  1.00  0.00    +0.000 C 
ATOM    125  H15 UNL A   1      16.064  53.066  13.148  1.00  0.00    +0.000 H 
ATOM    126  H16 UNL A   1      14.620  52.086  13.593  1.00  0.00    +0.000 H 
BRANCH   20   19
ATOM     19  C10 UNL A   1      15.411  51.655  11.707  1.00  0.00    +0.000 C 
ATOM    124  H14 UNL A   1      16.424  51.341  11.847  1.00  0.00    +0.000 H 
ATOM    123  H13 UNL A   1      15.231  52.156  10.779  1.00  0.00    +0.000 H 
BRANCH   19   18
ATOM    121  H11 UNL A   1      14.393  50.104  12.735  1.00  0.00    +0.000 H 
ATOM     18  C9  UNL A   1      14.576  50.369  11.714  1.00  0.00    +0.000 C 
ATOM    122  H12 UNL A   1      13.692  50.598  11.155  1.00  0.00    +0.000 H 
BRANCH   18   17
ATOM     17  C8  UNL A   1      15.198  49.159  11.021  1.00  0.00    +0.000 C 
ATOM    119  H9  UNL A   1      15.440  48.440  11.775  1.00  0.00    +0.000 H 
ATOM    120  H10 UNL A   1      14.468  48.824  10.315  1.00  0.00    +0.000 H 
BRANCH   17   16
ATOM    117  H7  UNL A   1      16.500  50.483  10.026  1.00  0.00    +0.000 H 
ATOM    118  H8  UNL A   1      17.260  49.051  10.809  1.00  0.00    +0.000 H 
ATOM     16  C7  UNL A   1      16.456  49.431  10.215  1.00  0.00    +0.000 C 
BRANCH   16   15
ATOM    116  H6  UNL A   1      17.206  48.009   8.914  1.00  0.00    +0.000 H 
ATOM     15  N5  UNL A   1      16.566  48.755   8.947  1.00  0.00    +0.000 N 
BRANCH   15   13
ATOM     13  C6  UNL A   1      15.903  49.014   7.793  1.00  0.00    +0.000 C 
ATOM     14  O3  UNL A   1      15.080  49.936   7.800  1.00  0.00    +0.000 O 
BRANCH   13   12
ATOM    115  H5  UNL A   1      16.176  47.431   6.647  1.00  0.00    +0.000 H 
ATOM     12  N4  UNL A   1      16.205  48.414   6.615  1.00  0.00    +0.000 N 
BRANCH   12   11
ATOM    101  C69 UNL A   1      16.574  48.167   4.184  1.00  0.00    +0.000 C 
ATOM    102  C70 UNL A   1      16.784  49.079   3.167  1.00  0.00    +0.000 C 
ATOM    165  H55 UNL A   1      16.461  47.144   4.093  1.00  0.00    +0.000 H 
ATOM      9  N2  UNL A   1      16.786  50.316   3.799  1.00  0.00    +0.000 N 
ATOM     10  N3  UNL A   1      16.924  50.184   5.135  1.00  0.00    +0.000 N 
ATOM     11  C5  UNL A   1      16.543  48.927   5.380  1.00  0.00    +0.000 C 
BRANCH    9    8
ATOM      5  C1  UNL A   1      16.205  54.164   2.203  1.00  0.00    +0.000 C 
ATOM      6  C2  UNL A   1      17.492  53.748   2.549  1.00  0.00    +0.000 C 
ATOM      7  C3  UNL A   1      17.684  52.467   3.061  1.00  0.00    +0.000 C 
ATOM      8  C4  UNL A   1      16.593  51.595   3.208  1.00  0.00    +0.000 C 
ATOM    171  H61 UNL A   1      14.525  51.329   2.844  1.00  0.00    +0.000 H 
ATOM    172  H62 UNL A   1      14.175  53.599   2.029  1.00  0.00    +0.000 H 
ATOM    109  C77 UNL A   1      15.316  51.990   2.794  1.00  0.00    +0.000 C 
ATOM    110  C78 UNL A   1      15.118  53.289   2.308  1.00  0.00    +0.000 C 
ATOM    113  H3  UNL A   1      18.295  54.385   2.427  1.00  0.00    +0.000 H 
ATOM    114  H4  UNL A   1      18.631  52.157   3.333  1.00  0.00    +0.000 H 
BRANCH    5    2
ATOM      2  S1  UNL A   1      16.015  55.806   1.579  1.00  0.00    +0.000 S 
ATOM      3  O1  UNL A   1      16.927  56.672   2.279  1.00  0.00    +0.000 O 
ATOM      4  O2  UNL A   1      14.600  56.084   1.456  1.00  0.00    +0.000 O 
BRANCH    2    1
ATOM      1  N1  UNL A   1      16.609  55.729   0.012  1.00  0.00    +0.000 N 
ATOM    111  H1  UNL A   1      16.151  56.438  -0.561  1.00  0.00    +0.000 H 
ATOM    112  H2  UNL A   1      16.422  54.805  -0.378  1.00  0.00    +0.000 H 
ENDBRANCH    2    1
ENDBRANCH    5    2
ENDBRANCH    9    8
BRANCH  102  103
ATOM    166  H56 UNL A   1      14.965  48.449   1.335  1.00  0.00    +0.000 H 
ATOM    103  C71 UNL A   1      16.991  48.918   1.728  1.00  0.00    +0.000 C 
ATOM    104  C72 UNL A   1      15.909  48.519   0.923  1.00  0.00    +0.000 C 
ATOM    105  C73 UNL A   1      16.094  48.220  -0.423  1.00  0.00    +0.000 C 
ATOM    170  H60 UNL A   1      19.049  49.388   1.719  1.00  0.00    +0.000 H 
ATOM    107  C75 UNL A   1      18.432  48.778  -0.208  1.00  0.00    +0.000 C 
ATOM    108  C76 UNL A   1      18.252  49.066   1.148  1.00  0.00    +0.000 C 
ATOM    167  H57 UNL A   1      15.297  47.905  -1.000  1.00  0.00    +0.000 H 
ATOM    169  H59 UNL A   1      19.366  48.886  -0.635  1.00  0.00    +0.000 H 
ATOM    106  C74 UNL A   1      17.358  48.346  -0.988  1.00  0.00    +0.000 C 
ATOM    168  H58 UNL A   1      17.503  48.120  -1.984  1.00  0.00    +0.000 H 
ENDBRANCH  102  103
ENDBRANCH   12   11
ENDBRANCH   13   12
ENDBRANCH   15   13
ENDBRANCH   16   15
ENDBRANCH   17   16
ENDBRANCH   18   17
ENDBRANCH   19   18
ENDBRANCH   20   19
ENDBRANCH   21   20
ENDBRANCH   22   21
ENDBRANCH   23   22
ENDBRANCH   24   23
ENDBRANCH   25   24
ENDBRANCH   26   25
ENDBRANCH   28   26
ENDBRANCH   29   28
ENDBRANCH   30   29
ENDBRANCH   31   30
ENDBRANCH   32   31
ENDBRANCH   33   32
ENDBRANCH   34   33
ENDBRANCH   35   34
ENDBRANCH   36   35
ENDBRANCH   38   36
ENDBRANCH   42   41
BRANCH   46   47
ATOM     47  C33 UNL A   1      10.606  47.939  12.645  1.00  0.00    +0.000 C 
ATOM     48  C34 UNL A   1       9.283  47.545  12.932  1.00  0.00    +0.000 C 
ATOM     49  F1  UNL A   1       8.297  47.764  12.049  1.00  0.00    +0.000 F 
ATOM     50  C35 UNL A   1       8.918  47.018  14.175  1.00  0.00    +0.000 C 
ATOM     51  F2  UNL A   1       7.625  46.797  14.449  1.00  0.00    +0.000 F 
ATOM     52  C36 UNL A   1       9.869  46.805  15.154  1.00  0.00    +0.000 C 
ATOM     53  F3  UNL A   1       9.511  46.367  16.368  1.00  0.00    +0.000 F 
ATOM     54  C37 UNL A   1      11.187  47.105  14.889  1.00  0.00    +0.000 C 
ATOM     55  F4  UNL A   1      12.116  46.942  15.841  1.00  0.00    +0.000 F 
ATOM     56  C38 UNL A   1      11.546  47.681  13.670  1.00  0.00    +0.000 C 
ATOM     57  F5  UNL A   1      12.818  48.085  13.601  1.00  0.00    +0.000 F 
ENDBRANCH   46   47
BRANCH   63   64
ATOM     65  C45 UNL A   1       9.570  46.628   4.940  1.00  0.00    +0.000 C 
ATOM     66  F6  UNL A   1       9.617  45.327   5.257  1.00  0.00    +0.000 F 
ATOM     67  C46 UNL A   1       9.595  46.971   3.587  1.00  0.00    +0.000 C 
ATOM     68  F7  UNL A   1       9.729  46.017   2.653  1.00  0.00    +0.000 F 
ATOM     69  C47 UNL A   1       9.449  48.294   3.201  1.00  0.00    +0.000 C 
ATOM     70  F8  UNL A   1       9.432  48.620   1.902  1.00  0.00    +0.000 F 
ATOM     71  C48 UNL A   1       9.296  49.276   4.165  1.00  0.00    +0.000 C 
ATOM     72  F9  UNL A   1       9.108  50.552   3.800  1.00  0.00    +0.000 F 
ATOM     73  C49 UNL A   1       9.312  48.941   5.516  1.00  0.00    +0.000 C 
ATOM     74  F10 UNL A   1       9.147  49.918   6.421  1.00  0.00    +0.000 F 
ATOM     64  C44 UNL A   1       9.447  47.612   5.937  1.00  0.00    +0.000 C 
ENDBRANCH   63   64
BRANCH   78   79
ATOM     79  C53 UNL A   1       3.480  47.714   7.839  1.00  0.00    +0.000 C 
ATOM     80  C54 UNL A   1       2.849  47.092   6.744  1.00  0.00    +0.000 C 
ATOM     81  F11 UNL A   1       3.433  47.100   5.536  1.00  0.00    +0.000 F 
ATOM     82  C55 UNL A   1       1.650  46.384   6.888  1.00  0.00    +0.000 C 
ATOM     83  F12 UNL A   1       1.117  45.747   5.835  1.00  0.00    +0.000 F 
ATOM     84  C56 UNL A   1       1.044  46.281   8.128  1.00  0.00    +0.000 C 
ATOM     85  F13 UNL A   1      -0.064  45.544   8.282  1.00  0.00    +0.000 F 
ATOM     86  C57 UNL A   1       1.619  46.909   9.218  1.00  0.00    +0.000 C 
ATOM     87  F14 UNL A   1       1.064  46.782  10.431  1.00  0.00    +0.000 F 
ATOM     88  C58 UNL A   1       2.817  47.615   9.076  1.00  0.00    +0.000 C 
ATOM     89  F15 UNL A   1       3.370  48.115  10.190  1.00  0.00    +0.000 F 
ENDBRANCH   78   79
TORSDOF 32
ENDMDL
MODEL 7
REMARK VINA RESULT:      -5.5     53.628     59.214
ROOT
ATOM    153  H43 UNL A   1      43.519  37.376  28.062  1.00  0.00    +0.000 H 
ATOM    154  H44 UNL A   1      43.278  39.403  29.763  1.00  0.00    +0.000 H 
ATOM    155  H45 UNL A   1      47.095  38.000  29.891  1.00  0.00    +0.000 H 
ATOM    156  H46 UNL A   1      48.479  45.464  27.784  1.00  0.00    +0.000 H 
ATOM    157  H47 UNL A   1      46.794  44.666  26.050  1.00  0.00    +0.000 H 
ATOM    158  H48 UNL A   1      47.739  41.387  28.416  1.00  0.00    +0.000 H 
ATOM    159  H49 UNL A   1      50.502  40.730  29.935  1.00  0.00    +0.000 H 
ATOM    160  H50 UNL A   1      48.578  39.039  30.235  1.00  0.00    +0.000 H 
ATOM    161  H51 UNL A   1      47.591  37.566  24.570  1.00  0.00    +0.000 H 
ATOM    162  H52 UNL A   1      48.207  40.056  24.247  1.00  0.00    +0.000 H 
ATOM     42  C29 UNL A   1      46.584  41.778  25.903  1.00  0.00    +0.000 C 
ATOM     43  C30 UNL A   1      46.717  40.302  25.945  1.00  0.00    +0.000 C 
ATOM     44  N8  UNL A   1      46.012  39.483  26.651  1.00  0.00    +0.000 N 
ATOM     45  C31 UNL A   1      46.524  38.220  26.378  1.00  0.00    +0.000 C 
ATOM     46  C32 UNL A   1      46.534  37.272  27.355  1.00  0.00    +0.000 C 
ATOM     58  C39 UNL A   1      45.638  37.648  28.424  1.00  0.00    +0.000 C 
ATOM     59  C40 UNL A   1      44.282  37.874  28.546  1.00  0.00    +0.000 C 
ATOM     60  C41 UNL A   1      44.159  38.945  29.483  1.00  0.00    +0.000 C 
ATOM     61  C42 UNL A   1      45.432  39.268  29.957  1.00  0.00    +0.000 C 
ATOM     62  N9  UNL A   1      46.227  38.255  29.502  1.00  0.00    +0.000 N 
ATOM     63  C43 UNL A   1      45.953  40.419  30.661  1.00  0.00    +0.000 C 
ATOM     75  C50 UNL A   1      47.277  40.738  30.779  1.00  0.00    +0.000 C 
ATOM     76  N10 UNL A   1      47.655  42.051  31.009  1.00  0.00    +0.000 N 
ATOM     77  C51 UNL A   1      48.821  42.158  30.433  1.00  0.00    +0.000 C 
ATOM     78  C52 UNL A   1      49.242  43.350  29.661  1.00  0.00    +0.000 C 
ATOM     90  C59 UNL A   1      48.446  43.392  28.560  1.00  0.00    +0.000 C 
ATOM     91  C60 UNL A   1      48.122  44.500  27.691  1.00  0.00    +0.000 C 
ATOM     92  C61 UNL A   1      47.272  44.064  26.739  1.00  0.00    +0.000 C 
ATOM     93  C62 UNL A   1      47.126  42.607  26.825  1.00  0.00    +0.000 C 
ATOM     94  N11 UNL A   1      47.761  42.282  28.007  1.00  0.00    +0.000 N 
ATOM     95  C63 UNL A   1      49.516  40.909  30.183  1.00  0.00    +0.000 C 
ATOM     96  C64 UNL A   1      48.504  40.059  30.368  1.00  0.00    +0.000 C 
ATOM     97  C65 UNL A   1      47.294  38.351  25.172  1.00  0.00    +0.000 C 
ATOM     98  C66 UNL A   1      47.568  39.638  24.942  1.00  0.00    +0.000 C 
ENDROOT
BRANCH   42   41
ATOM     99  C67 UNL A   1      44.617  42.369  24.608  1.00  0.00    +0.000 C 
ATOM    164  H54 UNL A   1      43.009  42.751  23.335  1.00  0.00    +0.000 H 
ATOM    100  C68 UNL A   1      44.030  42.833  23.461  1.00  0.00    +0.000 C 
ATOM     38  C25 UNL A   1      44.808  43.417  22.463  1.00  0.00    +0.000 C 
ATOM     39  C26 UNL A   1      46.202  43.339  22.510  1.00  0.00    +0.000 C 
ATOM     40  C27 UNL A   1      46.802  42.716  23.601  1.00  0.00    +0.000 C 
ATOM    163  H53 UNL A   1      44.040  42.115  25.425  1.00  0.00    +0.000 H 
ATOM     41  C28 UNL A   1      45.998  42.246  24.654  1.00  0.00    +0.000 C 
ATOM    151  H41 UNL A   1      46.777  43.736  21.750  1.00  0.00    +0.000 H 
ATOM    152  H42 UNL A   1      47.826  42.600  23.637  1.00  0.00    +0.000 H 
BRANCH   38   36
ATOM     36  C24 UNL A   1      44.122  44.113  21.360  1.00  0.00    +0.000 C 
ATOM     37  O5  UNL A   1      44.706  44.976  20.715  1.00  0.00    +0.000 O 
BRANCH   36   35
ATOM     35  N7  UNL A   1      42.820  43.772  21.058  1.00  0.00    +0.000 N 
ATOM    150  H40 UNL A   1      42.177  43.811  21.802  1.00  0.00    +0.000 H 
BRANCH   35   34
ATOM     34  C23 UNL A   1      42.281  43.358  19.762  1.00  0.00    +0.000 C 
ATOM    148  H38 UNL A   1      43.094  43.147  19.100  1.00  0.00    +0.000 H 
ATOM    149  H39 UNL A   1      41.675  42.490  19.916  1.00  0.00    +0.000 H 
BRANCH   34   33
ATOM     33  C22 UNL A   1      41.409  44.439  19.141  1.00  0.00    +0.000 C 
ATOM    146  H36 UNL A   1      40.404  44.298  19.480  1.00  0.00    +0.000 H 
ATOM    147  H37 UNL A   1      41.813  45.382  19.445  1.00  0.00    +0.000 H 
BRANCH   33   32
ATOM    145  H35 UNL A   1      40.396  44.610  17.316  1.00  0.00    +0.000 H 
ATOM    144  H34 UNL A   1      41.788  43.472  17.289  1.00  0.00    +0.000 H 
ATOM     32  C21 UNL A   1      41.409  44.422  17.606  1.00  0.00    +0.000 C 
BRANCH   32   31
ATOM    143  H33 UNL A   1      41.784  45.685  15.967  1.00  0.00    +0.000 H 
ATOM    142  H32 UNL A   1      43.251  45.162  16.844  1.00  0.00    +0.000 H 
ATOM     31  C20 UNL A   1      42.243  45.512  16.918  1.00  0.00    +0.000 C 
BRANCH   31   30
ATOM    140  H30 UNL A   1      41.466  47.460  17.244  1.00  0.00    +0.000 H 
ATOM    141  H31 UNL A   1      42.134  46.653  18.682  1.00  0.00    +0.000 H 
ATOM     30  C19 UNL A   1      42.257  46.857  17.639  1.00  0.00    +0.000 C 
BRANCH   30   29
ATOM    138  H28 UNL A   1      44.341  46.952  17.180  1.00  0.00    +0.000 H 
ATOM    139  H29 UNL A   1      43.432  48.398  16.757  1.00  0.00    +0.000 H 
ATOM     29  C18 UNL A   1      43.573  47.629  17.488  1.00  0.00    +0.000 C 
BRANCH   29   28
ATOM    137  H27 UNL A   1      43.271  48.235  19.439  1.00  0.00    +0.000 H 
ATOM     28  N6  UNL A   1      43.962  48.249  18.737  1.00  0.00    +0.000 N 
BRANCH   28   26
ATOM     26  C17 UNL A   1      45.129  48.847  19.096  1.00  0.00    +0.000 C 
ATOM     27  O4  UNL A   1      45.119  50.059  19.315  1.00  0.00    +0.000 O 
BRANCH   26   25
ATOM     25  C16 UNL A   1      46.413  48.054  19.207  1.00  0.00    +0.000 C 
ATOM    135  H25 UNL A   1      46.184  47.024  19.031  1.00  0.00    +0.000 H 
ATOM    136  H26 UNL A   1      47.085  48.471  18.486  1.00  0.00    +0.000 H 
BRANCH   25   24
ATOM    133  H23 UNL A   1      48.159  48.339  20.361  1.00  0.00    +0.000 H 
ATOM    134  H24 UNL A   1      46.609  48.938  21.076  1.00  0.00    +0.000 H 
ATOM     24  C15 UNL A   1      47.124  48.156  20.557  1.00  0.00    +0.000 C 
BRANCH   24   23
ATOM    131  H21 UNL A   1      46.263  47.133  22.203  1.00  0.00    +0.000 H 
ATOM    132  H22 UNL A   1      46.853  46.099  20.872  1.00  0.00    +0.000 H 
ATOM     23  C14 UNL A   1      47.041  46.951  21.491  1.00  0.00    +0.000 C 
BRANCH   23   22
ATOM    129  H19 UNL A   1      48.883  47.566  22.365  1.00  0.00    +0.000 H 
ATOM    130  H20 UNL A   1      48.050  46.239  23.205  1.00  0.00    +0.000 H 
ATOM     22  C13 UNL A   1      48.333  46.653  22.260  1.00  0.00    +0.000 C 
BRANCH   22   21
ATOM     21  C12 UNL A   1      49.223  45.633  21.575  1.00  0.00    +0.000 C 
ATOM    127  H17 UNL A   1      50.156  46.102  21.339  1.00  0.00    +0.000 H 
ATOM    128  H18 UNL A   1      49.340  44.813  22.253  1.00  0.00    +0.000 H 
BRANCH   21   20
ATOM     20  C11 UNL A   1      48.627  45.069  20.289  1.00  0.00    +0.000 C 
ATOM    125  H15 UNL A   1      47.563  45.149  20.363  1.00  0.00    +0.000 H 
ATOM    126  H16 UNL A   1      49.063  45.645  19.499  1.00  0.00    +0.000 H 
BRANCH   20   19
ATOM     19  C10 UNL A   1      48.964  43.609  19.962  1.00  0.00    +0.000 C 
ATOM    124  H14 UNL A   1      48.608  43.449  18.966  1.00  0.00    +0.000 H 
ATOM    123  H13 UNL A   1      48.494  42.993  20.700  1.00  0.00    +0.000 H 
BRANCH   19   18
ATOM    121  H11 UNL A   1      50.973  43.957  20.545  1.00  0.00    +0.000 H 
ATOM     18  C9  UNL A   1      50.454  43.250  19.931  1.00  0.00    +0.000 C 
ATOM    122  H12 UNL A   1      50.513  42.240  20.280  1.00  0.00    +0.000 H 
BRANCH   18   17
ATOM     17  C8  UNL A   1      51.117  43.249  18.556  1.00  0.00    +0.000 C 
ATOM    119  H9  UNL A   1      51.183  42.234  18.226  1.00  0.00    +0.000 H 
ATOM    120  H10 UNL A   1      50.505  43.871  17.939  1.00  0.00    +0.000 H 
BRANCH   17   16
ATOM    117  H7  UNL A   1      52.542  44.506  17.646  1.00  0.00    +0.000 H 
ATOM    118  H8  UNL A   1      52.654  44.335  19.434  1.00  0.00    +0.000 H 
ATOM     16  C7  UNL A   1      52.510  43.851  18.491  1.00  0.00    +0.000 C 
BRANCH   16   15
ATOM    116  H6  UNL A   1      54.109  42.966  17.521  1.00  0.00    +0.000 H 
ATOM     15  N5  UNL A   1      53.607  42.924  18.367  1.00  0.00    +0.000 N 
BRANCH   15   13
ATOM     13  C6  UNL A   1      54.036  42.001  19.262  1.00  0.00    +0.000 C 
ATOM     14  O3  UNL A   1      54.228  40.852  18.851  1.00  0.00    +0.000 O 
BRANCH   13   12
ATOM    115  H5  UNL A   1      55.356  42.509  20.638  1.00  0.00    +0.000 H 
ATOM     12  N4  UNL A   1      54.398  42.313  20.531  1.00  0.00    +0.000 N 
BRANCH   12   11
ATOM    101  C69 UNL A   1      53.648  41.412  22.706  1.00  0.00    +0.000 C 
ATOM    102  C70 UNL A   1      52.953  41.966  23.765  1.00  0.00    +0.000 C 
ATOM    165  H55 UNL A   1      54.064  40.468  22.658  1.00  0.00    +0.000 H 
ATOM      9  N2  UNL A   1      52.679  43.266  23.363  1.00  0.00    +0.000 N 
ATOM     10  N3  UNL A   1      52.862  43.418  22.034  1.00  0.00    +0.000 N 
ATOM     11  C5  UNL A   1      53.670  42.409  21.699  1.00  0.00    +0.000 C 
BRANCH    9    8
ATOM      5  C1  UNL A   1      51.583  46.624  25.649  1.00  0.00    +0.000 C 
ATOM      6  C2  UNL A   1      50.618  45.671  25.316  1.00  0.00    +0.000 C 
ATOM      7  C3  UNL A   1      50.987  44.551  24.574  1.00  0.00    +0.000 C 
ATOM      8  C4  UNL A   1      52.324  44.374  24.182  1.00  0.00    +0.000 C 
ATOM    171  H61 UNL A   1      54.293  45.132  24.342  1.00  0.00    +0.000 H 
ATOM    172  H62 UNL A   1      53.634  47.134  25.567  1.00  0.00    +0.000 H 
ATOM    109  C77 UNL A   1      53.302  45.294  24.577  1.00  0.00    +0.000 C 
ATOM    110  C78 UNL A   1      52.925  46.435  25.297  1.00  0.00    +0.000 C 
ATOM    113  H3  UNL A   1      49.639  45.795  25.617  1.00  0.00    +0.000 H 
ATOM    114  H4  UNL A   1      50.276  43.850  24.312  1.00  0.00    +0.000 H 
BRANCH    5    2
ATOM      2  S1  UNL A   1      51.058  48.034  26.572  1.00  0.00    +0.000 S 
ATOM      3  O1  UNL A   1      50.241  48.861  25.724  1.00  0.00    +0.000 O 
ATOM      4  O2  UNL A   1      52.194  48.542  27.311  1.00  0.00    +0.000 O 
BRANCH    2    1
ATOM      1  N1  UNL A   1      50.001  47.414  27.718  1.00  0.00    +0.000 N 
ATOM    111  H1  UNL A   1      49.040  47.543  27.401  1.00  0.00    +0.000 H 
ATOM    112  H2  UNL A   1      50.135  47.902  28.604  1.00  0.00    +0.000 H 
ENDBRANCH    2    1
ENDBRANCH    5    2
ENDBRANCH    9    8
BRANCH  102  103
ATOM    166  H56 UNL A   1      50.538  41.067  24.417  1.00  0.00    +0.000 H 
ATOM    103  C71 UNL A   1      52.525  41.421  25.053  1.00  0.00    +0.000 C 
ATOM    104  C72 UNL A   1      51.179  41.051  25.226  1.00  0.00    +0.000 C 
ATOM    105  C73 UNL A   1      50.701  40.661  26.473  1.00  0.00    +0.000 C 
ATOM    170  H60 UNL A   1      54.395  41.578  26.021  1.00  0.00    +0.000 H 
ATOM    107  C75 UNL A   1      52.918  40.934  27.388  1.00  0.00    +0.000 C 
ATOM    108  C76 UNL A   1      53.398  41.339  26.139  1.00  0.00    +0.000 C 
ATOM    167  H57 UNL A   1      49.706  40.414  26.593  1.00  0.00    +0.000 H 
ATOM    169  H59 UNL A   1      53.564  40.876  28.191  1.00  0.00    +0.000 H 
ATOM    106  C74 UNL A   1      51.571  40.606  27.556  1.00  0.00    +0.000 C 
ATOM    168  H58 UNL A   1      51.221  40.323  28.484  1.00  0.00    +0.000 H 
ENDBRANCH  102  103
ENDBRANCH   12   11
ENDBRANCH   13   12
ENDBRANCH   15   13
ENDBRANCH   16   15
ENDBRANCH   17   16
ENDBRANCH   18   17
ENDBRANCH   19   18
ENDBRANCH   20   19
ENDBRANCH   21   20
ENDBRANCH   22   21
ENDBRANCH   23   22
ENDBRANCH   24   23
ENDBRANCH   25   24
ENDBRANCH   26   25
ENDBRANCH   28   26
ENDBRANCH   29   28
ENDBRANCH   30   29
ENDBRANCH   31   30
ENDBRANCH   32   31
ENDBRANCH   33   32
ENDBRANCH   34   33
ENDBRANCH   35   34
ENDBRANCH   36   35
ENDBRANCH   38   36
ENDBRANCH   42   41
BRANCH   46   47
ATOM     47  C33 UNL A   1      47.680  36.301  27.587  1.00  0.00    +0.000 C 
ATOM     48  C34 UNL A   1      48.987  36.822  27.692  1.00  0.00    +0.000 C 
ATOM     49  F1  UNL A   1      49.187  38.138  27.856  1.00  0.00    +0.000 F 
ATOM     50  C35 UNL A   1      50.120  36.022  27.521  1.00  0.00    +0.000 C 
ATOM     51  F2  UNL A   1      51.334  36.589  27.485  1.00  0.00    +0.000 F 
ATOM     52  C36 UNL A   1      49.995  34.663  27.304  1.00  0.00    +0.000 C 
ATOM     53  F3  UNL A   1      51.077  33.908  27.071  1.00  0.00    +0.000 F 
ATOM     54  C37 UNL A   1      48.739  34.100  27.269  1.00  0.00    +0.000 C 
ATOM     55  F4  UNL A   1      48.598  32.791  27.019  1.00  0.00    +0.000 F 
ATOM     56  C38 UNL A   1      47.604  34.903  27.385  1.00  0.00    +0.000 C 
ATOM     57  F5  UNL A   1      46.450  34.268  27.162  1.00  0.00    +0.000 F 
ENDBRANCH   46   47
BRANCH   63   64
ATOM     65  C45 UNL A   1      44.537  42.565  30.422  1.00  0.00    +0.000 C 
ATOM     66  F6  UNL A   1      45.056  42.839  29.219  1.00  0.00    +0.000 F 
ATOM     67  C46 UNL A   1      43.540  43.410  30.912  1.00  0.00    +0.000 C 
ATOM     68  F7  UNL A   1      43.175  44.496  30.212  1.00  0.00    +0.000 F 
ATOM     69  C47 UNL A   1      42.901  43.116  32.106  1.00  0.00    +0.000 C 
ATOM     70  F8  UNL A   1      41.917  43.905  32.557  1.00  0.00    +0.000 F 
ATOM     71  C48 UNL A   1      43.269  41.988  32.821  1.00  0.00    +0.000 C 
ATOM     72  F9  UNL A   1      42.625  41.670  33.952  1.00  0.00    +0.000 F 
ATOM     73  C49 UNL A   1      44.290  41.165  32.355  1.00  0.00    +0.000 C 
ATOM     74  F10 UNL A   1      44.610  40.073  33.067  1.00  0.00    +0.000 F 
ATOM     64  C44 UNL A   1      44.948  41.431  31.146  1.00  0.00    +0.000 C 
ENDBRANCH   63   64
BRANCH   78   79
ATOM     79  C53 UNL A   1      50.504  44.069  29.959  1.00  0.00    +0.000 C 
ATOM     80  C54 UNL A   1      51.462  44.305  28.954  1.00  0.00    +0.000 C 
ATOM     81  F11 UNL A   1      51.373  43.672  27.775  1.00  0.00    +0.000 F 
ATOM     82  C55 UNL A   1      52.478  45.254  29.113  1.00  0.00    +0.000 C 
ATOM     83  F12 UNL A   1      53.329  45.501  28.106  1.00  0.00    +0.000 F 
ATOM     84  C56 UNL A   1      52.570  45.991  30.281  1.00  0.00    +0.000 C 
ATOM     85  F13 UNL A   1      53.498  46.950  30.408  1.00  0.00    +0.000 F 
ATOM     86  C57 UNL A   1      51.667  45.759  31.302  1.00  0.00    +0.000 C 
ATOM     87  F14 UNL A   1      51.721  46.494  32.422  1.00  0.00    +0.000 F 
ATOM     88  C58 UNL A   1      50.650  44.812  31.144  1.00  0.00    +0.000 C 
ATOM     89  F15 UNL A   1      49.751  44.708  32.133  1.00  0.00    +0.000 F 
ENDBRANCH   78   79
TORSDOF 32
ENDMDL
MODEL 8
REMARK VINA RESULT:      -5.4      3.860      5.044
ROOT
ATOM    153  H43 UNL A   1      13.704  -2.899  23.061  1.00  0.00    +0.000 H 
ATOM    154  H44 UNL A   1      11.461  -4.320  23.158  1.00  0.00    +0.000 H 
ATOM    155  H45 UNL A   1      11.110  -1.102  25.623  1.00  0.00    +0.000 H 
ATOM    156  H46 UNL A   1       5.042   0.246  20.782  1.00  0.00    +0.000 H 
ATOM    157  H47 UNL A   1       7.010  -0.041  19.193  1.00  0.00    +0.000 H 
ATOM    158  H48 UNL A   1       8.540  -0.184  23.051  1.00  0.00    +0.000 H 
ATOM    159  H49 UNL A   1       7.459   1.292  25.701  1.00  0.00    +0.000 H 
ATOM    160  H50 UNL A   1       9.528  -0.224  25.974  1.00  0.00    +0.000 H 
ATOM    161  H51 UNL A   1      13.237   2.368  22.135  1.00  0.00    +0.000 H 
ATOM    162  H52 UNL A   1      11.013   2.729  20.866  1.00  0.00    +0.000 H 
ATOM     42  C29 UNL A   1       9.584   0.246  20.495  1.00  0.00    +0.000 C 
ATOM     43  C30 UNL A   1      10.763   0.523  21.351  1.00  0.00    +0.000 C 
ATOM     44  N8  UNL A   1      11.470  -0.344  21.995  1.00  0.00    +0.000 N 
ATOM     45  C31 UNL A   1      12.437   0.392  22.670  1.00  0.00    +0.000 C 
ATOM     46  C32 UNL A   1      12.875  -0.030  23.889  1.00  0.00    +0.000 C 
ATOM     58  C39 UNL A   1      12.514  -1.413  24.097  1.00  0.00    +0.000 C 
ATOM     59  C40 UNL A   1      12.807  -2.616  23.487  1.00  0.00    +0.000 C 
ATOM     60  C41 UNL A   1      11.607  -3.385  23.569  1.00  0.00    +0.000 C 
ATOM     61  C42 UNL A   1      10.663  -2.659  24.298  1.00  0.00    +0.000 C 
ATOM     62  N9  UNL A   1      11.376  -1.622  24.831  1.00  0.00    +0.000 N 
ATOM     63  C43 UNL A   1       9.230  -2.783  24.443  1.00  0.00    +0.000 C 
ATOM     75  C50 UNL A   1       8.400  -1.813  24.934  1.00  0.00    +0.000 C 
ATOM     76  N10 UNL A   1       7.059  -1.806  24.583  1.00  0.00    +0.000 N 
ATOM     77  C51 UNL A   1       6.727  -0.544  24.604  1.00  0.00    +0.000 C 
ATOM     78  C52 UNL A   1       5.840   0.080  23.595  1.00  0.00    +0.000 C 
ATOM     90  C59 UNL A   1       6.519   0.050  22.418  1.00  0.00    +0.000 C 
ATOM     91  C60 UNL A   1       6.029   0.133  21.061  1.00  0.00    +0.000 C 
ATOM     92  C61 UNL A   1       7.079   0.037  20.220  1.00  0.00    +0.000 C 
ATOM     93  C62 UNL A   1       8.335   0.058  20.978  1.00  0.00    +0.000 C 
ATOM     94  N11 UNL A   1       7.926  -0.051  22.293  1.00  0.00    +0.000 N 
ATOM     95  C63 UNL A   1       7.602   0.325  25.368  1.00  0.00    +0.000 C 
ATOM     96  C64 UNL A   1       8.647  -0.493  25.510  1.00  0.00    +0.000 C 
ATOM     97  C65 UNL A   1      12.469   1.684  22.043  1.00  0.00    +0.000 C 
ATOM     98  C66 UNL A   1      11.361   1.870  21.322  1.00  0.00    +0.000 C 
ENDROOT
BRANCH   42   41
ATOM     99  C67 UNL A   1      10.466  -0.655  18.420  1.00  0.00    +0.000 C 
ATOM    164  H54 UNL A   1      11.336  -1.241  16.617  1.00  0.00    +0.000 H 
ATOM    100  C68 UNL A   1      10.730  -0.546  17.081  1.00  0.00    +0.000 C 
ATOM     38  C25 UNL A   1      10.184   0.501  16.342  1.00  0.00    +0.000 C 
ATOM     39  C26 UNL A   1       9.551   1.570  16.982  1.00  0.00    +0.000 C 
ATOM     40  C27 UNL A   1       9.427   1.542  18.369  1.00  0.00    +0.000 C 
ATOM    163  H53 UNL A   1      10.701  -1.520  18.931  1.00  0.00    +0.000 H 
ATOM     41  C28 UNL A   1       9.877   0.415  19.078  1.00  0.00    +0.000 C 
ATOM    151  H41 UNL A   1       9.181   2.366  16.438  1.00  0.00    +0.000 H 
ATOM    152  H42 UNL A   1       9.010   2.340  18.871  1.00  0.00    +0.000 H 
BRANCH   38   36
ATOM     36  C24 UNL A   1      10.294   0.453  14.873  1.00  0.00    +0.000 C 
ATOM     37  O5  UNL A   1      11.389   0.320  14.339  1.00  0.00    +0.000 O 
BRANCH   36   35
ATOM     35  N7  UNL A   1       9.148   0.549  14.111  1.00  0.00    +0.000 N 
ATOM    150  H40 UNL A   1       8.599   1.353  14.254  1.00  0.00    +0.000 H 
BRANCH   35   34
ATOM     34  C23 UNL A   1       8.654  -0.402  13.116  1.00  0.00    +0.000 C 
ATOM    148  H38 UNL A   1       8.346   0.137  12.244  1.00  0.00    +0.000 H 
ATOM    149  H39 UNL A   1       9.445  -1.084  12.886  1.00  0.00    +0.000 H 
BRANCH   34   33
ATOM     33  C22 UNL A   1       7.473  -1.206  13.639  1.00  0.00    +0.000 C 
ATOM    146  H36 UNL A   1       6.694  -0.525  13.909  1.00  0.00    +0.000 H 
ATOM    147  H37 UNL A   1       7.178  -1.874  12.857  1.00  0.00    +0.000 H 
BRANCH   33   32
ATOM    145  H35 UNL A   1       6.926  -2.635  15.068  1.00  0.00    +0.000 H 
ATOM    144  H34 UNL A   1       8.105  -1.410  15.655  1.00  0.00    +0.000 H 
ATOM     32  C21 UNL A   1       7.811  -2.068  14.864  1.00  0.00    +0.000 C 
BRANCH   32   31
ATOM    143  H33 UNL A   1       9.633  -2.929  15.462  1.00  0.00    +0.000 H 
ATOM    142  H32 UNL A   1       9.344  -2.969  13.699  1.00  0.00    +0.000 H 
ATOM     31  C20 UNL A   1       8.929  -3.102  14.676  1.00  0.00    +0.000 C 
BRANCH   31   30
ATOM    140  H30 UNL A   1       7.416  -4.576  14.891  1.00  0.00    +0.000 H 
ATOM    141  H31 UNL A   1       8.838  -5.072  13.941  1.00  0.00    +0.000 H 
ATOM     30  C19 UNL A   1       8.484  -4.557  14.809  1.00  0.00    +0.000 C 
BRANCH   30   29
ATOM    138  H28 UNL A   1       9.015  -6.333  15.870  1.00  0.00    +0.000 H 
ATOM    139  H29 UNL A   1      10.092  -4.970  16.141  1.00  0.00    +0.000 H 
ATOM     29  C18 UNL A   1       9.074  -5.277  16.026  1.00  0.00    +0.000 C 
BRANCH   29   28
ATOM    137  H27 UNL A   1       7.529  -5.456  17.385  1.00  0.00    +0.000 H 
ATOM     28  N6  UNL A   1       8.354  -4.938  17.235  1.00  0.00    +0.000 N 
BRANCH   28   26
ATOM     26  C17 UNL A   1       8.633  -4.017  18.197  1.00  0.00    +0.000 C 
ATOM     27  O4  UNL A   1       9.709  -4.103  18.789  1.00  0.00    +0.000 O 
BRANCH   26   25
ATOM     25  C16 UNL A   1       7.644  -2.927  18.547  1.00  0.00    +0.000 C 
ATOM    135  H25 UNL A   1       7.508  -2.928  19.608  1.00  0.00    +0.000 H 
ATOM    136  H26 UNL A   1       8.059  -2.016  18.171  1.00  0.00    +0.000 H 
BRANCH   25   24
ATOM    133  H23 UNL A   1       6.006  -2.109  17.493  1.00  0.00    +0.000 H 
ATOM    134  H24 UNL A   1       6.386  -3.849  17.176  1.00  0.00    +0.000 H 
ATOM     24  C15 UNL A   1       6.268  -3.065  17.895  1.00  0.00    +0.000 C 
BRANCH   24   23
ATOM    131  H21 UNL A   1       4.526  -4.228  18.227  1.00  0.00    +0.000 H 
ATOM    132  H22 UNL A   1       5.549  -3.938  19.662  1.00  0.00    +0.000 H 
ATOM     23  C14 UNL A   1       5.110  -3.522  18.779  1.00  0.00    +0.000 C 
BRANCH   23   22
ATOM    129  H19 UNL A   1       4.763  -1.501  19.352  1.00  0.00    +0.000 H 
ATOM    130  H20 UNL A   1       3.414  -2.293  18.508  1.00  0.00    +0.000 H 
ATOM     22  C13 UNL A   1       4.182  -2.394  19.245  1.00  0.00    +0.000 C 
BRANCH   22   21
ATOM     21  C12 UNL A   1       3.497  -2.682  20.567  1.00  0.00    +0.000 C 
ATOM    127  H17 UNL A   1       2.900  -3.563  20.455  1.00  0.00    +0.000 H 
ATOM    128  H18 UNL A   1       4.267  -2.804  21.300  1.00  0.00    +0.000 H 
BRANCH   21   20
ATOM     20  C11 UNL A   1       2.597  -1.548  21.047  1.00  0.00    +0.000 C 
ATOM    125  H15 UNL A   1       1.596  -1.923  21.086  1.00  0.00    +0.000 H 
ATOM    126  H16 UNL A   1       2.998  -1.250  21.993  1.00  0.00    +0.000 H 
BRANCH   20   19
ATOM     19  C10 UNL A   1       2.585  -0.275  20.192  1.00  0.00    +0.000 C 
ATOM    124  H14 UNL A   1       2.393  -0.603  19.192  1.00  0.00    +0.000 H 
ATOM    123  H13 UNL A   1       3.528   0.213  20.320  1.00  0.00    +0.000 H 
BRANCH   19   18
ATOM    121  H11 UNL A   1       1.947   1.700  20.628  1.00  0.00    +0.000 H 
ATOM     18  C9  UNL A   1       1.483   0.742  20.511  1.00  0.00    +0.000 C 
ATOM    122  H12 UNL A   1       0.794   0.685  19.695  1.00  0.00    +0.000 H 
BRANCH   18   17
ATOM     17  C8  UNL A   1       0.657   0.467  21.765  1.00  0.00    +0.000 C 
ATOM    119  H9  UNL A   1       0.272  -0.529  21.692  1.00  0.00    +0.000 H 
ATOM    120  H10 UNL A   1       1.321   0.620  22.589  1.00  0.00    +0.000 H 
BRANCH   17   16
ATOM    117  H7  UNL A   1      -0.995   1.570  21.063  1.00  0.00    +0.000 H 
ATOM    118  H8  UNL A   1      -1.127   0.909  22.732  1.00  0.00    +0.000 H 
ATOM     16  C7  UNL A   1      -0.516   1.401  22.005  1.00  0.00    +0.000 C 
BRANCH   16   15
ATOM    116  H6  UNL A   1       0.440   2.685  23.315  1.00  0.00    +0.000 H 
ATOM     15  N5  UNL A   1      -0.208   2.689  22.574  1.00  0.00    +0.000 N 
BRANCH   15   13
ATOM     13  C6  UNL A   1      -0.696   3.904  22.224  1.00  0.00    +0.000 C 
ATOM     14  O3  UNL A   1       0.067   4.679  21.637  1.00  0.00    +0.000 O 
BRANCH   13   12
ATOM    115  H5  UNL A   1      -2.514   4.202  21.517  1.00  0.00    +0.000 H 
ATOM     12  N4  UNL A   1      -2.002   4.244  22.356  1.00  0.00    +0.000 N 
BRANCH   12   11
ATOM    101  C69 UNL A   1      -2.948   5.984  23.834  1.00  0.00    +0.000 C 
ATOM    102  C70 UNL A   1      -3.878   5.946  24.856  1.00  0.00    +0.000 C 
ATOM    165  H55 UNL A   1      -2.495   6.820  23.433  1.00  0.00    +0.000 H 
ATOM      9  N2  UNL A   1      -4.228   4.606  24.963  1.00  0.00    +0.000 N 
ATOM     10  N3  UNL A   1      -3.344   3.816  24.319  1.00  0.00    +0.000 N 
ATOM     11  C5  UNL A   1      -2.746   4.635  23.450  1.00  0.00    +0.000 C 
BRANCH    9    8
ATOM      5  C1  UNL A   1      -7.612   2.832  26.723  1.00  0.00    +0.000 C 
ATOM      6  C2  UNL A   1      -6.389   2.804  27.397  1.00  0.00    +0.000 C 
ATOM      7  C3  UNL A   1      -5.274   3.407  26.820  1.00  0.00    +0.000 C 
ATOM      8  C4  UNL A   1      -5.386   4.056  25.580  1.00  0.00    +0.000 C 
ATOM    171  H61 UNL A   1      -6.724   4.674  24.060  1.00  0.00    +0.000 H 
ATOM    172  H62 UNL A   1      -8.655   3.545  25.028  1.00  0.00    +0.000 H 
ATOM    109  C77 UNL A   1      -6.628   4.145  24.941  1.00  0.00    +0.000 C 
ATOM    110  C78 UNL A   1      -7.743   3.511  25.506  1.00  0.00    +0.000 C 
ATOM    113  H3  UNL A   1      -6.311   2.339  28.315  1.00  0.00    +0.000 H 
ATOM    114  H4  UNL A   1      -4.363   3.378  27.305  1.00  0.00    +0.000 H 
BRANCH    5    2
ATOM      2  S1  UNL A   1      -8.988   2.033  27.490  1.00  0.00    +0.000 S 
ATOM      3  O1  UNL A   1      -8.498   1.183  28.543  1.00  0.00    +0.000 O 
ATOM      4  O2  UNL A   1      -9.879   1.565  26.449  1.00  0.00    +0.000 O 
BRANCH    2    1
ATOM      1  N1  UNL A   1      -9.805   3.269  28.277  1.00  0.00    +0.000 N 
ATOM    111  H1  UNL A   1     -10.344   2.882  29.051  1.00  0.00    +0.000 H 
ATOM    112  H2  UNL A   1     -10.435   3.731  27.621  1.00  0.00    +0.000 H 
ENDBRANCH    2    1
ENDBRANCH    5    2
ENDBRANCH    9    8
BRANCH  102  103
ATOM    166  H56 UNL A   1      -3.161   6.545  27.344  1.00  0.00    +0.000 H 
ATOM    103  C71 UNL A   1      -4.437   6.989  25.716  1.00  0.00    +0.000 C 
ATOM    104  C72 UNL A   1      -3.964   7.114  27.034  1.00  0.00    +0.000 C 
ATOM    105  C73 UNL A   1      -4.564   7.998  27.926  1.00  0.00    +0.000 C 
ATOM    170  H60 UNL A   1      -5.824   7.747  24.316  1.00  0.00    +0.000 H 
ATOM    107  C75 UNL A   1      -6.078   8.702  26.183  1.00  0.00    +0.000 C 
ATOM    108  C76 UNL A   1      -5.486   7.805  25.289  1.00  0.00    +0.000 C 
ATOM    167  H57 UNL A   1      -4.224   8.065  28.899  1.00  0.00    +0.000 H 
ATOM    169  H59 UNL A   1      -6.855   9.303  25.867  1.00  0.00    +0.000 H 
ATOM    106  C74 UNL A   1      -5.625   8.790  27.501  1.00  0.00    +0.000 C 
ATOM    168  H58 UNL A   1      -6.077   9.442  28.159  1.00  0.00    +0.000 H 
ENDBRANCH  102  103
ENDBRANCH   12   11
ENDBRANCH   13   12
ENDBRANCH   15   13
ENDBRANCH   16   15
ENDBRANCH   17   16
ENDBRANCH   18   17
ENDBRANCH   19   18
ENDBRANCH   20   19
ENDBRANCH   21   20
ENDBRANCH   22   21
ENDBRANCH   23   22
ENDBRANCH   24   23
ENDBRANCH   25   24
ENDBRANCH   26   25
ENDBRANCH   28   26
ENDBRANCH   29   28
ENDBRANCH   30   29
ENDBRANCH   31   30
ENDBRANCH   32   31
ENDBRANCH   33   32
ENDBRANCH   34   33
ENDBRANCH   35   34
ENDBRANCH   36   35
ENDBRANCH   38   36
ENDBRANCH   42   41
BRANCH   46   47
ATOM     47  C33 UNL A   1      13.162   0.898  25.057  1.00  0.00    +0.000 C 
ATOM     48  C34 UNL A   1      14.409   0.789  25.708  1.00  0.00    +0.000 C 
ATOM     49  F1  UNL A   1      15.410   0.087  25.154  1.00  0.00    +0.000 F 
ATOM     50  C35 UNL A   1      14.624   1.300  26.991  1.00  0.00    +0.000 C 
ATOM     51  F2  UNL A   1      15.777   1.043  27.624  1.00  0.00    +0.000 F 
ATOM     52  C36 UNL A   1      13.626   1.996  27.646  1.00  0.00    +0.000 C 
ATOM     53  F3  UNL A   1      13.807   2.426  28.902  1.00  0.00    +0.000 F 
ATOM     54  C37 UNL A   1      12.417   2.192  27.016  1.00  0.00    +0.000 C 
ATOM     55  F4  UNL A   1      11.425   2.829  27.654  1.00  0.00    +0.000 F 
ATOM     56  C38 UNL A   1      12.181   1.636  25.759  1.00  0.00    +0.000 C 
ATOM     57  F5  UNL A   1      10.920   1.748  25.332  1.00  0.00    +0.000 F 
ENDBRANCH   46   47
BRANCH   63   64
ATOM     65  C45 UNL A   1       8.286  -4.168  22.479  1.00  0.00    +0.000 C 
ATOM     66  F6  UNL A   1       8.535  -3.190  21.598  1.00  0.00    +0.000 F 
ATOM     67  C46 UNL A   1       7.765  -5.368  21.993  1.00  0.00    +0.000 C 
ATOM     68  F7  UNL A   1       7.467  -5.494  20.690  1.00  0.00    +0.000 F 
ATOM     69  C47 UNL A   1       7.582  -6.444  22.846  1.00  0.00    +0.000 C 
ATOM     70  F8  UNL A   1       7.120  -7.610  22.373  1.00  0.00    +0.000 F 
ATOM     71  C48 UNL A   1       7.902  -6.319  24.187  1.00  0.00    +0.000 C 
ATOM     72  F9  UNL A   1       7.773  -7.368  25.010  1.00  0.00    +0.000 F 
ATOM     73  C49 UNL A   1       8.384  -5.110  24.682  1.00  0.00    +0.000 C 
ATOM     74  F10 UNL A   1       8.697  -5.029  25.985  1.00  0.00    +0.000 F 
ATOM     64  C44 UNL A   1       8.589  -4.007  23.843  1.00  0.00    +0.000 C 
ENDBRANCH   63   64
BRANCH   78   79
ATOM     79  C53 UNL A   1       4.631   0.846  23.984  1.00  0.00    +0.000 C 
ATOM     80  C54 UNL A   1       3.428   0.192  24.312  1.00  0.00    +0.000 C 
ATOM     81  F11 UNL A   1       3.273  -1.112  24.040  1.00  0.00    +0.000 F 
ATOM     82  C55 UNL A   1       2.396   0.845  24.997  1.00  0.00    +0.000 C 
ATOM     83  F12 UNL A   1       1.295   0.169  25.353  1.00  0.00    +0.000 F 
ATOM     84  C56 UNL A   1       2.535   2.171  25.369  1.00  0.00    +0.000 C 
ATOM     85  F13 UNL A   1       1.580   2.778  26.087  1.00  0.00    +0.000 F 
ATOM     86  C57 UNL A   1       3.690   2.853  25.031  1.00  0.00    +0.000 C 
ATOM     87  F14 UNL A   1       3.852   4.125  25.421  1.00  0.00    +0.000 F 
ATOM     88  C58 UNL A   1       4.721   2.202  24.349  1.00  0.00    +0.000 C 
ATOM     89  F15 UNL A   1       5.851   2.893  24.140  1.00  0.00    +0.000 F 
ENDBRANCH   78   79
TORSDOF 32
ENDMDL
MODEL 9
REMARK VINA RESULT:      -5.4     50.360     56.312
ROOT
ATOM    153  H43 UNL A   1      54.833  20.579   4.591  1.00  0.00    +0.000 H 
ATOM    154  H44 UNL A   1      57.453  20.237   4.869  1.00  0.00    +0.000 H 
ATOM    155  H45 UNL A   1      55.511  17.964   7.628  1.00  0.00    +0.000 H 
ATOM    156  H46 UNL A   1      59.465  12.332   3.791  1.00  0.00    +0.000 H 
ATOM    157  H47 UNL A   1      58.235  13.559   1.931  1.00  0.00    +0.000 H 
ATOM    158  H48 UNL A   1      56.984  15.237   5.518  1.00  0.00    +0.000 H 
ATOM    159  H49 UNL A   1      56.718  13.841   8.409  1.00  0.00    +0.000 H 
ATOM    160  H50 UNL A   1      56.123  16.347   8.266  1.00  0.00    +0.000 H 
ATOM    161  H51 UNL A   1      51.806  16.163   4.196  1.00  0.00    +0.000 H 
ATOM    162  H52 UNL A   1      53.318  14.278   3.278  1.00  0.00    +0.000 H 
ATOM     42  C29 UNL A   1      56.034  15.184   2.891  1.00  0.00    +0.000 C 
ATOM     43  C30 UNL A   1      54.919  15.858   3.600  1.00  0.00    +0.000 C 
ATOM     44  N8  UNL A   1      54.916  17.063   4.064  1.00  0.00    +0.000 N 
ATOM     45  C31 UNL A   1      53.673  17.228   4.662  1.00  0.00    +0.000 C 
ATOM     46  C32 UNL A   1      53.557  18.013   5.769  1.00  0.00    +0.000 C 
ATOM     58  C39 UNL A   1      54.720  18.859   5.904  1.00  0.00    +0.000 C 
ATOM     59  C40 UNL A   1      55.309  19.859   5.158  1.00  0.00    +0.000 C 
ATOM     60  C41 UNL A   1      56.715  19.687   5.335  1.00  0.00    +0.000 C 
ATOM     61  C42 UNL A   1      56.924  18.650   6.246  1.00  0.00    +0.000 C 
ATOM     62  N9  UNL A   1      55.684  18.404   6.765  1.00  0.00    +0.000 N 
ATOM     63  C43 UNL A   1      58.084  17.852   6.573  1.00  0.00    +0.000 C 
ATOM     75  C50 UNL A   1      58.060  16.667   7.254  1.00  0.00    +0.000 C 
ATOM     76  N10 UNL A   1      59.089  15.752   7.091  1.00  0.00    +0.000 N 
ATOM     77  C51 UNL A   1      58.520  14.591   7.267  1.00  0.00    +0.000 C 
ATOM     78  C52 UNL A   1      58.835  13.399   6.446  1.00  0.00    +0.000 C 
ATOM     90  C59 UNL A   1      58.395  13.674   5.188  1.00  0.00    +0.000 C 
ATOM     91  C60 UNL A   1      58.777  13.090   3.923  1.00  0.00    +0.000 C 
ATOM     92  C61 UNL A   1      58.083  13.702   2.942  1.00  0.00    +0.000 C 
ATOM     93  C62 UNL A   1      57.081  14.603   3.522  1.00  0.00    +0.000 C 
ATOM     94  N11 UNL A   1      57.399  14.628   4.865  1.00  0.00    +0.000 N 
ATOM     95  C63 UNL A   1      57.255  14.610   7.976  1.00  0.00    +0.000 C 
ATOM     96  C64 UNL A   1      56.988  15.916   7.904  1.00  0.00    +0.000 C 
ATOM     97  C65 UNL A   1      52.838  16.176   4.151  1.00  0.00    +0.000 C 
ATOM     98  C66 UNL A   1      53.592  15.218   3.606  1.00  0.00    +0.000 C 
ENDROOT
BRANCH   42   41
ATOM     99  C67 UNL A   1      56.338  15.954   0.609  1.00  0.00    +0.000 C 
ATOM    164  H54 UNL A   1      56.382  16.597  -1.375  1.00  0.00    +0.000 H 
ATOM    100  C68 UNL A   1      56.137  15.822  -0.739  1.00  0.00    +0.000 C 
ATOM     38  C25 UNL A   1      55.602  14.644  -1.255  1.00  0.00    +0.000 C 
ATOM     39  C26 UNL A   1      55.060  13.676  -0.406  1.00  0.00    +0.000 C 
ATOM     40  C27 UNL A   1      55.113  13.885   0.969  1.00  0.00    +0.000 C 
ATOM    163  H53 UNL A   1      56.905  16.733   0.980  1.00  0.00    +0.000 H 
ATOM     41  C28 UNL A   1      55.770  15.024   1.468  1.00  0.00    +0.000 C 
ATOM    151  H41 UNL A   1      54.627  12.821  -0.790  1.00  0.00    +0.000 H 
ATOM    152  H42 UNL A   1      54.676  13.212   1.617  1.00  0.00    +0.000 H 
BRANCH   38   36
ATOM     36  C24 UNL A   1      55.621  14.448  -2.716  1.00  0.00    +0.000 C 
ATOM     37  O5  UNL A   1      54.647  14.751  -3.393  1.00  0.00    +0.000 O 
BRANCH   36   35
ATOM     35  N7  UNL A   1      56.754  13.930  -3.308  1.00  0.00    +0.000 N 
ATOM    150  H40 UNL A   1      57.152  14.469  -4.029  1.00  0.00    +0.000 H 
BRANCH   35   34
ATOM     34  C23 UNL A   1      57.434  12.673  -2.992  1.00  0.00    +0.000 C 
ATOM    148  H38 UNL A   1      58.491  12.824  -3.063  1.00  0.00    +0.000 H 
ATOM    149  H39 UNL A   1      57.153  12.384  -2.001  1.00  0.00    +0.000 H 
BRANCH   34   33
ATOM     33  C22 UNL A   1      57.031  11.557  -3.943  1.00  0.00    +0.000 C 
ATOM    146  H36 UNL A   1      56.024  11.272  -3.722  1.00  0.00    +0.000 H 
ATOM    147  H37 UNL A   1      57.138  11.938  -4.937  1.00  0.00    +0.000 H 
BRANCH   33   32
ATOM    145  H35 UNL A   1      58.569  10.350  -4.694  1.00  0.00    +0.000 H 
ATOM    144  H34 UNL A   1      57.283   9.453  -3.812  1.00  0.00    +0.000 H 
ATOM     32  C21 UNL A   1      57.923  10.311  -3.841  1.00  0.00    +0.000 C 
BRANCH   32   31
ATOM    143  H33 UNL A   1      58.323   9.698  -1.870  1.00  0.00    +0.000 H 
ATOM    142  H32 UNL A   1      59.092  11.244  -2.330  1.00  0.00    +0.000 H 
ATOM     31  C20 UNL A   1      58.853  10.243  -2.622  1.00  0.00    +0.000 C 
BRANCH   31   30
ATOM    140  H30 UNL A   1      60.752   9.559  -1.967  1.00  0.00    +0.000 H 
ATOM    141  H31 UNL A   1      59.901   8.482  -3.099  1.00  0.00    +0.000 H 
ATOM     30  C19 UNL A   1      60.161   9.491  -2.856  1.00  0.00    +0.000 C 
BRANCH   30   29
ATOM    138  H28 UNL A   1      60.502  10.897  -4.428  1.00  0.00    +0.000 H 
ATOM    139  H29 UNL A   1      61.964  10.281  -3.667  1.00  0.00    +0.000 H 
ATOM     29  C18 UNL A   1      60.987  10.032  -4.028  1.00  0.00    +0.000 C 
BRANCH   29   28
ATOM    137  H27 UNL A   1      62.034   8.682  -5.187  1.00  0.00    +0.000 H 
ATOM     28  N6  UNL A   1      61.124   9.041  -5.074  1.00  0.00    +0.000 N 
BRANCH   28   26
ATOM     26  C17 UNL A   1      60.196   8.527  -5.925  1.00  0.00    +0.000 C 
ATOM     27  O4  UNL A   1      59.827   9.222  -6.873  1.00  0.00    +0.000 O 
BRANCH   26   25
ATOM     25  C16 UNL A   1      59.616   7.146  -5.709  1.00  0.00    +0.000 C 
ATOM    135  H25 UNL A   1      60.078   6.479  -6.406  1.00  0.00    +0.000 H 
ATOM    136  H26 UNL A   1      59.812   6.897  -4.687  1.00  0.00    +0.000 H 
BRANCH   25   24
ATOM    133  H23 UNL A   1      57.729   8.033  -6.041  1.00  0.00    +0.000 H 
ATOM    134  H24 UNL A   1      57.972   6.371  -6.712  1.00  0.00    +0.000 H 
ATOM     24  C15 UNL A   1      58.102   7.042  -5.889  1.00  0.00    +0.000 C 
BRANCH   24   23
ATOM    131  H21 UNL A   1      56.297   6.796  -4.804  1.00  0.00    +0.000 H 
ATOM    132  H22 UNL A   1      57.355   5.360  -4.883  1.00  0.00    +0.000 H 
ATOM     23  C14 UNL A   1      57.297   6.419  -4.751  1.00  0.00    +0.000 C 
BRANCH   23   22
ATOM    129  H19 UNL A   1      58.864   7.029  -3.443  1.00  0.00    +0.000 H 
ATOM    130  H20 UNL A   1      57.224   7.470  -2.920  1.00  0.00    +0.000 H 
ATOM     22  C13 UNL A   1      57.845   6.713  -3.349  1.00  0.00    +0.000 C 
BRANCH   22   21
ATOM     21  C12 UNL A   1      57.799   5.516  -2.419  1.00  0.00    +0.000 C 
ATOM    127  H17 UNL A   1      56.780   5.340  -2.144  1.00  0.00    +0.000 H 
ATOM    128  H18 UNL A   1      58.224   4.689  -2.950  1.00  0.00    +0.000 H 
BRANCH   21   20
ATOM     20  C11 UNL A   1      58.618   5.701  -1.146  1.00  0.00    +0.000 C 
ATOM    125  H15 UNL A   1      59.614   5.964  -1.437  1.00  0.00    +0.000 H 
ATOM    126  H16 UNL A   1      58.104   6.453  -0.586  1.00  0.00    +0.000 H 
BRANCH   20   19
ATOM     19  C10 UNL A   1      58.711   4.490  -0.210  1.00  0.00    +0.000 C 
ATOM    124  H14 UNL A   1      59.406   4.770   0.554  1.00  0.00    +0.000 H 
ATOM    123  H13 UNL A   1      59.018   3.648  -0.795  1.00  0.00    +0.000 H 
BRANCH   19   18
ATOM    121  H11 UNL A   1      56.673   4.824   0.270  1.00  0.00    +0.000 H 
ATOM     18  C9  UNL A   1      57.422   4.104   0.525  1.00  0.00    +0.000 C 
ATOM    122  H12 UNL A   1      57.198   3.106   0.208  1.00  0.00    +0.000 H 
BRANCH   18   17
ATOM     17  C8  UNL A   1      57.510   4.040   2.048  1.00  0.00    +0.000 C 
ATOM    119  H9  UNL A   1      58.441   4.479   2.341  1.00  0.00    +0.000 H 
ATOM    120  H10 UNL A   1      56.648   4.560   2.410  1.00  0.00    +0.000 H 
BRANCH   17   16
ATOM    117  H7  UNL A   1      56.743   2.078   2.084  1.00  0.00    +0.000 H 
ATOM    118  H8  UNL A   1      58.443   2.282   2.640  1.00  0.00    +0.000 H 
ATOM     16  C7  UNL A   1      57.439   2.652   2.659  1.00  0.00    +0.000 C 
BRANCH   16   15
ATOM    116  H6  UNL A   1      56.060   2.590   4.200  1.00  0.00    +0.000 H 
ATOM     15  N5  UNL A   1      57.031   2.576   4.039  1.00  0.00    +0.000 N 
BRANCH   15   13
ATOM     13  C6  UNL A   1      57.810   2.488   5.145  1.00  0.00    +0.000 C 
ATOM     14  O3  UNL A   1      58.243   1.373   5.453  1.00  0.00    +0.000 O 
BRANCH   13   12
ATOM    115  H5  UNL A   1      57.835   3.680   6.718  1.00  0.00    +0.000 H 
ATOM     12  N4  UNL A   1      58.247   3.574   5.831  1.00  0.00    +0.000 N 
BRANCH   12   11
ATOM    101  C69 UNL A   1      58.865   5.701   4.736  1.00  0.00    +0.000 C 
ATOM    102  C70 UNL A   1      59.989   6.502   4.803  1.00  0.00    +0.000 C 
ATOM    165  H55 UNL A   1      57.988   5.897   4.226  1.00  0.00    +0.000 H 
ATOM      9  N2  UNL A   1      60.845   5.834   5.669  1.00  0.00    +0.000 N 
ATOM     10  N3  UNL A   1      60.455   4.555   5.854  1.00  0.00    +0.000 N 
ATOM     11  C5  UNL A   1      59.163   4.556   5.514  1.00  0.00    +0.000 C 
BRANCH    9    8
ATOM      5  C1  UNL A   1      64.109   7.556   7.687  1.00  0.00    +0.000 C 
ATOM      6  C2  UNL A   1      62.837   7.610   8.261  1.00  0.00    +0.000 C 
ATOM      7  C3  UNL A   1      61.761   7.023   7.599  1.00  0.00    +0.000 C 
ATOM      8  C4  UNL A   1      61.960   6.366   6.374  1.00  0.00    +0.000 C 
ATOM    171  H61 UNL A   1      63.403   5.717   4.968  1.00  0.00    +0.000 H 
ATOM    172  H62 UNL A   1      65.272   6.816   6.083  1.00  0.00    +0.000 H 
ATOM    109  C77 UNL A   1      63.247   6.252   5.837  1.00  0.00    +0.000 C 
ATOM    110  C78 UNL A   1      64.324   6.869   6.487  1.00  0.00    +0.000 C 
ATOM    113  H3  UNL A   1      62.695   8.080   9.169  1.00  0.00    +0.000 H 
ATOM    114  H4  UNL A   1      60.815   7.072   8.010  1.00  0.00    +0.000 H 
BRANCH    5    2
ATOM      2  S1  UNL A   1      65.434   8.334   8.559  1.00  0.00    +0.000 S 
ATOM      3  O1  UNL A   1      64.887   9.365   9.402  1.00  0.00    +0.000 O 
ATOM      4  O2  UNL A   1      66.515   8.569   7.626  1.00  0.00    +0.000 O 
BRANCH    2    1
ATOM      1  N1  UNL A   1      65.986   7.157   9.619  1.00  0.00    +0.000 N 
ATOM    111  H1  UNL A   1      66.909   6.838   9.323  1.00  0.00    +0.000 H 
ATOM    112  H2  UNL A   1      65.338   6.369   9.620  1.00  0.00    +0.000 H 
ENDBRANCH    2    1
ENDBRANCH    5    2
ENDBRANCH    9    8
BRANCH  102  103
ATOM    166  H56 UNL A   1      60.996   6.848   2.368  1.00  0.00    +0.000 H 
ATOM    103  C71 UNL A   1      60.336   7.767   4.156  1.00  0.00    +0.000 C 
ATOM    104  C72 UNL A   1      60.919   7.744   2.876  1.00  0.00    +0.000 C 
ATOM    105  C73 UNL A   1      61.390   8.912   2.285  1.00  0.00    +0.000 C 
ATOM    170  H60 UNL A   1      59.728   9.028   5.737  1.00  0.00    +0.000 H 
ATOM    107  C75 UNL A   1      60.644  10.165   4.209  1.00  0.00    +0.000 C 
ATOM    108  C76 UNL A   1      60.182   8.990   4.811  1.00  0.00    +0.000 C 
ATOM    167  H57 UNL A   1      61.838   8.879   1.355  1.00  0.00    +0.000 H 
ATOM    169  H59 UNL A   1      60.531  11.069   4.695  1.00  0.00    +0.000 H 
ATOM    106  C74 UNL A   1      61.256  10.123   2.954  1.00  0.00    +0.000 C 
ATOM    168  H58 UNL A   1      61.609  10.992   2.524  1.00  0.00    +0.000 H 
ENDBRANCH  102  103
ENDBRANCH   12   11
ENDBRANCH   13   12
ENDBRANCH   15   13
ENDBRANCH   16   15
ENDBRANCH   17   16
ENDBRANCH   18   17
ENDBRANCH   19   18
ENDBRANCH   20   19
ENDBRANCH   21   20
ENDBRANCH   22   21
ENDBRANCH   23   22
ENDBRANCH   24   23
ENDBRANCH   25   24
ENDBRANCH   26   25
ENDBRANCH   28   26
ENDBRANCH   29   28
ENDBRANCH   30   29
ENDBRANCH   31   30
ENDBRANCH   32   31
ENDBRANCH   33   32
ENDBRANCH   34   33
ENDBRANCH   35   34
ENDBRANCH   36   35
ENDBRANCH   38   36
ENDBRANCH   42   41
BRANCH   46   47
ATOM     47  C33 UNL A   1      52.681  17.675   6.963  1.00  0.00    +0.000 C 
ATOM     48  C34 UNL A   1      51.836  18.681   7.479  1.00  0.00    +0.000 C 
ATOM     49  F1  UNL A   1      51.607  19.805   6.783  1.00  0.00    +0.000 F 
ATOM     50  C35 UNL A   1      51.296  18.608   8.766  1.00  0.00    +0.000 C 
ATOM     51  F2  UNL A   1      50.621  19.654   9.264  1.00  0.00    +0.000 F 
ATOM     52  C36 UNL A   1      51.523  17.502   9.562  1.00  0.00    +0.000 C 
ATOM     53  F3  UNL A   1      51.065  17.462  10.821  1.00  0.00    +0.000 F 
ATOM     54  C37 UNL A   1      52.280  16.462   9.070  1.00  0.00    +0.000 C 
ATOM     55  F4  UNL A   1      52.544  15.400   9.844  1.00  0.00    +0.000 F 
ATOM     56  C38 UNL A   1      52.866  16.555   7.807  1.00  0.00    +0.000 C 
ATOM     57  F5  UNL A   1      53.713  15.565   7.515  1.00  0.00    +0.000 F 
ENDBRANCH   46   47
BRANCH   63   64
ATOM     65  C45 UNL A   1      59.811  17.959   4.657  1.00  0.00    +0.000 C 
ATOM     66  F6  UNL A   1      59.047  17.207   3.853  1.00  0.00    +0.000 F 
ATOM     67  C46 UNL A   1      61.008  18.459   4.140  1.00  0.00    +0.000 C 
ATOM     68  F7  UNL A   1      61.394  18.130   2.898  1.00  0.00    +0.000 F 
ATOM     69  C47 UNL A   1      61.786  19.321   4.896  1.00  0.00    +0.000 C 
ATOM     70  F8  UNL A   1      62.914  19.834   4.387  1.00  0.00    +0.000 F 
ATOM     71  C48 UNL A   1      61.380  19.671   6.173  1.00  0.00    +0.000 C 
ATOM     72  F9  UNL A   1      62.102  20.541   6.892  1.00  0.00    +0.000 F 
ATOM     73  C49 UNL A   1      60.208  19.142   6.705  1.00  0.00    +0.000 C 
ATOM     74  F10 UNL A   1      59.839  19.514   7.941  1.00  0.00    +0.000 F 
ATOM     64  C44 UNL A   1      59.395  18.275   5.963  1.00  0.00    +0.000 C 
ENDBRANCH   63   64
BRANCH   78   79
ATOM     79  C53 UNL A   1      59.235  12.110   7.059  1.00  0.00    +0.000 C 
ATOM     80  C54 UNL A   1      60.402  12.005   7.838  1.00  0.00    +0.000 C 
ATOM     81  F11 UNL A   1      61.307  12.996   7.836  1.00  0.00    +0.000 F 
ATOM     82  C55 UNL A   1      60.624  10.920   8.694  1.00  0.00    +0.000 C 
ATOM     83  F12 UNL A   1      61.716  10.891   9.473  1.00  0.00    +0.000 F 
ATOM     84  C56 UNL A   1      59.687   9.906   8.793  1.00  0.00    +0.000 C 
ATOM     85  F13 UNL A   1      59.862   8.902   9.664  1.00  0.00    +0.000 F 
ATOM     86  C57 UNL A   1      58.545   9.960   8.015  1.00  0.00    +0.000 C 
ATOM     87  F14 UNL A   1      57.611   9.005   8.132  1.00  0.00    +0.000 F 
ATOM     88  C58 UNL A   1      58.322  11.044   7.161  1.00  0.00    +0.000 C 
ATOM     89  F15 UNL A   1      57.150  11.082   6.511  1.00  0.00    +0.000 F 
ENDBRANCH   78   79
TORSDOF 32
ENDMDL
MODEL 10
REMARK VINA RESULT:      -5.4     42.154     49.360
ROOT
ATOM    153  H43 UNL A   1      18.155  36.771  49.661  1.00  0.00    +0.000 H 
ATOM    154  H44 UNL A   1      19.043  35.124  47.775  1.00  0.00    +0.000 H 
ATOM    155  H45 UNL A   1      20.710  38.796  47.234  1.00  0.00    +0.000 H 
ATOM    156  H46 UNL A   1      27.238  34.476  48.131  1.00  0.00    +0.000 H 
ATOM    157  H47 UNL A   1      25.862  33.898  50.193  1.00  0.00    +0.000 H 
ATOM    158  H48 UNL A   1      23.787  36.857  48.146  1.00  0.00    +0.000 H 
ATOM    159  H49 UNL A   1      24.956  39.233  46.312  1.00  0.00    +0.000 H 
ATOM    160  H50 UNL A   1      22.390  39.087  46.533  1.00  0.00    +0.000 H 
ATOM    161  H51 UNL A   1      21.824  39.551  52.423  1.00  0.00    +0.000 H 
ATOM    162  H52 UNL A   1      24.033  38.211  52.326  1.00  0.00    +0.000 H 
ATOM     42  C29 UNL A   1      23.756  35.815  50.738  1.00  0.00    +0.000 C 
ATOM     43  C30 UNL A   1      22.824  36.962  50.864  1.00  0.00    +0.000 C 
ATOM     44  N8  UNL A   1      21.627  37.039  50.387  1.00  0.00    +0.000 N 
ATOM     45  C31 UNL A   1      21.168  38.304  50.736  1.00  0.00    +0.000 C 
ATOM     46  C32 UNL A   1      20.326  38.970  49.898  1.00  0.00    +0.000 C 
ATOM     58  C39 UNL A   1      19.746  38.054  48.942  1.00  0.00    +0.000 C 
ATOM     59  C40 UNL A   1      18.933  36.941  49.005  1.00  0.00    +0.000 C 
ATOM     60  C41 UNL A   1      19.398  36.073  47.970  1.00  0.00    +0.000 C 
ATOM     61  C42 UNL A   1      20.412  36.725  47.266  1.00  0.00    +0.000 C 
ATOM     62  N9  UNL A   1      20.359  38.014  47.717  1.00  0.00    +0.000 N 
ATOM     63  C43 UNL A   1      21.426  36.255  46.349  1.00  0.00    +0.000 C 
ATOM     75  C50 UNL A   1      22.545  36.953  45.986  1.00  0.00    +0.000 C 
ATOM     76  N10 UNL A   1      23.667  36.276  45.534  1.00  0.00    +0.000 N 
ATOM     77  C51 UNL A   1      24.668  37.027  45.903  1.00  0.00    +0.000 C 
ATOM     78  C52 UNL A   1      25.937  36.485  46.442  1.00  0.00    +0.000 C 
ATOM     90  C59 UNL A   1      25.632  35.918  47.640  1.00  0.00    +0.000 C 
ATOM     91  C60 UNL A   1      26.344  34.916  48.400  1.00  0.00    +0.000 C 
ATOM     92  C61 UNL A   1      25.642  34.650  49.521  1.00  0.00    +0.000 C 
ATOM     93  C62 UNL A   1      24.519  35.586  49.645  1.00  0.00    +0.000 C 
ATOM     94  N11 UNL A   1      24.501  36.241  48.429  1.00  0.00    +0.000 N 
ATOM     95  C63 UNL A   1      24.342  38.410  46.199  1.00  0.00    +0.000 C 
ATOM     96  C64 UNL A   1      23.014  38.304  46.285  1.00  0.00    +0.000 C 
ATOM     97  C65 UNL A   1      22.037  38.772  51.780  1.00  0.00    +0.000 C 
ATOM     98  C66 UNL A   1      23.160  38.050  51.799  1.00  0.00    +0.000 C 
ENDROOT
BRANCH   42   41
ATOM     99  C67 UNL A   1      25.203  35.009  52.513  1.00  0.00    +0.000 C 
ATOM    164  H54 UNL A   1      26.349  34.120  54.012  1.00  0.00    +0.000 H 
ATOM    100  C68 UNL A   1      25.395  34.363  53.705  1.00  0.00    +0.000 C 
ATOM     38  C25 UNL A   1      24.303  34.033  54.506  1.00  0.00    +0.000 C 
ATOM     39  C26 UNL A   1      22.999  34.148  54.016  1.00  0.00    +0.000 C 
ATOM     40  C27 UNL A   1      22.809  34.652  52.732  1.00  0.00    +0.000 C 
ATOM    163  H53 UNL A   1      26.001  35.426  52.010  1.00  0.00    +0.000 H 
ATOM     41  C28 UNL A   1      23.920  35.094  51.993  1.00  0.00    +0.000 C 
ATOM    151  H41 UNL A   1      22.193  33.866  54.594  1.00  0.00    +0.000 H 
ATOM    152  H42 UNL A   1      21.862  34.700  52.327  1.00  0.00    +0.000 H 
BRANCH   38   36
ATOM     36  C24 UNL A   1      24.560  33.558  55.877  1.00  0.00    +0.000 C 
ATOM     37  O5  UNL A   1      24.615  34.354  56.807  1.00  0.00    +0.000 O 
BRANCH   36   35
ATOM     35  N7  UNL A   1      24.728  32.207  56.099  1.00  0.00    +0.000 N 
ATOM    150  H40 UNL A   1      25.068  31.682  55.339  1.00  0.00    +0.000 H 
BRANCH   35   34
ATOM     34  C23 UNL A   1      24.459  31.462  57.329  1.00  0.00    +0.000 C 
ATOM    148  H38 UNL A   1      25.266  31.621  58.013  1.00  0.00    +0.000 H 
ATOM    149  H39 UNL A   1      23.535  31.815  57.736  1.00  0.00    +0.000 H 
BRANCH   34   33
ATOM     33  C22 UNL A   1      24.322  29.970  57.068  1.00  0.00    +0.000 C 
ATOM    146  H36 UNL A   1      24.653  29.443  57.938  1.00  0.00    +0.000 H 
ATOM    147  H37 UNL A   1      23.291  29.783  56.847  1.00  0.00    +0.000 H 
BRANCH   33   32
ATOM    145  H35 UNL A   1      25.896  28.843  56.270  1.00  0.00    +0.000 H 
ATOM    144  H34 UNL A   1      25.513  30.340  55.350  1.00  0.00    +0.000 H 
ATOM     32  C21 UNL A   1      25.137  29.479  55.863  1.00  0.00    +0.000 C 
BRANCH   32   31
ATOM    143  H33 UNL A   1      23.352  28.897  54.916  1.00  0.00    +0.000 H 
ATOM    142  H32 UNL A   1      24.560  27.589  55.077  1.00  0.00    +0.000 H 
ATOM     31  C20 UNL A   1      24.382  28.618  54.841  1.00  0.00    +0.000 C 
BRANCH   31   30
ATOM    140  H30 UNL A   1      24.865  27.897  52.904  1.00  0.00    +0.000 H 
ATOM    141  H31 UNL A   1      24.030  29.468  52.949  1.00  0.00    +0.000 H 
ATOM     30  C19 UNL A   1      24.785  28.849  53.387  1.00  0.00    +0.000 C 
BRANCH   30   29
ATOM    138  H28 UNL A   1      26.021  30.313  52.443  1.00  0.00    +0.000 H 
ATOM    139  H29 UNL A   1      26.361  30.060  54.150  1.00  0.00    +0.000 H 
ATOM     29  C18 UNL A   1      26.118  29.587  53.222  1.00  0.00    +0.000 C 
BRANCH   29   28
ATOM    137  H27 UNL A   1      26.951  27.997  52.201  1.00  0.00    +0.000 H 
ATOM     28  N6  UNL A   1      27.185  28.670  52.882  1.00  0.00    +0.000 N 
BRANCH   28   26
ATOM     26  C17 UNL A   1      28.459  28.588  53.353  1.00  0.00    +0.000 C 
ATOM     27  O4  UNL A   1      29.107  27.571  53.102  1.00  0.00    +0.000 O 
BRANCH   26   25
ATOM     25  C16 UNL A   1      29.061  29.704  54.177  1.00  0.00    +0.000 C 
ATOM    135  H25 UNL A   1      29.676  30.299  53.534  1.00  0.00    +0.000 H 
ATOM    136  H26 UNL A   1      28.237  30.243  54.597  1.00  0.00    +0.000 H 
BRANCH   25   24
ATOM    133  H23 UNL A   1      30.174  28.224  55.193  1.00  0.00    +0.000 H 
ATOM    134  H24 UNL A   1      30.740  29.932  55.377  1.00  0.00    +0.000 H 
ATOM     24  C15 UNL A   1      29.916  29.249  55.360  1.00  0.00    +0.000 C 
BRANCH   24   23
ATOM    131  H21 UNL A   1      28.898  28.389  57.009  1.00  0.00    +0.000 H 
ATOM    132  H22 UNL A   1      30.087  29.659  57.410  1.00  0.00    +0.000 H 
ATOM     23  C14 UNL A   1      29.302  29.346  56.754  1.00  0.00    +0.000 C 
BRANCH   23   22
ATOM    129  H19 UNL A   1      28.150  30.963  55.984  1.00  0.00    +0.000 H 
ATOM    130  H20 UNL A   1      27.274  29.852  57.059  1.00  0.00    +0.000 H 
ATOM     22  C13 UNL A   1      28.184  30.387  56.886  1.00  0.00    +0.000 C 
BRANCH   22   21
ATOM     21  C12 UNL A   1      28.375  31.335  58.054  1.00  0.00    +0.000 C 
ATOM    127  H17 UNL A   1      27.411  31.612  58.427  1.00  0.00    +0.000 H 
ATOM    128  H18 UNL A   1      28.960  30.818  58.785  1.00  0.00    +0.000 H 
BRANCH   21   20
ATOM     20  C11 UNL A   1      29.134  32.607  57.690  1.00  0.00    +0.000 C 
ATOM    125  H15 UNL A   1      28.654  33.424  58.185  1.00  0.00    +0.000 H 
ATOM    126  H16 UNL A   1      30.144  32.431  57.998  1.00  0.00    +0.000 H 
BRANCH   20   19
ATOM     19  C10 UNL A   1      29.219  32.950  56.198  1.00  0.00    +0.000 C 
ATOM    124  H14 UNL A   1      28.850  33.950  56.112  1.00  0.00    +0.000 H 
ATOM    123  H13 UNL A   1      28.644  32.223  55.662  1.00  0.00    +0.000 H 
BRANCH   19   18
ATOM    121  H11 UNL A   1      31.243  33.584  56.217  1.00  0.00    +0.000 H 
ATOM     18  C9  UNL A   1      30.626  32.975  55.590  1.00  0.00    +0.000 C 
ATOM    122  H12 UNL A   1      30.934  31.951  55.534  1.00  0.00    +0.000 H 
BRANCH   18   17
ATOM     17  C8  UNL A   1      30.734  33.512  54.164  1.00  0.00    +0.000 C 
ATOM    119  H9  UNL A   1      30.588  34.571  54.202  1.00  0.00    +0.000 H 
ATOM    120  H10 UNL A   1      31.700  33.216  53.816  1.00  0.00    +0.000 H 
BRANCH   17   16
ATOM    117  H7  UNL A   1      29.553  31.925  53.438  1.00  0.00    +0.000 H 
ATOM    118  H8  UNL A   1      28.889  33.583  53.214  1.00  0.00    +0.000 H 
ATOM     16  C7  UNL A   1      29.744  32.941  53.164  1.00  0.00    +0.000 C 
BRANCH   16   15
ATOM    116  H6  UNL A   1      30.819  32.278  51.526  1.00  0.00    +0.000 H 
ATOM     15  N5  UNL A   1      30.148  32.951  51.781  1.00  0.00    +0.000 N 
BRANCH   15   13
ATOM     13  C6  UNL A   1      29.726  33.769  50.785  1.00  0.00    +0.000 C 
ATOM     14  O3  UNL A   1      29.075  33.262  49.866  1.00  0.00    +0.000 O 
BRANCH   13   12
ATOM    115  H5  UNL A   1      30.745  35.442  50.549  1.00  0.00    +0.000 H 
ATOM     12  N4  UNL A   1      29.859  35.118  50.828  1.00  0.00    +0.000 N 
BRANCH   12   11
ATOM    101  C69 UNL A   1      28.736  36.518  52.526  1.00  0.00    +0.000 C 
ATOM    102  C70 UNL A   1      27.941  37.646  52.440  1.00  0.00    +0.000 C 
ATOM    165  H55 UNL A   1      29.080  36.061  53.386  1.00  0.00    +0.000 H 
ATOM      9  N2  UNL A   1      27.830  37.894  51.078  1.00  0.00    +0.000 N 
ATOM     10  N3  UNL A   1      28.214  36.823  50.352  1.00  0.00    +0.000 N 
ATOM     11  C5  UNL A   1      28.981  36.119  51.189  1.00  0.00    +0.000 C 
BRANCH    9    8
ATOM      5  C1  UNL A   1      26.706  41.559  49.346  1.00  0.00    +0.000 C 
ATOM      6  C2  UNL A   1      28.059  41.273  49.539  1.00  0.00    +0.000 C 
ATOM      7  C3  UNL A   1      28.430  40.052  50.096  1.00  0.00    +0.000 C 
ATOM      8  C4  UNL A   1      27.449  39.108  50.442  1.00  0.00    +0.000 C 
ATOM    171  H61 UNL A   1      25.384  38.651  50.379  1.00  0.00    +0.000 H 
ATOM    172  H62 UNL A   1      24.729  40.821  49.484  1.00  0.00    +0.000 H 
ATOM    109  C77 UNL A   1      26.098  39.368  50.182  1.00  0.00    +0.000 C 
ATOM    110  C78 UNL A   1      25.724  40.609  49.650  1.00  0.00    +0.000 C 
ATOM    113  H3  UNL A   1      28.779  41.962  49.270  1.00  0.00    +0.000 H 
ATOM    114  H4  UNL A   1      29.428  39.840  50.255  1.00  0.00    +0.000 H 
BRANCH    5    2
ATOM      2  S1  UNL A   1      26.290  43.130  48.655  1.00  0.00    +0.000 S 
ATOM      3  O1  UNL A   1      25.600  42.918  47.410  1.00  0.00    +0.000 O 
ATOM      4  O2  UNL A   1      27.441  44.000  48.780  1.00  0.00    +0.000 O 
BRANCH    2    1
ATOM      1  N1  UNL A   1      25.128  43.751  49.694  1.00  0.00    +0.000 N 
ATOM    111  H1  UNL A   1      24.458  43.019  49.931  1.00  0.00    +0.000 H 
ATOM    112  H2  UNL A   1      24.642  44.523  49.238  1.00  0.00    +0.000 H 
ENDBRANCH    2    1
ENDBRANCH    5    2
ENDBRANCH    9    8
BRANCH  102  103
ATOM    166  H56 UNL A   1      28.856  39.894  53.521  1.00  0.00    +0.000 H 
ATOM    103  C71 UNL A   1      27.292  38.471  53.457  1.00  0.00    +0.000 C 
ATOM    104  C72 UNL A   1      27.965  39.602  53.953  1.00  0.00    +0.000 C 
ATOM    105  C73 UNL A   1      27.445  40.333  55.017  1.00  0.00    +0.000 C 
ATOM    170  H60 UNL A   1      25.537  37.310  53.635  1.00  0.00    +0.000 H 
ATOM    107  C75 UNL A   1      25.531  38.862  55.068  1.00  0.00    +0.000 C 
ATOM    108  C76 UNL A   1      26.058  38.118  54.008  1.00  0.00    +0.000 C 
ATOM    167  H57 UNL A   1      27.959  41.147  55.388  1.00  0.00    +0.000 H 
ATOM    169  H59 UNL A   1      24.620  38.599  55.476  1.00  0.00    +0.000 H 
ATOM    106  C74 UNL A   1      26.228  39.960  55.577  1.00  0.00    +0.000 C 
ATOM    168  H58 UNL A   1      25.840  40.494  56.370  1.00  0.00    +0.000 H 
ENDBRANCH  102  103
ENDBRANCH   12   11
ENDBRANCH   13   12
ENDBRANCH   15   13
ENDBRANCH   16   15
ENDBRANCH   17   16
ENDBRANCH   18   17
ENDBRANCH   19   18
ENDBRANCH   20   19
ENDBRANCH   21   20
ENDBRANCH   22   21
ENDBRANCH   23   22
ENDBRANCH   24   23
ENDBRANCH   25   24
ENDBRANCH   26   25
ENDBRANCH   28   26
ENDBRANCH   29   28
ENDBRANCH   30   29
ENDBRANCH   31   30
ENDBRANCH   32   31
ENDBRANCH   33   32
ENDBRANCH   34   33
ENDBRANCH   35   34
ENDBRANCH   36   35
ENDBRANCH   38   36
ENDBRANCH   42   41
BRANCH   46   47
ATOM     47  C33 UNL A   1      20.410  40.460  49.616  1.00  0.00    +0.000 C 
ATOM     48  C34 UNL A   1      19.209  41.200  49.563  1.00  0.00    +0.000 C 
ATOM     49  F1  UNL A   1      18.061  40.671  50.012  1.00  0.00    +0.000 F 
ATOM     50  C35 UNL A   1      19.136  42.453  48.948  1.00  0.00    +0.000 C 
ATOM     51  F2  UNL A   1      17.945  43.049  48.795  1.00  0.00    +0.000 F 
ATOM     52  C36 UNL A   1      20.268  43.045  48.422  1.00  0.00    +0.000 C 
ATOM     53  F3  UNL A   1      20.187  44.213  47.771  1.00  0.00    +0.000 F 
ATOM     54  C37 UNL A   1      21.476  42.391  48.519  1.00  0.00    +0.000 C 
ATOM     55  F4  UNL A   1      22.576  42.932  47.977  1.00  0.00    +0.000 F 
ATOM     56  C38 UNL A   1      21.544  41.117  49.083  1.00  0.00    +0.000 C 
ATOM     57  F5  UNL A   1      22.732  40.519  48.962  1.00  0.00    +0.000 F 
ENDBRANCH   46   47
BRANCH   63   64
ATOM     65  C45 UNL A   1      21.816  33.718  46.624  1.00  0.00    +0.000 C 
ATOM     66  F6  UNL A   1      22.452  33.887  47.790  1.00  0.00    +0.000 F 
ATOM     67  C46 UNL A   1      21.610  32.412  46.174  1.00  0.00    +0.000 C 
ATOM     68  F7  UNL A   1      22.102  31.376  46.871  1.00  0.00    +0.000 F 
ATOM     69  C47 UNL A   1      20.873  32.179  45.025  1.00  0.00    +0.000 C 
ATOM     70  F8  UNL A   1      20.640  30.925  44.615  1.00  0.00    +0.000 F 
ATOM     71  C48 UNL A   1      20.354  33.249  44.314  1.00  0.00    +0.000 C 
ATOM     72  F9  UNL A   1      19.600  33.031  43.228  1.00  0.00    +0.000 F 
ATOM     73  C49 UNL A   1      20.592  34.553  44.738  1.00  0.00    +0.000 C 
ATOM     74  F10 UNL A   1      20.062  35.564  44.031  1.00  0.00    +0.000 F 
ATOM     64  C44 UNL A   1      21.326  34.821  45.901  1.00  0.00    +0.000 C 
ENDBRANCH   63   64
BRANCH   78   79
ATOM     79  C53 UNL A   1      27.252  36.850  45.863  1.00  0.00    +0.000 C 
ATOM     80  C54 UNL A   1      27.802  36.124  44.790  1.00  0.00    +0.000 C 
ATOM     81  F11 UNL A   1      27.277  34.942  44.435  1.00  0.00    +0.000 F 
ATOM     82  C55 UNL A   1      28.849  36.634  44.013  1.00  0.00    +0.000 C 
ATOM     83  F12 UNL A   1      29.299  35.942  42.956  1.00  0.00    +0.000 F 
ATOM     84  C56 UNL A   1      29.379  37.883  44.289  1.00  0.00    +0.000 C 
ATOM     85  F13 UNL A   1      30.332  38.404  43.503  1.00  0.00    +0.000 F 
ATOM     86  C57 UNL A   1      28.885  38.608  45.358  1.00  0.00    +0.000 C 
ATOM     87  F14 UNL A   1      29.362  39.836  45.609  1.00  0.00    +0.000 F 
ATOM     88  C58 UNL A   1      27.839  38.100  46.133  1.00  0.00    +0.000 C 
ATOM     89  F15 UNL A   1      27.343  38.896  47.091  1.00  0.00    +0.000 F 
ENDBRANCH   78   79
TORSDOF 32
ENDMDL
