MODEL 1
REMARK VINA RESULT:      -9.3      0.000      0.000
ROOT
ATOM     19  C15 UNL A   1      29.040 -14.215  30.932  1.00  0.00    +0.000 C 
ATOM     20  C16 UNL A   1      28.754 -14.345  32.403  1.00  0.00    +0.000 C 
ATOM     21  N3  UNL A   1      27.740 -13.883  33.093  1.00  0.00    +0.000 N 
ATOM     22  C17 UNL A   1      27.952 -14.297  34.402  1.00  0.00    +0.000 C 
ATOM     23  C18 UNL A   1      27.230 -14.004  35.512  1.00  0.00    +0.000 C 
ATOM     35  C25 UNL A   1      26.039 -13.194  35.517  1.00  0.00    +0.000 C 
ATOM     36  C26 UNL A   1      25.253 -12.820  36.593  1.00  0.00    +0.000 C 
ATOM     37  C27 UNL A   1      24.175 -12.068  36.111  1.00  0.00    +0.000 C 
ATOM     38  C28 UNL A   1      24.320 -11.927  34.741  1.00  0.00    +0.000 C 
ATOM     39  N4  UNL A   1      25.460 -12.632  34.388  1.00  0.00    +0.000 N 
ATOM     40  C29 UNL A   1      23.483 -11.200  33.821  1.00  0.00    +0.000 C 
ATOM     52  C36 UNL A   1      23.694 -11.115  32.484  1.00  0.00    +0.000 C 
ATOM     53  N5  UNL A   1      24.709 -11.679  31.722  1.00  0.00    +0.000 N 
ATOM     54  C37 UNL A   1      24.461 -11.334  30.482  1.00  0.00    +0.000 C 
ATOM     55  C38 UNL A   1      25.250 -11.635  29.235  1.00  0.00    +0.000 C 
ATOM     67  C45 UNL A   1      26.396 -12.336  29.336  1.00  0.00    +0.000 C 
ATOM     68  C46 UNL A   1      27.277 -12.677  28.223  1.00  0.00    +0.000 C 
ATOM     69  C47 UNL A   1      28.305 -13.406  28.687  1.00  0.00    +0.000 C 
ATOM     70  C48 UNL A   1      28.173 -13.555  30.136  1.00  0.00    +0.000 C 
ATOM     71  N6  UNL A   1      27.009 -12.891  30.433  1.00  0.00    +0.000 N 
ATOM     72  C49 UNL A   1      23.242 -10.532  30.315  1.00  0.00    +0.000 C 
ATOM     73  C50 UNL A   1      22.843 -10.385  31.570  1.00  0.00    +0.000 C 
ATOM     74  C51 UNL A   1      29.151 -15.107  34.399  1.00  0.00    +0.000 C 
ATOM     75  C52 UNL A   1      29.719 -15.115  33.202  1.00  0.00    +0.000 C 
ATOM    108  H21 UNL A   1      25.430 -13.056  37.582  1.00  0.00    +0.000 H 
ATOM    109  H22 UNL A   1      23.405 -11.684  36.680  1.00  0.00    +0.000 H 
ATOM    110  H23 UNL A   1      25.808 -12.722  33.471  1.00  0.00    +0.000 H 
ATOM    111  H24 UNL A   1      27.133 -12.402  27.239  1.00  0.00    +0.000 H 
ATOM    112  H25 UNL A   1      29.067 -13.798  28.111  1.00  0.00    +0.000 H 
ATOM    113  H26 UNL A   1      26.648 -12.818  31.346  1.00  0.00    +0.000 H 
ATOM    114  H27 UNL A   1      22.810 -10.177  29.448  1.00  0.00    +0.000 H 
ATOM    115  H28 UNL A   1      22.028  -9.822  31.859  1.00  0.00    +0.000 H 
ATOM    116  H29 UNL A   1      29.515 -15.612  35.221  1.00  0.00    +0.000 H 
ATOM    117  H30 UNL A   1      30.608 -15.548  32.907  1.00  0.00    +0.000 H 
ENDROOT
BRANCH   19   18
ATOM    106  H19 UNL A   1      33.504 -14.201  29.743  1.00  0.00    +0.000 H 
ATOM    107  H20 UNL A   1      31.571 -13.270  30.874  1.00  0.00    +0.000 H 
ATOM     76  C53 UNL A   1      30.179 -16.089  29.711  1.00  0.00    +0.000 C 
ATOM     77  C54 UNL A   1      31.315 -16.666  29.141  1.00  0.00    +0.000 C 
ATOM     15  C11 UNL A   1      32.514 -15.951  29.093  1.00  0.00    +0.000 C 
ATOM     16  C12 UNL A   1      32.608 -14.713  29.737  1.00  0.00    +0.000 C 
ATOM     17  C13 UNL A   1      31.489 -14.169  30.372  1.00  0.00    +0.000 C 
ATOM     18  C14 UNL A   1      30.253 -14.835  30.334  1.00  0.00    +0.000 C 
ATOM    118  H31 UNL A   1      29.277 -16.590  29.675  1.00  0.00    +0.000 H 
ATOM    119  H32 UNL A   1      31.268 -17.621  28.754  1.00  0.00    +0.000 H 
BRANCH   15   13
ATOM     13  C10 UNL A   1      33.715 -16.480  28.405  1.00  0.00    +0.000 C 
ATOM     14  O2  UNL A   1      34.253 -17.501  28.829  1.00  0.00    +0.000 O 
BRANCH   13   12
ATOM    105  H18 UNL A   1      35.222 -15.685  27.363  1.00  0.00    +0.000 H 
ATOM     12  N2  UNL A   1      34.251 -15.833  27.318  1.00  0.00    +0.000 N 
BRANCH   12   11
ATOM     11  C9  UNL A   1      33.608 -15.333  26.115  1.00  0.00    +0.000 C 
ATOM    103  H16 UNL A   1      34.138 -15.708  25.264  1.00  0.00    +0.000 H 
ATOM    104  H17 UNL A   1      32.592 -15.667  26.130  1.00  0.00    +0.000 H 
BRANCH   11   10
ATOM     10  C8  UNL A   1      33.586 -13.808  26.041  1.00  0.00    +0.000 C 
ATOM    101  H14 UNL A   1      34.541 -13.448  26.364  1.00  0.00    +0.000 H 
ATOM    102  H15 UNL A   1      33.352 -13.567  25.026  1.00  0.00    +0.000 H 
BRANCH   10    9
ATOM      9  C7  UNL A   1      32.514 -13.120  26.892  1.00  0.00    +0.000 C 
ATOM     99  H12 UNL A   1      31.876 -13.881  27.292  1.00  0.00    +0.000 H 
ATOM    100  H13 UNL A   1      33.044 -12.563  27.634  1.00  0.00    +0.000 H 
BRANCH    9    8
ATOM     97  H10 UNL A   1      32.170 -11.768  25.296  1.00  0.00    +0.000 H 
ATOM     98  H11 UNL A   1      30.725 -12.623  25.927  1.00  0.00    +0.000 H 
ATOM      8  C6  UNL A   1      31.633 -12.106  26.157  1.00  0.00    +0.000 C 
BRANCH    8    7
ATOM     95  H8  UNL A   1      30.497 -10.327  26.398  1.00  0.00    +0.000 H 
ATOM      7  C5  UNL A   1      31.218 -10.873  26.968  1.00  0.00    +0.000 C 
ATOM     96  H9  UNL A   1      30.836 -11.241  27.897  1.00  0.00    +0.000 H 
BRANCH    7    6
ATOM     94  H7  UNL A   1      33.055  -9.920  26.511  1.00  0.00    +0.000 H 
ATOM     93  H6  UNL A   1      32.822 -10.258  28.228  1.00  0.00    +0.000 H 
ATOM      6  C4  UNL A   1      32.360  -9.921  27.324  1.00  0.00    +0.000 C 
BRANCH    6    5
ATOM     92  H5  UNL A   1      31.731  -8.063  26.681  1.00  0.00    +0.000 H 
ATOM      5  N1  UNL A   1      31.892  -8.556  27.518  1.00  0.00    +0.000 N 
BRANCH    5    3
ATOM      3  C3  UNL A   1      31.637  -7.835  28.649  1.00  0.00    +0.000 C 
ATOM      4  O1  UNL A   1      32.599  -7.572  29.377  1.00  0.00    +0.000 O 
BRANCH    3    2
ATOM      2  C2  UNL A   1      30.221  -7.361  29.027  1.00  0.00    +0.000 C 
ATOM     91  H4  UNL A   1      30.284  -6.599  29.775  1.00  0.00    +0.000 H 
BRANCH    2    1
ATOM      1  C1  UNL A   1      29.570  -6.761  27.771  1.00  0.00    +0.000 C 
ATOM     90  H3  UNL A   1      28.505  -6.845  27.847  1.00  0.00    +0.000 H 
ATOM     89  H2  UNL A   1      29.841  -5.730  27.686  1.00  0.00    +0.000 H 
ATOM     88  H1  UNL A   1      29.909  -7.292  26.905  1.00  0.00    +0.000 H 
ENDBRANCH    2    1
BRANCH    2   78
ATOM     78  C55 UNL A   1      29.384  -8.439  29.711  1.00  0.00    +0.000 C 
ATOM     79  C56 UNL A   1      29.975  -9.575  30.296  1.00  0.00    +0.000 C 
ATOM     80  C57 UNL A   1      29.290 -10.305  31.266  1.00  0.00    +0.000 C 
ATOM     81  C58 UNL A   1      28.038  -9.860  31.668  1.00  0.00    +0.000 C 
ATOM     82  C59 UNL A   1      27.375  -8.859  30.960  1.00  0.00    +0.000 C 
ATOM     83  C60 UNL A   1      28.013  -8.219  29.910  1.00  0.00    +0.000 C 
ATOM     84  O3  UNL A   1      26.179  -8.323  31.352  1.00  0.00    +0.000 O 
ATOM     85  C61 UNL A   1      25.874  -8.563  32.732  1.00  0.00    +0.000 C 
ATOM     86  C62 UNL A   1      27.036  -9.138  33.536  1.00  0.00    +0.000 C 
ATOM     87  O4  UNL A   1      27.555 -10.301  32.876  1.00  0.00    +0.000 O 
ATOM    120  H33 UNL A   1      30.922  -9.868  30.006  1.00  0.00    +0.000 H 
ATOM    121  H34 UNL A   1      29.703 -11.158  31.675  1.00  0.00    +0.000 H 
ATOM    122  H35 UNL A   1      27.487  -7.591  29.282  1.00  0.00    +0.000 H 
ATOM    123  H36 UNL A   1      25.058  -9.254  32.781  1.00  0.00    +0.000 H 
ATOM    124  H37 UNL A   1      25.639  -7.613  33.166  1.00  0.00    +0.000 H 
ATOM    125  H38 UNL A   1      26.693  -9.407  34.513  1.00  0.00    +0.000 H 
ATOM    126  H39 UNL A   1      27.809  -8.402  33.615  1.00  0.00    +0.000 H 
ENDBRANCH    2   78
ENDBRANCH    3    2
ENDBRANCH    5    3
ENDBRANCH    6    5
ENDBRANCH    7    6
ENDBRANCH    8    7
ENDBRANCH    9    8
ENDBRANCH   10    9
ENDBRANCH   11   10
ENDBRANCH   12   11
ENDBRANCH   13   12
ENDBRANCH   15   13
ENDBRANCH   19   18
BRANCH   23   24
ATOM     33  C24 UNL A   1      27.221 -15.757  37.332  1.00  0.00    +0.000 C 
ATOM     34  F5  UNL A   1      26.324 -16.467  36.631  1.00  0.00    +0.000 F 
ATOM     24  C19 UNL A   1      27.720 -14.549  36.823  1.00  0.00    +0.000 C 
ATOM     25  C20 UNL A   1      28.652 -13.846  37.603  1.00  0.00    +0.000 C 
ATOM     26  F1  UNL A   1      29.169 -12.689  37.159  1.00  0.00    +0.000 F 
ATOM     27  C21 UNL A   1      29.083 -14.343  38.830  1.00  0.00    +0.000 C 
ATOM     28  F2  UNL A   1      30.007 -13.675  39.535  1.00  0.00    +0.000 F 
ATOM     29  C22 UNL A   1      28.565 -15.533  39.318  1.00  0.00    +0.000 C 
ATOM     30  F3  UNL A   1      28.973 -16.005  40.505  1.00  0.00    +0.000 F 
ATOM     31  C23 UNL A   1      27.631 -16.236  38.574  1.00  0.00    +0.000 C 
ATOM     32  F4  UNL A   1      27.120 -17.379  39.051  1.00  0.00    +0.000 F 
ENDBRANCH   23   24
BRANCH   40   41
ATOM     41  C30 UNL A   1      22.302 -10.456  34.377  1.00  0.00    +0.000 C 
ATOM     42  C31 UNL A   1      20.997 -10.960  34.273  1.00  0.00    +0.000 C 
ATOM     43  F6  UNL A   1      20.770 -12.122  33.639  1.00  0.00    +0.000 F 
ATOM     44  C32 UNL A   1      19.911 -10.247  34.775  1.00  0.00    +0.000 C 
ATOM     45  F7  UNL A   1      18.668 -10.720  34.609  1.00  0.00    +0.000 F 
ATOM     46  C33 UNL A   1      20.113  -9.040  35.426  1.00  0.00    +0.000 C 
ATOM     47  F8  UNL A   1      19.067  -8.356  35.909  1.00  0.00    +0.000 F 
ATOM     48  C34 UNL A   1      21.397  -8.536  35.567  1.00  0.00    +0.000 C 
ATOM     49  F9  UNL A   1      21.594  -7.377  36.209  1.00  0.00    +0.000 F 
ATOM     50  C35 UNL A   1      22.481  -9.231  35.036  1.00  0.00    +0.000 C 
ATOM     51  F10 UNL A   1      23.708  -8.707  35.171  1.00  0.00    +0.000 F 
ENDBRANCH   40   41
BRANCH   55   56
ATOM     65  C44 UNL A   1      23.738 -11.805  27.229  1.00  0.00    +0.000 C 
ATOM     66  F15 UNL A   1      23.165 -12.893  27.761  1.00  0.00    +0.000 F 
ATOM     56  C39 UNL A   1      24.781 -11.158  27.906  1.00  0.00    +0.000 C 
ATOM     57  C40 UNL A   1      25.350 -10.028  27.300  1.00  0.00    +0.000 C 
ATOM     58  F11 UNL A   1      26.338  -9.363  27.917  1.00  0.00    +0.000 F 
ATOM     59  C41 UNL A   1      24.871  -9.546  26.084  1.00  0.00    +0.000 C 
ATOM     60  F12 UNL A   1      25.392  -8.430  25.556  1.00  0.00    +0.000 F 
ATOM     61  C42 UNL A   1      23.841 -10.206  25.430  1.00  0.00    +0.000 C 
ATOM     62  F13 UNL A   1      23.380  -9.741  24.261  1.00  0.00    +0.000 F 
ATOM     63  C43 UNL A   1      23.284 -11.341  25.996  1.00  0.00    +0.000 C 
ATOM     64  F14 UNL A   1      22.299 -11.993  25.360  1.00  0.00    +0.000 F 
ENDBRANCH   55   56
TORSDOF 17
ENDMDL
MODEL 2
REMARK VINA RESULT:      -9.0     64.894     70.950
ROOT
ATOM     19  C15 UNL A   1      13.886  53.871   4.934  1.00  0.00    +0.000 C 
ATOM     20  C16 UNL A   1      14.803  54.334   3.836  1.00  0.00    +0.000 C 
ATOM     21  N3  UNL A   1      15.290  53.660   2.824  1.00  0.00    +0.000 N 
ATOM     22  C17 UNL A   1      16.063  54.561   2.103  1.00  0.00    +0.000 C 
ATOM     23  C18 UNL A   1      16.843  54.332   1.018  1.00  0.00    +0.000 C 
ATOM     35  C25 UNL A   1      16.985  53.051   0.373  1.00  0.00    +0.000 C 
ATOM     36  C26 UNL A   1      17.769  52.714  -0.716  1.00  0.00    +0.000 C 
ATOM     37  C27 UNL A   1      17.551  51.365  -1.015  1.00  0.00    +0.000 C 
ATOM     38  C28 UNL A   1      16.672  50.846  -0.077  1.00  0.00    +0.000 C 
ATOM     39  N4  UNL A   1      16.323  51.895   0.761  1.00  0.00    +0.000 N 
ATOM     40  C29 UNL A   1      16.188  49.496   0.048  1.00  0.00    +0.000 C 
ATOM     52  C36 UNL A   1      15.319  49.070   0.998  1.00  0.00    +0.000 C 
ATOM     53  N5  UNL A   1      14.718  49.793   2.020  1.00  0.00    +0.000 N 
ATOM     54  C37 UNL A   1      13.943  48.946   2.652  1.00  0.00    +0.000 C 
ATOM     55  C38 UNL A   1      13.077  49.170   3.863  1.00  0.00    +0.000 C 
ATOM     67  C45 UNL A   1      13.067  50.383   4.448  1.00  0.00    +0.000 C 
ATOM     68  C46 UNL A   1      12.304  50.739   5.640  1.00  0.00    +0.000 C 
ATOM     69  C47 UNL A   1      12.507  52.036   5.920  1.00  0.00    +0.000 C 
ATOM     70  C48 UNL A   1      13.443  52.596   4.945  1.00  0.00    +0.000 C 
ATOM     71  N6  UNL A   1      13.719  51.543   4.107  1.00  0.00    +0.000 N 
ATOM     72  C49 UNL A   1      13.944  47.592   2.081  1.00  0.00    +0.000 C 
ATOM     73  C50 UNL A   1      14.838  47.710   1.110  1.00  0.00    +0.000 C 
ATOM     74  C51 UNL A   1      15.926  55.847   2.753  1.00  0.00    +0.000 C 
ATOM     75  C52 UNL A   1      15.211  55.747   3.864  1.00  0.00    +0.000 C 
ATOM    108  H21 UNL A   1      18.406  53.349  -1.222  1.00  0.00    +0.000 H 
ATOM    109  H22 UNL A   1      17.973  50.844  -1.799  1.00  0.00    +0.000 H 
ATOM    110  H23 UNL A   1      15.698  51.829   1.519  1.00  0.00    +0.000 H 
ATOM    111  H24 UNL A   1      11.705  50.096   6.182  1.00  0.00    +0.000 H 
ATOM    112  H25 UNL A   1      12.073  52.555   6.699  1.00  0.00    +0.000 H 
ATOM    113  H26 UNL A   1      14.326  51.613   3.336  1.00  0.00    +0.000 H 
ATOM    114  H27 UNL A   1      13.394  46.766   2.363  1.00  0.00    +0.000 H 
ATOM    115  H28 UNL A   1      15.150  46.931   0.509  1.00  0.00    +0.000 H 
ATOM    116  H29 UNL A   1      16.332  56.726   2.397  1.00  0.00    +0.000 H 
ATOM    117  H30 UNL A   1      14.995  56.473   4.565  1.00  0.00    +0.000 H 
ENDROOT
BRANCH   19   18
ATOM    106  H19 UNL A   1      14.156  55.772   9.136  1.00  0.00    +0.000 H 
ATOM    107  H20 UNL A   1      15.002  54.375   7.343  1.00  0.00    +0.000 H 
ATOM     76  C53 UNL A   1      12.289  55.601   5.803  1.00  0.00    +0.000 C 
ATOM     77  C54 UNL A   1      11.855  56.474   6.803  1.00  0.00    +0.000 C 
ATOM     15  C11 UNL A   1      12.496  56.490   8.044  1.00  0.00    +0.000 C 
ATOM     16  C12 UNL A   1      13.653  55.729   8.235  1.00  0.00    +0.000 C 
ATOM     17  C13 UNL A   1      14.130  54.910   7.209  1.00  0.00    +0.000 C 
ATOM     18  C14 UNL A   1      13.431  54.809   5.995  1.00  0.00    +0.000 C 
ATOM    118  H31 UNL A   1      11.764  55.536   4.916  1.00  0.00    +0.000 H 
ATOM    119  H32 UNL A   1      11.061  57.107   6.623  1.00  0.00    +0.000 H 
BRANCH   15   13
ATOM     13  C10 UNL A   1      12.006  57.323   9.167  1.00  0.00    +0.000 C 
ATOM     14  O2  UNL A   1      12.149  58.543   9.120  1.00  0.00    +0.000 O 
BRANCH   13   12
ATOM    105  H18 UNL A   1      11.465  57.293  11.090  1.00  0.00    +0.000 H 
ATOM     12  N2  UNL A   1      11.421  56.751  10.270  1.00  0.00    +0.000 N 
BRANCH   12   11
ATOM     11  C9  UNL A   1      10.749  55.471  10.416  1.00  0.00    +0.000 C 
ATOM    103  H16 UNL A   1       9.864  55.615  11.002  1.00  0.00    +0.000 H 
ATOM    104  H17 UNL A   1      10.521  55.114   9.433  1.00  0.00    +0.000 H 
BRANCH   11   10
ATOM     10  C8  UNL A   1      11.618  54.416  11.095  1.00  0.00    +0.000 C 
ATOM    101  H14 UNL A   1      11.018  53.542  11.246  1.00  0.00    +0.000 H 
ATOM    102  H15 UNL A   1      12.453  54.262  10.446  1.00  0.00    +0.000 H 
BRANCH   10    9
ATOM      9  C7  UNL A   1      12.210  54.818  12.449  1.00  0.00    +0.000 C 
ATOM     99  H12 UNL A   1      12.589  55.814  12.358  1.00  0.00    +0.000 H 
ATOM    100  H13 UNL A   1      11.414  54.719  13.156  1.00  0.00    +0.000 H 
BRANCH    9    8
ATOM     97  H10 UNL A   1      13.973  54.530  13.590  1.00  0.00    +0.000 H 
ATOM     98  H11 UNL A   1      12.866  53.122  13.486  1.00  0.00    +0.000 H 
ATOM      8  C6  UNL A   1      13.343  53.929  12.969  1.00  0.00    +0.000 C 
BRANCH    8    7
ATOM     95  H8  UNL A   1      13.611  53.069  11.044  1.00  0.00    +0.000 H 
ATOM      7  C5  UNL A   1      14.223  53.275  11.897  1.00  0.00    +0.000 C 
ATOM     96  H9  UNL A   1      15.013  53.968  11.695  1.00  0.00    +0.000 H 
BRANCH    7    6
ATOM     94  H7  UNL A   1      14.321  51.159  11.933  1.00  0.00    +0.000 H 
ATOM     93  H6  UNL A   1      14.941  51.938  13.391  1.00  0.00    +0.000 H 
ATOM      6  C4  UNL A   1      14.898  51.971  12.323  1.00  0.00    +0.000 C 
BRANCH    6    5
ATOM     92  H5  UNL A   1      16.846  52.597  12.054  1.00  0.00    +0.000 H 
ATOM      5  N1  UNL A   1      16.249  51.858  11.795  1.00  0.00    +0.000 N 
BRANCH    5    3
ATOM      3  C3  UNL A   1      16.839  50.914  11.003  1.00  0.00    +0.000 C 
ATOM      4  O1  UNL A   1      17.585  50.102  11.560  1.00  0.00    +0.000 O 
BRANCH    3    2
ATOM      2  C2  UNL A   1      16.604  50.842   9.483  1.00  0.00    +0.000 C 
ATOM     91  H4  UNL A   1      16.052  51.701   9.163  1.00  0.00    +0.000 H 
BRANCH    2    1
ATOM      1  C1  UNL A   1      17.975  50.854   8.789  1.00  0.00    +0.000 C 
ATOM     90  H3  UNL A   1      18.216  49.863   8.460  1.00  0.00    +0.000 H 
ATOM     89  H2  UNL A   1      17.942  51.511   7.945  1.00  0.00    +0.000 H 
ATOM     88  H1  UNL A   1      18.721  51.192   9.478  1.00  0.00    +0.000 H 
ENDBRANCH    2    1
BRANCH    2   78
ATOM     78  C55 UNL A   1      15.700  49.684   9.066  1.00  0.00    +0.000 C 
ATOM     79  C56 UNL A   1      16.217  48.404   8.789  1.00  0.00    +0.000 C 
ATOM     80  C57 UNL A   1      15.388  47.284   8.839  1.00  0.00    +0.000 C 
ATOM     81  C58 UNL A   1      14.062  47.459   9.210  1.00  0.00    +0.000 C 
ATOM     82  C59 UNL A   1      13.505  48.734   9.294  1.00  0.00    +0.000 C 
ATOM     83  C60 UNL A   1      14.308  49.849   9.117  1.00  0.00    +0.000 C 
ATOM     84  O3  UNL A   1      12.231  48.974   9.730  1.00  0.00    +0.000 O 
ATOM     85  C61 UNL A   1      11.670  47.885  10.473  1.00  0.00    +0.000 C 
ATOM     86  C62 UNL A   1      12.675  46.798  10.840  1.00  0.00    +0.000 C 
ATOM     87  O4  UNL A   1      13.369  46.362   9.662  1.00  0.00    +0.000 O 
ATOM    120  H33 UNL A   1      17.215  48.294   8.549  1.00  0.00    +0.000 H 
ATOM    121  H34 UNL A   1      15.752  46.347   8.605  1.00  0.00    +0.000 H 
ATOM    122  H35 UNL A   1      13.888  50.787   9.023  1.00  0.00    +0.000 H 
ATOM    123  H36 UNL A   1      10.894  47.441   9.885  1.00  0.00    +0.000 H 
ATOM    124  H37 UNL A   1      11.309  48.293  11.394  1.00  0.00    +0.000 H 
ATOM    125  H38 UNL A   1      12.158  45.968  11.275  1.00  0.00    +0.000 H 
ATOM    126  H39 UNL A   1      13.381  47.191  11.541  1.00  0.00    +0.000 H 
ENDBRANCH    2   78
ENDBRANCH    3    2
ENDBRANCH    5    3
ENDBRANCH    6    5
ENDBRANCH    7    6
ENDBRANCH    8    7
ENDBRANCH    9    8
ENDBRANCH   10    9
ENDBRANCH   11   10
ENDBRANCH   12   11
ENDBRANCH   13   12
ENDBRANCH   15   13
ENDBRANCH   19   18
BRANCH   23   24
ATOM     33  C24 UNL A   1      17.112  56.264  -0.589  1.00  0.00    +0.000 C 
ATOM     34  F5  UNL A   1      15.898  56.001  -1.094  1.00  0.00    +0.000 F 
ATOM     24  C19 UNL A   1      17.622  55.492   0.466  1.00  0.00    +0.000 C 
ATOM     25  C20 UNL A   1      18.902  55.808   0.949  1.00  0.00    +0.000 C 
ATOM     26  F1  UNL A   1      19.432  55.107   1.963  1.00  0.00    +0.000 F 
ATOM     27  C21 UNL A   1      19.630  56.868   0.415  1.00  0.00    +0.000 C 
ATOM     28  F2  UNL A   1      20.830  57.178   0.924  1.00  0.00    +0.000 F 
ATOM     29  C22 UNL A   1      19.110  57.609  -0.635  1.00  0.00    +0.000 C 
ATOM     30  F3  UNL A   1      19.818  58.621  -1.156  1.00  0.00    +0.000 F 
ATOM     31  C23 UNL A   1      17.857  57.304  -1.142  1.00  0.00    +0.000 C 
ATOM     32  F4  UNL A   1      17.360  58.009  -2.166  1.00  0.00    +0.000 F 
ENDBRANCH   23   24
BRANCH   40   41
ATOM     41  C30 UNL A   1      16.697  48.470  -0.925  1.00  0.00    +0.000 C 
ATOM     42  C31 UNL A   1      15.984  48.136  -2.086  1.00  0.00    +0.000 C 
ATOM     43  F6  UNL A   1      14.801  48.715  -2.342  1.00  0.00    +0.000 F 
ATOM     44  C32 UNL A   1      16.461  47.168  -2.966  1.00  0.00    +0.000 C 
ATOM     45  F7  UNL A   1      15.732  46.822  -4.036  1.00  0.00    +0.000 F 
ATOM     46  C33 UNL A   1      17.676  46.545  -2.724  1.00  0.00    +0.000 C 
ATOM     47  F8  UNL A   1      18.133  45.614  -3.572  1.00  0.00    +0.000 F 
ATOM     48  C34 UNL A   1      18.412  46.880  -1.597  1.00  0.00    +0.000 C 
ATOM     49  F9  UNL A   1      19.593  46.290  -1.371  1.00  0.00    +0.000 F 
ATOM     50  C35 UNL A   1      17.922  47.824  -0.699  1.00  0.00    +0.000 C 
ATOM     51  F10 UNL A   1      18.648  48.110   0.392  1.00  0.00    +0.000 F 
ENDBRANCH   40   41
BRANCH   55   56
ATOM     65  C44 UNL A   1      12.735  47.243   5.448  1.00  0.00    +0.000 C 
ATOM     66  F15 UNL A   1      13.975  47.422   5.924  1.00  0.00    +0.000 F 
ATOM     56  C39 UNL A   1      12.251  48.066   4.421  1.00  0.00    +0.000 C 
ATOM     57  C40 UNL A   1      10.949  47.828   3.955  1.00  0.00    +0.000 C 
ATOM     58  F11 UNL A   1      10.433  48.600   2.987  1.00  0.00    +0.000 F 
ATOM     59  C41 UNL A   1      10.153  46.833   4.518  1.00  0.00    +0.000 C 
ATOM     60  F12 UNL A   1       8.892  46.668   4.096  1.00  0.00    +0.000 F 
ATOM     61  C42 UNL A   1      10.656  46.028   5.530  1.00  0.00    +0.000 C 
ATOM     62  F13 UNL A   1       9.890  45.072   6.072  1.00  0.00    +0.000 F 
ATOM     63  C43 UNL A   1      11.950  46.225   5.986  1.00  0.00    +0.000 C 
ATOM     64  F14 UNL A   1      12.447  45.440   6.952  1.00  0.00    +0.000 F 
ENDBRANCH   55   56
TORSDOF 17
ENDMDL
MODEL 3
REMARK VINA RESULT:      -9.0     43.825     47.102
ROOT
ATOM     19  C15 UNL A   1      53.367  19.484  11.536  1.00  0.00    +0.000 C 
ATOM     20  C16 UNL A   1      54.715  18.827  11.424  1.00  0.00    +0.000 C 
ATOM     21  N3  UNL A   1      55.713  18.836  12.273  1.00  0.00    +0.000 N 
ATOM     22  C17 UNL A   1      56.711  18.063  11.694  1.00  0.00    +0.000 C 
ATOM     23  C18 UNL A   1      57.972  17.833  12.139  1.00  0.00    +0.000 C 
ATOM     35  C25 UNL A   1      58.508  18.355  13.370  1.00  0.00    +0.000 C 
ATOM     36  C26 UNL A   1      59.780  18.199  13.893  1.00  0.00    +0.000 C 
ATOM     37  C27 UNL A   1      59.829  18.848  15.132  1.00  0.00    +0.000 C 
ATOM     38  C28 UNL A   1      58.604  19.456  15.355  1.00  0.00    +0.000 C 
ATOM     39  N4  UNL A   1      57.800  19.135  14.272  1.00  0.00    +0.000 N 
ATOM     40  C29 UNL A   1      58.198  20.271  16.470  1.00  0.00    +0.000 C 
ATOM     52  C36 UNL A   1      56.970  20.828  16.615  1.00  0.00    +0.000 C 
ATOM     53  N5  UNL A   1      55.869  20.749  15.772  1.00  0.00    +0.000 N 
ATOM     54  C37 UNL A   1      54.916  21.428  16.361  1.00  0.00    +0.000 C 
ATOM     55  C38 UNL A   1      53.514  21.708  15.887  1.00  0.00    +0.000 C 
ATOM     67  C45 UNL A   1      53.123  21.244  14.684  1.00  0.00    +0.000 C 
ATOM     68  C46 UNL A   1      51.811  21.461  14.082  1.00  0.00    +0.000 C 
ATOM     69  C47 UNL A   1      51.763  20.830  12.898  1.00  0.00    +0.000 C 
ATOM     70  C48 UNL A   1      53.055  20.191  12.641  1.00  0.00    +0.000 C 
ATOM     71  N6  UNL A   1      53.798  20.487  13.757  1.00  0.00    +0.000 N 
ATOM     72  C49 UNL A   1      55.298  21.993  17.663  1.00  0.00    +0.000 C 
ATOM     73  C50 UNL A   1      56.573  21.642  17.744  1.00  0.00    +0.000 C 
ATOM     74  C51 UNL A   1      56.176  17.543  10.455  1.00  0.00    +0.000 C 
ATOM     75  C52 UNL A   1      54.970  18.036  10.211  1.00  0.00    +0.000 C 
ATOM    108  H21 UNL A   1      60.559  17.690  13.447  1.00  0.00    +0.000 H 
ATOM    109  H22 UNL A   1      60.640  18.870  15.769  1.00  0.00    +0.000 H 
ATOM    110  H23 UNL A   1      56.863  19.419  14.160  1.00  0.00    +0.000 H 
ATOM    111  H24 UNL A   1      51.044  22.011  14.499  1.00  0.00    +0.000 H 
ATOM    112  H25 UNL A   1      50.946  20.800  12.269  1.00  0.00    +0.000 H 
ATOM    113  H26 UNL A   1      54.727  20.186  13.881  1.00  0.00    +0.000 H 
ATOM    114  H27 UNL A   1      54.724  22.524  18.336  1.00  0.00    +0.000 H 
ATOM    115  H28 UNL A   1      57.202  21.913  18.515  1.00  0.00    +0.000 H 
ATOM    116  H29 UNL A   1      56.668  16.875   9.842  1.00  0.00    +0.000 H 
ATOM    117  H30 UNL A   1      54.367  17.900   9.385  1.00  0.00    +0.000 H 
ENDROOT
BRANCH   19   18
ATOM    106  H19 UNL A   1      50.893  21.079   7.975  1.00  0.00    +0.000 H 
ATOM    107  H20 UNL A   1      52.664  21.258   9.621  1.00  0.00    +0.000 H 
ATOM     76  C53 UNL A   1      51.631  18.145  10.313  1.00  0.00    +0.000 C 
ATOM     77  C54 UNL A   1      50.675  18.011   9.305  1.00  0.00    +0.000 C 
ATOM     15  C11 UNL A   1      50.357  19.102   8.492  1.00  0.00    +0.000 C 
ATOM     16  C12 UNL A   1      51.094  20.285   8.603  1.00  0.00    +0.000 C 
ATOM     17  C13 UNL A   1      52.102  20.394   9.564  1.00  0.00    +0.000 C 
ATOM     18  C14 UNL A   1      52.356  19.337  10.454  1.00  0.00    +0.000 C 
ATOM    118  H31 UNL A   1      51.806  17.360  10.961  1.00  0.00    +0.000 H 
ATOM    119  H32 UNL A   1      50.203  17.105   9.161  1.00  0.00    +0.000 H 
BRANCH   15   13
ATOM     13  C10 UNL A   1      49.276  19.037   7.481  1.00  0.00    +0.000 C 
ATOM     14  O2  UNL A   1      48.456  19.950   7.416  1.00  0.00    +0.000 O 
BRANCH   13   12
ATOM    105  H18 UNL A   1      49.964  17.768   6.100  1.00  0.00    +0.000 H 
ATOM     12  N2  UNL A   1      49.161  17.961   6.636  1.00  0.00    +0.000 N 
BRANCH   12   11
ATOM     11  C9  UNL A   1      48.041  17.064   6.407  1.00  0.00    +0.000 C 
ATOM    103  H16 UNL A   1      48.339  16.071   6.673  1.00  0.00    +0.000 H 
ATOM    104  H17 UNL A   1      47.226  17.409   7.009  1.00  0.00    +0.000 H 
BRANCH   11   10
ATOM     10  C8  UNL A   1      47.568  17.060   4.955  1.00  0.00    +0.000 C 
ATOM    101  H14 UNL A   1      48.297  16.536   4.373  1.00  0.00    +0.000 H 
ATOM    102  H15 UNL A   1      46.605  16.596   4.963  1.00  0.00    +0.000 H 
BRANCH   10    9
ATOM      9  C7  UNL A   1      47.363  18.439   4.323  1.00  0.00    +0.000 C 
ATOM     99  H12 UNL A   1      48.052  19.116   4.784  1.00  0.00    +0.000 H 
ATOM    100  H13 UNL A   1      47.522  18.305   3.274  1.00  0.00    +0.000 H 
BRANCH    9    8
ATOM     97  H10 UNL A   1      45.279  18.391   3.934  1.00  0.00    +0.000 H 
ATOM     98  H11 UNL A   1      45.770  19.092   5.512  1.00  0.00    +0.000 H 
ATOM      8  C6  UNL A   1      45.958  19.030   4.460  1.00  0.00    +0.000 C 
BRANCH    8    7
ATOM     95  H8  UNL A   1      46.153  21.138   4.652  1.00  0.00    +0.000 H 
ATOM      7  C5  UNL A   1      45.778  20.454   3.920  1.00  0.00    +0.000 C 
ATOM     96  H9  UNL A   1      46.310  20.491   2.992  1.00  0.00    +0.000 H 
BRANCH    7    6
ATOM     94  H7  UNL A   1      44.344  21.438   2.710  1.00  0.00    +0.000 H 
ATOM     93  H6  UNL A   1      43.935  21.394   4.427  1.00  0.00    +0.000 H 
ATOM      6  C4  UNL A   1      44.335  20.846   3.600  1.00  0.00    +0.000 C 
BRANCH    6    5
ATOM     92  H5  UNL A   1      43.318  19.139   4.160  1.00  0.00    +0.000 H 
ATOM      5  N1  UNL A   1      43.495  19.682   3.358  1.00  0.00    +0.000 N 
BRANCH    5    3
ATOM      3  C3  UNL A   1      42.907  19.207   2.221  1.00  0.00    +0.000 C 
ATOM      4  O1  UNL A   1      43.647  18.985   1.257  1.00  0.00    +0.000 O 
BRANCH    3    2
ATOM      2  C2  UNL A   1      41.392  18.951   2.116  1.00  0.00    +0.000 C 
ATOM     91  H4  UNL A   1      41.202  18.217   1.362  1.00  0.00    +0.000 H 
BRANCH    2    1
ATOM      1  C1  UNL A   1      40.908  18.403   3.467  1.00  0.00    +0.000 C 
ATOM     90  H3  UNL A   1      39.837  18.374   3.476  1.00  0.00    +0.000 H 
ATOM     89  H2  UNL A   1      41.293  17.416   3.611  1.00  0.00    +0.000 H 
ATOM     88  H1  UNL A   1      41.253  19.040   4.255  1.00  0.00    +0.000 H 
ENDBRANCH    2    1
BRANCH    2   78
ATOM     78  C55 UNL A   1      40.608  20.162   1.614  1.00  0.00    +0.000 C 
ATOM     79  C56 UNL A   1      40.983  20.855   0.448  1.00  0.00    +0.000 C 
ATOM     80  C57 UNL A   1      40.057  21.648  -0.229  1.00  0.00    +0.000 C 
ATOM     81  C58 UNL A   1      38.755  21.698   0.249  1.00  0.00    +0.000 C 
ATOM     82  C59 UNL A   1      38.432  21.174   1.500  1.00  0.00    +0.000 C 
ATOM     83  C60 UNL A   1      39.392  20.495   2.231  1.00  0.00    +0.000 C 
ATOM     84  O3  UNL A   1      37.156  21.122   1.990  1.00  0.00    +0.000 O 
ATOM     85  C61 UNL A   1      36.152  21.257   0.976  1.00  0.00    +0.000 C 
ATOM     86  C62 UNL A   1      36.691  21.179  -0.449  1.00  0.00    +0.000 C 
ATOM     87  O4  UNL A   1      37.768  22.112  -0.612  1.00  0.00    +0.000 O 
ATOM    120  H33 UNL A   1      41.949  20.775   0.091  1.00  0.00    +0.000 H 
ATOM    121  H34 UNL A   1      40.334  22.186  -1.065  1.00  0.00    +0.000 H 
ATOM    122  H35 UNL A   1      39.217  20.238   3.215  1.00  0.00    +0.000 H 
ATOM    123  H36 UNL A   1      35.672  22.205   1.102  1.00  0.00    +0.000 H 
ATOM    124  H37 UNL A   1      35.480  20.433   1.097  1.00  0.00    +0.000 H 
ATOM    125  H38 UNL A   1      35.908  21.415  -1.138  1.00  0.00    +0.000 H 
ATOM    126  H39 UNL A   1      37.051  20.188  -0.637  1.00  0.00    +0.000 H 
ENDBRANCH    2   78
ENDBRANCH    3    2
ENDBRANCH    5    3
ENDBRANCH    6    5
ENDBRANCH    7    6
ENDBRANCH    8    7
ENDBRANCH    9    8
ENDBRANCH   10    9
ENDBRANCH   11   10
ENDBRANCH   12   11
ENDBRANCH   13   12
ENDBRANCH   15   13
ENDBRANCH   19   18
BRANCH   23   24
ATOM     33  C24 UNL A   1      59.644  17.575  10.262  1.00  0.00    +0.000 C 
ATOM     34  F5  UNL A   1      59.624  18.903  10.074  1.00  0.00    +0.000 F 
ATOM     24  C19 UNL A   1      58.869  16.993  11.276  1.00  0.00    +0.000 C 
ATOM     25  C20 UNL A   1      58.924  15.597  11.422  1.00  0.00    +0.000 C 
ATOM     26  F1  UNL A   1      58.211  14.991  12.383  1.00  0.00    +0.000 F 
ATOM     27  C21 UNL A   1      59.739  14.821  10.602  1.00  0.00    +0.000 C 
ATOM     28  F2  UNL A   1      59.808  13.496  10.790  1.00  0.00    +0.000 F 
ATOM     29  C22 UNL A   1      60.485  15.418   9.598  1.00  0.00    +0.000 C 
ATOM     30  F3  UNL A   1      61.259  14.668   8.801  1.00  0.00    +0.000 F 
ATOM     31  C23 UNL A   1      60.433  16.792   9.423  1.00  0.00    +0.000 C 
ATOM     32  F4  UNL A   1      61.143  17.368   8.444  1.00  0.00    +0.000 F 
ENDBRANCH   23   24
BRANCH   40   41
ATOM     41  C30 UNL A   1      59.209  20.552  17.545  1.00  0.00    +0.000 C 
ATOM     42  C31 UNL A   1      60.019  21.698  17.515  1.00  0.00    +0.000 C 
ATOM     43  F6  UNL A   1      59.924  22.565  16.494  1.00  0.00    +0.000 F 
ATOM     44  C32 UNL A   1      60.966  21.932  18.508  1.00  0.00    +0.000 C 
ATOM     45  F7  UNL A   1      61.769  23.002  18.425  1.00  0.00    +0.000 F 
ATOM     46  C33 UNL A   1      61.094  21.050  19.570  1.00  0.00    +0.000 C 
ATOM     47  F8  UNL A   1      62.006  21.278  20.525  1.00  0.00    +0.000 F 
ATOM     48  C34 UNL A   1      60.285  19.926  19.636  1.00  0.00    +0.000 C 
ATOM     49  F9  UNL A   1      60.397  19.081  20.670  1.00  0.00    +0.000 F 
ATOM     50  C35 UNL A   1      59.360  19.672  18.627  1.00  0.00    +0.000 C 
ATOM     51  F10 UNL A   1      58.607  18.566  18.710  1.00  0.00    +0.000 F 
ENDBRANCH   40   41
BRANCH   55   56
ATOM     65  C44 UNL A   1      51.854  21.897  17.770  1.00  0.00    +0.000 C 
ATOM     66  F15 UNL A   1      51.984  20.584  18.009  1.00  0.00    +0.000 F 
ATOM     56  C39 UNL A   1      52.572  22.496  16.725  1.00  0.00    +0.000 C 
ATOM     57  C40 UNL A   1      52.390  23.871  16.515  1.00  0.00    +0.000 C 
ATOM     58  F11 UNL A   1      53.070  24.495  15.541  1.00  0.00    +0.000 F 
ATOM     59  C41 UNL A   1      51.553  24.621  17.338  1.00  0.00    +0.000 C 
ATOM     60  F12 UNL A   1      51.446  25.944  17.153  1.00  0.00    +0.000 F 
ATOM     61  C42 UNL A   1      50.849  24.005  18.362  1.00  0.00    +0.000 C 
ATOM     62  F13 UNL A   1      50.045  24.727  19.155  1.00  0.00    +0.000 F 
ATOM     63  C43 UNL A   1      50.990  22.642  18.570  1.00  0.00    +0.000 C 
ATOM     64  F14 UNL A   1      50.299  22.039  19.548  1.00  0.00    +0.000 F 
ENDBRANCH   55   56
TORSDOF 17
ENDMDL
MODEL 4
REMARK VINA RESULT:      -9.0      1.296      2.662
ROOT
ATOM     19  C15 UNL A   1      29.117 -14.108  31.138  1.00  0.00    +0.000 C 
ATOM     20  C16 UNL A   1      28.832 -14.225  32.610  1.00  0.00    +0.000 C 
ATOM     21  N3  UNL A   1      27.815 -13.764  33.296  1.00  0.00    +0.000 N 
ATOM     22  C17 UNL A   1      28.029 -14.164  34.608  1.00  0.00    +0.000 C 
ATOM     23  C18 UNL A   1      27.306 -13.865  35.716  1.00  0.00    +0.000 C 
ATOM     35  C25 UNL A   1      26.109 -13.064  35.713  1.00  0.00    +0.000 C 
ATOM     36  C26 UNL A   1      25.320 -12.685  36.786  1.00  0.00    +0.000 C 
ATOM     37  C27 UNL A   1      24.237 -11.946  36.296  1.00  0.00    +0.000 C 
ATOM     38  C28 UNL A   1      24.381 -11.816  34.924  1.00  0.00    +0.000 C 
ATOM     39  N4  UNL A   1      25.526 -12.517  34.578  1.00  0.00    +0.000 N 
ATOM     40  C29 UNL A   1      23.539 -11.105  33.998  1.00  0.00    +0.000 C 
ATOM     52  C36 UNL A   1      23.750 -11.032  32.660  1.00  0.00    +0.000 C 
ATOM     53  N5  UNL A   1      24.768 -11.595  31.903  1.00  0.00    +0.000 N 
ATOM     54  C37 UNL A   1      24.518 -11.264  30.660  1.00  0.00    +0.000 C 
ATOM     55  C38 UNL A   1      25.309 -11.572  29.416  1.00  0.00    +0.000 C 
ATOM     67  C45 UNL A   1      26.459 -12.263  29.524  1.00  0.00    +0.000 C 
ATOM     68  C46 UNL A   1      27.343 -12.609  28.415  1.00  0.00    +0.000 C 
ATOM     69  C47 UNL A   1      28.376 -13.325  28.885  1.00  0.00    +0.000 C 
ATOM     70  C48 UNL A   1      28.246 -13.462  30.336  1.00  0.00    +0.000 C 
ATOM     71  N6  UNL A   1      27.076 -12.803  30.626  1.00  0.00    +0.000 N 
ATOM     72  C49 UNL A   1      23.293 -10.472  30.486  1.00  0.00    +0.000 C 
ATOM     73  C50 UNL A   1      22.893 -10.316  31.739  1.00  0.00    +0.000 C 
ATOM     74  C51 UNL A   1      29.234 -14.965  34.613  1.00  0.00    +0.000 C 
ATOM     75  C52 UNL A   1      29.803 -14.980  33.416  1.00  0.00    +0.000 C 
ATOM    108  H21 UNL A   1      25.499 -12.910  37.776  1.00  0.00    +0.000 H 
ATOM    109  H22 UNL A   1      23.464 -11.562  36.862  1.00  0.00    +0.000 H 
ATOM    110  H23 UNL A   1      25.875 -12.613  33.663  1.00  0.00    +0.000 H 
ATOM    111  H24 UNL A   1      27.198 -12.344  27.428  1.00  0.00    +0.000 H 
ATOM    112  H25 UNL A   1      29.142 -13.717  28.313  1.00  0.00    +0.000 H 
ATOM    113  H26 UNL A   1      26.715 -12.724  31.538  1.00  0.00    +0.000 H 
ATOM    114  H27 UNL A   1      22.858 -10.129  29.615  1.00  0.00    +0.000 H 
ATOM    115  H28 UNL A   1      22.074  -9.756  32.022  1.00  0.00    +0.000 H 
ATOM    116  H29 UNL A   1      29.602 -15.460  35.440  1.00  0.00    +0.000 H 
ATOM    117  H30 UNL A   1      30.694 -15.411  33.126  1.00  0.00    +0.000 H 
ENDROOT
BRANCH   19   18
ATOM    106  H19 UNL A   1      33.570 -14.057  29.908  1.00  0.00    +0.000 H 
ATOM    107  H20 UNL A   1      31.633 -13.125  31.031  1.00  0.00    +0.000 H 
ATOM     76  C53 UNL A   1      30.275 -15.996  29.958  1.00  0.00    +0.000 C 
ATOM     77  C54 UNL A   1      31.415 -16.571  29.393  1.00  0.00    +0.000 C 
ATOM     15  C11 UNL A   1      32.603 -15.838  29.314  1.00  0.00    +0.000 C 
ATOM     16  C12 UNL A   1      32.682 -14.582  29.924  1.00  0.00    +0.000 C 
ATOM     17  C13 UNL A   1      31.561 -14.039  30.555  1.00  0.00    +0.000 C 
ATOM     18  C14 UNL A   1      30.335 -14.724  30.546  1.00  0.00    +0.000 C 
ATOM    118  H31 UNL A   1      29.381 -16.512  29.943  1.00  0.00    +0.000 H 
ATOM    119  H32 UNL A   1      31.380 -17.537  29.033  1.00  0.00    +0.000 H 
BRANCH   15   13
ATOM     13  C10 UNL A   1      33.805 -16.367  28.630  1.00  0.00    +0.000 C 
ATOM     14  O2  UNL A   1      34.530 -17.168  29.217  1.00  0.00    +0.000 O 
BRANCH   13   12
ATOM    105  H18 UNL A   1      35.097 -15.998  27.152  1.00  0.00    +0.000 H 
ATOM     12  N2  UNL A   1      34.137 -15.955  27.363  1.00  0.00    +0.000 N 
BRANCH   12   11
ATOM     11  C9  UNL A   1      33.294 -15.465  26.286  1.00  0.00    +0.000 C 
ATOM    103  H16 UNL A   1      33.745 -15.728  25.352  1.00  0.00    +0.000 H 
ATOM    104  H17 UNL A   1      32.330 -15.915  26.402  1.00  0.00    +0.000 H 
BRANCH   11   10
ATOM     10  C8  UNL A   1      33.099 -13.951  26.324  1.00  0.00    +0.000 C 
ATOM    101  H14 UNL A   1      33.603 -13.576  27.190  1.00  0.00    +0.000 H 
ATOM    102  H15 UNL A   1      33.491 -13.582  25.400  1.00  0.00    +0.000 H 
BRANCH   10    9
ATOM      9  C7  UNL A   1      31.645 -13.473  26.382  1.00  0.00    +0.000 C 
ATOM     99  H12 UNL A   1      31.351 -13.197  25.390  1.00  0.00    +0.000 H 
ATOM    100  H13 UNL A   1      31.086 -14.288  26.789  1.00  0.00    +0.000 H 
BRANCH    9    8
ATOM     97  H10 UNL A   1      30.708 -11.616  26.791  1.00  0.00    +0.000 H 
ATOM     98  H11 UNL A   1      30.970 -12.692  28.202  1.00  0.00    +0.000 H 
ATOM      8  C6  UNL A   1      31.374 -12.280  27.302  1.00  0.00    +0.000 C 
BRANCH    8    7
ATOM     95  H8  UNL A   1      33.141 -12.045  28.459  1.00  0.00    +0.000 H 
ATOM      7  C5  UNL A   1      32.607 -11.474  27.728  1.00  0.00    +0.000 C 
ATOM     96  H9  UNL A   1      33.170 -11.293  26.837  1.00  0.00    +0.000 H 
BRANCH    7    6
ATOM     94  H7  UNL A   1      31.623  -9.598  27.675  1.00  0.00    +0.000 H 
ATOM     93  H6  UNL A   1      33.220  -9.557  28.426  1.00  0.00    +0.000 H 
ATOM      6  C4  UNL A   1      32.304 -10.101  28.329  1.00  0.00    +0.000 C 
BRANCH    6    5
ATOM     92  H5  UNL A   1      32.076 -10.890  30.222  1.00  0.00    +0.000 H 
ATOM      5  N1  UNL A   1      31.678 -10.203  29.638  1.00  0.00    +0.000 N 
BRANCH    5    3
ATOM      3  C3  UNL A   1      30.639  -9.521  30.205  1.00  0.00    +0.000 C 
ATOM      4  O1  UNL A   1      30.905  -8.788  31.162  1.00  0.00    +0.000 O 
BRANCH    3    2
ATOM      2  C2  UNL A   1      29.191  -9.644  29.694  1.00  0.00    +0.000 C 
ATOM     91  H4  UNL A   1      28.977 -10.665  29.460  1.00  0.00    +0.000 H 
BRANCH    2    1
ATOM      1  C1  UNL A   1      28.250  -9.191  30.820  1.00  0.00    +0.000 C 
ATOM     90  H3  UNL A   1      28.648  -8.312  31.285  1.00  0.00    +0.000 H 
ATOM     89  H2  UNL A   1      27.285  -8.973  30.414  1.00  0.00    +0.000 H 
ATOM     88  H1  UNL A   1      28.163  -9.971  31.548  1.00  0.00    +0.000 H 
ENDBRANCH    2    1
BRANCH    2   78
ATOM     78  C55 UNL A   1      28.959  -8.935  28.361  1.00  0.00    +0.000 C 
ATOM     79  C56 UNL A   1      29.118  -7.544  28.224  1.00  0.00    +0.000 C 
ATOM     80  C57 UNL A   1      29.332  -6.979  26.967  1.00  0.00    +0.000 C 
ATOM     81  C58 UNL A   1      29.428  -7.824  25.870  1.00  0.00    +0.000 C 
ATOM     82  C59 UNL A   1      29.081  -9.170  25.973  1.00  0.00    +0.000 C 
ATOM     83  C60 UNL A   1      28.744  -9.703  27.206  1.00  0.00    +0.000 C 
ATOM     84  O3  UNL A   1      29.230 -10.068  24.951  1.00  0.00    +0.000 O 
ATOM     85  C61 UNL A   1      30.138  -9.625  23.934  1.00  0.00    +0.000 C 
ATOM     86  C62 UNL A   1      30.934  -8.380  24.309  1.00  0.00    +0.000 C 
ATOM     87  O4  UNL A   1      30.040  -7.343  24.739  1.00  0.00    +0.000 O 
ATOM    120  H33 UNL A   1      29.077  -6.938  29.060  1.00  0.00    +0.000 H 
ATOM    121  H34 UNL A   1      29.416  -5.957  26.856  1.00  0.00    +0.000 H 
ATOM    122  H35 UNL A   1      28.338 -10.649  27.275  1.00  0.00    +0.000 H 
ATOM    123  H36 UNL A   1      29.574  -9.411  23.051  1.00  0.00    +0.000 H 
ATOM    124  H37 UNL A   1      30.848 -10.413  23.790  1.00  0.00    +0.000 H 
ATOM    125  H38 UNL A   1      31.487  -8.042  23.457  1.00  0.00    +0.000 H 
ATOM    126  H39 UNL A   1      31.609  -8.617  25.105  1.00  0.00    +0.000 H 
ENDBRANCH    2   78
ENDBRANCH    3    2
ENDBRANCH    5    3
ENDBRANCH    6    5
ENDBRANCH    7    6
ENDBRANCH    8    7
ENDBRANCH    9    8
ENDBRANCH   10    9
ENDBRANCH   11   10
ENDBRANCH   12   11
ENDBRANCH   13   12
ENDBRANCH   15   13
ENDBRANCH   19   18
BRANCH   23   24
ATOM     33  C24 UNL A   1      27.250 -15.556  37.593  1.00  0.00    +0.000 C 
ATOM     34  F5  UNL A   1      26.297 -16.238  36.938  1.00  0.00    +0.000 F 
ATOM     24  C19 UNL A   1      27.800 -14.394  37.032  1.00  0.00    +0.000 C 
ATOM     25  C20 UNL A   1      28.788 -13.718  37.765  1.00  0.00    +0.000 C 
ATOM     26  F1  UNL A   1      29.355 -12.607  37.270  1.00  0.00    +0.000 F 
ATOM     27  C21 UNL A   1      29.224 -14.199  38.997  1.00  0.00    +0.000 C 
ATOM     28  F2  UNL A   1      30.200 -13.560  39.657  1.00  0.00    +0.000 F 
ATOM     29  C22 UNL A   1      28.656 -15.342  39.537  1.00  0.00    +0.000 C 
ATOM     30  F3  UNL A   1      29.067 -15.797  40.729  1.00  0.00    +0.000 F 
ATOM     31  C23 UNL A   1      27.665 -16.016  38.840  1.00  0.00    +0.000 C 
ATOM     32  F4  UNL A   1      27.106 -17.114  39.367  1.00  0.00    +0.000 F 
ENDBRANCH   23   24
BRANCH   40   41
ATOM     41  C30 UNL A   1      22.353 -10.364  34.547  1.00  0.00    +0.000 C 
ATOM     42  C31 UNL A   1      21.059 -10.906  34.503  1.00  0.00    +0.000 C 
ATOM     43  F6  UNL A   1      20.848 -12.104  33.936  1.00  0.00    +0.000 F 
ATOM     44  C32 UNL A   1      19.968 -10.197  34.997  1.00  0.00    +0.000 C 
ATOM     45  F7  UNL A   1      18.734 -10.710  34.889  1.00  0.00    +0.000 F 
ATOM     46  C33 UNL A   1      20.153  -8.952  35.580  1.00  0.00    +0.000 C 
ATOM     47  F8  UNL A   1      19.101  -8.272  36.056  1.00  0.00    +0.000 F 
ATOM     48  C34 UNL A   1      21.426  -8.409  35.661  1.00  0.00    +0.000 C 
ATOM     49  F9  UNL A   1      21.607  -7.214  36.237  1.00  0.00    +0.000 F 
ATOM     50  C35 UNL A   1      22.514  -9.102  35.137  1.00  0.00    +0.000 C 
ATOM     51  F10 UNL A   1      23.730  -8.540  35.212  1.00  0.00    +0.000 F 
ENDBRANCH   40   41
BRANCH   55   56
ATOM     65  C44 UNL A   1      25.126  -9.821  27.616  1.00  0.00    +0.000 C 
ATOM     66  F15 UNL A   1      25.812  -8.965  28.388  1.00  0.00    +0.000 F 
ATOM     56  C39 UNL A   1      24.837 -11.111  28.083  1.00  0.00    +0.000 C 
ATOM     57  C40 UNL A   1      24.110 -11.961  27.237  1.00  0.00    +0.000 C 
ATOM     58  F11 UNL A   1      23.824 -13.212  27.630  1.00  0.00    +0.000 F 
ATOM     59  C41 UNL A   1      23.719 -11.549  25.965  1.00  0.00    +0.000 C 
ATOM     60  F12 UNL A   1      23.078 -12.403  25.155  1.00  0.00    +0.000 F 
ATOM     61  C42 UNL A   1      24.013 -10.266  25.527  1.00  0.00    +0.000 C 
ATOM     62  F13 UNL A   1      23.638  -9.872  24.303  1.00  0.00    +0.000 F 
ATOM     63  C43 UNL A   1      24.705  -9.399  26.357  1.00  0.00    +0.000 C 
ATOM     64  F14 UNL A   1      24.977  -8.152  25.946  1.00  0.00    +0.000 F 
ENDBRANCH   55   56
TORSDOF 17
ENDMDL
MODEL 5
REMARK VINA RESULT:      -8.9     65.027     71.091
ROOT
ATOM     19  C15 UNL A   1      13.894  54.088   4.701  1.00  0.00    +0.000 C 
ATOM     20  C16 UNL A   1      14.839  54.488   3.601  1.00  0.00    +0.000 C 
ATOM     21  N3  UNL A   1      15.341  53.759   2.635  1.00  0.00    +0.000 N 
ATOM     22  C17 UNL A   1      16.137  54.616   1.887  1.00  0.00    +0.000 C 
ATOM     23  C18 UNL A   1      16.938  54.326   0.832  1.00  0.00    +0.000 C 
ATOM     35  C25 UNL A   1      17.083  53.013   0.257  1.00  0.00    +0.000 C 
ATOM     36  C26 UNL A   1      17.887  52.614  -0.796  1.00  0.00    +0.000 C 
ATOM     37  C27 UNL A   1      17.664  51.252  -1.030  1.00  0.00    +0.000 C 
ATOM     38  C28 UNL A   1      16.761  50.790  -0.087  1.00  0.00    +0.000 C 
ATOM     39  N4  UNL A   1      16.403  51.882   0.689  1.00  0.00    +0.000 N 
ATOM     40  C29 UNL A   1      16.263  49.451   0.097  1.00  0.00    +0.000 C 
ATOM     52  C36 UNL A   1      15.370  49.081   1.049  1.00  0.00    +0.000 C 
ATOM     53  N5  UNL A   1      14.753  49.860   2.019  1.00  0.00    +0.000 N 
ATOM     54  C37 UNL A   1      13.957  49.053   2.676  1.00  0.00    +0.000 C 
ATOM     55  C38 UNL A   1      13.068  49.345   3.855  1.00  0.00    +0.000 C 
ATOM     67  C45 UNL A   1      13.055  50.587   4.376  1.00  0.00    +0.000 C 
ATOM     68  C46 UNL A   1      12.270  51.009   5.532  1.00  0.00    +0.000 C 
ATOM     69  C47 UNL A   1      12.479  52.317   5.749  1.00  0.00    +0.000 C 
ATOM     70  C48 UNL A   1      13.440  52.820   4.767  1.00  0.00    +0.000 C 
ATOM     71  N6  UNL A   1      13.724  51.723   3.991  1.00  0.00    +0.000 N 
ATOM     72  C49 UNL A   1      13.959  47.671   2.176  1.00  0.00    +0.000 C 
ATOM     73  C50 UNL A   1      14.875  47.732   1.220  1.00  0.00    +0.000 C 
ATOM     74  C51 UNL A   1      15.997  55.935   2.466  1.00  0.00    +0.000 C 
ATOM     75  C52 UNL A   1      15.257  55.898   3.565  1.00  0.00    +0.000 C 
ATOM    108  H21 UNL A   1      18.540  53.217  -1.320  1.00  0.00    +0.000 H 
ATOM    109  H22 UNL A   1      18.099  50.689  -1.777  1.00  0.00    +0.000 H 
ATOM    110  H23 UNL A   1      15.762  51.860   1.435  1.00  0.00    +0.000 H 
ATOM    111  H24 UNL A   1      11.654  50.400   6.092  1.00  0.00    +0.000 H 
ATOM    112  H25 UNL A   1      12.033  52.879   6.491  1.00  0.00    +0.000 H 
ATOM    113  H26 UNL A   1      14.349  51.748   3.231  1.00  0.00    +0.000 H 
ATOM    114  H27 UNL A   1      13.396  46.865   2.488  1.00  0.00    +0.000 H 
ATOM    115  H28 UNL A   1      15.192  46.922   0.666  1.00  0.00    +0.000 H 
ATOM    116  H29 UNL A   1      16.418  56.791   2.075  1.00  0.00    +0.000 H 
ATOM    117  H30 UNL A   1      15.033  56.660   4.223  1.00  0.00    +0.000 H 
ENDROOT
BRANCH   19   18
ATOM    106  H19 UNL A   1      14.179  56.303   8.745  1.00  0.00    +0.000 H 
ATOM    107  H20 UNL A   1      15.042  54.812   7.038  1.00  0.00    +0.000 H 
ATOM     76  C53 UNL A   1      12.246  55.813   5.483  1.00  0.00    +0.000 C 
ATOM     77  C54 UNL A   1      11.800  56.740   6.426  1.00  0.00    +0.000 C 
ATOM     15  C11 UNL A   1      12.467  56.873   7.647  1.00  0.00    +0.000 C 
ATOM     16  C12 UNL A   1      13.659  56.174   7.863  1.00  0.00    +0.000 C 
ATOM     17  C13 UNL A   1      14.145  55.302   6.888  1.00  0.00    +0.000 C 
ATOM     18  C14 UNL A   1      13.424  55.084   5.702  1.00  0.00    +0.000 C 
ATOM    118  H31 UNL A   1      11.705  55.663   4.616  1.00  0.00    +0.000 H 
ATOM    119  H32 UNL A   1      10.976  57.327   6.221  1.00  0.00    +0.000 H 
BRANCH   15   13
ATOM     13  C10 UNL A   1      11.968  57.766   8.719  1.00  0.00    +0.000 C 
ATOM     14  O2  UNL A   1      11.778  58.955   8.473  1.00  0.00    +0.000 O 
BRANCH   13   12
ATOM    105  H18 UNL A   1      12.443  57.511  10.642  1.00  0.00    +0.000 H 
ATOM     12  N2  UNL A   1      11.743  57.291   9.987  1.00  0.00    +0.000 N 
BRANCH   12   11
ATOM     11  C9  UNL A   1      10.633  56.515  10.514  1.00  0.00    +0.000 C 
ATOM    103  H16 UNL A   1      10.544  56.714  11.562  1.00  0.00    +0.000 H 
ATOM    104  H17 UNL A   1       9.755  56.805   9.977  1.00  0.00    +0.000 H 
BRANCH   11   10
ATOM     10  C8  UNL A   1      10.812  55.011  10.317  1.00  0.00    +0.000 C 
ATOM    101  H14 UNL A   1       9.948  54.521  10.714  1.00  0.00    +0.000 H 
ATOM    102  H15 UNL A   1      10.948  54.867   9.266  1.00  0.00    +0.000 H 
BRANCH   10    9
ATOM      9  C7  UNL A   1      12.047  54.399  10.984  1.00  0.00    +0.000 C 
ATOM     99  H12 UNL A   1      12.602  55.194  11.438  1.00  0.00    +0.000 H 
ATOM    100  H13 UNL A   1      11.675  53.677  11.680  1.00  0.00    +0.000 H 
BRANCH    9    8
ATOM     97  H10 UNL A   1      12.530  52.703   9.807  1.00  0.00    +0.000 H 
ATOM     98  H11 UNL A   1      13.157  54.276   9.214  1.00  0.00    +0.000 H 
ATOM      8  C6  UNL A   1      12.994  53.635  10.055  1.00  0.00    +0.000 C 
BRANCH    8    7
ATOM     95  H8  UNL A   1      15.084  53.334   9.815  1.00  0.00    +0.000 H 
ATOM      7  C5  UNL A   1      14.385  53.331  10.625  1.00  0.00    +0.000 C 
ATOM     96  H9  UNL A   1      14.580  54.087  11.357  1.00  0.00    +0.000 H 
BRANCH    7    6
ATOM     94  H7  UNL A   1      14.057  51.241  10.736  1.00  0.00    +0.000 H 
ATOM     93  H6  UNL A   1      14.012  52.065  12.297  1.00  0.00    +0.000 H 
ATOM      6  C4  UNL A   1      14.506  51.991  11.351  1.00  0.00    +0.000 C 
BRANCH    6    5
ATOM     92  H5  UNL A   1      16.235  51.850  12.471  1.00  0.00    +0.000 H 
ATOM      5  N1  UNL A   1      15.894  51.616  11.576  1.00  0.00    +0.000 N 
BRANCH    5    3
ATOM      3  C3  UNL A   1      16.810  51.000  10.772  1.00  0.00    +0.000 C 
ATOM      4  O1  UNL A   1      17.816  50.538  11.320  1.00  0.00    +0.000 O 
BRANCH    3    2
ATOM      2  C2  UNL A   1      16.624  50.874   9.249  1.00  0.00    +0.000 C 
ATOM     91  H4  UNL A   1      16.024  51.685   8.891  1.00  0.00    +0.000 H 
BRANCH    2    1
ATOM      1  C1  UNL A   1      18.010  50.963   8.591  1.00  0.00    +0.000 C 
ATOM     90  H3  UNL A   1      18.333  49.981   8.310  1.00  0.00    +0.000 H 
ATOM     89  H2  UNL A   1      17.953  51.582   7.721  1.00  0.00    +0.000 H 
ATOM     88  H1  UNL A   1      18.708  51.383   9.285  1.00  0.00    +0.000 H 
ENDBRANCH    2    1
BRANCH    2   78
ATOM     78  C55 UNL A   1      15.813  49.647   8.839  1.00  0.00    +0.000 C 
ATOM     79  C56 UNL A   1      16.362  48.352   8.873  1.00  0.00    +0.000 C 
ATOM     80  C57 UNL A   1      15.529  47.235   8.925  1.00  0.00    +0.000 C 
ATOM     81  C58 UNL A   1      14.157  47.435   8.986  1.00  0.00    +0.000 C 
ATOM     82  C59 UNL A   1      13.608  48.696   8.758  1.00  0.00    +0.000 C 
ATOM     83  C60 UNL A   1      14.441  49.788   8.579  1.00  0.00    +0.000 C 
ATOM     84  O3  UNL A   1      12.274  48.972   8.883  1.00  0.00    +0.000 O 
ATOM     85  C61 UNL A   1      11.562  47.997   9.654  1.00  0.00    +0.000 C 
ATOM     86  C62 UNL A   1      12.460  47.000  10.380  1.00  0.00    +0.000 C 
ATOM     87  O4  UNL A   1      13.375  46.405   9.450  1.00  0.00    +0.000 O 
ATOM    120  H33 UNL A   1      17.387  48.228   8.861  1.00  0.00    +0.000 H 
ATOM    121  H34 UNL A   1      15.924  46.281   8.916  1.00  0.00    +0.000 H 
ATOM    122  H35 UNL A   1      14.059  50.691   8.258  1.00  0.00    +0.000 H 
ATOM    123  H36 UNL A   1      10.918  47.452   8.996  1.00  0.00    +0.000 H 
ATOM    124  H37 UNL A   1      11.024  48.533  10.408  1.00  0.00    +0.000 H 
ATOM    125  H38 UNL A   1      11.856  46.236  10.823  1.00  0.00    +0.000 H 
ATOM    126  H39 UNL A   1      13.011  47.511  11.142  1.00  0.00    +0.000 H 
ENDBRANCH    2   78
ENDBRANCH    3    2
ENDBRANCH    5    3
ENDBRANCH    6    5
ENDBRANCH    7    6
ENDBRANCH    8    7
ENDBRANCH    9    8
ENDBRANCH   10    9
ENDBRANCH   11   10
ENDBRANCH   12   11
ENDBRANCH   13   12
ENDBRANCH   15   13
ENDBRANCH   19   18
BRANCH   23   24
ATOM     33  C24 UNL A   1      17.261  56.167  -0.869  1.00  0.00    +0.000 C 
ATOM     34  F5  UNL A   1      16.057  55.885  -1.389  1.00  0.00    +0.000 F 
ATOM     24  C19 UNL A   1      17.739  55.450   0.238  1.00  0.00    +0.000 C 
ATOM     25  C20 UNL A   1      19.009  55.784   0.736  1.00  0.00    +0.000 C 
ATOM     26  F1  UNL A   1      19.509  55.135   1.799  1.00  0.00    +0.000 F 
ATOM     27  C21 UNL A   1      19.757  56.809   0.165  1.00  0.00    +0.000 C 
ATOM     28  F2  UNL A   1      20.947  57.139   0.686  1.00  0.00    +0.000 F 
ATOM     29  C22 UNL A   1      19.269  57.496  -0.937  1.00  0.00    +0.000 C 
ATOM     30  F3  UNL A   1      19.996  58.475  -1.493  1.00  0.00    +0.000 F 
ATOM     31  C23 UNL A   1      18.026  57.171  -1.457  1.00  0.00    +0.000 C 
ATOM     32  F4  UNL A   1      17.560  57.824  -2.530  1.00  0.00    +0.000 F 
ENDBRANCH   23   24
BRANCH   40   41
ATOM     41  C30 UNL A   1      16.784  48.373  -0.810  1.00  0.00    +0.000 C 
ATOM     42  C31 UNL A   1      18.014  47.739  -0.573  1.00  0.00    +0.000 C 
ATOM     43  F6  UNL A   1      18.774  48.110   0.469  1.00  0.00    +0.000 F 
ATOM     44  C32 UNL A   1      18.491  46.757  -1.436  1.00  0.00    +0.000 C 
ATOM     45  F7  UNL A   1      19.696  46.210  -1.223  1.00  0.00    +0.000 F 
ATOM     46  C33 UNL A   1      17.733  46.360  -2.528  1.00  0.00    +0.000 C 
ATOM     47  F8  UNL A   1      18.195  45.414  -3.356  1.00  0.00    +0.000 F 
ATOM     48  C34 UNL A   1      16.502  46.952  -2.765  1.00  0.00    +0.000 C 
ATOM     49  F9  UNL A   1      15.762  46.558  -3.810  1.00  0.00    +0.000 F 
ATOM     50  C35 UNL A   1      16.037  47.958  -1.922  1.00  0.00    +0.000 C 
ATOM     51  F10 UNL A   1      14.851  48.524  -2.191  1.00  0.00    +0.000 F 
ENDBRANCH   40   41
BRANCH   55   56
ATOM     65  C44 UNL A   1      10.875  48.130   4.084  1.00  0.00    +0.000 C 
ATOM     66  F15 UNL A   1      10.320  48.979   3.208  1.00  0.00    +0.000 F 
ATOM     56  C39 UNL A   1      12.220  48.277   4.450  1.00  0.00    +0.000 C 
ATOM     57  C40 UNL A   1      12.746  47.365   5.377  1.00  0.00    +0.000 C 
ATOM     58  F11 UNL A   1      14.034  47.452   5.744  1.00  0.00    +0.000 F 
ATOM     59  C41 UNL A   1      11.969  46.329   5.888  1.00  0.00    +0.000 C 
ATOM     60  F12 UNL A   1      12.514  45.436   6.726  1.00  0.00    +0.000 F 
ATOM     61  C42 UNL A   1      10.639  46.207   5.515  1.00  0.00    +0.000 C 
ATOM     62  F13 UNL A   1       9.891  45.209   6.007  1.00  0.00    +0.000 F 
ATOM     63  C43 UNL A   1      10.089  47.114   4.624  1.00  0.00    +0.000 C 
ATOM     64  F14 UNL A   1       8.799  47.010   4.273  1.00  0.00    +0.000 F 
ENDBRANCH   55   56
TORSDOF 17
ENDMDL
MODEL 6
REMARK VINA RESULT:      -8.7     37.205     42.887
ROOT
ATOM     19  C15 UNL A   1      39.682  28.805  29.463  1.00  0.00    +0.000 C 
ATOM     20  C16 UNL A   1      40.481  29.638  30.427  1.00  0.00    +0.000 C 
ATOM     21  N3  UNL A   1      41.674  29.416  30.921  1.00  0.00    +0.000 N 
ATOM     22  C17 UNL A   1      41.952  30.500  31.744  1.00  0.00    +0.000 C 
ATOM     23  C18 UNL A   1      43.025  30.702  32.548  1.00  0.00    +0.000 C 
ATOM     35  C25 UNL A   1      44.136  29.792  32.666  1.00  0.00    +0.000 C 
ATOM     36  C26 UNL A   1      45.256  29.897  33.471  1.00  0.00    +0.000 C 
ATOM     37  C27 UNL A   1      46.085  28.797  33.218  1.00  0.00    +0.000 C 
ATOM     38  C28 UNL A   1      45.454  27.978  32.295  1.00  0.00    +0.000 C 
ATOM     39  N4  UNL A   1      44.265  28.606  31.956  1.00  0.00    +0.000 N 
ATOM     40  C29 UNL A   1      45.899  26.717  31.764  1.00  0.00    +0.000 C 
ATOM     52  C36 UNL A   1      45.219  25.976  30.854  1.00  0.00    +0.000 C 
ATOM     53  N5  UNL A   1      43.999  26.243  30.247  1.00  0.00    +0.000 N 
ATOM     54  C37 UNL A   1      43.780  25.245  29.426  1.00  0.00    +0.000 C 
ATOM     55  C38 UNL A   1      42.594  24.991  28.532  1.00  0.00    +0.000 C 
ATOM     67  C45 UNL A   1      41.565  25.858  28.545  1.00  0.00    +0.000 C 
ATOM     68  C46 UNL A   1      40.341  25.727  27.759  1.00  0.00    +0.000 C 
ATOM     69  C47 UNL A   1      39.553  26.787  27.997  1.00  0.00    +0.000 C 
ATOM     70  C48 UNL A   1      40.200  27.657  28.979  1.00  0.00    +0.000 C 
ATOM     71  N6  UNL A   1      41.391  27.028  29.244  1.00  0.00    +0.000 N 
ATOM     72  C49 UNL A   1      44.854  24.244  29.399  1.00  0.00    +0.000 C 
ATOM     73  C50 UNL A   1      45.680  24.711  30.325  1.00  0.00    +0.000 C 
ATOM     74  C51 UNL A   1      40.835  31.412  31.630  1.00  0.00    +0.000 C 
ATOM     75  C52 UNL A   1      39.872  30.897  30.879  1.00  0.00    +0.000 C 
ATOM    108  H21 UNL A   1      45.450  30.655  34.143  1.00  0.00    +0.000 H 
ATOM    109  H22 UNL A   1      47.008  28.626  33.646  1.00  0.00    +0.000 H 
ATOM    110  H23 UNL A   1      43.609  28.263  31.307  1.00  0.00    +0.000 H 
ATOM    111  H24 UNL A   1      40.119  24.945  27.123  1.00  0.00    +0.000 H 
ATOM    112  H25 UNL A   1      38.635  26.960  27.557  1.00  0.00    +0.000 H 
ATOM    113  H26 UNL A   1      42.058  27.381  29.876  1.00  0.00    +0.000 H 
ATOM    114  H27 UNL A   1      44.943  23.399  28.814  1.00  0.00    +0.000 H 
ATOM    115  H28 UNL A   1      46.543  24.233  30.628  1.00  0.00    +0.000 H 
ATOM    116  H29 UNL A   1      40.794  32.342  32.075  1.00  0.00    +0.000 H 
ATOM    117  H30 UNL A   1      38.938  31.281  30.667  1.00  0.00    +0.000 H 
ENDROOT
BRANCH   19   18
ATOM    106  H19 UNL A   1      36.795  30.710  26.400  1.00  0.00    +0.000 H 
ATOM    107  H20 UNL A   1      38.953  29.828  27.070  1.00  0.00    +0.000 H 
ATOM     76  C53 UNL A   1      37.226  29.137  29.858  1.00  0.00    +0.000 C 
ATOM     77  C54 UNL A   1      35.964  29.561  29.436  1.00  0.00    +0.000 C 
ATOM     15  C11 UNL A   1      35.817  30.195  28.200  1.00  0.00    +0.000 C 
ATOM     16  C12 UNL A   1      36.910  30.282  27.332  1.00  0.00    +0.000 C 
ATOM     17  C13 UNL A   1      38.156  29.791  27.726  1.00  0.00    +0.000 C 
ATOM     18  C14 UNL A   1      38.336  29.246  29.008  1.00  0.00    +0.000 C 
ATOM    118  H31 UNL A   1      37.342  28.740  30.804  1.00  0.00    +0.000 H 
ATOM    119  H32 UNL A   1      35.141  29.405  30.038  1.00  0.00    +0.000 H 
BRANCH   15   13
ATOM     13  C10 UNL A   1      34.519  30.755  27.757  1.00  0.00    +0.000 C 
ATOM     14  O2  UNL A   1      34.229  31.913  28.053  1.00  0.00    +0.000 O 
BRANCH   13   12
ATOM    105  H18 UNL A   1      32.680  30.143  27.274  1.00  0.00    +0.000 H 
ATOM     12  N2  UNL A   1      33.625  29.994  27.045  1.00  0.00    +0.000 N 
BRANCH   12   11
ATOM     11  C9  UNL A   1      33.856  29.001  26.009  1.00  0.00    +0.000 C 
ATOM    103  H16 UNL A   1      34.873  29.076  25.685  1.00  0.00    +0.000 H 
ATOM    104  H17 UNL A   1      33.642  28.041  26.431  1.00  0.00    +0.000 H 
BRANCH   11   10
ATOM     10  C8  UNL A   1      32.943  29.181  24.798  1.00  0.00    +0.000 C 
ATOM    101  H14 UNL A   1      33.234  30.081  24.297  1.00  0.00    +0.000 H 
ATOM    102  H15 UNL A   1      33.063  28.298  24.208  1.00  0.00    +0.000 H 
BRANCH   10    9
ATOM      9  C7  UNL A   1      31.446  29.278  25.107  1.00  0.00    +0.000 C 
ATOM     99  H12 UNL A   1      31.147  28.361  25.571  1.00  0.00    +0.000 H 
ATOM    100  H13 UNL A   1      31.332  30.138  25.732  1.00  0.00    +0.000 H 
BRANCH    9    8
ATOM     97  H10 UNL A   1      29.552  29.175  24.160  1.00  0.00    +0.000 H 
ATOM     98  H11 UNL A   1      30.589  30.563  23.695  1.00  0.00    +0.000 H 
ATOM      8  C6  UNL A   1      30.533  29.514  23.901  1.00  0.00    +0.000 C 
BRANCH    8    7
ATOM     95  H8  UNL A   1      30.487  29.323  21.785  1.00  0.00    +0.000 H 
ATOM      7  C5  UNL A   1      30.948  28.811  22.603  1.00  0.00    +0.000 C 
ATOM     96  H9  UNL A   1      32.017  28.841  22.575  1.00  0.00    +0.000 H 
BRANCH    7    6
ATOM     94  H7  UNL A   1      30.279  27.126  21.507  1.00  0.00    +0.000 H 
ATOM     93  H6  UNL A   1      29.750  27.151  23.191  1.00  0.00    +0.000 H 
ATOM      6  C4  UNL A   1      30.560  27.334  22.517  1.00  0.00    +0.000 C 
BRANCH    6    5
ATOM     92  H5  UNL A   1      32.489  26.619  22.346  1.00  0.00    +0.000 H 
ATOM      5  N1  UNL A   1      31.668  26.458  22.867  1.00  0.00    +0.000 N 
BRANCH    5    3
ATOM      3  C3  UNL A   1      31.777  25.453  23.785  1.00  0.00    +0.000 C 
ATOM      4  O1  UNL A   1      31.682  24.296  23.364  1.00  0.00    +0.000 O 
BRANCH    3    2
ATOM      2  C2  UNL A   1      32.006  25.722  25.284  1.00  0.00    +0.000 C 
ATOM     91  H4  UNL A   1      32.395  26.709  25.418  1.00  0.00    +0.000 H 
BRANCH    2    1
ATOM      1  C1  UNL A   1      30.648  25.629  25.997  1.00  0.00    +0.000 C 
ATOM     90  H3  UNL A   1      30.492  24.625  26.336  1.00  0.00    +0.000 H 
ATOM     89  H2  UNL A   1      30.639  26.293  26.835  1.00  0.00    +0.000 H 
ATOM     88  H1  UNL A   1      29.869  25.901  25.316  1.00  0.00    +0.000 H 
ENDBRANCH    2    1
BRANCH    2   78
ATOM     78  C55 UNL A   1      33.096  24.844  25.895  1.00  0.00    +0.000 C 
ATOM     79  C56 UNL A   1      32.789  23.778  26.761  1.00  0.00    +0.000 C 
ATOM     80  C57 UNL A   1      33.705  22.744  26.959  1.00  0.00    +0.000 C 
ATOM     81  C58 UNL A   1      34.897  22.773  26.250  1.00  0.00    +0.000 C 
ATOM     82  C59 UNL A   1      35.284  23.914  25.548  1.00  0.00    +0.000 C 
ATOM     83  C60 UNL A   1      34.421  24.993  25.459  1.00  0.00    +0.000 C 
ATOM     84  O3  UNL A   1      36.406  23.975  24.767  1.00  0.00    +0.000 O 
ATOM     85  C61 UNL A   1      36.912  22.687  24.398  1.00  0.00    +0.000 C 
ATOM     86  C62 UNL A   1      35.975  21.530  24.731  1.00  0.00    +0.000 C 
ATOM     87  O4  UNL A   1      35.594  21.597  26.112  1.00  0.00    +0.000 O 
ATOM    120  H33 UNL A   1      31.880  23.760  27.252  1.00  0.00    +0.000 H 
ATOM    121  H34 UNL A   1      33.500  21.977  27.618  1.00  0.00    +0.000 H 
ATOM    122  H35 UNL A   1      34.749  25.896  25.079  1.00  0.00    +0.000 H 
ATOM    123  H36 UNL A   1      37.837  22.529  24.913  1.00  0.00    +0.000 H 
ATOM    124  H37 UNL A   1      37.028  22.693  23.334  1.00  0.00    +0.000 H 
ATOM    125  H38 UNL A   1      36.476  20.602  24.545  1.00  0.00    +0.000 H 
ATOM    126  H39 UNL A   1      35.100  21.596  24.118  1.00  0.00    +0.000 H 
ENDBRANCH    2   78
ENDBRANCH    3    2
ENDBRANCH    5    3
ENDBRANCH    6    5
ENDBRANCH    7    6
ENDBRANCH    8    7
ENDBRANCH    9    8
ENDBRANCH   10    9
ENDBRANCH   11   10
ENDBRANCH   12   11
ENDBRANCH   13   12
ENDBRANCH   15   13
ENDBRANCH   19   18
BRANCH   23   24
ATOM     33  C24 UNL A   1      42.441  31.981  34.647  1.00  0.00    +0.000 C 
ATOM     34  F5  UNL A   1      41.873  30.876  35.152  1.00  0.00    +0.000 F 
ATOM     24  C19 UNL A   1      43.044  31.952  33.381  1.00  0.00    +0.000 C 
ATOM     25  C20 UNL A   1      43.616  33.141  32.901  1.00  0.00    +0.000 C 
ATOM     26  F1  UNL A   1      44.214  33.165  31.699  1.00  0.00    +0.000 F 
ATOM     27  C21 UNL A   1      43.607  34.303  33.667  1.00  0.00    +0.000 C 
ATOM     28  F2  UNL A   1      44.199  35.413  33.205  1.00  0.00    +0.000 F 
ATOM     29  C22 UNL A   1      42.994  34.311  34.910  1.00  0.00    +0.000 C 
ATOM     30  F3  UNL A   1      42.975  35.434  35.642  1.00  0.00    +0.000 F 
ATOM     31  C23 UNL A   1      42.406  33.154  35.398  1.00  0.00    +0.000 C 
ATOM     32  F4  UNL A   1      41.801  33.164  36.593  1.00  0.00    +0.000 F 
ENDBRANCH   23   24
BRANCH   40   41
ATOM     41  C30 UNL A   1      47.200  26.157  32.267  1.00  0.00    +0.000 C 
ATOM     42  C31 UNL A   1      47.266  25.380  33.434  1.00  0.00    +0.000 C 
ATOM     43  F6  UNL A   1      46.156  25.140  34.150  1.00  0.00    +0.000 F 
ATOM     44  C32 UNL A   1      48.483  24.888  33.898  1.00  0.00    +0.000 C 
ATOM     45  F7  UNL A   1      48.529  24.200  35.047  1.00  0.00    +0.000 F 
ATOM     46  C33 UNL A   1      49.648  25.127  33.186  1.00  0.00    +0.000 C 
ATOM     47  F8  UNL A   1      50.818  24.651  33.634  1.00  0.00    +0.000 F 
ATOM     48  C34 UNL A   1      49.603  25.868  32.015  1.00  0.00    +0.000 C 
ATOM     49  F9  UNL A   1      50.725  26.087  31.318  1.00  0.00    +0.000 F 
ATOM     50  C35 UNL A   1      48.392  26.390  31.566  1.00  0.00    +0.000 C 
ATOM     51  F10 UNL A   1      48.385  27.120  30.441  1.00  0.00    +0.000 F 
ENDBRANCH   40   41
BRANCH   55   56
ATOM     65  C44 UNL A   1      42.997  23.845  26.327  1.00  0.00    +0.000 C 
ATOM     66  F15 UNL A   1      43.446  25.001  25.816  1.00  0.00    +0.000 F 
ATOM     56  C39 UNL A   1      42.549  23.791  27.654  1.00  0.00    +0.000 C 
ATOM     57  C40 UNL A   1      42.083  22.558  28.133  1.00  0.00    +0.000 C 
ATOM     58  F11 UNL A   1      41.662  22.449  29.403  1.00  0.00    +0.000 F 
ATOM     59  C41 UNL A   1      42.097  21.421  27.329  1.00  0.00    +0.000 C 
ATOM     60  F12 UNL A   1      41.702  20.243  27.832  1.00  0.00    +0.000 F 
ATOM     61  C42 UNL A   1      42.539  21.501  26.017  1.00  0.00    +0.000 C 
ATOM     62  F13 UNL A   1      42.553  20.406  25.244  1.00  0.00    +0.000 F 
ATOM     63  C43 UNL A   1      42.977  22.715  25.512  1.00  0.00    +0.000 C 
ATOM     64  F14 UNL A   1      43.390  22.801  24.240  1.00  0.00    +0.000 F 
ENDBRANCH   55   56
TORSDOF 17
ENDMDL
MODEL 7
REMARK VINA RESULT:      -8.7     46.905     51.873
ROOT
ATOM     19  C15 UNL A   1      25.072  38.389  48.547  1.00  0.00    +0.000 C 
ATOM     20  C16 UNL A   1      26.339  39.156  48.284  1.00  0.00    +0.000 C 
ATOM     21  N3  UNL A   1      27.355  38.839  47.518  1.00  0.00    +0.000 N 
ATOM     22  C17 UNL A   1      28.249  39.897  47.617  1.00  0.00    +0.000 C 
ATOM     23  C18 UNL A   1      29.489  40.013  47.081  1.00  0.00    +0.000 C 
ATOM     35  C25 UNL A   1      30.110  39.017  46.246  1.00  0.00    +0.000 C 
ATOM     36  C26 UNL A   1      31.371  39.031  45.676  1.00  0.00    +0.000 C 
ATOM     37  C27 UNL A   1      31.522  37.869  44.911  1.00  0.00    +0.000 C 
ATOM     38  C28 UNL A   1      30.375  37.104  45.048  1.00  0.00    +0.000 C 
ATOM     39  N4  UNL A   1      29.513  37.825  45.860  1.00  0.00    +0.000 N 
ATOM     40  C29 UNL A   1      30.088  35.810  44.485  1.00  0.00    +0.000 C 
ATOM     52  C36 UNL A   1      28.931  35.127  44.667  1.00  0.00    +0.000 C 
ATOM     53  N5  UNL A   1      27.806  35.490  45.396  1.00  0.00    +0.000 N 
ATOM     54  C37 UNL A   1      26.946  34.513  45.241  1.00  0.00    +0.000 C 
ATOM     55  C38 UNL A   1      25.571  34.354  45.833  1.00  0.00    +0.000 C 
ATOM     67  C45 UNL A   1      25.101  35.301  46.667  1.00  0.00    +0.000 C 
ATOM     68  C46 UNL A   1      23.804  35.269  47.336  1.00  0.00    +0.000 C 
ATOM     69  C47 UNL A   1      23.658  36.388  48.062  1.00  0.00    +0.000 C 
ATOM     70  C48 UNL A   1      24.866  37.204  47.937  1.00  0.00    +0.000 C 
ATOM     71  N6  UNL A   1      25.666  36.481  47.086  1.00  0.00    +0.000 N 
ATOM     72  C49 UNL A   1      27.421  33.429  44.371  1.00  0.00    +0.000 C 
ATOM     73  C50 UNL A   1      28.653  33.828  44.091  1.00  0.00    +0.000 C 
ATOM     74  C51 UNL A   1      27.628  40.896  48.460  1.00  0.00    +0.000 C 
ATOM     75  C52 UNL A   1      26.476  40.460  48.949  1.00  0.00    +0.000 C 
ATOM    108  H21 UNL A   1      32.079  39.772  45.794  1.00  0.00    +0.000 H 
ATOM    109  H22 UNL A   1      32.347  37.624  44.341  1.00  0.00    +0.000 H 
ATOM    110  H23 UNL A   1      28.610  37.535  46.124  1.00  0.00    +0.000 H 
ATOM    111  H24 UNL A   1      23.112  34.507  47.264  1.00  0.00    +0.000 H 
ATOM    112  H25 UNL A   1      22.826  36.634  48.621  1.00  0.00    +0.000 H 
ATOM    113  H26 UNL A   1      26.561  36.780  46.804  1.00  0.00    +0.000 H 
ATOM    114  H27 UNL A   1      26.925  32.580  44.060  1.00  0.00    +0.000 H 
ATOM    115  H28 UNL A   1      29.328  33.284  43.533  1.00  0.00    +0.000 H 
ATOM    116  H29 UNL A   1      28.030  41.826  48.654  1.00  0.00    +0.000 H 
ATOM    117  H30 UNL A   1      25.841  40.917  49.621  1.00  0.00    +0.000 H 
ENDROOT
BRANCH   19   18
ATOM    106  H19 UNL A   1      23.077  38.941  52.677  1.00  0.00    +0.000 H 
ATOM    107  H20 UNL A   1      24.881  38.199  51.236  1.00  0.00    +0.000 H 
ATOM     76  C53 UNL A   1      22.958  39.687  48.929  1.00  0.00    +0.000 C 
ATOM     77  C54 UNL A   1      21.968  40.192  49.773  1.00  0.00    +0.000 C 
ATOM     15  C11 UNL A   1      21.973  39.866  51.132  1.00  0.00    +0.000 C 
ATOM     16  C12 UNL A   1      23.046  39.146  51.666  1.00  0.00    +0.000 C 
ATOM     17  C13 UNL A   1      24.075  38.703  50.833  1.00  0.00    +0.000 C 
ATOM     18  C14 UNL A   1      24.023  38.937  49.449  1.00  0.00    +0.000 C 
ATOM    118  H31 UNL A   1      22.906  39.866  47.913  1.00  0.00    +0.000 H 
ATOM    119  H32 UNL A   1      21.232  40.807  49.393  1.00  0.00    +0.000 H 
BRANCH   15   13
ATOM     13  C10 UNL A   1      20.886  40.292  52.044  1.00  0.00    +0.000 C 
ATOM     14  O2  UNL A   1      21.073  41.240  52.805  1.00  0.00    +0.000 O 
BRANCH   13   12
ATOM    105  H18 UNL A   1      19.080  39.835  51.323  1.00  0.00    +0.000 H 
ATOM     12  N2  UNL A   1      19.684  39.629  52.071  1.00  0.00    +0.000 N 
BRANCH   12   11
ATOM     11  C9  UNL A   1      19.164  38.671  53.032  1.00  0.00    +0.000 C 
ATOM    103  H16 UNL A   1      19.807  38.662  53.888  1.00  0.00    +0.000 H 
ATOM    104  H17 UNL A   1      18.170  38.976  53.284  1.00  0.00    +0.000 H 
BRANCH   11   10
ATOM     10  C8  UNL A   1      19.078  37.253  52.473  1.00  0.00    +0.000 C 
ATOM    101  H14 UNL A   1      18.762  36.605  53.264  1.00  0.00    +0.000 H 
ATOM    102  H15 UNL A   1      18.393  37.302  51.653  1.00  0.00    +0.000 H 
BRANCH   10    9
ATOM      9  C7  UNL A   1      20.380  36.689  51.896  1.00  0.00    +0.000 C 
ATOM     99  H12 UNL A   1      21.128  37.451  51.968  1.00  0.00    +0.000 H 
ATOM    100  H13 UNL A   1      20.597  35.813  52.469  1.00  0.00    +0.000 H 
BRANCH    9    8
ATOM     97  H10 UNL A   1      21.320  36.122  50.082  1.00  0.00    +0.000 H 
ATOM     98  H11 UNL A   1      19.758  35.316  50.444  1.00  0.00    +0.000 H 
ATOM      8  C6  UNL A   1      20.316  36.230  50.437  1.00  0.00    +0.000 C 
BRANCH    8    7
ATOM     95  H8  UNL A   1      18.570  36.811  49.374  1.00  0.00    +0.000 H 
ATOM      7  C5  UNL A   1      19.574  37.165  49.476  1.00  0.00    +0.000 C 
ATOM     96  H9  UNL A   1      19.638  38.144  49.902  1.00  0.00    +0.000 H 
BRANCH    7    6
ATOM     94  H7  UNL A   1      21.220  37.507  48.186  1.00  0.00    +0.000 H 
ATOM     93  H6  UNL A   1      19.666  38.028  47.530  1.00  0.00    +0.000 H 
ATOM      6  C4  UNL A   1      20.184  37.268  48.077  1.00  0.00    +0.000 C 
BRANCH    6    5
ATOM     92  H5  UNL A   1      20.779  35.356  47.578  1.00  0.00    +0.000 H 
ATOM      5  N1  UNL A   1      20.085  36.015  47.345  1.00  0.00    +0.000 N 
BRANCH    5    3
ATOM      3  C3  UNL A   1      19.205  35.586  46.392  1.00  0.00    +0.000 C 
ATOM      4  O1  UNL A   1      18.023  35.471  46.731  1.00  0.00    +0.000 O 
BRANCH    3    2
ATOM      2  C2  UNL A   1      19.639  35.252  44.953  1.00  0.00    +0.000 C 
ATOM     91  H4  UNL A   1      18.962  35.703  44.258  1.00  0.00    +0.000 H 
BRANCH    2    1
ATOM      1  C1  UNL A   1      21.038  35.846  44.729  1.00  0.00    +0.000 C 
ATOM     90  H3  UNL A   1      21.181  36.036  43.685  1.00  0.00    +0.000 H 
ATOM     89  H2  UNL A   1      21.129  36.762  45.274  1.00  0.00    +0.000 H 
ATOM     88  H1  UNL A   1      21.779  35.152  45.069  1.00  0.00    +0.000 H 
ENDBRANCH    2    1
BRANCH    2   78
ATOM     78  C55 UNL A   1      19.528  33.766  44.617  1.00  0.00    +0.000 C 
ATOM     79  C56 UNL A   1      19.768  32.770  45.581  1.00  0.00    +0.000 C 
ATOM     80  C57 UNL A   1      19.258  31.484  45.407  1.00  0.00    +0.000 C 
ATOM     81  C58 UNL A   1      18.476  31.228  44.289  1.00  0.00    +0.000 C 
ATOM     82  C59 UNL A   1      18.399  32.149  43.245  1.00  0.00    +0.000 C 
ATOM     83  C60 UNL A   1      19.016  33.383  43.368  1.00  0.00    +0.000 C 
ATOM     84  O3  UNL A   1      17.585  31.991  42.157  1.00  0.00    +0.000 O 
ATOM     85  C61 UNL A   1      16.534  31.040  42.368  1.00  0.00    +0.000 C 
ATOM     86  C62 UNL A   1      16.382  30.590  43.818  1.00  0.00    +0.000 C 
ATOM     87  O4  UNL A   1      17.646  30.134  44.320  1.00  0.00    +0.000 O 
ATOM    120  H33 UNL A   1      20.324  32.992  46.423  1.00  0.00    +0.000 H 
ATOM    121  H34 UNL A   1      19.458  30.739  46.093  1.00  0.00    +0.000 H 
ATOM    122  H35 UNL A   1      19.100  34.010  42.553  1.00  0.00    +0.000 H 
ATOM    123  H36 UNL A   1      16.736  30.177  41.768  1.00  0.00    +0.000 H 
ATOM    124  H37 UNL A   1      15.619  31.526  42.099  1.00  0.00    +0.000 H 
ATOM    125  H38 UNL A   1      15.670  29.792  43.870  1.00  0.00    +0.000 H 
ATOM    126  H39 UNL A   1      16.043  31.415  44.410  1.00  0.00    +0.000 H 
ENDBRANCH    2   78
ENDBRANCH    3    2
ENDBRANCH    5    3
ENDBRANCH    6    5
ENDBRANCH    7    6
ENDBRANCH    8    7
ENDBRANCH    9    8
ENDBRANCH   10    9
ENDBRANCH   11   10
ENDBRANCH   12   11
ENDBRANCH   13   12
ENDBRANCH   15   13
ENDBRANCH   19   18
BRANCH   23   24
ATOM     33  C24 UNL A   1      31.279  41.246  48.369  1.00  0.00    +0.000 C 
ATOM     34  F5  UNL A   1      31.592  40.107  49.006  1.00  0.00    +0.000 F 
ATOM     24  C19 UNL A   1      30.269  41.257  47.396  1.00  0.00    +0.000 C 
ATOM     25  C20 UNL A   1      29.980  42.479  46.768  1.00  0.00    +0.000 C 
ATOM     26  F1  UNL A   1      29.029  42.543  45.822  1.00  0.00    +0.000 F 
ATOM     27  C21 UNL A   1      30.688  43.635  47.083  1.00  0.00    +0.000 C 
ATOM     28  F2  UNL A   1      30.424  44.779  46.437  1.00  0.00    +0.000 F 
ATOM     29  C22 UNL A   1      31.674  43.602  48.058  1.00  0.00    +0.000 C 
ATOM     30  F3  UNL A   1      32.347  44.718  48.370  1.00  0.00    +0.000 F 
ATOM     31  C23 UNL A   1      31.964  42.411  48.705  1.00  0.00    +0.000 C 
ATOM     32  F4  UNL A   1      32.906  42.381  49.658  1.00  0.00    +0.000 F 
ENDBRANCH   23   24
BRANCH   40   41
ATOM     41  C30 UNL A   1      31.152  35.149  43.655  1.00  0.00    +0.000 C 
ATOM     42  C31 UNL A   1      32.045  34.217  44.207  1.00  0.00    +0.000 C 
ATOM     43  F6  UNL A   1      31.984  33.915  45.513  1.00  0.00    +0.000 F 
ATOM     44  C32 UNL A   1      33.038  33.630  43.428  1.00  0.00    +0.000 C 
ATOM     45  F7  UNL A   1      33.918  32.790  43.991  1.00  0.00    +0.000 F 
ATOM     46  C33 UNL A   1      33.133  33.930  42.077  1.00  0.00    +0.000 C 
ATOM     47  F8  UNL A   1      34.089  33.363  41.330  1.00  0.00    +0.000 F 
ATOM     48  C34 UNL A   1      32.243  34.825  41.504  1.00  0.00    +0.000 C 
ATOM     49  F9  UNL A   1      32.324  35.104  40.197  1.00  0.00    +0.000 F 
ATOM     50  C35 UNL A   1      31.269  35.439  42.288  1.00  0.00    +0.000 C 
ATOM     51  F10 UNL A   1      30.437  36.317  41.708  1.00  0.00    +0.000 F 
ENDBRANCH   40   41
BRANCH   55   56
ATOM     65  C44 UNL A   1      24.825  31.992  46.281  1.00  0.00    +0.000 C 
ATOM     66  F15 UNL A   1      25.689  31.919  47.304  1.00  0.00    +0.000 F 
ATOM     56  C39 UNL A   1      24.740  33.162  45.514  1.00  0.00    +0.000 C 
ATOM     57  C40 UNL A   1      23.825  33.179  44.451  1.00  0.00    +0.000 C 
ATOM     58  F11 UNL A   1      23.692  34.282  43.699  1.00  0.00    +0.000 F 
ATOM     59  C41 UNL A   1      23.005  32.083  44.190  1.00  0.00    +0.000 C 
ATOM     60  F12 UNL A   1      22.097  32.149  43.206  1.00  0.00    +0.000 F 
ATOM     61  C42 UNL A   1      23.111  30.935  44.960  1.00  0.00    +0.000 C 
ATOM     62  F13 UNL A   1      22.320  29.882  44.708  1.00  0.00    +0.000 F 
ATOM     63  C43 UNL A   1      24.028  30.884  45.997  1.00  0.00    +0.000 C 
ATOM     64  F14 UNL A   1      24.146  29.771  46.733  1.00  0.00    +0.000 F 
ENDBRANCH   55   56
TORSDOF 17
ENDMDL
MODEL 8
REMARK VINA RESULT:      -8.7     47.103     51.787
ROOT
ATOM     19  C15 UNL A   1      25.685  34.769  45.680  1.00  0.00    +0.000 C 
ATOM     20  C16 UNL A   1      25.347  35.928  46.578  1.00  0.00    +0.000 C 
ATOM     21  N3  UNL A   1      26.066  36.981  46.878  1.00  0.00    +0.000 N 
ATOM     22  C17 UNL A   1      25.281  37.747  47.730  1.00  0.00    +0.000 C 
ATOM     23  C18 UNL A   1      25.605  38.890  48.383  1.00  0.00    +0.000 C 
ATOM     35  C25 UNL A   1      26.877  39.558  48.273  1.00  0.00    +0.000 C 
ATOM     36  C26 UNL A   1      27.308  40.706  48.913  1.00  0.00    +0.000 C 
ATOM     37  C27 UNL A   1      28.600  41.003  48.463  1.00  0.00    +0.000 C 
ATOM     38  C28 UNL A   1      28.995  40.009  47.583  1.00  0.00    +0.000 C 
ATOM     39  N4  UNL A   1      27.924  39.135  47.466  1.00  0.00    +0.000 N 
ATOM     40  C29 UNL A   1      30.254  39.863  46.901  1.00  0.00    +0.000 C 
ATOM     52  C36 UNL A   1      30.560  38.855  46.047  1.00  0.00    +0.000 C 
ATOM     53  N5  UNL A   1      29.776  37.783  45.643  1.00  0.00    +0.000 N 
ATOM     54  C37 UNL A   1      30.504  37.105  44.791  1.00  0.00    +0.000 C 
ATOM     55  C38 UNL A   1      30.175  35.829  44.061  1.00  0.00    +0.000 C 
ATOM     67  C45 UNL A   1      28.989  35.232  44.286  1.00  0.00    +0.000 C 
ATOM     68  C46 UNL A   1      28.545  33.982  43.677  1.00  0.00    +0.000 C 
ATOM     69  C47 UNL A   1      27.303  33.704  44.103  1.00  0.00    +0.000 C 
ATOM     70  C48 UNL A   1      26.874  34.740  45.043  1.00  0.00    +0.000 C 
ATOM     71  N6  UNL A   1      27.938  35.608  45.087  1.00  0.00    +0.000 N 
ATOM     72  C49 UNL A   1      31.828  37.689  44.536  1.00  0.00    +0.000 C 
ATOM     73  C50 UNL A   1      31.830  38.723  45.365  1.00  0.00    +0.000 C 
ATOM     74  C51 UNL A   1      24.005  37.075  47.845  1.00  0.00    +0.000 C 
ATOM     75  C52 UNL A   1      24.016  35.915  47.205  1.00  0.00    +0.000 C 
ATOM    108  H21 UNL A   1      26.770  41.251  49.604  1.00  0.00    +0.000 H 
ATOM    109  H22 UNL A   1      29.162  41.823  48.740  1.00  0.00    +0.000 H 
ATOM    110  H23 UNL A   1      27.908  38.333  46.895  1.00  0.00    +0.000 H 
ATOM    111  H24 UNL A   1      29.097  33.404  43.024  1.00  0.00    +0.000 H 
ATOM    112  H25 UNL A   1      26.739  32.888  43.814  1.00  0.00    +0.000 H 
ATOM    113  H26 UNL A   1      27.947  36.421  45.641  1.00  0.00    +0.000 H 
ATOM    114  H27 UNL A   1      32.563  37.375  43.884  1.00  0.00    +0.000 H 
ATOM    115  H28 UNL A   1      32.634  39.354  45.505  1.00  0.00    +0.000 H 
ATOM    116  H29 UNL A   1      23.193  37.450  48.359  1.00  0.00    +0.000 H 
ATOM    117  H30 UNL A   1      23.282  35.191  47.158  1.00  0.00    +0.000 H 
ENDROOT
BRANCH   19   18
ATOM    106  H19 UNL A   1      21.962  32.914  43.671  1.00  0.00    +0.000 H 
ATOM    107  H20 UNL A   1      23.652  34.637  43.904  1.00  0.00    +0.000 H 
ATOM     76  C53 UNL A   1      24.790  32.485  46.209  1.00  0.00    +0.000 C 
ATOM     77  C54 UNL A   1      23.869  31.455  46.008  1.00  0.00    +0.000 C 
ATOM     15  C11 UNL A   1      22.798  31.635  45.130  1.00  0.00    +0.000 C 
ATOM     16  C12 UNL A   1      22.727  32.796  44.354  1.00  0.00    +0.000 C 
ATOM     17  C13 UNL A   1      23.690  33.796  44.502  1.00  0.00    +0.000 C 
ATOM     18  C14 UNL A   1      24.711  33.667  45.458  1.00  0.00    +0.000 C 
ATOM    118  H31 UNL A   1      25.534  32.376  46.916  1.00  0.00    +0.000 H 
ATOM    119  H32 UNL A   1      23.982  30.560  46.509  1.00  0.00    +0.000 H 
BRANCH   15   13
ATOM     13  C10 UNL A   1      21.740  30.611  44.965  1.00  0.00    +0.000 C 
ATOM     14  O2  UNL A   1      21.993  29.435  45.221  1.00  0.00    +0.000 O 
BRANCH   13   12
ATOM    105  H18 UNL A   1      20.484  31.614  43.779  1.00  0.00    +0.000 H 
ATOM     12  N2  UNL A   1      20.492  30.950  44.505  1.00  0.00    +0.000 N 
BRANCH   12   11
ATOM     11  C9  UNL A   1      19.180  30.484  44.923  1.00  0.00    +0.000 C 
ATOM    103  H16 UNL A   1      19.301  29.833  45.764  1.00  0.00    +0.000 H 
ATOM    104  H17 UNL A   1      18.596  31.346  45.168  1.00  0.00    +0.000 H 
BRANCH   11   10
ATOM     10  C8  UNL A   1      18.439  29.728  43.823  1.00  0.00    +0.000 C 
ATOM    101  H14 UNL A   1      18.776  30.103  42.879  1.00  0.00    +0.000 H 
ATOM    102  H15 UNL A   1      18.657  28.693  43.981  1.00  0.00    +0.000 H 
BRANCH   10    9
ATOM      9  C7  UNL A   1      16.912  29.842  43.855  1.00  0.00    +0.000 C 
ATOM     99  H12 UNL A   1      16.513  29.084  43.214  1.00  0.00    +0.000 H 
ATOM    100  H13 UNL A   1      16.633  29.733  44.882  1.00  0.00    +0.000 H 
BRANCH    9    8
ATOM     97  H10 UNL A   1      17.131  31.752  42.961  1.00  0.00    +0.000 H 
ATOM     98  H11 UNL A   1      15.540  30.954  42.732  1.00  0.00    +0.000 H 
ATOM      8  C6  UNL A   1      16.337  31.188  43.406  1.00  0.00    +0.000 C 
BRANCH    8    7
ATOM     95  H8  UNL A   1      14.875  31.515  44.913  1.00  0.00    +0.000 H 
ATOM      7  C5  UNL A   1      15.712  32.047  44.511  1.00  0.00    +0.000 C 
ATOM     96  H9  UNL A   1      16.487  32.225  45.227  1.00  0.00    +0.000 H 
BRANCH    7    6
ATOM     94  H7  UNL A   1      14.533  33.786  44.791  1.00  0.00    +0.000 H 
ATOM     93  H6  UNL A   1      14.760  33.330  43.101  1.00  0.00    +0.000 H 
ATOM      6  C4  UNL A   1      15.224  33.425  44.060  1.00  0.00    +0.000 C 
BRANCH    6    5
ATOM     92  H5  UNL A   1      16.420  34.782  43.065  1.00  0.00    +0.000 H 
ATOM      5  N1  UNL A   1      16.315  34.383  43.959  1.00  0.00    +0.000 N 
BRANCH    5    3
ATOM      3  C3  UNL A   1      17.220  34.829  44.880  1.00  0.00    +0.000 C 
ATOM      4  O1  UNL A   1      16.852  35.733  45.637  1.00  0.00    +0.000 O 
BRANCH    3    2
ATOM      2  C2  UNL A   1      18.643  34.250  44.991  1.00  0.00    +0.000 C 
ATOM     91  H4  UNL A   1      18.640  33.413  45.657  1.00  0.00    +0.000 H 
BRANCH    2    1
ATOM      1  C1  UNL A   1      19.070  33.766  43.597  1.00  0.00    +0.000 C 
ATOM     90  H3  UNL A   1      18.200  33.616  42.991  1.00  0.00    +0.000 H 
ATOM     89  H2  UNL A   1      19.700  34.500  43.141  1.00  0.00    +0.000 H 
ATOM     88  H1  UNL A   1      19.604  32.843  43.688  1.00  0.00    +0.000 H 
ENDBRANCH    2    1
BRANCH    2   78
ATOM     78  C55 UNL A   1      19.634  35.206  45.653  1.00  0.00    +0.000 C 
ATOM     79  C56 UNL A   1      20.288  36.216  44.924  1.00  0.00    +0.000 C 
ATOM     80  C57 UNL A   1      20.828  37.321  45.580  1.00  0.00    +0.000 C 
ATOM     81  C58 UNL A   1      20.665  37.419  46.955  1.00  0.00    +0.000 C 
ATOM     82  C59 UNL A   1      20.194  36.337  47.697  1.00  0.00    +0.000 C 
ATOM     83  C60 UNL A   1      19.775  35.187  47.049  1.00  0.00    +0.000 C 
ATOM     84  O3  UNL A   1      19.937  36.397  49.040  1.00  0.00    +0.000 O 
ATOM     85  C61 UNL A   1      19.791  37.736  49.530  1.00  0.00    +0.000 C 
ATOM     86  C62 UNL A   1      19.701  38.794  48.436  1.00  0.00    +0.000 C 
ATOM     87  O4  UNL A   1      20.809  38.656  47.535  1.00  0.00    +0.000 O 
ATOM    120  H33 UNL A   1      20.367  36.139  43.897  1.00  0.00    +0.000 H 
ATOM    121  H34 UNL A   1      21.338  38.049  45.055  1.00  0.00    +0.000 H 
ATOM    122  H35 UNL A   1      19.572  34.328  47.584  1.00  0.00    +0.000 H 
ATOM    123  H36 UNL A   1      20.635  37.962  50.148  1.00  0.00    +0.000 H 
ATOM    124  H37 UNL A   1      18.866  37.769  50.067  1.00  0.00    +0.000 H 
ATOM    125  H38 UNL A   1      19.724  39.768  48.880  1.00  0.00    +0.000 H 
ATOM    126  H39 UNL A   1      18.787  38.667  47.894  1.00  0.00    +0.000 H 
ENDBRANCH    2   78
ENDBRANCH    3    2
ENDBRANCH    5    3
ENDBRANCH    6    5
ENDBRANCH    7    6
ENDBRANCH    8    7
ENDBRANCH    9    8
ENDBRANCH   10    9
ENDBRANCH   11   10
ENDBRANCH   12   11
ENDBRANCH   13   12
ENDBRANCH   15   13
ENDBRANCH   19   18
BRANCH   23   24
ATOM     33  C24 UNL A   1      24.506  39.119  50.647  1.00  0.00    +0.000 C 
ATOM     34  F5  UNL A   1      25.397  38.256  51.157  1.00  0.00    +0.000 F 
ATOM     24  C19 UNL A   1      24.570  39.486  49.294  1.00  0.00    +0.000 C 
ATOM     25  C20 UNL A   1      23.606  40.387  48.814  1.00  0.00    +0.000 C 
ATOM     26  F1  UNL A   1      23.629  40.780  47.531  1.00  0.00    +0.000 F 
ATOM     27  C21 UNL A   1      22.634  40.916  49.658  1.00  0.00    +0.000 C 
ATOM     28  F2  UNL A   1      21.752  41.808  49.187  1.00  0.00    +0.000 F 
ATOM     29  C22 UNL A   1      22.582  40.528  50.988  1.00  0.00    +0.000 C 
ATOM     30  F3  UNL A   1      21.637  41.028  51.797  1.00  0.00    +0.000 F 
ATOM     31  C23 UNL A   1      23.511  39.625  51.481  1.00  0.00    +0.000 C 
ATOM     32  F4  UNL A   1      23.454  39.239  52.762  1.00  0.00    +0.000 F 
ENDBRANCH   23   24
BRANCH   40   41
ATOM     41  C30 UNL A   1      31.325  40.882  47.170  1.00  0.00    +0.000 C 
ATOM     42  C31 UNL A   1      31.321  42.139  46.546  1.00  0.00    +0.000 C 
ATOM     43  F6  UNL A   1      30.360  42.451  45.662  1.00  0.00    +0.000 F 
ATOM     44  C32 UNL A   1      32.332  43.064  46.791  1.00  0.00    +0.000 C 
ATOM     45  F7  UNL A   1      32.340  44.234  46.137  1.00  0.00    +0.000 F 
ATOM     46  C33 UNL A   1      33.344  42.767  47.692  1.00  0.00    +0.000 C 
ATOM     47  F8  UNL A   1      34.316  43.659  47.926  1.00  0.00    +0.000 F 
ATOM     48  C34 UNL A   1      33.353  41.543  48.342  1.00  0.00    +0.000 C 
ATOM     49  F9  UNL A   1      34.321  41.261  49.224  1.00  0.00    +0.000 F 
ATOM     50  C35 UNL A   1      32.360  40.603  48.075  1.00  0.00    +0.000 C 
ATOM     51  F10 UNL A   1      32.409  39.420  48.704  1.00  0.00    +0.000 F 
ENDBRANCH   40   41
BRANCH   55   56
ATOM     65  C44 UNL A   1      31.951  34.138  43.490  1.00  0.00    +0.000 C 
ATOM     66  F15 UNL A   1      31.875  33.647  44.735  1.00  0.00    +0.000 F 
ATOM     56  C39 UNL A   1      31.147  35.224  43.113  1.00  0.00    +0.000 C 
ATOM     57  C40 UNL A   1      31.274  35.702  41.800  1.00  0.00    +0.000 C 
ATOM     58  F11 UNL A   1      30.513  36.726  41.385  1.00  0.00    +0.000 F 
ATOM     59  C41 UNL A   1      32.142  35.098  40.894  1.00  0.00    +0.000 C 
ATOM     60  F12 UNL A   1      32.198  35.537  39.629  1.00  0.00    +0.000 F 
ATOM     61  C42 UNL A   1      32.930  34.028  41.292  1.00  0.00    +0.000 C 
ATOM     62  F13 UNL A   1      33.764  33.446  40.419  1.00  0.00    +0.000 F 
ATOM     63  C43 UNL A   1      32.844  33.557  42.592  1.00  0.00    +0.000 C 
ATOM     64  F14 UNL A   1      33.615  32.534  42.987  1.00  0.00    +0.000 F 
ENDBRANCH   55   56
TORSDOF 17
ENDMDL
MODEL 9
REMARK VINA RESULT:      -8.7     43.418     47.948
ROOT
ATOM     19  C15 UNL A   1      53.108  20.966  10.969  1.00  0.00    +0.000 C 
ATOM     20  C16 UNL A   1      54.580  20.743  10.755  1.00  0.00    +0.000 C 
ATOM     21  N3  UNL A   1      55.193  20.175   9.746  1.00  0.00    +0.000 N 
ATOM     22  C17 UNL A   1      56.549  20.243  10.038  1.00  0.00    +0.000 C 
ATOM     23  C18 UNL A   1      57.593  19.721   9.348  1.00  0.00    +0.000 C 
ATOM     35  C25 UNL A   1      57.468  18.993   8.111  1.00  0.00    +0.000 C 
ATOM     36  C26 UNL A   1      58.464  18.404   7.351  1.00  0.00    +0.000 C 
ATOM     37  C27 UNL A   1      57.875  17.847   6.210  1.00  0.00    +0.000 C 
ATOM     38  C28 UNL A   1      56.505  18.041   6.287  1.00  0.00    +0.000 C 
ATOM     39  N4  UNL A   1      56.271  18.756   7.452  1.00  0.00    +0.000 N 
ATOM     40  C29 UNL A   1      55.485  17.605   5.369  1.00  0.00    +0.000 C 
ATOM     52  C36 UNL A   1      54.158  17.842   5.517  1.00  0.00    +0.000 C 
ATOM     53  N5  UNL A   1      53.500  18.526   6.530  1.00  0.00    +0.000 N 
ATOM     54  C37 UNL A   1      52.229  18.509   6.209  1.00  0.00    +0.000 C 
ATOM     55  C38 UNL A   1      51.051  19.070   6.960  1.00  0.00    +0.000 C 
ATOM     67  C45 UNL A   1      51.254  19.668   8.149  1.00  0.00    +0.000 C 
ATOM     68  C46 UNL A   1      50.210  20.230   9.001  1.00  0.00    +0.000 C 
ATOM     69  C47 UNL A   1      50.778  20.771  10.090  1.00  0.00    +0.000 C 
ATOM     70  C48 UNL A   1      52.226  20.566  10.031  1.00  0.00    +0.000 C 
ATOM     71  N6  UNL A   1      52.417  19.906   8.842  1.00  0.00    +0.000 N 
ATOM     72  C49 UNL A   1      51.942  17.833   4.937  1.00  0.00    +0.000 C 
ATOM     73  C50 UNL A   1      53.143  17.401   4.584  1.00  0.00    +0.000 C 
ATOM     74  C51 UNL A   1      56.676  20.970  11.283  1.00  0.00    +0.000 C 
ATOM     75  C52 UNL A   1      55.486  21.245  11.799  1.00  0.00    +0.000 C 
ATOM    108  H21 UNL A   1      59.468  18.380   7.585  1.00  0.00    +0.000 H 
ATOM    109  H22 UNL A   1      58.376  17.373   5.443  1.00  0.00    +0.000 H 
ATOM    110  H23 UNL A   1      55.385  19.051   7.765  1.00  0.00    +0.000 H 
ATOM    111  H24 UNL A   1      49.199  20.212   8.799  1.00  0.00    +0.000 H 
ATOM    112  H25 UNL A   1      50.274  21.256  10.850  1.00  0.00    +0.000 H 
ATOM    113  H26 UNL A   1      53.303  19.628   8.517  1.00  0.00    +0.000 H 
ATOM    114  H27 UNL A   1      51.040  17.724   4.447  1.00  0.00    +0.000 H 
ATOM    115  H28 UNL A   1      53.332  16.824   3.750  1.00  0.00    +0.000 H 
ATOM    116  H29 UNL A   1      57.574  21.239  11.712  1.00  0.00    +0.000 H 
ATOM    117  H30 UNL A   1      55.256  21.694  12.699  1.00  0.00    +0.000 H 
ENDROOT
BRANCH   19   18
ATOM    106  H19 UNL A   1      52.193  24.732  13.485  1.00  0.00    +0.000 H 
ATOM    107  H20 UNL A   1      52.834  23.615  11.429  1.00  0.00    +0.000 H 
ATOM     76  C53 UNL A   1      52.183  20.912  13.302  1.00  0.00    +0.000 C 
ATOM     77  C54 UNL A   1      51.727  21.558  14.452  1.00  0.00    +0.000 C 
ATOM     15  C11 UNL A   1      51.791  22.950  14.547  1.00  0.00    +0.000 C 
ATOM     16  C12 UNL A   1      52.187  23.701  13.435  1.00  0.00    +0.000 C 
ATOM     17  C13 UNL A   1      52.574  23.057  12.258  1.00  0.00    +0.000 C 
ATOM     18  C14 UNL A   1      52.611  21.654  12.191  1.00  0.00    +0.000 C 
ATOM    118  H31 UNL A   1      52.206  19.881  13.268  1.00  0.00    +0.000 H 
ATOM    119  H32 UNL A   1      51.342  21.005  15.234  1.00  0.00    +0.000 H 
BRANCH   15   13
ATOM     13  C10 UNL A   1      51.418  23.669  15.786  1.00  0.00    +0.000 C 
ATOM     14  O2  UNL A   1      52.125  24.594  16.184  1.00  0.00    +0.000 O 
BRANCH   13   12
ATOM    105  H18 UNL A   1      49.755  22.607  16.094  1.00  0.00    +0.000 H 
ATOM     12  N2  UNL A   1      50.311  23.303  16.511  1.00  0.00    +0.000 N 
BRANCH   12   11
ATOM     11  C9  UNL A   1      49.831  23.782  17.797  1.00  0.00    +0.000 C 
ATOM    103  H16 UNL A   1      49.843  24.853  17.788  1.00  0.00    +0.000 H 
ATOM    104  H17 UNL A   1      48.843  23.396  17.935  1.00  0.00    +0.000 H 
BRANCH   11   10
ATOM     10  C8  UNL A   1      50.680  23.295  18.969  1.00  0.00    +0.000 C 
ATOM    101  H14 UNL A   1      51.681  23.641  18.817  1.00  0.00    +0.000 H 
ATOM    102  H15 UNL A   1      50.215  23.685  19.849  1.00  0.00    +0.000 H 
BRANCH   10    9
ATOM      9  C7  UNL A   1      50.732  21.777  19.161  1.00  0.00    +0.000 C 
ATOM     99  H12 UNL A   1      50.643  21.576  20.209  1.00  0.00    +0.000 H 
ATOM    100  H13 UNL A   1      49.932  21.381  18.573  1.00  0.00    +0.000 H 
BRANCH    9    8
ATOM     97  H10 UNL A   1      51.769  20.603  17.731  1.00  0.00    +0.000 H 
ATOM     98  H11 UNL A   1      52.738  21.859  18.569  1.00  0.00    +0.000 H 
ATOM      8  C6  UNL A   1      52.003  21.087  18.657  1.00  0.00    +0.000 C 
BRANCH    8    7
ATOM     95  H8  UNL A   1      52.571  20.423  20.594  1.00  0.00    +0.000 H 
ATOM      7  C5  UNL A   1      52.609  20.038  19.596  1.00  0.00    +0.000 C 
ATOM     96  H9  UNL A   1      52.031  19.147  19.463  1.00  0.00    +0.000 H 
BRANCH    7    6
ATOM     94  H7  UNL A   1      54.045  18.869  18.566  1.00  0.00    +0.000 H 
ATOM     93  H6  UNL A   1      54.532  19.344  20.196  1.00  0.00    +0.000 H 
ATOM      6  C4  UNL A   1      54.058  19.657  19.289  1.00  0.00    +0.000 C 
BRANCH    6    5
ATOM     92  H5  UNL A   1      54.764  21.596  19.264  1.00  0.00    +0.000 H 
ATOM      5  N1  UNL A   1      54.807  20.771  18.728  1.00  0.00    +0.000 N 
BRANCH    5    3
ATOM      3  C3  UNL A   1      55.560  20.880  17.593  1.00  0.00    +0.000 C 
ATOM      4  O1  UNL A   1      56.746  21.192  17.734  1.00  0.00    +0.000 O 
BRANCH    3    2
ATOM      2  C2  UNL A   1      54.980  20.631  16.188  1.00  0.00    +0.000 C 
ATOM     91  H4  UNL A   1      53.915  20.553  16.246  1.00  0.00    +0.000 H 
BRANCH    2    1
ATOM      1  C1  UNL A   1      55.337  21.837  15.306  1.00  0.00    +0.000 C 
ATOM     90  H3  UNL A   1      54.686  22.654  15.540  1.00  0.00    +0.000 H 
ATOM     89  H2  UNL A   1      56.350  22.125  15.488  1.00  0.00    +0.000 H 
ATOM     88  H1  UNL A   1      55.220  21.571  14.275  1.00  0.00    +0.000 H 
ENDBRANCH    2    1
BRANCH    2   78
ATOM     78  C55 UNL A   1      55.385  19.281  15.598  1.00  0.00    +0.000 C 
ATOM     79  C56 UNL A   1      55.181  18.976  14.240  1.00  0.00    +0.000 C 
ATOM     80  C57 UNL A   1      55.920  17.964  13.627  1.00  0.00    +0.000 C 
ATOM     81  C58 UNL A   1      56.884  17.303  14.374  1.00  0.00    +0.000 C 
ATOM     82  C59 UNL A   1      56.953  17.468  15.757  1.00  0.00    +0.000 C 
ATOM     83  C60 UNL A   1      56.126  18.385  16.384  1.00  0.00    +0.000 C 
ATOM     84  O3  UNL A   1      57.928  16.908  16.536  1.00  0.00    +0.000 O 
ATOM     85  C61 UNL A   1      59.083  16.498  15.793  1.00  0.00    +0.000 C 
ATOM     86  C62 UNL A   1      59.101  16.988  14.349  1.00  0.00    +0.000 C 
ATOM     87  O4  UNL A   1      57.873  16.630  13.700  1.00  0.00    +0.000 O 
ATOM    120  H33 UNL A   1      54.482  19.505  13.694  1.00  0.00    +0.000 H 
ATOM    121  H34 UNL A   1      55.752  17.713  12.640  1.00  0.00    +0.000 H 
ATOM    122  H35 UNL A   1      56.055  18.408  17.413  1.00  0.00    +0.000 H 
ATOM    123  H36 UNL A   1      59.117  15.428  15.785  1.00  0.00    +0.000 H 
ATOM    124  H37 UNL A   1      59.932  16.935  16.277  1.00  0.00    +0.000 H 
ATOM    125  H38 UNL A   1      59.922  16.537  13.830  1.00  0.00    +0.000 H 
ATOM    126  H39 UNL A   1      59.209  18.053  14.338  1.00  0.00    +0.000 H 
ENDBRANCH    2   78
ENDBRANCH    3    2
ENDBRANCH    5    3
ENDBRANCH    6    5
ENDBRANCH    7    6
ENDBRANCH    8    7
ENDBRANCH    9    8
ENDBRANCH   10    9
ENDBRANCH   11   10
ENDBRANCH   12   11
ENDBRANCH   13   12
ENDBRANCH   15   13
ENDBRANCH   19   18
BRANCH   23   24
ATOM     33  C24 UNL A   1      59.744  21.024   9.600  1.00  0.00    +0.000 C 
ATOM     34  F5  UNL A   1      59.251  21.976   8.794  1.00  0.00    +0.000 F 
ATOM     24  C19 UNL A   1      58.968  19.902   9.927  1.00  0.00    +0.000 C 
ATOM     25  C20 UNL A   1      59.539  18.934  10.769  1.00  0.00    +0.000 C 
ATOM     26  F1  UNL A   1      58.835  17.846  11.121  1.00  0.00    +0.000 F 
ATOM     27  C21 UNL A   1      60.823  19.095  11.281  1.00  0.00    +0.000 C 
ATOM     28  F2  UNL A   1      61.328  18.178  12.119  1.00  0.00    +0.000 F 
ATOM     29  C22 UNL A   1      61.576  20.206  10.934  1.00  0.00    +0.000 C 
ATOM     30  F3  UNL A   1      62.817  20.353  11.418  1.00  0.00    +0.000 F 
ATOM     31  C23 UNL A   1      61.041  21.166  10.089  1.00  0.00    +0.000 C 
ATOM     32  F4  UNL A   1      61.772  22.233   9.741  1.00  0.00    +0.000 F 
ENDBRANCH   23   24
BRANCH   40   41
ATOM     41  C30 UNL A   1      55.909  16.805   4.170  1.00  0.00    +0.000 C 
ATOM     42  C31 UNL A   1      56.523  17.406   3.061  1.00  0.00    +0.000 C 
ATOM     43  F6  UNL A   1      56.721  18.734   3.036  1.00  0.00    +0.000 F 
ATOM     44  C32 UNL A   1      56.890  16.653   1.949  1.00  0.00    +0.000 C 
ATOM     45  F7  UNL A   1      57.419  17.260   0.877  1.00  0.00    +0.000 F 
ATOM     46  C33 UNL A   1      56.689  15.281   1.940  1.00  0.00    +0.000 C 
ATOM     47  F8  UNL A   1      57.044  14.558   0.869  1.00  0.00    +0.000 F 
ATOM     48  C34 UNL A   1      56.111  14.660   3.037  1.00  0.00    +0.000 C 
ATOM     49  F9  UNL A   1      55.930  13.333   3.036  1.00  0.00    +0.000 F 
ATOM     50  C35 UNL A   1      55.712  15.416   4.137  1.00  0.00    +0.000 C 
ATOM     51  F10 UNL A   1      55.137  14.789   5.173  1.00  0.00    +0.000 F 
ENDBRANCH   40   41
BRANCH   55   56
ATOM     65  C44 UNL A   1      48.926  17.782   6.553  1.00  0.00    +0.000 C 
ATOM     66  F15 UNL A   1      49.459  16.719   7.173  1.00  0.00    +0.000 F 
ATOM     56  C39 UNL A   1      49.675  18.958   6.407  1.00  0.00    +0.000 C 
ATOM     57  C40 UNL A   1      49.070  20.036   5.743  1.00  0.00    +0.000 C 
ATOM     58  F11 UNL A   1      49.737  21.190   5.594  1.00  0.00    +0.000 F 
ATOM     59  C41 UNL A   1      47.760  19.951   5.277  1.00  0.00    +0.000 C 
ATOM     60  F12 UNL A   1      47.186  21.016   4.701  1.00  0.00    +0.000 F 
ATOM     61  C42 UNL A   1      47.041  18.775   5.430  1.00  0.00    +0.000 C 
ATOM     62  F13 UNL A   1      45.780  18.694   4.983  1.00  0.00    +0.000 F 
ATOM     63  C43 UNL A   1      47.628  17.687   6.056  1.00  0.00    +0.000 C 
ATOM     64  F14 UNL A   1      46.944  16.542   6.191  1.00  0.00    +0.000 F 
ENDBRANCH   55   56
TORSDOF 17
ENDMDL
MODEL 10
REMARK VINA RESULT:      -8.7     43.929     47.029
ROOT
ATOM     19  C15 UNL A   1      53.544  18.807  10.979  1.00  0.00    +0.000 C 
ATOM     20  C16 UNL A   1      54.838  18.041  10.945  1.00  0.00    +0.000 C 
ATOM     21  N3  UNL A   1      55.843  18.075  11.786  1.00  0.00    +0.000 N 
ATOM     22  C17 UNL A   1      56.774  17.165  11.301  1.00  0.00    +0.000 C 
ATOM     23  C18 UNL A   1      58.018  16.895  11.768  1.00  0.00    +0.000 C 
ATOM     35  C25 UNL A   1      58.605  17.516  12.927  1.00  0.00    +0.000 C 
ATOM     36  C26 UNL A   1      59.867  17.327  13.463  1.00  0.00    +0.000 C 
ATOM     37  C27 UNL A   1      59.978  18.113  14.616  1.00  0.00    +0.000 C 
ATOM     38  C28 UNL A   1      58.805  18.835  14.767  1.00  0.00    +0.000 C 
ATOM     39  N4  UNL A   1      57.967  18.450  13.732  1.00  0.00    +0.000 N 
ATOM     40  C29 UNL A   1      58.472  19.805  15.778  1.00  0.00    +0.000 C 
ATOM     52  C36 UNL A   1      57.292  20.467  15.857  1.00  0.00    +0.000 C 
ATOM     53  N5  UNL A   1      56.179  20.372  15.032  1.00  0.00    +0.000 N 
ATOM     54  C37 UNL A   1      55.286  21.187  15.537  1.00  0.00    +0.000 C 
ATOM     55  C38 UNL A   1      53.904  21.514  15.034  1.00  0.00    +0.000 C 
ATOM     67  C45 UNL A   1      53.467  20.942  13.896  1.00  0.00    +0.000 C 
ATOM     68  C46 UNL A   1      52.169  21.185  13.274  1.00  0.00    +0.000 C 
ATOM     69  C47 UNL A   1      52.061  20.423  12.174  1.00  0.00    +0.000 C 
ATOM     70  C48 UNL A   1      53.298  19.662  11.993  1.00  0.00    +0.000 C 
ATOM     71  N6  UNL A   1      54.073  20.031  13.065  1.00  0.00    +0.000 N 
ATOM     72  C49 UNL A   1      55.723  21.872  16.761  1.00  0.00    +0.000 C 
ATOM     73  C50 UNL A   1      56.969  21.437  16.882  1.00  0.00    +0.000 C 
ATOM     74  C51 UNL A   1      56.188  16.543  10.134  1.00  0.00    +0.000 C 
ATOM     75  C52 UNL A   1      55.020  17.095   9.834  1.00  0.00    +0.000 C 
ATOM    108  H21 UNL A   1      60.600  16.711  13.080  1.00  0.00    +0.000 H 
ATOM    109  H22 UNL A   1      60.794  18.149  15.245  1.00  0.00    +0.000 H 
ATOM    110  H23 UNL A   1      57.054  18.789  13.588  1.00  0.00    +0.000 H 
ATOM    111  H24 UNL A   1      51.450  21.837  13.624  1.00  0.00    +0.000 H 
ATOM    112  H25 UNL A   1      51.237  20.382  11.554  1.00  0.00    +0.000 H 
ATOM    113  H26 UNL A   1      54.978  19.678  13.222  1.00  0.00    +0.000 H 
ATOM    114  H27 UNL A   1      55.198  22.521  17.367  1.00  0.00    +0.000 H 
ATOM    115  H28 UNL A   1      57.625  21.749  17.614  1.00  0.00    +0.000 H 
ATOM    116  H29 UNL A   1      56.621  15.772   9.604  1.00  0.00    +0.000 H 
ATOM    117  H30 UNL A   1      54.400  16.908   9.031  1.00  0.00    +0.000 H 
ENDROOT
BRANCH   19   18
ATOM    106  H19 UNL A   1      51.241  20.098   7.188  1.00  0.00    +0.000 H 
ATOM    107  H20 UNL A   1      53.036  20.327   8.803  1.00  0.00    +0.000 H 
ATOM     76  C53 UNL A   1      51.655  17.503   9.966  1.00  0.00    +0.000 C 
ATOM     77  C54 UNL A   1      50.681  17.323   8.982  1.00  0.00    +0.000 C 
ATOM     15  C11 UNL A   1      50.484  18.303   8.005  1.00  0.00    +0.000 C 
ATOM     16  C12 UNL A   1      51.354  19.395   7.936  1.00  0.00    +0.000 C 
ATOM     17  C13 UNL A   1      52.376  19.536   8.877  1.00  0.00    +0.000 C 
ATOM     18  C14 UNL A   1      52.514  18.611   9.924  1.00  0.00    +0.000 C 
ATOM    118  H31 UNL A   1      51.744  16.814  10.730  1.00  0.00    +0.000 H 
ATOM    119  H32 UNL A   1      50.106  16.466   8.977  1.00  0.00    +0.000 H 
BRANCH   15   13
ATOM     13  C10 UNL A   1      49.395  18.205   7.006  1.00  0.00    +0.000 C 
ATOM     14  O2  UNL A   1      48.788  17.143   6.876  1.00  0.00    +0.000 O 
BRANCH   13   12
ATOM    105  H18 UNL A   1      49.322  20.152   6.566  1.00  0.00    +0.000 H 
ATOM     12  N2  UNL A   1      49.070  19.272   6.205  1.00  0.00    +0.000 N 
BRANCH   12   11
ATOM     11  C9  UNL A   1      48.413  19.306   4.909  1.00  0.00    +0.000 C 
ATOM    103  H16 UNL A   1      48.634  20.242   4.439  1.00  0.00    +0.000 H 
ATOM    104  H17 UNL A   1      48.783  18.478   4.341  1.00  0.00    +0.000 H 
BRANCH   11   10
ATOM     10  C8  UNL A   1      46.897  19.153   5.006  1.00  0.00    +0.000 C 
ATOM    101  H14 UNL A   1      46.612  18.308   4.415  1.00  0.00    +0.000 H 
ATOM    102  H15 UNL A   1      46.680  19.046   6.048  1.00  0.00    +0.000 H 
BRANCH   10    9
ATOM      9  C7  UNL A   1      46.080  20.357   4.530  1.00  0.00    +0.000 C 
ATOM     99  H12 UNL A   1      45.717  20.871   5.397  1.00  0.00    +0.000 H 
ATOM    100  H13 UNL A   1      46.742  20.939   3.926  1.00  0.00    +0.000 H 
BRANCH    9    8
ATOM     97  H10 UNL A   1      45.127  19.175   3.050  1.00  0.00    +0.000 H 
ATOM     98  H11 UNL A   1      44.055  19.878   4.305  1.00  0.00    +0.000 H 
ATOM      8  C6  UNL A   1      44.878  20.033   3.639  1.00  0.00    +0.000 C 
BRANCH    8    7
ATOM     95  H8  UNL A   1      43.488  21.515   3.015  1.00  0.00    +0.000 H 
ATOM      7  C5  UNL A   1      44.437  21.148   2.684  1.00  0.00    +0.000 C 
ATOM     96  H9  UNL A   1      45.210  21.887   2.709  1.00  0.00    +0.000 H 
BRANCH    7    6
ATOM     94  H7  UNL A   1      45.179  20.189   0.946  1.00  0.00    +0.000 H 
ATOM     93  H6  UNL A   1      44.174  21.603   0.619  1.00  0.00    +0.000 H 
ATOM      6  C4  UNL A   1      44.297  20.727   1.220  1.00  0.00    +0.000 C 
BRANCH    6    5
ATOM     92  H5  UNL A   1      43.238  18.968   1.439  1.00  0.00    +0.000 H 
ATOM      5  N1  UNL A   1      43.153  19.851   1.012  1.00  0.00    +0.000 N 
BRANCH    5    3
ATOM      3  C3  UNL A   1      41.983  20.032   0.331  1.00  0.00    +0.000 C 
ATOM      4  O1  UNL A   1      41.832  19.381  -0.708  1.00  0.00    +0.000 O 
BRANCH    3    2
ATOM      2  C2  UNL A   1      40.885  20.998   0.813  1.00  0.00    +0.000 C 
ATOM     91  H4  UNL A   1      41.269  21.621   1.593  1.00  0.00    +0.000 H 
BRANCH    2    1
ATOM      1  C1  UNL A   1      40.482  21.890  -0.372  1.00  0.00    +0.000 C 
ATOM     90  H3  UNL A   1      41.242  22.625  -0.539  1.00  0.00    +0.000 H 
ATOM     89  H2  UNL A   1      40.369  21.288  -1.249  1.00  0.00    +0.000 H 
ATOM     88  H1  UNL A   1      39.556  22.379  -0.152  1.00  0.00    +0.000 H 
ENDBRANCH    2    1
BRANCH    2   78
ATOM     78  C55 UNL A   1      39.713  20.291   1.491  1.00  0.00    +0.000 C 
ATOM     79  C56 UNL A   1      39.913  19.302   2.471  1.00  0.00    +0.000 C 
ATOM     80  C57 UNL A   1      38.895  18.986   3.370  1.00  0.00    +0.000 C 
ATOM     81  C58 UNL A   1      37.706  19.699   3.302  1.00  0.00    +0.000 C 
ATOM     82  C59 UNL A   1      37.437  20.535   2.219  1.00  0.00    +0.000 C 
ATOM     83  C60 UNL A   1      38.407  20.749   1.255  1.00  0.00    +0.000 C 
ATOM     84  O3  UNL A   1      36.322  21.323   2.134  1.00  0.00    +0.000 O 
ATOM     85  C61 UNL A   1      35.679  21.536   3.397  1.00  0.00    +0.000 C 
ATOM     86  C62 UNL A   1      36.491  21.062   4.598  1.00  0.00    +0.000 C 
ATOM     87  O4  UNL A   1      36.889  19.697   4.405  1.00  0.00    +0.000 O 
ATOM    120  H33 UNL A   1      40.818  18.808   2.525  1.00  0.00    +0.000 H 
ATOM    121  H34 UNL A   1      39.023  18.238   4.070  1.00  0.00    +0.000 H 
ATOM    122  H35 UNL A   1      38.174  21.236   0.376  1.00  0.00    +0.000 H 
ATOM    123  H36 UNL A   1      34.747  21.011   3.393  1.00  0.00    +0.000 H 
ATOM    124  H37 UNL A   1      35.557  22.594   3.506  1.00  0.00    +0.000 H 
ATOM    125  H38 UNL A   1      35.894  21.137   5.483  1.00  0.00    +0.000 H 
ATOM    126  H39 UNL A   1      37.363  21.673   4.698  1.00  0.00    +0.000 H 
ENDBRANCH    2   78
ENDBRANCH    3    2
ENDBRANCH    5    3
ENDBRANCH    6    5
ENDBRANCH    7    6
ENDBRANCH    8    7
ENDBRANCH    9    8
ENDBRANCH   10    9
ENDBRANCH   11   10
ENDBRANCH   12   11
ENDBRANCH   13   12
ENDBRANCH   15   13
ENDBRANCH   19   18
BRANCH   23   24
ATOM     33  C24 UNL A   1      59.559  16.268   9.866  1.00  0.00    +0.000 C 
ATOM     34  F5  UNL A   1      59.553  17.544   9.453  1.00  0.00    +0.000 F 
ATOM     24  C19 UNL A   1      58.841  15.892  11.011  1.00  0.00    +0.000 C 
ATOM     25  C20 UNL A   1      58.877  14.541  11.391  1.00  0.00    +0.000 C 
ATOM     26  F1  UNL A   1      58.216  14.129  12.484  1.00  0.00    +0.000 F 
ATOM     27  C21 UNL A   1      59.621  13.611  10.670  1.00  0.00    +0.000 C 
ATOM     28  F2  UNL A   1      59.676  12.336  11.079  1.00  0.00    +0.000 F 
ATOM     29  C22 UNL A   1      60.312  14.004   9.534  1.00  0.00    +0.000 C 
ATOM     30  F3  UNL A   1      61.018  13.105   8.833  1.00  0.00    +0.000 F 
ATOM     31  C23 UNL A   1      60.276  15.329   9.128  1.00  0.00    +0.000 C 
ATOM     32  F4  UNL A   1      60.932  15.707   8.023  1.00  0.00    +0.000 F 
ENDBRANCH   23   24
BRANCH   40   41
ATOM     41  C30 UNL A   1      59.514  20.134  16.810  1.00  0.00    +0.000 C 
ATOM     42  C31 UNL A   1      59.602  19.429  18.021  1.00  0.00    +0.000 C 
ATOM     43  F6  UNL A   1      58.727  18.450  18.297  1.00  0.00    +0.000 F 
ATOM     44  C32 UNL A   1      60.560  19.762  18.975  1.00  0.00    +0.000 C 
ATOM     45  F7  UNL A   1      60.585  19.115  20.148  1.00  0.00    +0.000 F 
ATOM     46  C33 UNL A   1      61.472  20.776  18.722  1.00  0.00    +0.000 C 
ATOM     47  F8  UNL A   1      62.393  21.094  19.642  1.00  0.00    +0.000 F 
ATOM     48  C34 UNL A   1      61.422  21.467  17.521  1.00  0.00    +0.000 C 
ATOM     49  F9  UNL A   1      62.312  22.436  17.270  1.00  0.00    +0.000 F 
ATOM     50  C35 UNL A   1      60.444  21.158  16.579  1.00  0.00    +0.000 C 
ATOM     51  F10 UNL A   1      60.410  21.859  15.436  1.00  0.00    +0.000 F 
ENDBRANCH   40   41
BRANCH   55   56
ATOM     65  C44 UNL A   1      52.278  22.050  16.879  1.00  0.00    +0.000 C 
ATOM     66  F15 UNL A   1      52.306  20.767  17.269  1.00  0.00    +0.000 F 
ATOM     56  C39 UNL A   1      53.033  22.466  15.774  1.00  0.00    +0.000 C 
ATOM     57  C40 UNL A   1      52.959  23.817  15.406  1.00  0.00    +0.000 C 
ATOM     58  F11 UNL A   1      53.678  24.269  14.368  1.00  0.00    +0.000 F 
ATOM     59  C41 UNL A   1      52.189  24.721  16.136  1.00  0.00    +0.000 C 
ATOM     60  F12 UNL A   1      52.185  26.018  15.799  1.00  0.00    +0.000 F 
ATOM     61  C42 UNL A   1      51.447  24.285  17.223  1.00  0.00    +0.000 C 
ATOM     62  F13 UNL A   1      50.707  25.154  17.925  1.00  0.00    +0.000 F 
ATOM     63  C43 UNL A   1      51.481  22.948  17.587  1.00  0.00    +0.000 C 
ATOM     64  F14 UNL A   1      50.752  22.518  18.626  1.00  0.00    +0.000 F 
ENDBRANCH   55   56
TORSDOF 17
ENDMDL
