MODEL 1
REMARK VINA RESULT:      -8.6      0.000      0.000
ROOT
ATOM     28  C23 UNL A   1      46.515  11.488  47.264  1.00  0.00    +0.000 C 
ATOM     29  C24 UNL A   1      46.666  10.489  48.377  1.00  0.00    +0.000 C 
ATOM     30  N3  UNL A   1      47.436  10.538  49.435  1.00  0.00    +0.000 N 
ATOM     31  C25 UNL A   1      47.168   9.378  50.150  1.00  0.00    +0.000 C 
ATOM     32  C26 UNL A   1      47.756   8.932  51.286  1.00  0.00    +0.000 C 
ATOM     44  C33 UNL A   1      48.805   9.625  51.984  1.00  0.00    +0.000 C 
ATOM     45  C34 UNL A   1      49.476   9.245  53.133  1.00  0.00    +0.000 C 
ATOM     46  C35 UNL A   1      50.401  10.245  53.451  1.00  0.00    +0.000 C 
ATOM     47  C36 UNL A   1      50.333  11.228  52.478  1.00  0.00    +0.000 C 
ATOM     48  N4  UNL A   1      49.342  10.842  51.591  1.00  0.00    +0.000 N 
ATOM     49  C37 UNL A   1      51.113  12.433  52.367  1.00  0.00    +0.000 C 
ATOM     61  C44 UNL A   1      50.973  13.361  51.391  1.00  0.00    +0.000 C 
ATOM     62  N5  UNL A   1      50.105  13.366  50.308  1.00  0.00    +0.000 N 
ATOM     63  C45 UNL A   1      50.341  14.482  49.663  1.00  0.00    +0.000 C 
ATOM     64  C46 UNL A   1      49.719  14.997  48.391  1.00  0.00    +0.000 C 
ATOM     76  C53 UNL A   1      48.787  14.252  47.768  1.00  0.00    +0.000 C 
ATOM     77  C54 UNL A   1      48.099  14.613  46.533  1.00  0.00    +0.000 C 
ATOM     78  C55 UNL A   1      47.201  13.660  46.237  1.00  0.00    +0.000 C 
ATOM     79  C56 UNL A   1      47.275  12.601  47.245  1.00  0.00    +0.000 C 
ATOM     80  N6  UNL A   1      48.252  13.032  48.107  1.00  0.00    +0.000 N 
ATOM     81  C57 UNL A   1      51.365  15.332  50.290  1.00  0.00    +0.000 C 
ATOM     82  C58 UNL A   1      51.749  14.580  51.311  1.00  0.00    +0.000 C 
ATOM     83  C59 UNL A   1      46.127   8.671  49.437  1.00  0.00    +0.000 C 
ATOM     84  C60 UNL A   1      45.823   9.286  48.303  1.00  0.00    +0.000 C 
ATOM    119  H31 UNL A   1      49.321   8.374  53.664  1.00  0.00    +0.000 H 
ATOM    120  H32 UNL A   1      51.028  10.249  54.272  1.00  0.00    +0.000 H 
ATOM    121  H33 UNL A   1      49.062  11.355  50.799  1.00  0.00    +0.000 H 
ATOM    122  H34 UNL A   1      48.275  15.464  45.976  1.00  0.00    +0.000 H 
ATOM    123  H35 UNL A   1      46.560  13.672  45.428  1.00  0.00    +0.000 H 
ATOM    124  H36 UNL A   1      48.542  12.517  48.893  1.00  0.00    +0.000 H 
ATOM    125  H37 UNL A   1      51.697  16.267  50.008  1.00  0.00    +0.000 H 
ATOM    126  H38 UNL A   1      52.506  14.832  51.966  1.00  0.00    +0.000 H 
ATOM    127  H39 UNL A   1      45.679   7.802  49.768  1.00  0.00    +0.000 H 
ATOM    128  H40 UNL A   1      45.166   8.995  47.561  1.00  0.00    +0.000 H 
ENDROOT
BRANCH   28   27
ATOM    129  H41 UNL A   1      46.828  10.327  44.868  1.00  0.00    +0.000 H 
ATOM    130  H42 UNL A   1      45.198  10.050  43.095  1.00  0.00    +0.000 H 
ATOM     27  C22 UNL A   1      45.493  11.277  46.208  1.00  0.00    +0.000 C 
ATOM    117  H29 UNL A   1      42.231  11.754  45.545  1.00  0.00    +0.000 H 
ATOM     86  C62 UNL A   1      44.912  10.453  44.001  1.00  0.00    +0.000 C 
ATOM     85  C61 UNL A   1      45.856  10.647  45.007  1.00  0.00    +0.000 C 
ATOM     24  C19 UNL A   1      43.577  10.804  44.223  1.00  0.00    +0.000 C 
ATOM     25  C20 UNL A   1      43.209  11.458  45.402  1.00  0.00    +0.000 C 
ATOM     26  C21 UNL A   1      44.168  11.707  46.384  1.00  0.00    +0.000 C 
ATOM    118  H30 UNL A   1      43.903  12.210  47.245  1.00  0.00    +0.000 H 
BRANCH   24   22
ATOM     22  C18 UNL A   1      42.531  10.508  43.220  1.00  0.00    +0.000 C 
ATOM     23  O2  UNL A   1      42.663   9.545  42.469  1.00  0.00    +0.000 O 
BRANCH   22   21
ATOM    116  H28 UNL A   1      40.751  11.208  43.810  1.00  0.00    +0.000 H 
ATOM     21  N2  UNL A   1      41.435  11.324  43.112  1.00  0.00    +0.000 N 
BRANCH   21   20
ATOM    114  H26 UNL A   1      41.194  11.889  41.144  1.00  0.00    +0.000 H 
ATOM    115  H27 UNL A   1      40.158  12.716  42.318  1.00  0.00    +0.000 H 
ATOM     20  C17 UNL A   1      41.139  12.337  42.114  1.00  0.00    +0.000 C 
BRANCH   20   19
ATOM    113  H25 UNL A   1      43.065  13.121  41.896  1.00  0.00    +0.000 H 
ATOM     19  C16 UNL A   1      42.107  13.514  42.164  1.00  0.00    +0.000 C 
ATOM    112  H24 UNL A   1      42.075  13.927  43.150  1.00  0.00    +0.000 H 
BRANCH   19   18
ATOM     18  C15 UNL A   1      41.817  14.640  41.169  1.00  0.00    +0.000 C 
ATOM    110  H22 UNL A   1      41.316  14.211  40.325  1.00  0.00    +0.000 H 
ATOM    111  H23 UNL A   1      41.228  15.357  41.700  1.00  0.00    +0.000 H 
BRANCH   18   17
ATOM     17  C14 UNL A   1      43.044  15.400  40.655  1.00  0.00    +0.000 C 
ATOM    108  H20 UNL A   1      43.094  16.334  41.175  1.00  0.00    +0.000 H 
ATOM    109  H21 UNL A   1      43.883  14.760  40.835  1.00  0.00    +0.000 H 
BRANCH   17   16
ATOM    106  H18 UNL A   1      42.982  14.764  38.627  1.00  0.00    +0.000 H 
ATOM    107  H19 UNL A   1      42.224  16.343  38.962  1.00  0.00    +0.000 H 
ATOM     16  C13 UNL A   1      43.054  15.695  39.151  1.00  0.00    +0.000 C 
BRANCH   16   15
ATOM    105  H17 UNL A   1      44.080  17.471  38.616  1.00  0.00    +0.000 H 
ATOM     15  C12 UNL A   1      44.298  16.424  38.659  1.00  0.00    +0.000 C 
ATOM    104  H16 UNL A   1      44.561  16.050  37.691  1.00  0.00    +0.000 H 
BRANCH   15   14
ATOM     14  N1  UNL A   1      45.420  16.228  39.561  1.00  0.00    +0.000 N 
ATOM    103  H15 UNL A   1      45.511  15.321  39.933  1.00  0.00    +0.000 H 
BRANCH   14   12
ATOM     12  C11 UNL A   1      46.367  17.125  39.966  1.00  0.00    +0.000 C 
ATOM     13  O1  UNL A   1      46.634  18.052  39.195  1.00  0.00    +0.000 O 
BRANCH   12    9
ATOM      9  C9  UNL A   1      47.035  17.026  41.334  1.00  0.00    +0.000 C 
ATOM    100  H12 UNL A   1      47.722  16.207  41.361  1.00  0.00    +0.000 H 
BRANCH    9    8
ATOM     98  H10 UNL A   1      43.463  17.569  44.301  1.00  0.00    +0.000 H 
ATOM     99  H11 UNL A   1      44.957  18.336  42.566  1.00  0.00    +0.000 H 
ATOM    132  H44 UNL A   1      45.405  13.847  44.321  1.00  0.00    +0.000 H 
ATOM      5  C5  UNL A   1      44.293  15.636  44.436  1.00  0.00    +0.000 C 
ATOM      6  C6  UNL A   1      44.193  16.936  43.938  1.00  0.00    +0.000 C 
ATOM      7  C7  UNL A   1      45.074  17.386  42.951  1.00  0.00    +0.000 C 
ATOM    131  H43 UNL A   1      46.951  14.642  42.644  1.00  0.00    +0.000 H 
ATOM      8  C8  UNL A   1      46.118  16.574  42.472  1.00  0.00    +0.000 C 
ATOM     87  C63 UNL A   1      46.208  15.271  42.987  1.00  0.00    +0.000 C 
ATOM     88  C64 UNL A   1      45.312  14.809  43.957  1.00  0.00    +0.000 C 
BRANCH    5    4
ATOM     97  H9  UNL A   1      43.028  14.105  45.112  1.00  0.00    +0.000 H 
ATOM      4  C4  UNL A   1      43.260  15.109  45.401  1.00  0.00    +0.000 C 
ATOM     96  H8  UNL A   1      42.397  15.741  45.357  1.00  0.00    +0.000 H 
BRANCH    4    2
ATOM      2  C2  UNL A   1      43.770  15.070  46.856  1.00  0.00    +0.000 C 
ATOM     92  H4  UNL A   1      44.510  14.298  46.914  1.00  0.00    +0.000 H 
BRANCH    2    1
ATOM      1  C1  UNL A   1      44.438  16.385  47.270  1.00  0.00    +0.000 C 
ATOM     90  H2  UNL A   1      44.018  16.723  48.195  1.00  0.00    +0.000 H 
ATOM     91  H3  UNL A   1      44.272  17.122  46.512  1.00  0.00    +0.000 H 
ATOM     89  H1  UNL A   1      45.490  16.229  47.391  1.00  0.00    +0.000 H 
ENDBRANCH    2    1
BRANCH    2    3
ATOM      3  C3  UNL A   1      42.617  14.753  47.810  1.00  0.00    +0.000 C 
ATOM     93  H5  UNL A   1      42.099  13.882  47.465  1.00  0.00    +0.000 H 
ATOM     94  H6  UNL A   1      41.941  15.581  47.839  1.00  0.00    +0.000 H 
ATOM     95  H7  UNL A   1      43.004  14.573  48.791  1.00  0.00    +0.000 H 
ENDBRANCH    2    3
ENDBRANCH    4    2
ENDBRANCH    5    4
ENDBRANCH    9    8
BRANCH    9   10
ATOM     10  C10 UNL A   1      47.840  18.314  41.540  1.00  0.00    +0.000 C 
ATOM     11  F1  UNL A   1      49.168  18.041  41.653  1.00  0.00    +0.000 F 
ATOM    101  H13 UNL A   1      47.504  18.798  42.433  1.00  0.00    +0.000 H 
ATOM    102  H14 UNL A   1      47.691  18.949  40.693  1.00  0.00    +0.000 H 
ENDBRANCH    9   10
ENDBRANCH   12    9
ENDBRANCH   14   12
ENDBRANCH   15   14
ENDBRANCH   16   15
ENDBRANCH   17   16
ENDBRANCH   18   17
ENDBRANCH   19   18
ENDBRANCH   20   19
ENDBRANCH   21   20
ENDBRANCH   22   21
ENDBRANCH   24   22
ENDBRANCH   28   27
BRANCH   32   33
ATOM     33  C27 UNL A   1      47.293   7.615  51.836  1.00  0.00    +0.000 C 
ATOM     34  C28 UNL A   1      46.067   7.498  52.506  1.00  0.00    +0.000 C 
ATOM     35  F2  UNL A   1      45.312   8.585  52.727  1.00  0.00    +0.000 F 
ATOM     36  C29 UNL A   1      45.623   6.266  52.978  1.00  0.00    +0.000 C 
ATOM     37  F3  UNL A   1      44.464   6.183  53.645  1.00  0.00    +0.000 F 
ATOM     38  C30 UNL A   1      46.381   5.124  52.762  1.00  0.00    +0.000 C 
ATOM     39  F4  UNL A   1      45.945   3.936  53.205  1.00  0.00    +0.000 F 
ATOM     40  C31 UNL A   1      47.593   5.215  52.092  1.00  0.00    +0.000 C 
ATOM     41  F5  UNL A   1      48.319   4.112  51.873  1.00  0.00    +0.000 F 
ATOM     42  C32 UNL A   1      48.051   6.450  51.642  1.00  0.00    +0.000 C 
ATOM     43  F6  UNL A   1      49.229   6.508  51.004  1.00  0.00    +0.000 F 
ENDBRANCH   32   33
BRANCH   49   50
ATOM     50  C38 UNL A   1      52.177  12.673  53.397  1.00  0.00    +0.000 C 
ATOM     51  C39 UNL A   1      53.498  12.245  53.204  1.00  0.00    +0.000 C 
ATOM     52  F7  UNL A   1      53.830  11.559  52.101  1.00  0.00    +0.000 F 
ATOM     53  C40 UNL A   1      54.474  12.488  54.166  1.00  0.00    +0.000 C 
ATOM     54  F8  UNL A   1      55.720  12.029  53.982  1.00  0.00    +0.000 F 
ATOM     55  C41 UNL A   1      54.157  13.190  55.319  1.00  0.00    +0.000 C 
ATOM     56  F9  UNL A   1      55.100  13.427  56.242  1.00  0.00    +0.000 F 
ATOM     57  C42 UNL A   1      52.860  13.639  55.521  1.00  0.00    +0.000 C 
ATOM     58  F10 UNL A   1      52.555  14.327  56.630  1.00  0.00    +0.000 F 
ATOM     59  C43 UNL A   1      51.875  13.374  54.575  1.00  0.00    +0.000 C 
ATOM     60  F11 UNL A   1      50.627  13.810  54.803  1.00  0.00    +0.000 F 
ENDBRANCH   49   50
BRANCH   64   65
ATOM     65  C47 UNL A   1      50.142  16.304  47.822  1.00  0.00    +0.000 C 
ATOM     66  C48 UNL A   1      49.478  17.488  48.171  1.00  0.00    +0.000 C 
ATOM     67  F12 UNL A   1      48.457  17.451  49.040  1.00  0.00    +0.000 F 
ATOM     68  C49 UNL A   1      49.822  18.705  47.587  1.00  0.00    +0.000 C 
ATOM     69  F13 UNL A   1      49.130  19.811  47.894  1.00  0.00    +0.000 F 
ATOM     70  C50 UNL A   1      50.859  18.767  46.669  1.00  0.00    +0.000 C 
ATOM     71  F14 UNL A   1      51.184  19.937  46.101  1.00  0.00    +0.000 F 
ATOM     72  C51 UNL A   1      51.550  17.613  46.330  1.00  0.00    +0.000 C 
ATOM     73  F15 UNL A   1      52.561  17.672  45.453  1.00  0.00    +0.000 F 
ATOM     74  C52 UNL A   1      51.188  16.391  46.892  1.00  0.00    +0.000 C 
ATOM     75  F16 UNL A   1      51.858  15.288  46.528  1.00  0.00    +0.000 F 
ENDBRANCH   64   65
TORSDOF 21
ENDMDL
MODEL 2
REMARK VINA RESULT:      -8.6     39.921     48.169
ROOT
ATOM     28  C23 UNL A   1      46.596  50.893  18.001  1.00  0.00    +0.000 C 
ATOM     29  C24 UNL A   1      47.572  50.509  19.078  1.00  0.00    +0.000 C 
ATOM     30  N3  UNL A   1      48.595  51.180  19.545  1.00  0.00    +0.000 N 
ATOM     31  C25 UNL A   1      49.141  50.387  20.546  1.00  0.00    +0.000 C 
ATOM     32  C26 UNL A   1      50.252  50.609  21.288  1.00  0.00    +0.000 C 
ATOM     44  C33 UNL A   1      51.094  51.770  21.163  1.00  0.00    +0.000 C 
ATOM     45  C34 UNL A   1      52.251  52.076  21.858  1.00  0.00    +0.000 C 
ATOM     46  C35 UNL A   1      52.713  53.319  21.410  1.00  0.00    +0.000 C 
ATOM     47  C36 UNL A   1      51.866  53.766  20.410  1.00  0.00    +0.000 C 
ATOM     48  N4  UNL A   1      50.870  52.812  20.277  1.00  0.00    +0.000 N 
ATOM     49  C37 UNL A   1      51.957  54.975  19.635  1.00  0.00    +0.000 C 
ATOM     61  C44 UNL A   1      51.072  55.355  18.682  1.00  0.00    +0.000 C 
ATOM     62  N5  UNL A   1      49.937  54.696  18.231  1.00  0.00    +0.000 N 
ATOM     63  C45 UNL A   1      49.410  55.471  17.315  1.00  0.00    +0.000 C 
ATOM     64  C46 UNL A   1      48.189  55.245  16.463  1.00  0.00    +0.000 C 
ATOM     76  C53 UNL A   1      47.495  54.099  16.602  1.00  0.00    +0.000 C 
ATOM     77  C54 UNL A   1      46.298  53.737  15.850  1.00  0.00    +0.000 C 
ATOM     78  C55 UNL A   1      45.847  52.551  16.290  1.00  0.00    +0.000 C 
ATOM     79  C56 UNL A   1      46.745  52.053  17.334  1.00  0.00    +0.000 C 
ATOM     80  N6  UNL A   1      47.701  53.033  17.443  1.00  0.00    +0.000 N 
ATOM     81  C57 UNL A   1      50.137  56.732  17.108  1.00  0.00    +0.000 C 
ATOM     82  C58 UNL A   1      51.166  56.589  17.931  1.00  0.00    +0.000 C 
ATOM     83  C59 UNL A   1      48.306  49.211  20.658  1.00  0.00    +0.000 C 
ATOM     84  C60 UNL A   1      47.357  49.209  19.732  1.00  0.00    +0.000 C 
ATOM    119  H31 UNL A   1      52.696  51.490  22.580  1.00  0.00    +0.000 H 
ATOM    120  H32 UNL A   1      53.545  53.816  21.766  1.00  0.00    +0.000 H 
ATOM    121  H33 UNL A   1      50.116  52.867  19.646  1.00  0.00    +0.000 H 
ATOM    122  H34 UNL A   1      45.869  54.301  15.100  1.00  0.00    +0.000 H 
ATOM    123  H35 UNL A   1      45.001  52.068  15.948  1.00  0.00    +0.000 H 
ATOM    124  H36 UNL A   1      48.461  52.976  18.065  1.00  0.00    +0.000 H 
ATOM    125  H37 UNL A   1      49.908  57.522  16.485  1.00  0.00    +0.000 H 
ATOM    126  H38 UNL A   1      51.936  57.270  18.025  1.00  0.00    +0.000 H 
ATOM    127  H39 UNL A   1      48.432  48.470  21.365  1.00  0.00    +0.000 H 
ATOM    128  H40 UNL A   1      46.652  48.485  19.525  1.00  0.00    +0.000 H 
ENDROOT
BRANCH   28   27
ATOM    129  H41 UNL A   1      44.112  51.040  18.998  1.00  0.00    +0.000 H 
ATOM    130  H42 UNL A   1      42.228  49.568  18.595  1.00  0.00    +0.000 H 
ATOM     27  C22 UNL A   1      45.436  50.016  17.703  1.00  0.00    +0.000 C 
ATOM    117  H29 UNL A   1      44.518  47.384  15.820  1.00  0.00    +0.000 H 
ATOM     86  C62 UNL A   1      43.111  49.432  18.077  1.00  0.00    +0.000 C 
ATOM     85  C61 UNL A   1      44.206  50.253  18.336  1.00  0.00    +0.000 C 
ATOM     24  C19 UNL A   1      43.210  48.422  17.115  1.00  0.00    +0.000 C 
ATOM     25  C20 UNL A   1      44.437  48.157  16.500  1.00  0.00    +0.000 C 
ATOM     26  C21 UNL A   1      45.549  48.942  16.805  1.00  0.00    +0.000 C 
ATOM    118  H30 UNL A   1      46.460  48.733  16.368  1.00  0.00    +0.000 H 
BRANCH   24   22
ATOM     22  C18 UNL A   1      42.036  47.607  16.737  1.00  0.00    +0.000 C 
ATOM     23  O2  UNL A   1      41.325  47.961  15.800  1.00  0.00    +0.000 O 
BRANCH   22   21
ATOM    116  H28 UNL A   1      40.906  46.529  17.989  1.00  0.00    +0.000 H 
ATOM     21  N2  UNL A   1      41.728  46.477  17.450  1.00  0.00    +0.000 N 
BRANCH   21   20
ATOM    114  H26 UNL A   1      42.596  44.850  16.529  1.00  0.00    +0.000 H 
ATOM    115  H27 UNL A   1      43.368  45.394  18.027  1.00  0.00    +0.000 H 
ATOM     20  C17 UNL A   1      42.440  45.214  17.523  1.00  0.00    +0.000 C 
BRANCH   20   19
ATOM    113  H25 UNL A   1      41.572  43.317  17.663  1.00  0.00    +0.000 H 
ATOM     19  C16 UNL A   1      41.682  44.155  18.318  1.00  0.00    +0.000 C 
ATOM    112  H24 UNL A   1      40.752  44.579  18.630  1.00  0.00    +0.000 H 
BRANCH   19   18
ATOM     18  C15 UNL A   1      42.406  43.632  19.561  1.00  0.00    +0.000 C 
ATOM    110  H22 UNL A   1      42.974  42.771  19.272  1.00  0.00    +0.000 H 
ATOM    111  H23 UNL A   1      43.003  44.444  19.917  1.00  0.00    +0.000 H 
BRANCH   18   17
ATOM     17  C14 UNL A   1      41.502  43.229  20.730  1.00  0.00    +0.000 C 
ATOM    108  H20 UNL A   1      41.154  44.125  21.202  1.00  0.00    +0.000 H 
ATOM    109  H21 UNL A   1      40.720  42.634  20.307  1.00  0.00    +0.000 H 
BRANCH   17   16
ATOM    106  H18 UNL A   1      41.773  41.364  21.713  1.00  0.00    +0.000 H 
ATOM    107  H19 UNL A   1      43.217  42.408  21.631  1.00  0.00    +0.000 H 
ATOM     16  C13 UNL A   1      42.162  42.357  21.803  1.00  0.00    +0.000 C 
BRANCH   16   15
ATOM    105  H17 UNL A   1      41.039  42.366  23.601  1.00  0.00    +0.000 H 
ATOM     15  C12 UNL A   1      41.930  42.831  23.232  1.00  0.00    +0.000 C 
ATOM    104  H16 UNL A   1      41.831  43.897  23.235  1.00  0.00    +0.000 H 
BRANCH   15   14
ATOM     14  N1  UNL A   1      43.033  42.458  24.102  1.00  0.00    +0.000 N 
ATOM    103  H15 UNL A   1      42.859  41.700  24.705  1.00  0.00    +0.000 H 
BRANCH   14   12
ATOM     12  C11 UNL A   1      44.278  43.012  24.200  1.00  0.00    +0.000 C 
ATOM     13  O1  UNL A   1      45.197  42.274  24.570  1.00  0.00    +0.000 O 
BRANCH   12    9
ATOM      9  C9  UNL A   1      44.543  44.466  23.821  1.00  0.00    +0.000 C 
ATOM    100  H12 UNL A   1      43.624  45.003  23.721  1.00  0.00    +0.000 H 
BRANCH    9    8
ATOM     98  H10 UNL A   1      46.257  43.000  19.727  1.00  0.00    +0.000 H 
ATOM     99  H11 UNL A   1      45.506  42.653  21.995  1.00  0.00    +0.000 H 
ATOM    132  H44 UNL A   1      45.382  47.091  20.069  1.00  0.00    +0.000 H 
ATOM      5  C5  UNL A   1      45.857  45.070  19.701  1.00  0.00    +0.000 C 
ATOM      6  C6  UNL A   1      45.911  43.800  20.279  1.00  0.00    +0.000 C 
ATOM      7  C7  UNL A   1      45.499  43.606  21.600  1.00  0.00    +0.000 C 
ATOM    131  H43 UNL A   1      44.708  46.758  22.364  1.00  0.00    +0.000 H 
ATOM      8  C8  UNL A   1      45.074  44.679  22.403  1.00  0.00    +0.000 C 
ATOM     87  C63 UNL A   1      45.032  45.951  21.809  1.00  0.00    +0.000 C 
ATOM     88  C64 UNL A   1      45.420  46.144  20.479  1.00  0.00    +0.000 C 
BRANCH    5    4
ATOM     97  H9  UNL A   1      45.379  45.823  17.802  1.00  0.00    +0.000 H 
ATOM      4  C4  UNL A   1      46.174  45.253  18.237  1.00  0.00    +0.000 C 
ATOM     96  H8  UNL A   1      46.262  44.288  17.782  1.00  0.00    +0.000 H 
BRANCH    4    2
ATOM      2  C2  UNL A   1      47.486  46.031  18.006  1.00  0.00    +0.000 C 
ATOM     92  H4  UNL A   1      47.335  47.026  18.369  1.00  0.00    +0.000 H 
BRANCH    2    1
ATOM      1  C1  UNL A   1      48.660  45.426  18.782  1.00  0.00    +0.000 C 
ATOM     90  H2  UNL A   1      48.669  45.817  19.778  1.00  0.00    +0.000 H 
ATOM     91  H3  UNL A   1      49.579  45.677  18.292  1.00  0.00    +0.000 H 
ATOM     89  H1  UNL A   1      48.555  44.362  18.817  1.00  0.00    +0.000 H 
ENDBRANCH    2    1
BRANCH    2    3
ATOM      3  C3  UNL A   1      47.818  46.070  16.513  1.00  0.00    +0.000 C 
ATOM     93  H5  UNL A   1      47.109  46.691  16.007  1.00  0.00    +0.000 H 
ATOM     94  H6  UNL A   1      47.774  45.080  16.112  1.00  0.00    +0.000 H 
ATOM     95  H7  UNL A   1      48.802  46.467  16.377  1.00  0.00    +0.000 H 
ENDBRANCH    2    3
ENDBRANCH    4    2
ENDBRANCH    5    4
ENDBRANCH    9    8
BRANCH    9   10
ATOM     10  C10 UNL A   1      45.327  45.099  24.977  1.00  0.00    +0.000 C 
ATOM     11  F1  UNL A   1      46.636  45.258  24.642  1.00  0.00    +0.000 F 
ATOM    101  H13 UNL A   1      45.259  44.464  25.836  1.00  0.00    +0.000 H 
ATOM    102  H14 UNL A   1      44.908  46.060  25.189  1.00  0.00    +0.000 H 
ENDBRANCH    9   10
ENDBRANCH   12    9
ENDBRANCH   14   12
ENDBRANCH   15   14
ENDBRANCH   16   15
ENDBRANCH   17   16
ENDBRANCH   18   17
ENDBRANCH   19   18
ENDBRANCH   20   19
ENDBRANCH   21   20
ENDBRANCH   22   21
ENDBRANCH   24   22
ENDBRANCH   28   27
BRANCH   32   33
ATOM     33  C27 UNL A   1      50.639  49.562  22.290  1.00  0.00    +0.000 C 
ATOM     34  C28 UNL A   1      50.174  49.612  23.611  1.00  0.00    +0.000 C 
ATOM     35  F2  UNL A   1      49.422  50.645  24.023  1.00  0.00    +0.000 F 
ATOM     36  C29 UNL A   1      50.502  48.615  24.525  1.00  0.00    +0.000 C 
ATOM     37  F3  UNL A   1      50.074  48.701  25.792  1.00  0.00    +0.000 F 
ATOM     38  C30 UNL A   1      51.276  47.535  24.128  1.00  0.00    +0.000 C 
ATOM     39  F4  UNL A   1      51.579  46.568  25.006  1.00  0.00    +0.000 F 
ATOM     40  C31 UNL A   1      51.738  47.458  22.822  1.00  0.00    +0.000 C 
ATOM     41  F5  UNL A   1      52.476  46.410  22.435  1.00  0.00    +0.000 F 
ATOM     42  C32 UNL A   1      51.433  48.468  21.913  1.00  0.00    +0.000 C 
ATOM     43  F6  UNL A   1      51.900  48.371  20.660  1.00  0.00    +0.000 F 
ENDBRANCH   32   33
BRANCH   49   50
ATOM     50  C38 UNL A   1      53.129  55.877  19.884  1.00  0.00    +0.000 C 
ATOM     51  C39 UNL A   1      53.053  56.951  20.783  1.00  0.00    +0.000 C 
ATOM     52  F7  UNL A   1      51.899  57.226  21.410  1.00  0.00    +0.000 F 
ATOM     53  C40 UNL A   1      54.155  57.771  21.010  1.00  0.00    +0.000 C 
ATOM     54  F8  UNL A   1      54.047  58.819  21.838  1.00  0.00    +0.000 F 
ATOM     55  C41 UNL A   1      55.358  57.513  20.370  1.00  0.00    +0.000 C 
ATOM     56  F9  UNL A   1      56.420  58.301  20.594  1.00  0.00    +0.000 F 
ATOM     57  C42 UNL A   1      55.460  56.445  19.491  1.00  0.00    +0.000 C 
ATOM     58  F10 UNL A   1      56.626  56.189  18.881  1.00  0.00    +0.000 F 
ATOM     59  C43 UNL A   1      54.353  55.640  19.241  1.00  0.00    +0.000 C 
ATOM     60  F11 UNL A   1      54.477  54.622  18.376  1.00  0.00    +0.000 F 
ENDBRANCH   49   50
BRANCH   64   65
ATOM     65  C47 UNL A   1      47.766  56.265  15.469  1.00  0.00    +0.000 C 
ATOM     66  C48 UNL A   1      47.050  57.403  15.867  1.00  0.00    +0.000 C 
ATOM     67  F12 UNL A   1      46.753  57.586  17.161  1.00  0.00    +0.000 F 
ATOM     68  C49 UNL A   1      46.588  58.326  14.932  1.00  0.00    +0.000 C 
ATOM     69  F13 UNL A   1      45.854  59.373  15.335  1.00  0.00    +0.000 F 
ATOM     70  C50 UNL A   1      46.864  58.149  13.585  1.00  0.00    +0.000 C 
ATOM     71  F14 UNL A   1      46.412  59.034  12.685  1.00  0.00    +0.000 F 
ATOM     72  C51 UNL A   1      47.596  57.047  13.170  1.00  0.00    +0.000 C 
ATOM     73  F15 UNL A   1      47.874  56.878  11.870  1.00  0.00    +0.000 F 
ATOM     74  C52 UNL A   1      48.033  56.107  14.101  1.00  0.00    +0.000 C 
ATOM     75  F16 UNL A   1      48.718  55.038  13.668  1.00  0.00    +0.000 F 
ENDBRANCH   64   65
TORSDOF 21
ENDMDL
MODEL 3
REMARK VINA RESULT:      -8.5     19.893     26.089
ROOT
ATOM     28  C23 UNL A   1      37.831  30.076  29.974  1.00  0.00    +0.000 C 
ATOM     29  C24 UNL A   1      38.870  29.144  29.414  1.00  0.00    +0.000 C 
ATOM     30  N3  UNL A   1      39.962  28.688  29.976  1.00  0.00    +0.000 N 
ATOM     31  C25 UNL A   1      40.543  27.845  29.038  1.00  0.00    +0.000 C 
ATOM     32  C26 UNL A   1      41.722  27.181  29.116  1.00  0.00    +0.000 C 
ATOM     44  C33 UNL A   1      42.611  27.234  30.246  1.00  0.00    +0.000 C 
ATOM     45  C34 UNL A   1      43.835  26.611  30.411  1.00  0.00    +0.000 C 
ATOM     46  C35 UNL A   1      44.326  26.939  31.679  1.00  0.00    +0.000 C 
ATOM     47  C36 UNL A   1      43.425  27.798  32.287  1.00  0.00    +0.000 C 
ATOM     48  N4  UNL A   1      42.372  27.962  31.402  1.00  0.00    +0.000 N 
ATOM     49  C37 UNL A   1      43.518  28.423  33.580  1.00  0.00    +0.000 C 
ATOM     61  C44 UNL A   1      42.580  29.241  34.116  1.00  0.00    +0.000 C 
ATOM     62  N5  UNL A   1      41.379  29.669  33.569  1.00  0.00    +0.000 N 
ATOM     63  C45 UNL A   1      40.822  30.433  34.477  1.00  0.00    +0.000 C 
ATOM     64  C46 UNL A   1      39.525  31.197  34.414  1.00  0.00    +0.000 C 
ATOM     76  C53 UNL A   1      38.784  31.140  33.292  1.00  0.00    +0.000 C 
ATOM     77  C54 UNL A   1      37.513  31.825  33.080  1.00  0.00    +0.000 C 
ATOM     78  C55 UNL A   1      37.036  31.497  31.868  1.00  0.00    +0.000 C 
ATOM     79  C56 UNL A   1      37.987  30.605  31.203  1.00  0.00    +0.000 C 
ATOM     80  N6  UNL A   1      39.000  30.459  32.118  1.00  0.00    +0.000 N 
ATOM     81  C57 UNL A   1      41.596  30.545  35.722  1.00  0.00    +0.000 C 
ATOM     82  C58 UNL A   1      42.679  29.838  35.431  1.00  0.00    +0.000 C 
ATOM     83  C59 UNL A   1      39.659  27.807  27.894  1.00  0.00    +0.000 C 
ATOM     84  C60 UNL A   1      38.639  28.640  28.051  1.00  0.00    +0.000 C 
ATOM    119  H31 UNL A   1      44.305  26.007  29.719  1.00  0.00    +0.000 H 
ATOM    120  H32 UNL A   1      45.209  26.599  32.091  1.00  0.00    +0.000 H 
ATOM    121  H33 UNL A   1      41.574  28.513  31.569  1.00  0.00    +0.000 H 
ATOM    122  H34 UNL A   1      37.055  32.459  33.753  1.00  0.00    +0.000 H 
ATOM    123  H35 UNL A   1      36.140  31.821  31.470  1.00  0.00    +0.000 H 
ATOM    124  H36 UNL A   1      39.804  29.918  31.950  1.00  0.00    +0.000 H 
ATOM    125  H37 UNL A   1      41.359  31.043  36.594  1.00  0.00    +0.000 H 
ATOM    126  H38 UNL A   1      43.489  29.729  36.061  1.00  0.00    +0.000 H 
ATOM    127  H39 UNL A   1      39.802  27.211  27.065  1.00  0.00    +0.000 H 
ATOM    128  H40 UNL A   1      37.882  28.873  27.390  1.00  0.00    +0.000 H 
ENDROOT
BRANCH   28   27
ATOM    129  H41 UNL A   1      37.016  32.448  29.026  1.00  0.00    +0.000 H 
ATOM    130  H42 UNL A   1      34.977  32.980  27.827  1.00  0.00    +0.000 H 
ATOM     27  C22 UNL A   1      36.605  30.378  29.192  1.00  0.00    +0.000 C 
ATOM    117  H29 UNL A   1      33.908  28.909  27.822  1.00  0.00    +0.000 H 
ATOM     86  C62 UNL A   1      35.196  32.000  28.065  1.00  0.00    +0.000 C 
ATOM     85  C61 UNL A   1      36.348  31.697  28.787  1.00  0.00    +0.000 C 
ATOM     24  C19 UNL A   1      34.337  30.972  27.663  1.00  0.00    +0.000 C 
ATOM     25  C20 UNL A   1      34.567  29.660  28.085  1.00  0.00    +0.000 C 
ATOM     26  C21 UNL A   1      35.689  29.367  28.861  1.00  0.00    +0.000 C 
ATOM    118  H30 UNL A   1      35.848  28.403  29.191  1.00  0.00    +0.000 H 
BRANCH   24   22
ATOM     22  C18 UNL A   1      33.167  31.246  26.801  1.00  0.00    +0.000 C 
ATOM     23  O2  UNL A   1      32.507  32.266  26.976  1.00  0.00    +0.000 O 
BRANCH   22   21
ATOM    116  H28 UNL A   1      33.451  30.237  25.096  1.00  0.00    +0.000 H 
ATOM     21  N2  UNL A   1      32.806  30.347  25.831  1.00  0.00    +0.000 N 
BRANCH   21   20
ATOM    114  H26 UNL A   1      31.233  29.353  26.718  1.00  0.00    +0.000 H 
ATOM    115  H27 UNL A   1      30.900  30.070  25.134  1.00  0.00    +0.000 H 
ATOM     20  C17 UNL A   1      31.607  29.533  25.732  1.00  0.00    +0.000 C 
BRANCH   20   19
ATOM    113  H25 UNL A   1      30.967  27.961  24.511  1.00  0.00    +0.000 H 
ATOM     19  C16 UNL A   1      31.860  28.191  25.053  1.00  0.00    +0.000 C 
ATOM    112  H24 UNL A   1      32.096  27.476  25.811  1.00  0.00    +0.000 H 
BRANCH   19   18
ATOM     18  C15 UNL A   1      32.994  28.185  24.025  1.00  0.00    +0.000 C 
ATOM    110  H22 UNL A   1      33.479  29.139  24.064  1.00  0.00    +0.000 H 
ATOM    111  H23 UNL A   1      33.629  27.368  24.293  1.00  0.00    +0.000 H 
BRANCH   18   17
ATOM     17  C14 UNL A   1      32.570  27.931  22.575  1.00  0.00    +0.000 C 
ATOM    108  H20 UNL A   1      31.567  27.555  22.586  1.00  0.00    +0.000 H 
ATOM    109  H21 UNL A   1      32.673  28.869  22.069  1.00  0.00    +0.000 H 
BRANCH   17   16
ATOM    106  H18 UNL A   1      33.621  27.339  20.825  1.00  0.00    +0.000 H 
ATOM    107  H19 UNL A   1      34.335  26.804  22.369  1.00  0.00    +0.000 H 
ATOM     16  C13 UNL A   1      33.439  26.935  21.799  1.00  0.00    +0.000 C 
BRANCH   16   15
ATOM    105  H17 UNL A   1      33.461  24.970  21.005  1.00  0.00    +0.000 H 
ATOM     15  C12 UNL A   1      32.820  25.553  21.634  1.00  0.00    +0.000 C 
ATOM    104  H16 UNL A   1      31.848  25.656  21.195  1.00  0.00    +0.000 H 
BRANCH   15   14
ATOM     14  N1  UNL A   1      32.691  24.872  22.911  1.00  0.00    +0.000 N 
ATOM    103  H15 UNL A   1      31.769  24.741  23.230  1.00  0.00    +0.000 H 
BRANCH   14   12
ATOM     12  C11 UNL A   1      33.669  24.387  23.732  1.00  0.00    +0.000 C 
ATOM     13  O1  UNL A   1      33.833  24.959  24.814  1.00  0.00    +0.000 O 
BRANCH   12    9
ATOM      9  C9  UNL A   1      34.494  23.159  23.361  1.00  0.00    +0.000 C 
ATOM    100  H12 UNL A   1      34.408  22.948  22.316  1.00  0.00    +0.000 H 
BRANCH    9    8
ATOM     98  H10 UNL A   1      31.410  19.649  23.509  1.00  0.00    +0.000 H 
ATOM     99  H11 UNL A   1      32.199  21.790  22.720  1.00  0.00    +0.000 H 
ATOM    132  H44 UNL A   1      34.852  19.260  25.880  1.00  0.00    +0.000 H 
ATOM      5  C5  UNL A   1      33.079  19.265  24.740  1.00  0.00    +0.000 C 
ATOM      6  C6  UNL A   1      32.313  20.018  23.848  1.00  0.00    +0.000 C 
ATOM      7  C7  UNL A   1      32.759  21.268  23.411  1.00  0.00    +0.000 C 
ATOM    131  H43 UNL A   1      35.602  21.439  25.154  1.00  0.00    +0.000 H 
ATOM      8  C8  UNL A   1      33.955  21.831  23.894  1.00  0.00    +0.000 C 
ATOM     87  C63 UNL A   1      34.710  21.063  24.795  1.00  0.00    +0.000 C 
ATOM     88  C64 UNL A   1      34.278  19.801  25.214  1.00  0.00    +0.000 C 
BRANCH    5    4
ATOM     97  H9  UNL A   1      31.778  17.631  24.546  1.00  0.00    +0.000 H 
ATOM      4  C4  UNL A   1      32.661  17.861  25.104  1.00  0.00    +0.000 C 
ATOM     96  H8  UNL A   1      32.482  17.820  26.159  1.00  0.00    +0.000 H 
BRANCH    4    2
ATOM      2  C2  UNL A   1      33.731  16.810  24.743  1.00  0.00    +0.000 C 
ATOM     92  H4  UNL A   1      34.644  17.112  25.210  1.00  0.00    +0.000 H 
BRANCH    2    1
ATOM      1  C1  UNL A   1      33.375  15.418  25.273  1.00  0.00    +0.000 C 
ATOM     90  H2  UNL A   1      32.369  15.421  25.638  1.00  0.00    +0.000 H 
ATOM     91  H3  UNL A   1      34.042  15.159  26.070  1.00  0.00    +0.000 H 
ATOM     89  H1  UNL A   1      33.467  14.701  24.485  1.00  0.00    +0.000 H 
ENDBRANCH    2    1
BRANCH    2    3
ATOM      3  C3  UNL A   1      33.920  16.753  23.226  1.00  0.00    +0.000 C 
ATOM     93  H5  UNL A   1      33.891  17.745  22.826  1.00  0.00    +0.000 H 
ATOM     94  H6  UNL A   1      33.136  16.171  22.791  1.00  0.00    +0.000 H 
ATOM     95  H7  UNL A   1      34.864  16.304  23.001  1.00  0.00    +0.000 H 
ENDBRANCH    2    3
ENDBRANCH    4    2
ENDBRANCH    5    4
ENDBRANCH    9    8
BRANCH    9   10
ATOM     10  C10 UNL A   1      35.962  23.496  23.647  1.00  0.00    +0.000 C 
ATOM     11  F1  UNL A   1      36.791  22.713  22.906  1.00  0.00    +0.000 F 
ATOM    101  H13 UNL A   1      36.162  23.334  24.686  1.00  0.00    +0.000 H 
ATOM    102  H14 UNL A   1      36.135  24.520  23.389  1.00  0.00    +0.000 H 
ENDBRANCH    9   10
ENDBRANCH   12    9
ENDBRANCH   14   12
ENDBRANCH   15   14
ENDBRANCH   16   15
ENDBRANCH   17   16
ENDBRANCH   18   17
ENDBRANCH   19   18
ENDBRANCH   20   19
ENDBRANCH   21   20
ENDBRANCH   22   21
ENDBRANCH   24   22
ENDBRANCH   28   27
BRANCH   32   33
ATOM     33  C27 UNL A   1      42.132  26.354  27.933  1.00  0.00    +0.000 C 
ATOM     34  C28 UNL A   1      41.661  25.044  27.763  1.00  0.00    +0.000 C 
ATOM     35  F2  UNL A   1      40.882  24.481  28.699  1.00  0.00    +0.000 F 
ATOM     36  C29 UNL A   1      42.012  24.297  26.643  1.00  0.00    +0.000 C 
ATOM     37  F3  UNL A   1      41.578  23.035  26.517  1.00  0.00    +0.000 F 
ATOM     38  C30 UNL A   1      42.814  24.854  25.658  1.00  0.00    +0.000 C 
ATOM     39  F4  UNL A   1      43.139  24.138  24.573  1.00  0.00    +0.000 F 
ATOM     40  C31 UNL A   1      43.282  26.152  25.800  1.00  0.00    +0.000 C 
ATOM     41  F5  UNL A   1      44.048  26.695  24.844  1.00  0.00    +0.000 F 
ATOM     42  C32 UNL A   1      42.954  26.893  26.932  1.00  0.00    +0.000 C 
ATOM     43  F6  UNL A   1      43.428  28.143  27.046  1.00  0.00    +0.000 F 
ENDBRANCH   32   33
BRANCH   49   50
ATOM     50  C38 UNL A   1      44.752  28.168  34.392  1.00  0.00    +0.000 C 
ATOM     51  C39 UNL A   1      45.857  29.029  34.341  1.00  0.00    +0.000 C 
ATOM     52  F7  UNL A   1      45.851  30.087  33.516  1.00  0.00    +0.000 F 
ATOM     53  C40 UNL A   1      46.991  28.783  35.111  1.00  0.00    +0.000 C 
ATOM     54  F8  UNL A   1      48.053  29.594  35.013  1.00  0.00    +0.000 F 
ATOM     55  C41 UNL A   1      47.027  27.693  35.968  1.00  0.00    +0.000 C 
ATOM     56  F9  UNL A   1      48.118  27.461  36.713  1.00  0.00    +0.000 F 
ATOM     57  C42 UNL A   1      45.938  26.839  36.048  1.00  0.00    +0.000 C 
ATOM     58  F10 UNL A   1      45.968  25.791  36.884  1.00  0.00    +0.000 F 
ATOM     59  C43 UNL A   1      44.814  27.066  35.259  1.00  0.00    +0.000 C 
ATOM     60  F11 UNL A   1      43.780  26.216  35.348  1.00  0.00    +0.000 F 
ENDBRANCH   49   50
BRANCH   64   65
ATOM     65  C47 UNL A   1      39.078  32.016  35.571  1.00  0.00    +0.000 C 
ATOM     66  C48 UNL A   1      39.451  33.363  35.683  1.00  0.00    +0.000 C 
ATOM     67  F12 UNL A   1      40.208  33.929  34.733  1.00  0.00    +0.000 F 
ATOM     68  C49 UNL A   1      39.096  34.117  36.800  1.00  0.00    +0.000 C 
ATOM     69  F13 UNL A   1      39.517  35.385  36.910  1.00  0.00    +0.000 F 
ATOM     70  C50 UNL A   1      38.331  33.550  37.808  1.00  0.00    +0.000 C 
ATOM     71  F14 UNL A   1      37.996  34.273  38.885  1.00  0.00    +0.000 F 
ATOM     72  C51 UNL A   1      37.925  32.227  37.704  1.00  0.00    +0.000 C 
ATOM     73  F15 UNL A   1      37.176  31.679  38.670  1.00  0.00    +0.000 F 
ATOM     74  C52 UNL A   1      38.305  31.464  36.602  1.00  0.00    +0.000 C 
ATOM     75  F16 UNL A   1      37.918  30.181  36.540  1.00  0.00    +0.000 F 
ENDBRANCH   64   65
TORSDOF 21
ENDMDL
MODEL 4
REMARK VINA RESULT:      -8.4      0.957      7.519
ROOT
ATOM     28  C23 UNL A   1      46.299  11.453  47.276  1.00  0.00    +0.000 C 
ATOM     29  C24 UNL A   1      47.215  12.645  47.285  1.00  0.00    +0.000 C 
ATOM     30  N3  UNL A   1      48.176  12.944  48.122  1.00  0.00    +0.000 N 
ATOM     31  C25 UNL A   1      48.722  14.135  47.660  1.00  0.00    +0.000 C 
ATOM     32  C26 UNL A   1      49.700  14.888  48.217  1.00  0.00    +0.000 C 
ATOM     44  C33 UNL A   1      50.382  14.558  49.441  1.00  0.00    +0.000 C 
ATOM     45  C34 UNL A   1      51.375  15.266  50.094  1.00  0.00    +0.000 C 
ATOM     46  C35 UNL A   1      51.746  14.548  51.236  1.00  0.00    +0.000 C 
ATOM     47  C36 UNL A   1      50.956  13.413  51.313  1.00  0.00    +0.000 C 
ATOM     48  N4  UNL A   1      50.132  13.425  50.200  1.00  0.00    +0.000 N 
ATOM     49  C37 UNL A   1      50.955  12.392  52.328  1.00  0.00    +0.000 C 
ATOM     61  C44 UNL A   1      50.160  11.294  52.323  1.00  0.00    +0.000 C 
ATOM     62  N5  UNL A   1      49.193  10.919  51.401  1.00  0.00    +0.000 N 
ATOM     63  C45 UNL A   1      48.713   9.777  51.827  1.00  0.00    +0.000 C 
ATOM     64  C46 UNL A   1      47.616   8.927  51.242  1.00  0.00    +0.000 C 
ATOM     76  C53 UNL A   1      46.987   9.344  50.127  1.00  0.00    +0.000 C 
ATOM     77  C54 UNL A   1      45.908   8.635  49.447  1.00  0.00    +0.000 C 
ATOM     78  C55 UNL A   1      45.563   9.318  48.343  1.00  0.00    +0.000 C 
ATOM     79  C56 UNL A   1      46.375  10.533  48.257  1.00  0.00    +0.000 C 
ATOM     80  N6  UNL A   1      47.183  10.471  49.365  1.00  0.00    +0.000 N 
ATOM     81  C57 UNL A   1      49.352   9.279  53.055  1.00  0.00    +0.000 C 
ATOM     82  C58 UNL A   1      50.193  10.264  53.339  1.00  0.00    +0.000 C 
ATOM     83  C59 UNL A   1      48.023  14.477  46.441  1.00  0.00    +0.000 C 
ATOM     84  C60 UNL A   1      47.041  13.620  46.197  1.00  0.00    +0.000 C 
ATOM    119  H31 UNL A   1      51.774  16.168  49.791  1.00  0.00    +0.000 H 
ATOM    120  H32 UNL A   1      52.483  14.818  51.906  1.00  0.00    +0.000 H 
ATOM    121  H33 UNL A   1      49.468  12.732  49.982  1.00  0.00    +0.000 H 
ATOM    122  H34 UNL A   1      45.479   7.751  49.763  1.00  0.00    +0.000 H 
ATOM    123  H35 UNL A   1      44.841   9.031  47.663  1.00  0.00    +0.000 H 
ATOM    124  H36 UNL A   1      47.841  11.167  49.592  1.00  0.00    +0.000 H 
ATOM    125  H37 UNL A   1      49.189   8.396  53.562  1.00  0.00    +0.000 H 
ATOM    126  H38 UNL A   1      50.793  10.292  54.178  1.00  0.00    +0.000 H 
ATOM    127  H39 UNL A   1      48.258  15.282  45.839  1.00  0.00    +0.000 H 
ATOM    128  H40 UNL A   1      46.339  13.633  45.440  1.00  0.00    +0.000 H 
ENDROOT
BRANCH   28   27
ATOM    129  H41 UNL A   1      46.655  10.061  45.014  1.00  0.00    +0.000 H 
ATOM    130  H42 UNL A   1      45.141   9.806  43.137  1.00  0.00    +0.000 H 
ATOM     27  C22 UNL A   1      45.341  11.260  46.159  1.00  0.00    +0.000 C 
ATOM    117  H29 UNL A   1      42.211  12.021  45.191  1.00  0.00    +0.000 H 
ATOM     86  C62 UNL A   1      44.836  10.314  43.983  1.00  0.00    +0.000 C 
ATOM     85  C61 UNL A   1      45.718  10.494  45.045  1.00  0.00    +0.000 C 
ATOM     24  C19 UNL A   1      43.536  10.823  44.064  1.00  0.00    +0.000 C 
ATOM     25  C20 UNL A   1      43.158  11.612  45.153  1.00  0.00    +0.000 C 
ATOM     26  C21 UNL A   1      44.063  11.843  46.190  1.00  0.00    +0.000 C 
ATOM    118  H30 UNL A   1      43.793  12.444  46.983  1.00  0.00    +0.000 H 
BRANCH   24   22
ATOM     22  C18 UNL A   1      42.541  10.553  43.004  1.00  0.00    +0.000 C 
ATOM     23  O2  UNL A   1      42.726   9.630  42.215  1.00  0.00    +0.000 O 
BRANCH   22   21
ATOM    116  H28 UNL A   1      40.767  11.258  43.606  1.00  0.00    +0.000 H 
ATOM     21  N2  UNL A   1      41.432  11.351  42.886  1.00  0.00    +0.000 N 
BRANCH   21   20
ATOM    114  H26 UNL A   1      41.209  11.842  40.897  1.00  0.00    +0.000 H 
ATOM    115  H27 UNL A   1      40.089  12.632  42.019  1.00  0.00    +0.000 H 
ATOM     20  C17 UNL A   1      41.098  12.313  41.851  1.00  0.00    +0.000 C 
BRANCH   20   19
ATOM    113  H25 UNL A   1      42.975  13.216  41.661  1.00  0.00    +0.000 H 
ATOM     19  C16 UNL A   1      41.986  13.553  41.891  1.00  0.00    +0.000 C 
ATOM    112  H24 UNL A   1      41.898  13.991  42.863  1.00  0.00    +0.000 H 
BRANCH   19   18
ATOM     18  C15 UNL A   1      41.651  14.627  40.854  1.00  0.00    +0.000 C 
ATOM    110  H22 UNL A   1      41.566  14.149  39.900  1.00  0.00    +0.000 H 
ATOM    111  H23 UNL A   1      40.745  15.086  41.189  1.00  0.00    +0.000 H 
BRANCH   18   17
ATOM     17  C14 UNL A   1      42.674  15.761  40.724  1.00  0.00    +0.000 C 
ATOM    108  H20 UNL A   1      42.136  16.682  40.636  1.00  0.00    +0.000 H 
ATOM    109  H21 UNL A   1      43.290  15.702  41.597  1.00  0.00    +0.000 H 
BRANCH   17   16
ATOM    106  H18 UNL A   1      43.962  14.640  39.457  1.00  0.00    +0.000 H 
ATOM    107  H19 UNL A   1      43.073  15.971  38.668  1.00  0.00    +0.000 H 
ATOM     16  C13 UNL A   1      43.626  15.654  39.528  1.00  0.00    +0.000 C 
BRANCH   16   15
ATOM    105  H17 UNL A   1      44.685  17.411  38.993  1.00  0.00    +0.000 H 
ATOM     15  C12 UNL A   1      44.851  16.556  39.615  1.00  0.00    +0.000 C 
ATOM    104  H16 UNL A   1      45.711  16.009  39.285  1.00  0.00    +0.000 H 
BRANCH   15   14
ATOM     14  N1  UNL A   1      45.077  17.016  40.974  1.00  0.00    +0.000 N 
ATOM    103  H15 UNL A   1      44.385  17.614  41.339  1.00  0.00    +0.000 H 
BRANCH   14   12
ATOM     12  C11 UNL A   1      46.115  16.737  41.818  1.00  0.00    +0.000 C 
ATOM     13  O1  UNL A   1      46.904  15.853  41.470  1.00  0.00    +0.000 O 
BRANCH   12    9
ATOM      9  C9  UNL A   1      46.330  17.516  43.112  1.00  0.00    +0.000 C 
ATOM    100  H12 UNL A   1      47.347  17.442  43.433  1.00  0.00    +0.000 H 
BRANCH    9    8
ATOM     98  H10 UNL A   1      45.477  17.254  47.701  1.00  0.00    +0.000 H 
ATOM     99  H11 UNL A   1      46.599  18.167  45.768  1.00  0.00    +0.000 H 
ATOM    132  H44 UNL A   1      43.291  14.678  45.209  1.00  0.00    +0.000 H 
ATOM      5  C5  UNL A   1      44.272  15.909  46.613  1.00  0.00    +0.000 C 
ATOM      6  C6  UNL A   1      45.247  16.898  46.760  1.00  0.00    +0.000 C 
ATOM      7  C7  UNL A   1      45.913  17.408  45.642  1.00  0.00    +0.000 C 
ATOM    131  H43 UNL A   1      44.473  15.534  43.284  1.00  0.00    +0.000 H 
ATOM      8  C8  UNL A   1      45.668  16.908  44.350  1.00  0.00    +0.000 C 
ATOM     87  C63 UNL A   1      44.690  15.910  44.220  1.00  0.00    +0.000 C 
ATOM     88  C64 UNL A   1      44.004  15.416  45.334  1.00  0.00    +0.000 C 
BRANCH    5    4
ATOM     97  H9  UNL A   1      42.515  15.114  47.438  1.00  0.00    +0.000 H 
ATOM      4  C4  UNL A   1      43.461  15.457  47.802  1.00  0.00    +0.000 C 
ATOM     96  H8  UNL A   1      43.349  16.283  48.475  1.00  0.00    +0.000 H 
BRANCH    4    2
ATOM      2  C2  UNL A   1      44.121  14.287  48.562  1.00  0.00    +0.000 C 
ATOM     92  H4  UNL A   1      44.648  13.697  47.842  1.00  0.00    +0.000 H 
BRANCH    2    1
ATOM      1  C1  UNL A   1      45.139  14.773  49.599  1.00  0.00    +0.000 C 
ATOM     90  H2  UNL A   1      46.126  14.696  49.192  1.00  0.00    +0.000 H 
ATOM     91  H3  UNL A   1      45.068  14.166  50.478  1.00  0.00    +0.000 H 
ATOM     89  H1  UNL A   1      44.934  15.792  49.850  1.00  0.00    +0.000 H 
ENDBRANCH    2    1
BRANCH    2    3
ATOM      3  C3  UNL A   1      43.051  13.435  49.246  1.00  0.00    +0.000 C 
ATOM     93  H5  UNL A   1      42.135  13.986  49.296  1.00  0.00    +0.000 H 
ATOM     94  H6  UNL A   1      43.372  13.188  50.236  1.00  0.00    +0.000 H 
ATOM     95  H7  UNL A   1      42.898  12.537  48.686  1.00  0.00    +0.000 H 
ENDBRANCH    2    3
ENDBRANCH    4    2
ENDBRANCH    5    4
ENDBRANCH    9    8
BRANCH    9   10
ATOM     10  C10 UNL A   1      46.045  18.990  42.806  1.00  0.00    +0.000 C 
ATOM     11  F1  UNL A   1      44.786  19.331  43.193  1.00  0.00    +0.000 F 
ATOM    101  H13 UNL A   1      46.145  19.155  41.753  1.00  0.00    +0.000 H 
ATOM    102  H14 UNL A   1      46.745  19.593  43.345  1.00  0.00    +0.000 H 
ENDBRANCH    9   10
ENDBRANCH   12    9
ENDBRANCH   14   12
ENDBRANCH   15   14
ENDBRANCH   16   15
ENDBRANCH   17   16
ENDBRANCH   18   17
ENDBRANCH   19   18
ENDBRANCH   20   19
ENDBRANCH   21   20
ENDBRANCH   22   21
ENDBRANCH   24   22
ENDBRANCH   28   27
BRANCH   32   33
ATOM     33  C27 UNL A   1      50.081  16.160  47.519  1.00  0.00    +0.000 C 
ATOM     34  C28 UNL A   1      51.165  16.206  46.632  1.00  0.00    +0.000 C 
ATOM     35  F2  UNL A   1      51.929  15.120  46.443  1.00  0.00    +0.000 F 
ATOM     36  C29 UNL A   1      51.488  17.379  45.955  1.00  0.00    +0.000 C 
ATOM     37  F3  UNL A   1      52.549  17.410  45.137  1.00  0.00    +0.000 F 
ATOM     38  C30 UNL A   1      50.714  18.517  46.129  1.00  0.00    +0.000 C 
ATOM     39  F4  UNL A   1      51.018  19.642  45.465  1.00  0.00    +0.000 F 
ATOM     40  C31 UNL A   1      49.629  18.491  46.993  1.00  0.00    +0.000 C 
ATOM     41  F5  UNL A   1      48.876  19.587  47.153  1.00  0.00    +0.000 F 
ATOM     42  C32 UNL A   1      49.321  17.327  47.691  1.00  0.00    +0.000 C 
ATOM     43  F6  UNL A   1      48.271  17.334  48.526  1.00  0.00    +0.000 F 
ENDBRANCH   32   33
BRANCH   49   50
ATOM     50  C38 UNL A   1      51.888  12.560  53.490  1.00  0.00    +0.000 C 
ATOM     51  C39 UNL A   1      53.201  12.071  53.455  1.00  0.00    +0.000 C 
ATOM     52  F7  UNL A   1      53.640  11.391  52.386  1.00  0.00    +0.000 F 
ATOM     53  C40 UNL A   1      54.057  12.248  54.539  1.00  0.00    +0.000 C 
ATOM     54  F8  UNL A   1      55.293  11.733  54.504  1.00  0.00    +0.000 F 
ATOM     55  C41 UNL A   1      53.627  12.943  55.660  1.00  0.00    +0.000 C 
ATOM     56  F9  UNL A   1      54.455  13.116  56.701  1.00  0.00    +0.000 F 
ATOM     57  C42 UNL A   1      52.338  13.451  55.707  1.00  0.00    +0.000 C 
ATOM     58  F10 UNL A   1      51.925  14.132  56.785  1.00  0.00    +0.000 F 
ATOM     59  C43 UNL A   1      51.471  13.252  54.636  1.00  0.00    +0.000 C 
ATOM     60  F11 UNL A   1      50.225  13.744  54.715  1.00  0.00    +0.000 F 
ENDBRANCH   49   50
BRANCH   64   65
ATOM     65  C47 UNL A   1      47.220   7.653  51.897  1.00  0.00    +0.000 C 
ATOM     66  C48 UNL A   1      47.936   6.471  51.661  1.00  0.00    +0.000 C 
ATOM     67  F12 UNL A   1      49.000   6.485  50.846  1.00  0.00    +0.000 F 
ATOM     68  C49 UNL A   1      47.527   5.260  52.215  1.00  0.00    +0.000 C 
ATOM     69  F13 UNL A   1      48.195   4.134  51.923  1.00  0.00    +0.000 F 
ATOM     70  C50 UNL A   1      46.417   5.213  53.044  1.00  0.00    +0.000 C 
ATOM     71  F14 UNL A   1      46.020   4.046  53.570  1.00  0.00    +0.000 F 
ATOM     72  C51 UNL A   1      45.711   6.375  53.316  1.00  0.00    +0.000 C 
ATOM     73  F15 UNL A   1      44.645   6.336  54.127  1.00  0.00    +0.000 F 
ATOM     74  C52 UNL A   1      46.101   7.582  52.740  1.00  0.00    +0.000 C 
ATOM     75  F16 UNL A   1      45.385   8.685  53.002  1.00  0.00    +0.000 F 
ENDBRANCH   64   65
TORSDOF 21
ENDMDL
MODEL 5
REMARK VINA RESULT:      -8.3     32.372     37.275
ROOT
ATOM     28  C23 UNL A   1      28.859 -14.242  31.001  1.00  0.00    +0.000 C 
ATOM     29  C24 UNL A   1      28.580 -14.367  32.473  1.00  0.00    +0.000 C 
ATOM     30  N3  UNL A   1      27.554 -13.931  33.161  1.00  0.00    +0.000 N 
ATOM     31  C25 UNL A   1      27.779 -14.337  34.470  1.00  0.00    +0.000 C 
ATOM     32  C26 UNL A   1      27.039 -14.075  35.574  1.00  0.00    +0.000 C 
ATOM     44  C33 UNL A   1      25.827 -13.299  35.574  1.00  0.00    +0.000 C 
ATOM     45  C34 UNL A   1      25.017 -12.963  36.645  1.00  0.00    +0.000 C 
ATOM     46  C35 UNL A   1      23.940 -12.213  36.160  1.00  0.00    +0.000 C 
ATOM     47  C36 UNL A   1      24.103 -12.048  34.794  1.00  0.00    +0.000 C 
ATOM     48  N4  UNL A   1      25.257 -12.729  34.446  1.00  0.00    +0.000 N 
ATOM     49  C37 UNL A   1      23.264 -11.324  33.875  1.00  0.00    +0.000 C 
ATOM     61  C44 UNL A   1      23.480 -11.225  32.541  1.00  0.00    +0.000 C 
ATOM     62  N5  UNL A   1      24.517 -11.750  31.782  1.00  0.00    +0.000 N 
ATOM     63  C45 UNL A   1      24.274 -11.393  30.545  1.00  0.00    +0.000 C 
ATOM     64  C46 UNL A   1      25.084 -11.652  29.302  1.00  0.00    +0.000 C 
ATOM     76  C53 UNL A   1      26.240 -12.335  29.403  1.00  0.00    +0.000 C 
ATOM     77  C54 UNL A   1      27.132 -12.661  28.295  1.00  0.00    +0.000 C 
ATOM     78  C55 UNL A   1      28.157 -13.394  28.759  1.00  0.00    +0.000 C 
ATOM     79  C56 UNL A   1      28.012 -13.560  30.206  1.00  0.00    +0.000 C 
ATOM     80  N6  UNL A   1      26.853 -12.887  30.502  1.00  0.00    +0.000 N 
ATOM     81  C57 UNL A   1      23.029 -10.628  30.376  1.00  0.00    +0.000 C 
ATOM     82  C58 UNL A   1      22.611 -10.514  31.628  1.00  0.00    +0.000 C 
ATOM     83  C59 UNL A   1      29.008 -15.100  34.472  1.00  0.00    +0.000 C 
ATOM     84  C60 UNL A   1      29.574 -15.098  33.274  1.00  0.00    +0.000 C 
ATOM    119  H31 UNL A   1      25.178 -13.223  37.630  1.00  0.00    +0.000 H 
ATOM    120  H32 UNL A   1      23.158 -11.845  36.725  1.00  0.00    +0.000 H 
ATOM    121  H33 UNL A   1      25.619 -12.797  33.533  1.00  0.00    +0.000 H 
ATOM    122  H34 UNL A   1      26.996 -12.374  27.313  1.00  0.00    +0.000 H 
ATOM    123  H35 UNL A   1      28.924 -13.780  28.186  1.00  0.00    +0.000 H 
ATOM    124  H36 UNL A   1      26.494 -12.808  31.415  1.00  0.00    +0.000 H 
ATOM    125  H37 UNL A   1      22.596 -10.272  29.510  1.00  0.00    +0.000 H 
ATOM    126  H38 UNL A   1      21.772  -9.986  31.915  1.00  0.00    +0.000 H 
ATOM    127  H39 UNL A   1      29.393 -15.583  35.299  1.00  0.00    +0.000 H 
ATOM    128  H40 UNL A   1      30.476 -15.505  32.980  1.00  0.00    +0.000 H 
ENDROOT
BRANCH   28   27
ATOM    129  H41 UNL A   1      29.047 -16.747  30.066  1.00  0.00    +0.000 H 
ATOM    130  H42 UNL A   1      30.992 -17.891  29.179  1.00  0.00    +0.000 H 
ATOM     27  C22 UNL A   1      30.044 -14.913  30.410  1.00  0.00    +0.000 C 
ATOM    117  H29 UNL A   1      33.254 -14.364  29.569  1.00  0.00    +0.000 H 
ATOM     86  C62 UNL A   1      31.051 -16.893  29.433  1.00  0.00    +0.000 C 
ATOM     85  C61 UNL A   1      29.945 -16.245  29.978  1.00  0.00    +0.000 C 
ATOM     24  C19 UNL A   1      32.241 -16.187  29.230  1.00  0.00    +0.000 C 
ATOM     25  C20 UNL A   1      32.361 -14.870  29.682  1.00  0.00    +0.000 C 
ATOM     26  C21 UNL A   1      31.271 -14.241  30.284  1.00  0.00    +0.000 C 
ATOM    118  H30 UNL A   1      31.366 -13.276  30.638  1.00  0.00    +0.000 H 
BRANCH   24   22
ATOM     22  C18 UNL A   1      33.396 -16.813  28.552  1.00  0.00    +0.000 C 
ATOM     23  O2  UNL A   1      33.733 -17.955  28.851  1.00  0.00    +0.000 O 
BRANCH   22   21
ATOM    116  H28 UNL A   1      34.810 -15.521  27.970  1.00  0.00    +0.000 H 
ATOM     21  N2  UNL A   1      34.104 -16.107  27.614  1.00  0.00    +0.000 N 
BRANCH   21   20
ATOM    114  H26 UNL A   1      34.546 -16.898  25.762  1.00  0.00    +0.000 H 
ATOM    115  H27 UNL A   1      32.921 -16.219  25.946  1.00  0.00    +0.000 H 
ATOM     20  C17 UNL A   1      33.961 -16.100  26.168  1.00  0.00    +0.000 C 
BRANCH   20   19
ATOM    113  H25 UNL A   1      34.842 -15.048  24.590  1.00  0.00    +0.000 H 
ATOM     19  C16 UNL A   1      34.420 -14.789  25.538  1.00  0.00    +0.000 C 
ATOM    112  H24 UNL A   1      35.117 -14.327  26.204  1.00  0.00    +0.000 H 
BRANCH   19   18
ATOM     18  C15 UNL A   1      33.305 -13.782  25.245  1.00  0.00    +0.000 C 
ATOM    110  H22 UNL A   1      32.622 -14.238  24.559  1.00  0.00    +0.000 H 
ATOM    111  H23 UNL A   1      32.870 -13.542  26.192  1.00  0.00    +0.000 H 
BRANCH   18   17
ATOM     17  C14 UNL A   1      33.761 -12.449  24.642  1.00  0.00    +0.000 C 
ATOM    108  H20 UNL A   1      34.709 -12.200  25.072  1.00  0.00    +0.000 H 
ATOM    109  H21 UNL A   1      33.795 -12.602  23.583  1.00  0.00    +0.000 H 
BRANCH   17   16
ATOM    106  H18 UNL A   1      33.392 -10.365  24.841  1.00  0.00    +0.000 H 
ATOM    107  H19 UNL A   1      32.078 -11.311  24.093  1.00  0.00    +0.000 H 
ATOM     16  C13 UNL A   1      32.814 -11.266  24.868  1.00  0.00    +0.000 C 
BRANCH   16   15
ATOM    105  H17 UNL A   1      32.569 -11.978  26.850  1.00  0.00    +0.000 H 
ATOM     15  C12 UNL A   1      32.058 -11.307  26.190  1.00  0.00    +0.000 C 
ATOM    104  H16 UNL A   1      31.057 -11.641  26.010  1.00  0.00    +0.000 H 
BRANCH   15   14
ATOM     14  N1  UNL A   1      32.012  -9.997  26.818  1.00  0.00    +0.000 N 
ATOM    103  H15 UNL A   1      31.196  -9.474  26.646  1.00  0.00    +0.000 H 
BRANCH   14   12
ATOM     12  C11 UNL A   1      32.941  -9.389  27.613  1.00  0.00    +0.000 C 
ATOM     13  O1  UNL A   1      34.118  -9.439  27.246  1.00  0.00    +0.000 O 
BRANCH   12    9
ATOM      9  C9  UNL A   1      32.544  -8.632  28.877  1.00  0.00    +0.000 C 
ATOM    100  H12 UNL A   1      33.069  -9.014  29.727  1.00  0.00    +0.000 H 
BRANCH    9    8
ATOM     98  H10 UNL A   1      29.286 -11.089  31.157  1.00  0.00    +0.000 H 
ATOM     99  H11 UNL A   1      31.521 -10.738  30.314  1.00  0.00    +0.000 H 
ATOM    132  H44 UNL A   1      28.109  -7.389  29.561  1.00  0.00    +0.000 H 
ATOM      5  C5  UNL A   1      28.519  -9.255  30.452  1.00  0.00    +0.000 C 
ATOM      6  C6  UNL A   1      29.507 -10.224  30.639  1.00  0.00    +0.000 C 
ATOM      7  C7  UNL A   1      30.794 -10.031  30.129  1.00  0.00    +0.000 C 
ATOM    131  H43 UNL A   1      30.323  -7.076  28.646  1.00  0.00    +0.000 H 
ATOM      8  C8  UNL A   1      31.119  -8.893  29.369  1.00  0.00    +0.000 C 
ATOM     87  C63 UNL A   1      30.113  -7.932  29.184  1.00  0.00    +0.000 C 
ATOM     88  C64 UNL A   1      28.832  -8.111  29.715  1.00  0.00    +0.000 C 
BRANCH    5    4
ATOM     97  H9  UNL A   1      26.846 -10.412  30.966  1.00  0.00    +0.000 H 
ATOM      4  C4  UNL A   1      27.172  -9.404  31.117  1.00  0.00    +0.000 C 
ATOM     96  H8  UNL A   1      26.495  -8.700  30.678  1.00  0.00    +0.000 H 
BRANCH    4    2
ATOM      2  C2  UNL A   1      27.230  -9.153  32.638  1.00  0.00    +0.000 C 
ATOM     92  H4  UNL A   1      27.945  -8.376  32.805  1.00  0.00    +0.000 H 
BRANCH    2    1
ATOM      1  C1  UNL A   1      25.885  -8.675  33.196  1.00  0.00    +0.000 C 
ATOM     90  H2  UNL A   1      25.832  -8.903  34.240  1.00  0.00    +0.000 H 
ATOM     91  H3  UNL A   1      25.089  -9.173  32.681  1.00  0.00    +0.000 H 
ATOM     89  H1  UNL A   1      25.795  -7.619  33.056  1.00  0.00    +0.000 H 
ENDBRANCH    2    1
BRANCH    2    3
ATOM      3  C3  UNL A   1      27.668 -10.425  33.364  1.00  0.00    +0.000 C 
ATOM     93  H5  UNL A   1      26.999 -10.621  34.177  1.00  0.00    +0.000 H 
ATOM     94  H6  UNL A   1      28.660 -10.297  33.742  1.00  0.00    +0.000 H 
ATOM     95  H7  UNL A   1      27.651 -11.249  32.682  1.00  0.00    +0.000 H 
ENDBRANCH    2    3
ENDBRANCH    4    2
ENDBRANCH    5    4
ENDBRANCH    9    8
BRANCH    9   10
ATOM     10  C10 UNL A   1      32.972  -7.173  28.684  1.00  0.00    +0.000 C 
ATOM     11  F1  UNL A   1      34.208  -6.958  29.210  1.00  0.00    +0.000 F 
ATOM    101  H13 UNL A   1      32.267  -6.533  29.172  1.00  0.00    +0.000 H 
ATOM    102  H14 UNL A   1      33.004  -6.961  27.635  1.00  0.00    +0.000 H 
ENDBRANCH    9   10
ENDBRANCH   12    9
ENDBRANCH   14   12
ENDBRANCH   15   14
ENDBRANCH   16   15
ENDBRANCH   17   16
ENDBRANCH   18   17
ENDBRANCH   19   18
ENDBRANCH   20   19
ENDBRANCH   21   20
ENDBRANCH   22   21
ENDBRANCH   24   22
ENDBRANCH   28   27
BRANCH   32   33
ATOM     33  C27 UNL A   1      27.532 -14.614  36.884  1.00  0.00    +0.000 C 
ATOM     34  C28 UNL A   1      27.060 -15.832  37.393  1.00  0.00    +0.000 C 
ATOM     35  F2  UNL A   1      26.101 -16.509  36.742  1.00  0.00    +0.000 F 
ATOM     36  C29 UNL A   1      27.552 -16.348  38.588  1.00  0.00    +0.000 C 
ATOM     37  F3  UNL A   1      27.062 -17.498  39.073  1.00  0.00    +0.000 F 
ATOM     38  C30 UNL A   1      28.544 -15.672  39.282  1.00  0.00    +0.000 C 
ATOM     39  F4  UNL A   1      29.027 -16.177  40.426  1.00  0.00    +0.000 F 
ATOM     40  C31 UNL A   1      29.034 -14.470  38.791  1.00  0.00    +0.000 C 
ATOM     41  F5  UNL A   1      30.001 -13.822  39.454  1.00  0.00    +0.000 F 
ATOM     42  C32 UNL A   1      28.525 -13.939  37.609  1.00  0.00    +0.000 C 
ATOM     43  F6  UNL A   1      29.013 -12.771  37.164  1.00  0.00    +0.000 F 
ENDBRANCH   32   33
BRANCH   49   50
ATOM     50  C38 UNL A   1      22.071 -10.608  34.433  1.00  0.00    +0.000 C 
ATOM     51  C39 UNL A   1      20.793 -11.186  34.420  1.00  0.00    +0.000 C 
ATOM     52  F7  UNL A   1      20.602 -12.388  33.856  1.00  0.00    +0.000 F 
ATOM     53  C40 UNL A   1      19.699 -10.511  34.955  1.00  0.00    +0.000 C 
ATOM     54  F8  UNL A   1      18.480 -11.062  34.891  1.00  0.00    +0.000 F 
ATOM     55  C41 UNL A   1      19.867  -9.265  35.539  1.00  0.00    +0.000 C 
ATOM     56  F9  UNL A   1      18.813  -8.618  36.057  1.00  0.00    +0.000 F 
ATOM     57  C42 UNL A   1      21.126  -8.683  35.579  1.00  0.00    +0.000 C 
ATOM     58  F10 UNL A   1      21.291  -7.483  36.153  1.00  0.00    +0.000 F 
ATOM     59  C43 UNL A   1      22.217  -9.343  35.021  1.00  0.00    +0.000 C 
ATOM     60  F11 UNL A   1      23.420  -8.750  35.063  1.00  0.00    +0.000 F 
ENDBRANCH   49   50
BRANCH   64   65
ATOM     65  C47 UNL A   1      24.622 -11.146  27.983  1.00  0.00    +0.000 C 
ATOM     66  C48 UNL A   1      23.652 -11.840  27.247  1.00  0.00    +0.000 C 
ATOM     67  F12 UNL A   1      23.120 -12.968  27.738  1.00  0.00    +0.000 F 
ATOM     68  C49 UNL A   1      23.268 -11.411  25.978  1.00  0.00    +0.000 C 
ATOM     69  F13 UNL A   1      22.383 -12.128  25.272  1.00  0.00    +0.000 F 
ATOM     70  C50 UNL A   1      23.818 -10.259  25.438  1.00  0.00    +0.000 C 
ATOM     71  F14 UNL A   1      23.453  -9.851  24.214  1.00  0.00    +0.000 F 
ATOM     72  C51 UNL A   1      24.757  -9.539  26.160  1.00  0.00    +0.000 C 
ATOM     73  F15 UNL A   1      25.283  -8.419  25.646  1.00  0.00    +0.000 F 
ATOM     74  C52 UNL A   1      25.165  -9.984  27.416  1.00  0.00    +0.000 C 
ATOM     75  F16 UNL A   1      26.092  -9.280  28.082  1.00  0.00    +0.000 F 
ENDBRANCH   64   65
TORSDOF 21
ENDMDL
MODEL 6
REMARK VINA RESULT:      -8.2      0.974      1.983
ROOT
ATOM     28  C23 UNL A   1      46.565  11.652  47.018  1.00  0.00    +0.000 C 
ATOM     29  C24 UNL A   1      46.790  10.726  48.181  1.00  0.00    +0.000 C 
ATOM     30  N3  UNL A   1      47.587  10.868  49.210  1.00  0.00    +0.000 N 
ATOM     31  C25 UNL A   1      47.390   9.741  49.997  1.00  0.00    +0.000 C 
ATOM     32  C26 UNL A   1      48.028   9.386  51.138  1.00  0.00    +0.000 C 
ATOM     44  C33 UNL A   1      49.067  10.161  51.763  1.00  0.00    +0.000 C 
ATOM     45  C34 UNL A   1      49.786   9.876  52.910  1.00  0.00    +0.000 C 
ATOM     46  C35 UNL A   1      50.676  10.931  53.143  1.00  0.00    +0.000 C 
ATOM     47  C36 UNL A   1      50.537  11.852  52.118  1.00  0.00    +0.000 C 
ATOM     48  N4  UNL A   1      49.539  11.374  51.285  1.00  0.00    +0.000 N 
ATOM     49  C37 UNL A   1      51.261  13.080  51.915  1.00  0.00    +0.000 C 
ATOM     61  C44 UNL A   1      51.053  13.944  50.892  1.00  0.00    +0.000 C 
ATOM     62  N5  UNL A   1      50.156  13.850  49.838  1.00  0.00    +0.000 N 
ATOM     63  C45 UNL A   1      50.324  14.935  49.124  1.00  0.00    +0.000 C 
ATOM     64  C46 UNL A   1      49.645  15.350  47.845  1.00  0.00    +0.000 C 
ATOM     76  C53 UNL A   1      48.728  14.532  47.295  1.00  0.00    +0.000 C 
ATOM     77  C54 UNL A   1      47.990  14.792  46.063  1.00  0.00    +0.000 C 
ATOM     78  C55 UNL A   1      47.126  13.787  45.849  1.00  0.00    +0.000 C 
ATOM     79  C56 UNL A   1      47.274  12.792  46.913  1.00  0.00    +0.000 C 
ATOM     80  N6  UNL A   1      48.257  13.313  47.718  1.00  0.00    +0.000 N 
ATOM     81  C57 UNL A   1      51.328  15.861  49.670  1.00  0.00    +0.000 C 
ATOM     82  C58 UNL A   1      51.773  15.187  50.720  1.00  0.00    +0.000 C 
ATOM     83  C59 UNL A   1      46.360   8.951  49.358  1.00  0.00    +0.000 C 
ATOM     84  C60 UNL A   1      45.998   9.486  48.200  1.00  0.00    +0.000 C 
ATOM    119  H31 UNL A   1      49.683   9.032  53.494  1.00  0.00    +0.000 H 
ATOM    120  H32 UNL A   1      51.324  11.008  53.942  1.00  0.00    +0.000 H 
ATOM    121  H33 UNL A   1      49.214  11.828  50.474  1.00  0.00    +0.000 H 
ATOM    122  H34 UNL A   1      48.114  15.616  45.454  1.00  0.00    +0.000 H 
ATOM    123  H35 UNL A   1      46.462  13.726  45.061  1.00  0.00    +0.000 H 
ATOM    124  H36 UNL A   1      48.591  12.856  48.523  1.00  0.00    +0.000 H 
ATOM    125  H37 UNL A   1      51.612  16.792  49.326  1.00  0.00    +0.000 H 
ATOM    126  H38 UNL A   1      52.537  15.507  51.336  1.00  0.00    +0.000 H 
ATOM    127  H39 UNL A   1      45.960   8.085  49.751  1.00  0.00    +0.000 H 
ATOM    128  H40 UNL A   1      45.333   9.127  47.497  1.00  0.00    +0.000 H 
ENDROOT
BRANCH   28   27
ATOM    129  H41 UNL A   1      46.837  10.273  44.736  1.00  0.00    +0.000 H 
ATOM    130  H42 UNL A   1      45.173   9.824  43.030  1.00  0.00    +0.000 H 
ATOM     27  C22 UNL A   1      45.523  11.338  46.008  1.00  0.00    +0.000 C 
ATOM    117  H29 UNL A   1      42.245  11.734  45.371  1.00  0.00    +0.000 H 
ATOM     86  C62 UNL A   1      44.903  10.308  43.900  1.00  0.00    +0.000 C 
ATOM     85  C61 UNL A   1      45.866  10.600  44.864  1.00  0.00    +0.000 C 
ATOM     24  C19 UNL A   1      43.570  10.672  44.115  1.00  0.00    +0.000 C 
ATOM     25  C20 UNL A   1      43.222  11.431  45.236  1.00  0.00    +0.000 C 
ATOM     26  C21 UNL A   1      44.199  11.776  46.170  1.00  0.00    +0.000 C 
ATOM    118  H30 UNL A   1      43.947  12.356  46.986  1.00  0.00    +0.000 H 
BRANCH   24   22
ATOM     22  C18 UNL A   1      42.507  10.278  43.167  1.00  0.00    +0.000 C 
ATOM     23  O2  UNL A   1      42.712   9.373  42.363  1.00  0.00    +0.000 O 
BRANCH   22   21
ATOM    116  H28 UNL A   1      40.603  10.544  43.727  1.00  0.00    +0.000 H 
ATOM     21  N2  UNL A   1      41.308  10.943  43.167  1.00  0.00    +0.000 N 
BRANCH   21   20
ATOM    114  H26 UNL A   1      40.089  11.935  41.833  1.00  0.00    +0.000 H 
ATOM    115  H27 UNL A   1      40.691  12.896  43.193  1.00  0.00    +0.000 H 
ATOM     20  C17 UNL A   1      40.928  12.153  42.459  1.00  0.00    +0.000 C 
BRANCH   20   19
ATOM    113  H25 UNL A   1      42.412  11.881  41.011  1.00  0.00    +0.000 H 
ATOM     19  C16 UNL A   1      42.055  12.706  41.592  1.00  0.00    +0.000 C 
ATOM    112  H24 UNL A   1      42.795  13.126  42.239  1.00  0.00    +0.000 H 
BRANCH   19   18
ATOM     18  C15 UNL A   1      41.636  13.782  40.588  1.00  0.00    +0.000 C 
ATOM    110  H22 UNL A   1      42.131  13.577  39.661  1.00  0.00    +0.000 H 
ATOM    111  H23 UNL A   1      40.570  13.728  40.527  1.00  0.00    +0.000 H 
BRANCH   18   17
ATOM     17  C14 UNL A   1      41.963  15.224  40.990  1.00  0.00    +0.000 C 
ATOM    108  H20 UNL A   1      41.038  15.746  41.127  1.00  0.00    +0.000 H 
ATOM    109  H21 UNL A   1      42.554  15.154  41.879  1.00  0.00    +0.000 H 
BRANCH   17   16
ATOM    106  H18 UNL A   1      43.379  15.316  39.407  1.00  0.00    +0.000 H 
ATOM    107  H19 UNL A   1      42.120  16.580  39.388  1.00  0.00    +0.000 H 
ATOM     16  C13 UNL A   1      42.806  16.013  39.983  1.00  0.00    +0.000 C 
BRANCH   16   15
ATOM    105  H17 UNL A   1      43.543  17.085  41.657  1.00  0.00    +0.000 H 
ATOM     15  C12 UNL A   1      43.767  17.014  40.612  1.00  0.00    +0.000 C 
ATOM    104  H16 UNL A   1      43.646  17.963  40.132  1.00  0.00    +0.000 H 
BRANCH   15   14
ATOM     14  N1  UNL A   1      45.149  16.586  40.471  1.00  0.00    +0.000 N 
ATOM    103  H15 UNL A   1      45.436  16.381  39.552  1.00  0.00    +0.000 H 
BRANCH   14   12
ATOM     12  C11 UNL A   1      46.106  16.429  41.433  1.00  0.00    +0.000 C 
ATOM     13  O1  UNL A   1      46.954  15.552  41.248  1.00  0.00    +0.000 O 
BRANCH   12    9
ATOM      9  C9  UNL A   1      46.163  17.331  42.663  1.00  0.00    +0.000 C 
ATOM    100  H12 UNL A   1      47.129  17.284  43.120  1.00  0.00    +0.000 H 
BRANCH    9    8
ATOM     98  H10 UNL A   1      43.428  14.275  44.906  1.00  0.00    +0.000 H 
ATOM     99  H11 UNL A   1      44.656  15.055  42.980  1.00  0.00    +0.000 H 
ATOM    132  H44 UNL A   1      44.689  17.645  47.068  1.00  0.00    +0.000 H 
ATOM      5  C5  UNL A   1      43.979  15.882  46.155  1.00  0.00    +0.000 C 
ATOM      6  C6  UNL A   1      43.958  15.159  44.961  1.00  0.00    +0.000 C 
ATOM      7  C7  UNL A   1      44.649  15.625  43.839  1.00  0.00    +0.000 C 
ATOM    131  H43 UNL A   1      45.850  18.466  45.115  1.00  0.00    +0.000 H 
ATOM      8  C8  UNL A   1      45.335  16.852  43.856  1.00  0.00    +0.000 C 
ATOM     87  C63 UNL A   1      45.341  17.570  45.063  1.00  0.00    +0.000 C 
ATOM     88  C64 UNL A   1      44.671  17.094  46.194  1.00  0.00    +0.000 C 
BRANCH    5    4
ATOM     97  H9  UNL A   1      42.536  14.683  47.094  1.00  0.00    +0.000 H 
ATOM      4  C4  UNL A   1      43.345  15.312  47.401  1.00  0.00    +0.000 C 
ATOM     96  H8  UNL A   1      43.005  16.122  48.013  1.00  0.00    +0.000 H 
BRANCH    4    2
ATOM      2  C2  UNL A   1      44.323  14.448  48.223  1.00  0.00    +0.000 C 
ATOM     92  H4  UNL A   1      44.859  13.830  47.534  1.00  0.00    +0.000 H 
BRANCH    2    1
ATOM      1  C1  UNL A   1      45.349  15.298  48.979  1.00  0.00    +0.000 C 
ATOM     90  H2  UNL A   1      44.841  16.046  49.551  1.00  0.00    +0.000 H 
ATOM     91  H3  UNL A   1      46.006  15.770  48.278  1.00  0.00    +0.000 H 
ATOM     89  H1  UNL A   1      45.918  14.672  49.635  1.00  0.00    +0.000 H 
ENDBRANCH    2    1
BRANCH    2    3
ATOM      3  C3  UNL A   1      43.549  13.573  49.210  1.00  0.00    +0.000 C 
ATOM     93  H5  UNL A   1      43.102  14.192  49.960  1.00  0.00    +0.000 H 
ATOM     94  H6  UNL A   1      44.218  12.879  49.673  1.00  0.00    +0.000 H 
ATOM     95  H7  UNL A   1      42.785  13.037  48.688  1.00  0.00    +0.000 H 
ENDBRANCH    2    3
ENDBRANCH    4    2
ENDBRANCH    5    4
ENDBRANCH    9    8
BRANCH    9   10
ATOM     10  C10 UNL A   1      45.948  18.770  42.180  1.00  0.00    +0.000 C 
ATOM     11  F1  UNL A   1      47.099  19.285  41.668  1.00  0.00    +0.000 F 
ATOM    101  H13 UNL A   1      45.630  19.372  43.005  1.00  0.00    +0.000 H 
ATOM    102  H14 UNL A   1      45.203  18.765  41.413  1.00  0.00    +0.000 H 
ENDBRANCH    9   10
ENDBRANCH   12    9
ENDBRANCH   14   12
ENDBRANCH   15   14
ENDBRANCH   16   15
ENDBRANCH   17   16
ENDBRANCH   18   17
ENDBRANCH   19   18
ENDBRANCH   20   19
ENDBRANCH   21   20
ENDBRANCH   22   21
ENDBRANCH   24   22
ENDBRANCH   28   27
BRANCH   32   33
ATOM     33  C27 UNL A   1      47.639   8.085  51.776  1.00  0.00    +0.000 C 
ATOM     34  C28 UNL A   1      48.366   6.910  51.536  1.00  0.00    +0.000 C 
ATOM     35  F2  UNL A   1      49.391   6.917  50.671  1.00  0.00    +0.000 F 
ATOM     36  C29 UNL A   1      48.025   5.716  52.164  1.00  0.00    +0.000 C 
ATOM     37  F3  UNL A   1      48.713   4.598  51.894  1.00  0.00    +0.000 F 
ATOM     38  C30 UNL A   1      46.970   5.680  53.065  1.00  0.00    +0.000 C 
ATOM     39  F4  UNL A   1      46.652   4.532  53.679  1.00  0.00    +0.000 F 
ATOM     40  C31 UNL A   1      46.244   6.833  53.326  1.00  0.00    +0.000 C 
ATOM     41  F5  UNL A   1      45.233   6.801  54.204  1.00  0.00    +0.000 F 
ATOM     42  C32 UNL A   1      46.567   8.023  52.679  1.00  0.00    +0.000 C 
ATOM     43  F6  UNL A   1      45.842   9.119  52.945  1.00  0.00    +0.000 F 
ENDBRANCH   32   33
BRANCH   49   50
ATOM     50  C38 UNL A   1      52.342  13.423  52.896  1.00  0.00    +0.000 C 
ATOM     51  C39 UNL A   1      52.073  14.157  54.060  1.00  0.00    +0.000 C 
ATOM     52  F7  UNL A   1      50.834  14.616  54.298  1.00  0.00    +0.000 F 
ATOM     53  C40 UNL A   1      53.087  14.456  54.966  1.00  0.00    +0.000 C 
ATOM     54  F8  UNL A   1      52.817  15.198  56.048  1.00  0.00    +0.000 F 
ATOM     55  C41 UNL A   1      54.377  14.001  54.742  1.00  0.00    +0.000 C 
ATOM     56  F9  UNL A   1      55.351  14.286  55.618  1.00  0.00    +0.000 F 
ATOM     57  C42 UNL A   1      54.661  13.257  53.607  1.00  0.00    +0.000 C 
ATOM     58  F10 UNL A   1      55.906  12.806  53.395  1.00  0.00    +0.000 F 
ATOM     59  C43 UNL A   1      53.656  12.979  52.685  1.00  0.00    +0.000 C 
ATOM     60  F11 UNL A   1      53.963  12.268  51.589  1.00  0.00    +0.000 F 
ENDBRANCH   49   50
BRANCH   64   65
ATOM     65  C47 UNL A   1      49.994  16.637  47.190  1.00  0.00    +0.000 C 
ATOM     66  C48 UNL A   1      49.236  17.793  47.426  1.00  0.00    +0.000 C 
ATOM     67  F12 UNL A   1      48.189  17.746  48.263  1.00  0.00    +0.000 F 
ATOM     68  C49 UNL A   1      49.514  18.984  46.760  1.00  0.00    +0.000 C 
ATOM     69  F13 UNL A   1      48.735  20.057  46.959  1.00  0.00    +0.000 F 
ATOM     70  C50 UNL A   1      50.577  19.054  45.874  1.00  0.00    +0.000 C 
ATOM     71  F14 UNL A   1      50.839  20.199  45.228  1.00  0.00    +0.000 F 
ATOM     72  C51 UNL A   1      51.360  17.932  45.647  1.00  0.00    +0.000 C 
ATOM     73  F15 UNL A   1      52.396  17.999  44.800  1.00  0.00    +0.000 F 
ATOM     74  C52 UNL A   1      51.065  16.732  46.289  1.00  0.00    +0.000 C 
ATOM     75  F16 UNL A   1      51.825  15.657  46.033  1.00  0.00    +0.000 F 
ENDBRANCH   64   65
TORSDOF 21
ENDMDL
MODEL 7
REMARK VINA RESULT:      -8.2     28.534     33.730
ROOT
ATOM     28  C23 UNL A   1      25.653  36.468  45.551  1.00  0.00    +0.000 C 
ATOM     29  C24 UNL A   1      25.583  37.661  46.464  1.00  0.00    +0.000 C 
ATOM     30  N3  UNL A   1      26.518  38.527  46.766  1.00  0.00    +0.000 N 
ATOM     31  C25 UNL A   1      25.921  39.440  47.626  1.00  0.00    +0.000 C 
ATOM     32  C26 UNL A   1      26.488  40.489  48.270  1.00  0.00    +0.000 C 
ATOM     44  C33 UNL A   1      27.874  40.859  48.157  1.00  0.00    +0.000 C 
ATOM     45  C34 UNL A   1      28.545  41.894  48.783  1.00  0.00    +0.000 C 
ATOM     46  C35 UNL A   1      29.876  41.876  48.353  1.00  0.00    +0.000 C 
ATOM     47  C36 UNL A   1      30.042  40.805  47.491  1.00  0.00    +0.000 C 
ATOM     48  N4  UNL A   1      28.803  40.197  47.370  1.00  0.00    +0.000 N 
ATOM     49  C37 UNL A   1      31.241  40.370  46.824  1.00  0.00    +0.000 C 
ATOM     61  C44 UNL A   1      31.319  39.318  45.974  1.00  0.00    +0.000 C 
ATOM     62  N5  UNL A   1      30.321  38.439  45.578  1.00  0.00    +0.000 N 
ATOM     63  C45 UNL A   1      30.887  37.607  44.739  1.00  0.00    +0.000 C 
ATOM     64  C46 UNL A   1      30.290  36.424  44.023  1.00  0.00    +0.000 C 
ATOM     76  C53 UNL A   1      28.998  36.111  44.236  1.00  0.00    +0.000 C 
ATOM     77  C54 UNL A   1      28.283  34.998  43.621  1.00  0.00    +0.000 C 
ATOM     78  C55 UNL A   1      27.002  35.025  44.022  1.00  0.00    +0.000 C 
ATOM     79  C56 UNL A   1      26.814  36.140  44.953  1.00  0.00    +0.000 C 
ATOM     80  N6  UNL A   1      28.056  36.720  45.029  1.00  0.00    +0.000 N 
ATOM     81  C57 UNL A   1      32.306  37.890  44.479  1.00  0.00    +0.000 C 
ATOM     82  C58 UNL A   1      32.530  38.912  45.293  1.00  0.00    +0.000 C 
ATOM     83  C59 UNL A   1      24.532  39.056  47.756  1.00  0.00    +0.000 C 
ATOM     84  C60 UNL A   1      24.286  37.928  47.104  1.00  0.00    +0.000 C 
ATOM    119  H31 UNL A   1      28.135  42.564  49.451  1.00  0.00    +0.000 H 
ATOM    120  H32 UNL A   1      30.609  42.547  48.632  1.00  0.00    +0.000 H 
ATOM    121  H33 UNL A   1      28.612  39.411  46.808  1.00  0.00    +0.000 H 
ATOM    122  H34 UNL A   1      28.695  34.301  42.980  1.00  0.00    +0.000 H 
ATOM    123  H35 UNL A   1      26.266  34.366  43.722  1.00  0.00    +0.000 H 
ATOM    124  H36 UNL A   1      28.252  37.499  45.597  1.00  0.00    +0.000 H 
ATOM    125  H37 UNL A   1      32.958  37.417  43.834  1.00  0.00    +0.000 H 
ATOM    126  H38 UNL A   1      33.450  39.361  45.423  1.00  0.00    +0.000 H 
ATOM    127  H39 UNL A   1      23.826  39.590  48.285  1.00  0.00    +0.000 H 
ATOM    128  H40 UNL A   1      23.412  37.381  47.058  1.00  0.00    +0.000 H 
ENDROOT
BRANCH   28   27
ATOM    129  H41 UNL A   1      23.682  37.033  43.825  1.00  0.00    +0.000 H 
ATOM    130  H42 UNL A   1      21.633  35.804  43.409  1.00  0.00    +0.000 H 
ATOM     27  C22 UNL A   1      24.429  35.677  45.268  1.00  0.00    +0.000 C 
ATOM    117  H29 UNL A   1      22.871  32.816  46.101  1.00  0.00    +0.000 H 
ATOM     86  C62 UNL A   1      22.343  35.423  44.054  1.00  0.00    +0.000 C 
ATOM     85  C61 UNL A   1      23.502  36.147  44.323  1.00  0.00    +0.000 C 
ATOM     24  C19 UNL A   1      22.143  34.179  44.661  1.00  0.00    +0.000 C 
ATOM     25  C20 UNL A   1      23.043  33.715  45.624  1.00  0.00    +0.000 C 
ATOM     26  C21 UNL A   1      24.174  34.470  45.938  1.00  0.00    +0.000 C 
ATOM    118  H30 UNL A   1      24.827  34.139  46.665  1.00  0.00    +0.000 H 
BRANCH   24   22
ATOM     22  C18 UNL A   1      20.980  33.336  44.312  1.00  0.00    +0.000 C 
ATOM     23  O2  UNL A   1      19.954  33.860  43.886  1.00  0.00    +0.000 O 
BRANCH   22   21
ATOM    116  H28 UNL A   1      21.767  31.520  44.018  1.00  0.00    +0.000 H 
ATOM     21  N2  UNL A   1      21.038  31.978  44.494  1.00  0.00    +0.000 N 
BRANCH   21   20
ATOM    114  H26 UNL A   1      20.142  30.153  44.833  1.00  0.00    +0.000 H 
ATOM    115  H27 UNL A   1      20.588  31.075  46.277  1.00  0.00    +0.000 H 
ATOM     20  C17 UNL A   1      20.178  31.120  45.289  1.00  0.00    +0.000 C 
BRANCH   20   19
ATOM    113  H25 UNL A   1      18.813  32.701  45.175  1.00  0.00    +0.000 H 
ATOM     19  C16 UNL A   1      18.755  31.658  45.405  1.00  0.00    +0.000 C 
ATOM    112  H24 UNL A   1      18.405  31.457  46.395  1.00  0.00    +0.000 H 
BRANCH   19   18
ATOM     18  C15 UNL A   1      17.750  31.060  44.417  1.00  0.00    +0.000 C 
ATOM    110  H22 UNL A   1      18.055  31.337  43.429  1.00  0.00    +0.000 H 
ATOM    111  H23 UNL A   1      17.759  30.005  44.592  1.00  0.00    +0.000 H 
BRANCH   18   17
ATOM     17  C14 UNL A   1      16.296  31.506  44.604  1.00  0.00    +0.000 C 
ATOM    108  H20 UNL A   1      15.662  30.706  44.281  1.00  0.00    +0.000 H 
ATOM    109  H21 UNL A   1      16.193  31.745  45.642  1.00  0.00    +0.000 H 
BRANCH   17   16
ATOM    106  H18 UNL A   1      16.638  32.965  43.097  1.00  0.00    +0.000 H 
ATOM    107  H19 UNL A   1      14.927  32.573  43.414  1.00  0.00    +0.000 H 
ATOM     16  C13 UNL A   1      15.890  32.769  43.837  1.00  0.00    +0.000 C 
BRANCH   16   15
ATOM    105  H17 UNL A   1      15.494  33.702  45.699  1.00  0.00    +0.000 H 
ATOM     15  C12 UNL A   1      15.741  34.012  44.704  1.00  0.00    +0.000 C 
ATOM    104  H16 UNL A   1      14.967  34.631  44.297  1.00  0.00    +0.000 H 
BRANCH   15   14
ATOM     14  N1  UNL A   1      16.976  34.776  44.757  1.00  0.00    +0.000 N 
ATOM    103  H15 UNL A   1      17.555  34.700  43.965  1.00  0.00    +0.000 H 
BRANCH   14   12
ATOM     12  C11 UNL A   1      17.448  35.585  45.752  1.00  0.00    +0.000 C 
ATOM     13  O1  UNL A   1      16.707  35.782  46.719  1.00  0.00    +0.000 O 
BRANCH   12    9
ATOM      9  C9  UNL A   1      18.851  36.181  45.704  1.00  0.00    +0.000 C 
ATOM    100  H12 UNL A   1      19.439  35.704  44.949  1.00  0.00    +0.000 H 
BRANCH    9    8
ATOM     98  H10 UNL A   1      20.682  33.289  48.888  1.00  0.00    +0.000 H 
ATOM     99  H11 UNL A   1      19.210  33.811  47.047  1.00  0.00    +0.000 H 
ATOM    132  H44 UNL A   1      22.125  37.231  48.844  1.00  0.00    +0.000 H 
ATOM      5  C5  UNL A   1      21.544  35.210  49.001  1.00  0.00    +0.000 C 
ATOM      6  C6  UNL A   1      20.680  34.241  48.489  1.00  0.00    +0.000 C 
ATOM      7  C7  UNL A   1      19.811  34.552  47.439  1.00  0.00    +0.000 C 
ATOM    131  H43 UNL A   1      20.594  37.774  47.057  1.00  0.00    +0.000 H 
ATOM      8  C8  UNL A   1      19.737  35.851  46.906  1.00  0.00    +0.000 C 
ATOM     87  C63 UNL A   1      20.609  36.815  47.437  1.00  0.00    +0.000 C 
ATOM     88  C64 UNL A   1      21.497  36.501  48.470  1.00  0.00    +0.000 C 
BRANCH    5    4
ATOM     97  H9  UNL A   1      22.907  33.844  49.825  1.00  0.00    +0.000 H 
ATOM      4  C4  UNL A   1      22.574  34.838  50.040  1.00  0.00    +0.000 C 
ATOM     96  H8  UNL A   1      22.121  34.901  51.009  1.00  0.00    +0.000 H 
BRANCH    4    2
ATOM      2  C2  UNL A   1      23.809  35.762  50.011  1.00  0.00    +0.000 C 
ATOM     92  H4  UNL A   1      23.553  36.616  49.420  1.00  0.00    +0.000 H 
BRANCH    2    1
ATOM      1  C1  UNL A   1      24.191  36.261  51.408  1.00  0.00    +0.000 C 
ATOM     90  H2  UNL A   1      25.028  36.924  51.333  1.00  0.00    +0.000 H 
ATOM     91  H3  UNL A   1      24.453  35.426  52.025  1.00  0.00    +0.000 H 
ATOM     89  H1  UNL A   1      23.362  36.779  51.841  1.00  0.00    +0.000 H 
ENDBRANCH    2    1
BRANCH    2    3
ATOM      3  C3  UNL A   1      24.996  35.033  49.380  1.00  0.00    +0.000 C 
ATOM     93  H5  UNL A   1      25.302  35.550  48.494  1.00  0.00    +0.000 H 
ATOM     94  H6  UNL A   1      24.708  34.034  49.127  1.00  0.00    +0.000 H 
ATOM     95  H7  UNL A   1      25.808  35.004  50.075  1.00  0.00    +0.000 H 
ENDBRANCH    2    3
ENDBRANCH    4    2
ENDBRANCH    5    4
ENDBRANCH    9    8
BRANCH    9   10
ATOM     10  C10 UNL A   1      18.703  37.657  45.315  1.00  0.00    +0.000 C 
ATOM     11  F1  UNL A   1      19.693  38.033  44.462  1.00  0.00    +0.000 F 
ATOM    101  H13 UNL A   1      18.752  38.259  46.198  1.00  0.00    +0.000 H 
ATOM    102  H14 UNL A   1      17.760  37.788  44.827  1.00  0.00    +0.000 H 
ENDBRANCH    9   10
ENDBRANCH   12    9
ENDBRANCH   14   12
ENDBRANCH   15   14
ENDBRANCH   16   15
ENDBRANCH   17   16
ENDBRANCH   18   17
ENDBRANCH   19   18
ENDBRANCH   20   19
ENDBRANCH   21   20
ENDBRANCH   22   21
ENDBRANCH   24   22
ENDBRANCH   28   27
BRANCH   32   33
ATOM     33  C27 UNL A   1      25.612  41.303  49.176  1.00  0.00    +0.000 C 
ATOM     34  C28 UNL A   1      24.912  42.420  48.699  1.00  0.00    +0.000 C 
ATOM     35  F2  UNL A   1      25.069  42.823  47.429  1.00  0.00    +0.000 F 
ATOM     36  C29 UNL A   1      24.068  43.147  49.535  1.00  0.00    +0.000 C 
ATOM     37  F3  UNL A   1      23.436  44.232  49.067  1.00  0.00    +0.000 F 
ATOM     38  C30 UNL A   1      23.885  42.753  50.852  1.00  0.00    +0.000 C 
ATOM     39  F4  UNL A   1      23.061  43.446  51.650  1.00  0.00    +0.000 F 
ATOM     40  C31 UNL A   1      24.559  41.644  51.342  1.00  0.00    +0.000 C 
ATOM     41  F5  UNL A   1      24.374  41.256  52.610  1.00  0.00    +0.000 F 
ATOM     42  C32 UNL A   1      25.424  40.930  50.516  1.00  0.00    +0.000 C 
ATOM     43  F6  UNL A   1      26.067  39.867  51.019  1.00  0.00    +0.000 F 
ENDBRANCH   32   33
BRANCH   49   50
ATOM     50  C38 UNL A   1      32.508  41.124  47.104  1.00  0.00    +0.000 C 
ATOM     51  C39 UNL A   1      32.841  42.289  46.399  1.00  0.00    +0.000 C 
ATOM     52  F7  UNL A   1      32.046  42.732  45.413  1.00  0.00    +0.000 F 
ATOM     53  C40 UNL A   1      34.015  42.982  46.681  1.00  0.00    +0.000 C 
ATOM     54  F8  UNL A   1      34.337  44.067  45.963  1.00  0.00    +0.000 F 
ATOM     55  C41 UNL A   1      34.858  42.543  47.690  1.00  0.00    +0.000 C 
ATOM     56  F9  UNL A   1      35.986  43.215  47.963  1.00  0.00    +0.000 F 
ATOM     57  C42 UNL A   1      34.537  41.403  48.412  1.00  0.00    +0.000 C 
ATOM     58  F10 UNL A   1      35.346  40.984  49.396  1.00  0.00    +0.000 F 
ATOM     59  C43 UNL A   1      33.378  40.692  48.115  1.00  0.00    +0.000 C 
ATOM     60  F11 UNL A   1      33.100  39.586  48.822  1.00  0.00    +0.000 F 
ENDBRANCH   49   50
BRANCH   64   65
ATOM     65  C47 UNL A   1      31.122  35.601  43.106  1.00  0.00    +0.000 C 
ATOM     66  C48 UNL A   1      31.765  34.442  43.565  1.00  0.00    +0.000 C 
ATOM     67  F12 UNL A   1      31.620  34.058  44.841  1.00  0.00    +0.000 F 
ATOM     68  C49 UNL A   1      32.604  33.707  42.731  1.00  0.00    +0.000 C 
ATOM     69  F13 UNL A   1      33.253  32.638  43.213  1.00  0.00    +0.000 F 
ATOM     70  C50 UNL A   1      32.788  34.094  41.413  1.00  0.00    +0.000 C 
ATOM     71  F14 UNL A   1      33.602  33.390  40.613  1.00  0.00    +0.000 F 
ATOM     72  C51 UNL A   1      32.139  35.220  40.928  1.00  0.00    +0.000 C 
ATOM     73  F15 UNL A   1      32.306  35.590  39.652  1.00  0.00    +0.000 F 
ATOM     74  C52 UNL A   1      31.323  35.973  41.769  1.00  0.00    +0.000 C 
ATOM     75  F16 UNL A   1      30.727  37.070  41.280  1.00  0.00    +0.000 F 
ENDBRANCH   64   65
TORSDOF 21
ENDMDL
MODEL 8
REMARK VINA RESULT:      -8.2     28.280     33.714
ROOT
ATOM     28  C23 UNL A   1      25.887  36.248  45.640  1.00  0.00    +0.000 C 
ATOM     29  C24 UNL A   1      27.213  36.090  44.951  1.00  0.00    +0.000 C 
ATOM     30  N3  UNL A   1      28.313  36.783  45.104  1.00  0.00    +0.000 N 
ATOM     31  C25 UNL A   1      29.245  36.205  44.251  1.00  0.00    +0.000 C 
ATOM     32  C26 UNL A   1      30.515  36.600  43.995  1.00  0.00    +0.000 C 
ATOM     44  C33 UNL A   1      31.150  37.739  44.604  1.00  0.00    +0.000 C 
ATOM     45  C34 UNL A   1      32.427  38.229  44.397  1.00  0.00    +0.000 C 
ATOM     46  C35 UNL A   1      32.608  39.343  45.224  1.00  0.00    +0.000 C 
ATOM     47  C36 UNL A   1      31.430  39.568  45.916  1.00  0.00    +0.000 C 
ATOM     48  N4  UNL A   1      30.548  38.571  45.536  1.00  0.00    +0.000 N 
ATOM     49  C37 UNL A   1      31.132  40.616  46.857  1.00  0.00    +0.000 C 
ATOM     61  C44 UNL A   1      29.955  40.760  47.512  1.00  0.00    +0.000 C 
ATOM     62  N5  UNL A   1      28.806  39.986  47.424  1.00  0.00    +0.000 N 
ATOM     63  C45 UNL A   1      27.949  40.518  48.260  1.00  0.00    +0.000 C 
ATOM     64  C46 UNL A   1      26.528  40.115  48.553  1.00  0.00    +0.000 C 
ATOM     76  C53 UNL A   1      25.992  39.073  47.890  1.00  0.00    +0.000 C 
ATOM     77  C54 UNL A   1      24.633  38.567  48.061  1.00  0.00    +0.000 C 
ATOM     78  C55 UNL A   1      24.466  37.489  47.278  1.00  0.00    +0.000 C 
ATOM     79  C56 UNL A   1      25.696  37.249  46.522  1.00  0.00    +0.000 C 
ATOM     80  N6  UNL A   1      26.542  38.246  46.941  1.00  0.00    +0.000 N 
ATOM     81  C57 UNL A   1      28.475  41.673  49.004  1.00  0.00    +0.000 C 
ATOM     82  C58 UNL A   1      29.683  41.805  48.475  1.00  0.00    +0.000 C 
ATOM     83  C59 UNL A   1      28.600  35.073  43.623  1.00  0.00    +0.000 C 
ATOM     84  C60 UNL A   1      27.325  34.993  43.977  1.00  0.00    +0.000 C 
ATOM    119  H31 UNL A   1      33.126  37.840  43.745  1.00  0.00    +0.000 H 
ATOM    120  H32 UNL A   1      33.473  39.900  45.304  1.00  0.00    +0.000 H 
ATOM    121  H33 UNL A   1      29.630  38.469  45.876  1.00  0.00    +0.000 H 
ATOM    122  H34 UNL A   1      23.917  38.973  48.683  1.00  0.00    +0.000 H 
ATOM    123  H35 UNL A   1      23.606  36.920  47.218  1.00  0.00    +0.000 H 
ATOM    124  H36 UNL A   1      27.456  38.357  46.594  1.00  0.00    +0.000 H 
ATOM    125  H37 UNL A   1      28.023  42.234  49.742  1.00  0.00    +0.000 H 
ATOM    126  H38 UNL A   1      30.345  42.559  48.719  1.00  0.00    +0.000 H 
ATOM    127  H39 UNL A   1      29.071  34.413  42.985  1.00  0.00    +0.000 H 
ATOM    128  H40 UNL A   1      26.600  34.333  43.653  1.00  0.00    +0.000 H 
ENDROOT
BRANCH   28   27
ATOM    129  H41 UNL A   1      23.877  36.431  43.875  1.00  0.00    +0.000 H 
ATOM    130  H42 UNL A   1      22.038  34.895  43.508  1.00  0.00    +0.000 H 
ATOM     27  C22 UNL A   1      24.797  35.272  45.388  1.00  0.00    +0.000 C 
ATOM    117  H29 UNL A   1      23.667  32.255  46.353  1.00  0.00    +0.000 H 
ATOM     86  C62 UNL A   1      22.788  34.654  44.176  1.00  0.00    +0.000 C 
ATOM     85  C61 UNL A   1      23.824  35.553  44.416  1.00  0.00    +0.000 C 
ATOM     24  C19 UNL A   1      22.765  33.425  44.842  1.00  0.00    +0.000 C 
ATOM     25  C20 UNL A   1      23.711  33.146  45.833  1.00  0.00    +0.000 C 
ATOM     26  C21 UNL A   1      24.713  34.074  46.115  1.00  0.00    +0.000 C 
ATOM    118  H30 UNL A   1      25.398  33.879  46.862  1.00  0.00    +0.000 H 
BRANCH   24   22
ATOM     22  C18 UNL A   1      21.744  32.403  44.529  1.00  0.00    +0.000 C 
ATOM     23  O2  UNL A   1      22.082  31.235  44.357  1.00  0.00    +0.000 O 
BRANCH   22   21
ATOM    116  H28 UNL A   1      20.252  33.735  44.429  1.00  0.00    +0.000 H 
ATOM     21  N2  UNL A   1      20.428  32.767  44.401  1.00  0.00    +0.000 N 
BRANCH   21   20
ATOM    114  H26 UNL A   1      19.502  30.929  44.525  1.00  0.00    +0.000 H 
ATOM    115  H27 UNL A   1      18.473  32.336  44.837  1.00  0.00    +0.000 H 
ATOM     20  C17 UNL A   1      19.255  31.927  44.230  1.00  0.00    +0.000 C 
BRANCH   20   19
ATOM    113  H25 UNL A   1      18.861  30.890  42.457  1.00  0.00    +0.000 H 
ATOM     19  C16 UNL A   1      18.754  31.901  42.789  1.00  0.00    +0.000 C 
ATOM    112  H24 UNL A   1      19.334  32.600  42.225  1.00  0.00    +0.000 H 
BRANCH   19   18
ATOM     18  C15 UNL A   1      17.276  32.255  42.606  1.00  0.00    +0.000 C 
ATOM    110  H22 UNL A   1      16.946  32.754  43.494  1.00  0.00    +0.000 H 
ATOM    111  H23 UNL A   1      17.227  32.861  41.727  1.00  0.00    +0.000 H 
BRANCH   18   17
ATOM     17  C14 UNL A   1      16.340  31.069  42.354  1.00  0.00    +0.000 C 
ATOM    108  H20 UNL A   1      15.332  31.425  42.422  1.00  0.00    +0.000 H 
ATOM    109  H21 UNL A   1      16.599  30.690  41.388  1.00  0.00    +0.000 H 
BRANCH   17   16
ATOM    106  H18 UNL A   1      17.437  29.426  43.138  1.00  0.00    +0.000 H 
ATOM    107  H19 UNL A   1      16.415  30.299  44.312  1.00  0.00    +0.000 H 
ATOM     16  C13 UNL A   1      16.492  29.892  43.325  1.00  0.00    +0.000 C 
BRANCH   16   15
ATOM    105  H17 UNL A   1      14.668  29.182  42.511  1.00  0.00    +0.000 H 
ATOM     15  C12 UNL A   1      15.405  28.831  43.204  1.00  0.00    +0.000 C 
ATOM    104  H16 UNL A   1      14.971  28.665  44.169  1.00  0.00    +0.000 H 
BRANCH   15   14
ATOM     14  N1  UNL A   1      15.940  27.576  42.706  1.00  0.00    +0.000 N 
ATOM    103  H15 UNL A   1      16.879  27.604  42.410  1.00  0.00    +0.000 H 
BRANCH   14   12
ATOM     12  C11 UNL A   1      15.325  26.362  42.590  1.00  0.00    +0.000 C 
ATOM     13  O1  UNL A   1      15.485  25.557  43.511  1.00  0.00    +0.000 O 
BRANCH   12    9
ATOM      9  C9  UNL A   1      14.431  26.025  41.400  1.00  0.00    +0.000 C 
ATOM    100  H12 UNL A   1      13.454  26.441  41.532  1.00  0.00    +0.000 H 
BRANCH    9    8
ATOM     98  H10 UNL A   1      14.822  21.691  39.694  1.00  0.00    +0.000 H 
ATOM     99  H11 UNL A   1      15.415  24.029  39.789  1.00  0.00    +0.000 H 
ATOM    132  H44 UNL A   1      12.045  22.275  42.788  1.00  0.00    +0.000 H 
ATOM      5  C5  UNL A   1      13.403  21.784  41.251  1.00  0.00    +0.000 C 
ATOM      6  C6  UNL A   1      14.355  22.309  40.376  1.00  0.00    +0.000 C 
ATOM      7  C7  UNL A   1      14.679  23.668  40.416  1.00  0.00    +0.000 C 
ATOM    131  H43 UNL A   1      12.580  24.630  42.827  1.00  0.00    +0.000 H 
ATOM      8  C8  UNL A   1      14.025  24.555  41.290  1.00  0.00    +0.000 C 
ATOM     87  C63 UNL A   1      13.066  24.011  42.160  1.00  0.00    +0.000 C 
ATOM     88  C64 UNL A   1      12.757  22.647  42.139  1.00  0.00    +0.000 C 
BRANCH    5    4
ATOM     97  H9  UNL A   1      12.912  20.040  42.310  1.00  0.00    +0.000 H 
ATOM      4  C4  UNL A   1      13.152  20.296  41.299  1.00  0.00    +0.000 C 
ATOM     96  H8  UNL A   1      14.033  19.789  40.962  1.00  0.00    +0.000 H 
BRANCH    4    2
ATOM      2  C2  UNL A   1      11.965  19.865  40.412  1.00  0.00    +0.000 C 
ATOM     92  H4  UNL A   1      11.591  20.745  39.931  1.00  0.00    +0.000 H 
BRANCH    2    1
ATOM      1  C1  UNL A   1      12.388  18.881  39.318  1.00  0.00    +0.000 C 
ATOM     90  H2  UNL A   1      13.445  18.951  39.165  1.00  0.00    +0.000 H 
ATOM     91  H3  UNL A   1      11.880  19.121  38.407  1.00  0.00    +0.000 H 
ATOM     89  H1  UNL A   1      12.136  17.885  39.616  1.00  0.00    +0.000 H 
ENDBRANCH    2    1
BRANCH    2    3
ATOM      3  C3  UNL A   1      10.866  19.240  41.273  1.00  0.00    +0.000 C 
ATOM     93  H5  UNL A   1       9.993  19.080  40.676  1.00  0.00    +0.000 H 
ATOM     94  H6  UNL A   1      10.629  19.898  42.082  1.00  0.00    +0.000 H 
ATOM     95  H7  UNL A   1      11.208  18.305  41.664  1.00  0.00    +0.000 H 
ENDBRANCH    2    3
ENDBRANCH    4    2
ENDBRANCH    5    4
ENDBRANCH    9    8
BRANCH    9   10
ATOM     10  C10 UNL A   1      15.053  26.685  40.165  1.00  0.00    +0.000 C 
ATOM     11  F1  UNL A   1      14.324  26.409  39.050  1.00  0.00    +0.000 F 
ATOM    101  H13 UNL A   1      16.049  26.314  40.034  1.00  0.00    +0.000 H 
ATOM    102  H14 UNL A   1      15.067  27.745  40.313  1.00  0.00    +0.000 H 
ENDBRANCH    9   10
ENDBRANCH   12    9
ENDBRANCH   14   12
ENDBRANCH   15   14
ENDBRANCH   16   15
ENDBRANCH   17   16
ENDBRANCH   18   17
ENDBRANCH   19   18
ENDBRANCH   20   19
ENDBRANCH   21   20
ENDBRANCH   22   21
ENDBRANCH   24   22
ENDBRANCH   28   27
BRANCH   32   33
ATOM     33  C27 UNL A   1      31.301  35.806  42.994  1.00  0.00    +0.000 C 
ATOM     34  C28 UNL A   1      31.958  34.623  43.359  1.00  0.00    +0.000 C 
ATOM     35  F2  UNL A   1      31.951  34.214  44.636  1.00  0.00    +0.000 F 
ATOM     36  C29 UNL A   1      32.651  33.868  42.416  1.00  0.00    +0.000 C 
ATOM     37  F3  UNL A   1      33.301  32.759  42.794  1.00  0.00    +0.000 F 
ATOM     38  C30 UNL A   1      32.674  34.266  41.088  1.00  0.00    +0.000 C 
ATOM     39  F4  UNL A   1      33.330  33.530  40.179  1.00  0.00    +0.000 F 
ATOM     40  C31 UNL A   1      32.021  35.427  40.702  1.00  0.00    +0.000 C 
ATOM     41  F5  UNL A   1      32.033  35.806  39.417  1.00  0.00    +0.000 F 
ATOM     42  C32 UNL A   1      31.349  36.198  41.647  1.00  0.00    +0.000 C 
ATOM     43  F6  UNL A   1      30.734  37.320  41.246  1.00  0.00    +0.000 F 
ENDBRANCH   32   33
BRANCH   49   50
ATOM     50  C38 UNL A   1      32.195  41.641  47.121  1.00  0.00    +0.000 C 
ATOM     51  C39 UNL A   1      33.319  41.349  47.906  1.00  0.00    +0.000 C 
ATOM     52  F7  UNL A   1      33.444  40.146  48.485  1.00  0.00    +0.000 F 
ATOM     53  C40 UNL A   1      34.302  42.310  48.130  1.00  0.00    +0.000 C 
ATOM     54  F8  UNL A   1      35.345  42.024  48.921  1.00  0.00    +0.000 F 
ATOM     55  C41 UNL A   1      34.196  43.564  47.548  1.00  0.00    +0.000 C 
ATOM     56  F9  UNL A   1      35.146  44.486  47.761  1.00  0.00    +0.000 F 
ATOM     57  C42 UNL A   1      33.101  43.867  46.753  1.00  0.00    +0.000 C 
ATOM     58  F10 UNL A   1      33.002  45.076  46.181  1.00  0.00    +0.000 F 
ATOM     59  C43 UNL A   1      32.103  42.919  46.549  1.00  0.00    +0.000 C 
ATOM     60  F11 UNL A   1      31.049  43.244  45.785  1.00  0.00    +0.000 F 
ENDBRANCH   49   50
BRANCH   64   65
ATOM     65  C47 UNL A   1      25.721  40.868  49.548  1.00  0.00    +0.000 C 
ATOM     66  C48 UNL A   1      25.668  40.458  50.888  1.00  0.00    +0.000 C 
ATOM     67  F12 UNL A   1      26.362  39.383  51.286  1.00  0.00    +0.000 F 
ATOM     68  C49 UNL A   1      24.857  41.117  51.810  1.00  0.00    +0.000 C 
ATOM     69  F13 UNL A   1      24.779  40.666  53.070  1.00  0.00    +0.000 F 
ATOM     70  C50 UNL A   1      24.113  42.219  51.420  1.00  0.00    +0.000 C 
ATOM     71  F14 UNL A   1      23.327  42.847  52.305  1.00  0.00    +0.000 F 
ATOM     72  C51 UNL A   1      24.172  42.661  50.106  1.00  0.00    +0.000 C 
ATOM     73  F15 UNL A   1      23.464  43.733  49.728  1.00  0.00    +0.000 F 
ATOM     74  C52 UNL A   1      24.960  41.986  49.176  1.00  0.00    +0.000 C 
ATOM     75  F16 UNL A   1      24.980  42.421  47.908  1.00  0.00    +0.000 F 
ENDBRANCH   64   65
TORSDOF 21
ENDMDL
MODEL 9
REMARK VINA RESULT:      -8.2     33.159     37.211
ROOT
ATOM     28  C23 UNL A   1      29.175 -13.986  31.042  1.00  0.00    +0.000 C 
ATOM     29  C24 UNL A   1      28.879 -14.125  32.510  1.00  0.00    +0.000 C 
ATOM     30  N3  UNL A   1      27.844 -13.698  33.190  1.00  0.00    +0.000 N 
ATOM     31  C25 UNL A   1      28.055 -14.114  34.498  1.00  0.00    +0.000 C 
ATOM     32  C26 UNL A   1      27.302 -13.863  35.595  1.00  0.00    +0.000 C 
ATOM     44  C33 UNL A   1      26.088 -13.092  35.588  1.00  0.00    +0.000 C 
ATOM     45  C34 UNL A   1      25.264 -12.768  36.652  1.00  0.00    +0.000 C 
ATOM     46  C35 UNL A   1      24.190 -12.018  36.161  1.00  0.00    +0.000 C 
ATOM     47  C36 UNL A   1      24.367 -11.842  34.799  1.00  0.00    +0.000 C 
ATOM     48  N4  UNL A   1      25.528 -12.515  34.458  1.00  0.00    +0.000 N 
ATOM     49  C37 UNL A   1      23.536 -11.114  33.876  1.00  0.00    +0.000 C 
ATOM     61  C44 UNL A   1      23.767 -11.003  32.545  1.00  0.00    +0.000 C 
ATOM     62  N5  UNL A   1      24.814 -11.517  31.794  1.00  0.00    +0.000 N 
ATOM     63  C45 UNL A   1      24.584 -11.151  30.558  1.00  0.00    +0.000 C 
ATOM     64  C46 UNL A   1      25.409 -11.398  29.322  1.00  0.00    +0.000 C 
ATOM     76  C53 UNL A   1      26.566 -12.077  29.430  1.00  0.00    +0.000 C 
ATOM     77  C54 UNL A   1      27.472 -12.390  28.330  1.00  0.00    +0.000 C 
ATOM     78  C55 UNL A   1      28.494 -13.123  28.799  1.00  0.00    +0.000 C 
ATOM     79  C56 UNL A   1      28.334 -13.301  30.244  1.00  0.00    +0.000 C 
ATOM     80  N6  UNL A   1      27.169 -12.635  30.532  1.00  0.00    +0.000 N 
ATOM     81  C57 UNL A   1      23.338 -10.390  30.380  1.00  0.00    +0.000 C 
ATOM     82  C58 UNL A   1      22.905 -10.288  31.628  1.00  0.00    +0.000 C 
ATOM     83  C59 UNL A   1      29.288 -14.872  34.508  1.00  0.00    +0.000 C 
ATOM     84  C60 UNL A   1      29.867 -14.858  33.316  1.00  0.00    +0.000 C 
ATOM    119  H31 UNL A   1      25.415 -13.035  37.637  1.00  0.00    +0.000 H 
ATOM    120  H32 UNL A   1      23.400 -11.658  36.720  1.00  0.00    +0.000 H 
ATOM    121  H33 UNL A   1      25.901 -12.574  33.549  1.00  0.00    +0.000 H 
ATOM    122  H34 UNL A   1      27.347 -12.096  27.349  1.00  0.00    +0.000 H 
ATOM    123  H35 UNL A   1      29.270 -13.501  28.232  1.00  0.00    +0.000 H 
ATOM    124  H36 UNL A   1      26.799 -12.565  31.441  1.00  0.00    +0.000 H 
ATOM    125  H37 UNL A   1      22.913 -10.029  29.512  1.00  0.00    +0.000 H 
ATOM    126  H38 UNL A   1      22.061  -9.766  31.910  1.00  0.00    +0.000 H 
ATOM    127  H39 UNL A   1      29.665 -15.360  35.335  1.00  0.00    +0.000 H 
ATOM    128  H40 UNL A   1      30.774 -15.259  33.029  1.00  0.00    +0.000 H 
ENDROOT
BRANCH   28   27
ATOM    129  H41 UNL A   1      29.386 -16.487  30.100  1.00  0.00    +0.000 H 
ATOM    130  H42 UNL A   1      31.346 -17.616  29.227  1.00  0.00    +0.000 H 
ATOM     27  C22 UNL A   1      30.369 -14.648  30.459  1.00  0.00    +0.000 C 
ATOM    117  H29 UNL A   1      33.583 -14.077  29.649  1.00  0.00    +0.000 H 
ATOM     86  C62 UNL A   1      31.397 -16.618  29.485  1.00  0.00    +0.000 C 
ATOM     85  C61 UNL A   1      30.282 -15.979  30.023  1.00  0.00    +0.000 C 
ATOM     24  C19 UNL A   1      32.584 -15.904  29.295  1.00  0.00    +0.000 C 
ATOM     25  C20 UNL A   1      32.692 -14.588  29.752  1.00  0.00    +0.000 C 
ATOM     26  C21 UNL A   1      31.593 -13.968  30.347  1.00  0.00    +0.000 C 
ATOM    118  H30 UNL A   1      31.678 -13.004  30.705  1.00  0.00    +0.000 H 
BRANCH   24   22
ATOM     22  C18 UNL A   1      33.748 -16.521  28.625  1.00  0.00    +0.000 C 
ATOM     23  O2  UNL A   1      34.605 -17.092  29.294  1.00  0.00    +0.000 O 
BRANCH   22   21
ATOM    116  H28 UNL A   1      34.777 -16.645  26.912  1.00  0.00    +0.000 H 
ATOM     21  N2  UNL A   1      33.884 -16.427  27.263  1.00  0.00    +0.000 N 
BRANCH   21   20
ATOM    114  H26 UNL A   1      33.099 -16.591  25.364  1.00  0.00    +0.000 H 
ATOM    115  H27 UNL A   1      31.931 -16.289  26.660  1.00  0.00    +0.000 H 
ATOM     20  C17 UNL A   1      32.898 -16.051  26.266  1.00  0.00    +0.000 C 
BRANCH   20   19
ATOM    113  H25 UNL A   1      32.280 -14.098  26.684  1.00  0.00    +0.000 H 
ATOM     19  C16 UNL A   1      32.913 -14.558  25.955  1.00  0.00    +0.000 C 
ATOM    112  H24 UNL A   1      32.574 -14.426  24.949  1.00  0.00    +0.000 H 
BRANCH   19   18
ATOM     18  C15 UNL A   1      34.278 -13.879  26.088  1.00  0.00    +0.000 C 
ATOM    110  H22 UNL A   1      34.940 -14.564  26.578  1.00  0.00    +0.000 H 
ATOM    111  H23 UNL A   1      34.579 -13.627  25.094  1.00  0.00    +0.000 H 
BRANCH   18   17
ATOM     17  C14 UNL A   1      34.288 -12.566  26.878  1.00  0.00    +0.000 C 
ATOM    108  H20 UNL A   1      33.301 -12.154  26.844  1.00  0.00    +0.000 H 
ATOM    109  H21 UNL A   1      34.616 -12.819  27.864  1.00  0.00    +0.000 H 
BRANCH   17   16
ATOM    106  H18 UNL A   1      34.835 -10.537  26.559  1.00  0.00    +0.000 H 
ATOM    107  H19 UNL A   1      36.186 -11.655  26.889  1.00  0.00    +0.000 H 
ATOM     16  C13 UNL A   1      35.263 -11.499  26.369  1.00  0.00    +0.000 C 
BRANCH   16   15
ATOM    105  H17 UNL A   1      35.674 -12.627  24.621  1.00  0.00    +0.000 H 
ATOM     15  C12 UNL A   1      35.580 -11.593  24.881  1.00  0.00    +0.000 C 
ATOM    104  H16 UNL A   1      36.493 -11.068  24.685  1.00  0.00    +0.000 H 
BRANCH   15   14
ATOM     14  N1  UNL A   1      34.521 -11.013  24.074  1.00  0.00    +0.000 N 
ATOM    103  H15 UNL A   1      33.934 -11.658  23.618  1.00  0.00    +0.000 H 
BRANCH   14   12
ATOM     12  C11 UNL A   1      34.223  -9.697  23.859  1.00  0.00    +0.000 C 
ATOM     13  O1  UNL A   1      35.084  -9.005  23.307  1.00  0.00    +0.000 O 
BRANCH   12    9
ATOM      9  C9  UNL A   1      32.865  -9.109  24.233  1.00  0.00    +0.000 C 
ATOM    100  H12 UNL A   1      32.934  -8.049  24.358  1.00  0.00    +0.000 H 
BRANCH    9    8
ATOM     98  H10 UNL A   1      30.331 -11.582  27.285  1.00  0.00    +0.000 H 
ATOM     99  H11 UNL A   1      31.030 -10.982  25.053  1.00  0.00    +0.000 H 
ATOM    132  H44 UNL A   1      33.002  -8.760  28.874  1.00  0.00    +0.000 H 
ATOM      5  C5  UNL A   1      31.628 -10.239  28.265  1.00  0.00    +0.000 C 
ATOM      6  C6  UNL A   1      31.050 -10.854  27.153  1.00  0.00    +0.000 C 
ATOM      7  C7  UNL A   1      31.438 -10.488  25.861  1.00  0.00    +0.000 C 
ATOM    131  H43 UNL A   1      33.641  -8.103  26.639  1.00  0.00    +0.000 H 
ATOM      8  C8  UNL A   1      32.372  -9.460  25.638  1.00  0.00    +0.000 C 
ATOM     87  C63 UNL A   1      32.939  -8.848  26.767  1.00  0.00    +0.000 C 
ATOM     88  C64 UNL A   1      32.571  -9.230  28.061  1.00  0.00    +0.000 C 
BRANCH    5    4
ATOM     97  H9  UNL A   1      32.229 -10.804  30.194  1.00  0.00    +0.000 H 
ATOM      4  C4  UNL A   1      31.307 -10.728  29.657  1.00  0.00    +0.000 C 
ATOM     96  H8  UNL A   1      30.815 -11.676  29.581  1.00  0.00    +0.000 H 
BRANCH    4    2
ATOM      2  C2  UNL A   1      30.392  -9.757  30.432  1.00  0.00    +0.000 C 
ATOM     92  H4  UNL A   1      29.966 -10.303  31.247  1.00  0.00    +0.000 H 
BRANCH    2    1
ATOM      1  C1  UNL A   1      31.170  -8.576  31.019  1.00  0.00    +0.000 C 
ATOM     90  H2  UNL A   1      31.854  -8.933  31.762  1.00  0.00    +0.000 H 
ATOM     91  H3  UNL A   1      30.485  -7.886  31.468  1.00  0.00    +0.000 H 
ATOM     89  H1  UNL A   1      31.714  -8.083  30.241  1.00  0.00    +0.000 H 
ENDBRANCH    2    1
BRANCH    2    3
ATOM      3  C3  UNL A   1      29.280  -9.241  29.518  1.00  0.00    +0.000 C 
ATOM     93  H5  UNL A   1      29.520  -8.251  29.188  1.00  0.00    +0.000 H 
ATOM     94  H6  UNL A   1      28.356  -9.222  30.056  1.00  0.00    +0.000 H 
ATOM     95  H7  UNL A   1      29.186  -9.886  28.670  1.00  0.00    +0.000 H 
ENDBRANCH    2    3
ENDBRANCH    4    2
ENDBRANCH    5    4
ENDBRANCH    9    8
BRANCH    9   10
ATOM     10  C10 UNL A   1      31.917  -9.377  23.059  1.00  0.00    +0.000 C 
ATOM     11  F1  UNL A   1      32.616  -9.688  21.934  1.00  0.00    +0.000 F 
ATOM    101  H13 UNL A   1      31.329  -8.502  22.876  1.00  0.00    +0.000 H 
ATOM    102  H14 UNL A   1      31.287 -10.204  23.311  1.00  0.00    +0.000 H 
ENDBRANCH    9   10
ENDBRANCH   12    9
ENDBRANCH   14   12
ENDBRANCH   15   14
ENDBRANCH   16   15
ENDBRANCH   17   16
ENDBRANCH   18   17
ENDBRANCH   19   18
ENDBRANCH   20   19
ENDBRANCH   21   20
ENDBRANCH   22   21
ENDBRANCH   24   22
ENDBRANCH   28   27
BRANCH   32   33
ATOM     33  C27 UNL A   1      27.782 -14.411  36.907  1.00  0.00    +0.000 C 
ATOM     34  C28 UNL A   1      28.772 -13.754  37.652  1.00  0.00    +0.000 C 
ATOM     35  F2  UNL A   1      29.359 -12.649  37.166  1.00  0.00    +0.000 F 
ATOM     36  C29 UNL A   1      29.183 -14.244  38.888  1.00  0.00    +0.000 C 
ATOM     37  F3  UNL A   1      30.154 -13.618  39.566  1.00  0.00    +0.000 F 
ATOM     38  C30 UNL A   1      28.592 -15.382  39.416  1.00  0.00    +0.000 C 
ATOM     39  F4  UNL A   1      28.979 -15.845  40.613  1.00  0.00    +0.000 F 
ATOM     40  C31 UNL A   1      27.603 -16.043  38.701  1.00  0.00    +0.000 C 
ATOM     41  F5  UNL A   1      27.024 -17.136  39.216  1.00  0.00    +0.000 F 
ATOM     42  C32 UNL A   1      27.208 -15.569  37.453  1.00  0.00    +0.000 C 
ATOM     43  F6  UNL A   1      26.256 -16.233  36.782  1.00  0.00    +0.000 F 
ENDBRANCH   32   33
BRANCH   49   50
ATOM     50  C38 UNL A   1      22.334 -10.407  34.427  1.00  0.00    +0.000 C 
ATOM     51  C39 UNL A   1      21.050 -10.964  34.342  1.00  0.00    +0.000 C 
ATOM     52  F7  UNL A   1      20.862 -12.134  33.714  1.00  0.00    +0.000 F 
ATOM     53  C40 UNL A   1      19.947 -10.298  34.870  1.00  0.00    +0.000 C 
ATOM     54  F8  UNL A   1      18.723 -10.827  34.737  1.00  0.00    +0.000 F 
ATOM     55  C41 UNL A   1      20.111  -9.084  35.518  1.00  0.00    +0.000 C 
ATOM     56  F9  UNL A   1      19.048  -8.447  36.030  1.00  0.00    +0.000 F 
ATOM     57  C42 UNL A   1      21.375  -8.524  35.630  1.00  0.00    +0.000 C 
ATOM     58  F10 UNL A   1      21.536  -7.356  36.267  1.00  0.00    +0.000 F 
ATOM     59  C43 UNL A   1      22.476  -9.173  35.079  1.00  0.00    +0.000 C 
ATOM     60  F11 UNL A   1      23.685  -8.602  35.191  1.00  0.00    +0.000 F 
ENDBRANCH   49   50
BRANCH   64   65
ATOM     65  C47 UNL A   1      24.960 -10.882  28.002  1.00  0.00    +0.000 C 
ATOM     66  C48 UNL A   1      24.016 -11.585  27.240  1.00  0.00    +0.000 C 
ATOM     67  F12 UNL A   1      23.498 -12.730  27.707  1.00  0.00    +0.000 F 
ATOM     68  C49 UNL A   1      23.645 -11.146  25.970  1.00  0.00    +0.000 C 
ATOM     69  F13 UNL A   1      22.786 -11.870  25.239  1.00  0.00    +0.000 F 
ATOM     70  C50 UNL A   1      24.182  -9.977  25.454  1.00  0.00    +0.000 C 
ATOM     71  F14 UNL A   1      23.831  -9.559  24.231  1.00  0.00    +0.000 F 
ATOM     72  C51 UNL A   1      25.095  -9.249  26.203  1.00  0.00    +0.000 C 
ATOM     73  F15 UNL A   1      25.608  -8.112  25.712  1.00  0.00    +0.000 F 
ATOM     74  C52 UNL A   1      25.490  -9.703  27.459  1.00  0.00    +0.000 C 
ATOM     75  F16 UNL A   1      26.392  -8.991  28.151  1.00  0.00    +0.000 F 
ENDBRANCH   64   65
TORSDOF 21
ENDMDL
MODEL 10
REMARK VINA RESULT:      -8.1     28.924     34.408
ROOT
ATOM     28  C23 UNL A   1      25.067  37.208  45.891  1.00  0.00    +0.000 C 
ATOM     29  C24 UNL A   1      24.957  38.493  46.663  1.00  0.00    +0.000 C 
ATOM     30  N3  UNL A   1      25.897  39.346  46.990  1.00  0.00    +0.000 N 
ATOM     31  C25 UNL A   1      25.254  40.370  47.673  1.00  0.00    +0.000 C 
ATOM     32  C26 UNL A   1      25.799  41.456  48.273  1.00  0.00    +0.000 C 
ATOM     44  C33 UNL A   1      27.207  41.752  48.294  1.00  0.00    +0.000 C 
ATOM     45  C34 UNL A   1      27.856  42.818  48.891  1.00  0.00    +0.000 C 
ATOM     46  C35 UNL A   1      29.226  42.697  48.632  1.00  0.00    +0.000 C 
ATOM     47  C36 UNL A   1      29.432  41.534  47.908  1.00  0.00    +0.000 C 
ATOM     48  N4  UNL A   1      28.184  40.970  47.698  1.00  0.00    +0.000 N 
ATOM     49  C37 UNL A   1      30.675  40.979  47.442  1.00  0.00    +0.000 C 
ATOM     61  C44 UNL A   1      30.794  39.840  46.718  1.00  0.00    +0.000 C 
ATOM     62  N5  UNL A   1      29.802  38.968  46.293  1.00  0.00    +0.000 N 
ATOM     63  C45 UNL A   1      30.416  38.027  45.617  1.00  0.00    +0.000 C 
ATOM     64  C46 UNL A   1      29.843  36.801  44.956  1.00  0.00    +0.000 C 
ATOM     76  C53 UNL A   1      28.519  36.569  45.039  1.00  0.00    +0.000 C 
ATOM     77  C54 UNL A   1      27.820  35.428  44.456  1.00  0.00    +0.000 C 
ATOM     78  C55 UNL A   1      26.505  35.553  44.692  1.00  0.00    +0.000 C 
ATOM     79  C56 UNL A   1      26.271  36.768  45.476  1.00  0.00    +0.000 C 
ATOM     80  N6  UNL A   1      27.525  37.299  45.645  1.00  0.00    +0.000 N 
ATOM     81  C57 UNL A   1      31.870  38.220  45.507  1.00  0.00    +0.000 C 
ATOM     82  C58 UNL A   1      32.052  39.312  46.235  1.00  0.00    +0.000 C 
ATOM     83  C59 UNL A   1      23.841  40.062  47.669  1.00  0.00    +0.000 C 
ATOM     84  C60 UNL A   1      23.611  38.883  47.109  1.00  0.00    +0.000 C 
ATOM    119  H31 UNL A   1      27.408  43.573  49.432  1.00  0.00    +0.000 H 
ATOM    120  H32 UNL A   1      29.957  43.361  48.929  1.00  0.00    +0.000 H 
ATOM    121  H33 UNL A   1      28.017  40.138  47.200  1.00  0.00    +0.000 H 
ATOM    122  H34 UNL A   1      28.266  34.650  43.945  1.00  0.00    +0.000 H 
ATOM    123  H35 UNL A   1      25.774  34.898  44.372  1.00  0.00    +0.000 H 
ATOM    124  H36 UNL A   1      27.697  38.125  46.152  1.00  0.00    +0.000 H 
ATOM    125  H37 UNL A   1      32.565  37.653  44.998  1.00  0.00    +0.000 H 
ATOM    126  H38 UNL A   1      32.974  39.733  46.432  1.00  0.00    +0.000 H 
ATOM    127  H39 UNL A   1      23.108  40.680  48.051  1.00  0.00    +0.000 H 
ATOM    128  H40 UNL A   1      22.719  38.372  47.011  1.00  0.00    +0.000 H 
ENDROOT
BRANCH   28   27
ATOM    129  H41 UNL A   1      23.489  37.508  43.745  1.00  0.00    +0.000 H 
ATOM    130  H42 UNL A   1      21.439  36.336  43.197  1.00  0.00    +0.000 H 
ATOM     27  C22 UNL A   1      23.843  36.445  45.540  1.00  0.00    +0.000 C 
ATOM    117  H29 UNL A   1      21.904  33.912  46.605  1.00  0.00    +0.000 H 
ATOM     86  C62 UNL A   1      21.987  36.059  44.027  1.00  0.00    +0.000 C 
ATOM     85  C61 UNL A   1      23.144  36.757  44.364  1.00  0.00    +0.000 C 
ATOM     24  C19 UNL A   1      21.569  34.982  44.815  1.00  0.00    +0.000 C 
ATOM     25  C20 UNL A   1      22.239  34.681  46.003  1.00  0.00    +0.000 C 
ATOM     26  C21 UNL A   1      23.364  35.420  46.372  1.00  0.00    +0.000 C 
ATOM    118  H30 UNL A   1      23.846  35.213  47.260  1.00  0.00    +0.000 H 
BRANCH   24   22
ATOM     22  C18 UNL A   1      20.410  34.152  44.423  1.00  0.00    +0.000 C 
ATOM     23  O2  UNL A   1      19.270  34.577  44.593  1.00  0.00    +0.000 O 
BRANCH   22   21
ATOM    116  H28 UNL A   1      20.849  32.874  42.946  1.00  0.00    +0.000 H 
ATOM     21  N2  UNL A   1      20.610  32.900  43.901  1.00  0.00    +0.000 N 
BRANCH   21   20
ATOM    114  H26 UNL A   1      21.091  30.897  43.992  1.00  0.00    +0.000 H 
ATOM    115  H27 UNL A   1      20.904  31.719  45.549  1.00  0.00    +0.000 H 
ATOM     20  C17 UNL A   1      20.521  31.606  44.555  1.00  0.00    +0.000 C 
BRANCH   20   19
ATOM    113  H25 UNL A   1      18.627  31.685  45.439  1.00  0.00    +0.000 H 
ATOM     19  C16 UNL A   1      19.086  31.101  44.668  1.00  0.00    +0.000 C 
ATOM    112  H24 UNL A   1      19.120  30.055  44.886  1.00  0.00    +0.000 H 
BRANCH   19   18
ATOM     18  C15 UNL A   1      18.226  31.298  43.418  1.00  0.00    +0.000 C 
ATOM    110  H22 UNL A   1      17.680  32.212  43.534  1.00  0.00    +0.000 H 
ATOM    111  H23 UNL A   1      18.905  31.304  42.592  1.00  0.00    +0.000 H 
BRANCH   18   17
ATOM     17  C14 UNL A   1      17.219  30.181  43.127  1.00  0.00    +0.000 C 
ATOM    108  H20 UNL A   1      16.269  30.483  43.518  1.00  0.00    +0.000 H 
ATOM    109  H21 UNL A   1      17.224  30.049  42.065  1.00  0.00    +0.000 H 
BRANCH   17   16
ATOM    106  H18 UNL A   1      18.022  28.219  42.961  1.00  0.00    +0.000 H 
ATOM    107  H19 UNL A   1      18.211  28.996  44.555  1.00  0.00    +0.000 H 
ATOM     16  C13 UNL A   1      17.562  28.812  43.725  1.00  0.00    +0.000 C 
BRANCH   16   15
ATOM    105  H17 UNL A   1      15.800  28.700  44.898  1.00  0.00    +0.000 H 
ATOM     15  C12 UNL A   1      16.365  28.043  44.269  1.00  0.00    +0.000 C 
ATOM    104  H16 UNL A   1      16.716  27.196  44.822  1.00  0.00    +0.000 H 
BRANCH   15   14
ATOM     14  N1  UNL A   1      15.499  27.580  43.198  1.00  0.00    +0.000 N 
ATOM    103  H15 UNL A   1      15.063  28.288  42.670  1.00  0.00    +0.000 H 
BRANCH   14   12
ATOM     12  C11 UNL A   1      15.205  26.301  42.818  1.00  0.00    +0.000 C 
ATOM     13  O1  UNL A   1      15.644  25.388  43.523  1.00  0.00    +0.000 O 
BRANCH   12    9
ATOM      9  C9  UNL A   1      14.326  26.005  41.607  1.00  0.00    +0.000 C 
ATOM    100  H12 UNL A   1      13.365  26.459  41.717  1.00  0.00    +0.000 H 
BRANCH    9    8
ATOM     98  H10 UNL A   1      14.670  21.626  40.007  1.00  0.00    +0.000 H 
ATOM     99  H11 UNL A   1      15.360  23.936  40.122  1.00  0.00    +0.000 H 
ATOM    132  H44 UNL A   1      11.653  22.392  42.823  1.00  0.00    +0.000 H 
ATOM      5  C5  UNL A   1      13.121  21.811  41.425  1.00  0.00    +0.000 C 
ATOM      6  C6  UNL A   1      14.172  22.277  40.633  1.00  0.00    +0.000 C 
ATOM      7  C7  UNL A   1      14.554  23.621  40.683  1.00  0.00    +0.000 C 
ATOM    131  H43 UNL A   1      12.291  24.721  42.877  1.00  0.00    +0.000 H 
ATOM      8  C8  UNL A   1      13.865  24.552  41.481  1.00  0.00    +0.000 C 
ATOM     87  C63 UNL A   1      12.807  24.068  42.267  1.00  0.00    +0.000 C 
ATOM     88  C64 UNL A   1      12.438  22.719  42.237  1.00  0.00    +0.000 C 
BRANCH    5    4
ATOM     97  H9  UNL A   1      12.206  20.163  42.344  1.00  0.00    +0.000 H 
ATOM      4  C4  UNL A   1      12.798  20.338  41.471  1.00  0.00    +0.000 C 
ATOM     96  H8  UNL A   1      13.716  19.787  41.499  1.00  0.00    +0.000 H 
BRANCH    4    2
ATOM      2  C2  UNL A   1      11.979  19.871  40.249  1.00  0.00    +0.000 C 
ATOM     92  H4  UNL A   1      11.516  20.738  39.826  1.00  0.00    +0.000 H 
BRANCH    2    1
ATOM      1  C1  UNL A   1      12.863  19.242  39.167  1.00  0.00    +0.000 C 
ATOM     90  H2  UNL A   1      12.482  18.273  38.915  1.00  0.00    +0.000 H 
ATOM     91  H3  UNL A   1      13.863  19.146  39.536  1.00  0.00    +0.000 H 
ATOM     89  H1  UNL A   1      12.860  19.864  38.297  1.00  0.00    +0.000 H 
ENDBRANCH    2    1
BRANCH    2    3
ATOM      3  C3  UNL A   1      10.906  18.873  40.686  1.00  0.00    +0.000 C 
ATOM     93  H5  UNL A   1      10.688  19.016  41.725  1.00  0.00    +0.000 H 
ATOM     94  H6  UNL A   1      11.262  17.876  40.531  1.00  0.00    +0.000 H 
ATOM     95  H7  UNL A   1      10.018  19.028  40.111  1.00  0.00    +0.000 H 
ENDBRANCH    2    3
ENDBRANCH    4    2
ENDBRANCH    5    4
ENDBRANCH    9    8
BRANCH    9   10
ATOM     10  C10 UNL A   1      15.004  26.643  40.389  1.00  0.00    +0.000 C 
ATOM     11  F1  UNL A   1      14.321  26.353  39.249  1.00  0.00    +0.000 F 
ATOM    101  H13 UNL A   1      16.002  26.266  40.306  1.00  0.00    +0.000 H 
ATOM    102  H14 UNL A   1      15.017  27.704  40.522  1.00  0.00    +0.000 H 
ENDBRANCH    9   10
ENDBRANCH   12    9
ENDBRANCH   14   12
ENDBRANCH   15   14
ENDBRANCH   16   15
ENDBRANCH   17   16
ENDBRANCH   18   17
ENDBRANCH   19   18
ENDBRANCH   20   19
ENDBRANCH   21   20
ENDBRANCH   22   21
ENDBRANCH   24   22
ENDBRANCH   28   27
BRANCH   32   33
ATOM     33  C27 UNL A   1      24.869  42.399  48.977  1.00  0.00    +0.000 C 
ATOM     34  C28 UNL A   1      24.476  42.177  50.305  1.00  0.00    +0.000 C 
ATOM     35  F2  UNL A   1      24.875  41.070  50.950  1.00  0.00    +0.000 F 
ATOM     36  C29 UNL A   1      23.647  43.077  50.967  1.00  0.00    +0.000 C 
ATOM     37  F3  UNL A   1      23.256  42.827  52.225  1.00  0.00    +0.000 F 
ATOM     38  C30 UNL A   1      23.220  44.231  50.326  1.00  0.00    +0.000 C 
ATOM     39  F4  UNL A   1      22.434  45.104  50.970  1.00  0.00    +0.000 F 
ATOM     40  C31 UNL A   1      23.606  44.477  49.016  1.00  0.00    +0.000 C 
ATOM     41  F5  UNL A   1      23.204  45.597  48.401  1.00  0.00    +0.000 F 
ATOM     42  C32 UNL A   1      24.414  43.565  48.343  1.00  0.00    +0.000 C 
ATOM     43  F6  UNL A   1      24.764  43.826  47.075  1.00  0.00    +0.000 F 
ENDBRANCH   32   33
BRANCH   49   50
ATOM     50  C38 UNL A   1      31.940  41.703  47.797  1.00  0.00    +0.000 C 
ATOM     51  C39 UNL A   1      32.520  42.640  46.930  1.00  0.00    +0.000 C 
ATOM     52  F7  UNL A   1      31.974  42.874  45.727  1.00  0.00    +0.000 F 
ATOM     53  C40 UNL A   1      33.688  43.311  47.283  1.00  0.00    +0.000 C 
ATOM     54  F8  UNL A   1      34.250  44.168  46.420  1.00  0.00    +0.000 F 
ATOM     55  C41 UNL A   1      34.276  43.083  48.517  1.00  0.00    +0.000 C 
ATOM     56  F9  UNL A   1      35.398  43.734  48.857  1.00  0.00    +0.000 F 
ATOM     57  C42 UNL A   1      33.708  42.175  49.398  1.00  0.00    +0.000 C 
ATOM     58  F10 UNL A   1      34.270  41.962  50.596  1.00  0.00    +0.000 F 
ATOM     59  C43 UNL A   1      32.556  41.482  49.038  1.00  0.00    +0.000 C 
ATOM     60  F11 UNL A   1      32.036  40.599  49.905  1.00  0.00    +0.000 F 
ENDBRANCH   49   50
BRANCH   64   65
ATOM     65  C47 UNL A   1      30.730  35.850  44.237  1.00  0.00    +0.000 C 
ATOM     66  C48 UNL A   1      30.989  36.005  42.868  1.00  0.00    +0.000 C 
ATOM     67  F12 UNL A   1      30.445  37.029  42.196  1.00  0.00    +0.000 F 
ATOM     68  C49 UNL A   1      31.761  35.076  42.172  1.00  0.00    +0.000 C 
ATOM     69  F13 UNL A   1      31.943  35.216  40.852  1.00  0.00    +0.000 F 
ATOM     70  C50 UNL A   1      32.318  33.996  42.839  1.00  0.00    +0.000 C 
ATOM     71  F14 UNL A   1      33.054  33.099  42.167  1.00  0.00    +0.000 F 
ATOM     72  C51 UNL A   1      32.100  33.838  44.199  1.00  0.00    +0.000 C 
ATOM     73  F15 UNL A   1      32.646  32.802  44.849  1.00  0.00    +0.000 F 
ATOM     74  C52 UNL A   1      31.304  34.749  44.890  1.00  0.00    +0.000 C 
ATOM     75  F16 UNL A   1      31.090  34.559  46.201  1.00  0.00    +0.000 F 
ENDBRANCH   64   65
TORSDOF 21
ENDMDL
