MODEL 1
REMARK VINA RESULT:      -6.2      0.000      0.000
ROOT
ATOM    142  H40 UNL A   1      13.387  46.642   3.070  1.00  0.00    +0.000 H 
ATOM    143  H41 UNL A   1      15.054  46.637   1.066  1.00  0.00    +0.000 H 
ATOM    144  H42 UNL A   1      14.970  50.450   2.679  1.00  0.00    +0.000 H 
ATOM    145  H43 UNL A   1      16.749  56.575   2.448  1.00  0.00    +0.000 H 
ATOM    146  H44 UNL A   1      15.170  56.560   4.438  1.00  0.00    +0.000 H 
ATOM    147  H45 UNL A   1      15.294  52.706   2.885  1.00  0.00    +0.000 H 
ATOM    148  H46 UNL A   1      18.571  52.856  -0.925  1.00  0.00    +0.000 H 
ATOM    149  H47 UNL A   1      18.003  50.395  -1.341  1.00  0.00    +0.000 H 
ATOM    150  H48 UNL A   1      11.955  50.350   6.683  1.00  0.00    +0.000 H 
ATOM    151  H49 UNL A   1      12.133  52.900   6.828  1.00  0.00    +0.000 H 
ATOM     38  C31 UNL A   1      13.977  54.026   4.970  1.00  0.00    +0.000 C 
ATOM     39  C32 UNL A   1      13.538  52.593   5.074  1.00  0.00    +0.000 C 
ATOM     40  N4  UNL A   1      13.894  51.562   4.348  1.00  0.00    +0.000 N 
ATOM     41  C33 UNL A   1      13.231  50.470   4.892  1.00  0.00    +0.000 C 
ATOM     42  C34 UNL A   1      13.223  49.185   4.460  1.00  0.00    +0.000 C 
ATOM     54  C41 UNL A   1      13.939  48.715   3.303  1.00  0.00    +0.000 C 
ATOM     55  C42 UNL A   1      13.941  47.449   2.743  1.00  0.00    +0.000 C 
ATOM     56  C43 UNL A   1      14.823  47.452   1.657  1.00  0.00    +0.000 C 
ATOM     57  C44 UNL A   1      15.335  48.730   1.510  1.00  0.00    +0.000 C 
ATOM     58  N5  UNL A   1      14.786  49.494   2.528  1.00  0.00    +0.000 N 
ATOM     59  C45 UNL A   1      16.255  49.221   0.517  1.00  0.00    +0.000 C 
ATOM     71  C52 UNL A   1      16.697  50.500   0.428  1.00  0.00    +0.000 C 
ATOM     72  N6  UNL A   1      16.385  51.587   1.233  1.00  0.00    +0.000 N 
ATOM     73  C53 UNL A   1      17.072  52.596   0.756  1.00  0.00    +0.000 C 
ATOM     74  C54 UNL A   1      17.104  54.027   1.220  1.00  0.00    +0.000 C 
ATOM     86  C61 UNL A   1      16.327  54.399   2.255  1.00  0.00    +0.000 C 
ATOM     87  C62 UNL A   1      16.243  55.749   2.805  1.00  0.00    +0.000 C 
ATOM     88  C63 UNL A   1      15.400  55.743   3.850  1.00  0.00    +0.000 C 
ATOM     89  C64 UNL A   1      14.858  54.394   4.021  1.00  0.00    +0.000 C 
ATOM     90  N7  UNL A   1      15.464  53.665   3.029  1.00  0.00    +0.000 N 
ATOM     91  C65 UNL A   1      17.918  52.256  -0.397  1.00  0.00    +0.000 C 
ATOM     92  C66 UNL A   1      17.622  50.978  -0.579  1.00  0.00    +0.000 C 
ATOM     93  C67 UNL A   1      12.492  50.952   6.039  1.00  0.00    +0.000 C 
ATOM     94  C68 UNL A   1      12.595  52.268   6.155  1.00  0.00    +0.000 C 
ENDROOT
BRANCH   38   37
ATOM     34  C27 UNL A   1      12.662  56.998   7.766  1.00  0.00    +0.000 C 
ATOM     35  C28 UNL A   1      11.812  56.601   6.728  1.00  0.00    +0.000 C 
ATOM     36  C29 UNL A   1      12.223  55.608   5.835  1.00  0.00    +0.000 C 
ATOM     37  C30 UNL A   1      13.498  55.032   5.952  1.00  0.00    +0.000 C 
ATOM    140  H38 UNL A   1      10.885  57.039   6.622  1.00  0.00    +0.000 H 
ATOM    141  H39 UNL A   1      11.586  55.296   5.085  1.00  0.00    +0.000 H 
ATOM    152  H50 UNL A   1      15.273  55.010   7.101  1.00  0.00    +0.000 H 
ATOM    153  H51 UNL A   1      14.481  56.592   8.758  1.00  0.00    +0.000 H 
ATOM     95  C69 UNL A   1      14.331  55.422   7.011  1.00  0.00    +0.000 C 
ATOM     96  C70 UNL A   1      13.895  56.363   7.940  1.00  0.00    +0.000 C 
BRANCH   34   32
ATOM     33  O4  UNL A   1      11.675  57.749   9.756  1.00  0.00    +0.000 O 
ATOM     32  C26 UNL A   1      12.207  58.058   8.694  1.00  0.00    +0.000 C 
BRANCH   32   31
ATOM    139  H37 UNL A   1      11.746  60.004   8.798  1.00  0.00    +0.000 H 
ATOM     31  N3  UNL A   1      12.381  59.381   8.376  1.00  0.00    +0.000 N 
BRANCH   31   30
ATOM    137  H35 UNL A   1      13.499  61.019   7.795  1.00  0.00    +0.000 H 
ATOM    138  H36 UNL A   1      14.283  59.450   7.599  1.00  0.00    +0.000 H 
ATOM     30  C25 UNL A   1      13.369  59.998   7.503  1.00  0.00    +0.000 C 
BRANCH   30   29
ATOM     29  C24 UNL A   1      12.943  59.955   6.037  1.00  0.00    +0.000 C 
ATOM    135  H33 UNL A   1      12.005  59.445   5.977  1.00  0.00    +0.000 H 
ATOM    136  H34 UNL A   1      12.893  60.973   5.708  1.00  0.00    +0.000 H 
BRANCH   29   28
ATOM     28  C23 UNL A   1      13.931  59.249   5.101  1.00  0.00    +0.000 C 
ATOM    133  H31 UNL A   1      14.625  59.981   4.742  1.00  0.00    +0.000 H 
ATOM    134  H32 UNL A   1      14.381  58.474   5.682  1.00  0.00    +0.000 H 
BRANCH   28   27
ATOM     27  C22 UNL A   1      13.307  58.554   3.883  1.00  0.00    +0.000 C 
ATOM    132  H30 UNL A   1      13.349  57.504   4.087  1.00  0.00    +0.000 H 
ATOM    131  H29 UNL A   1      13.865  58.842   3.017  1.00  0.00    +0.000 H 
BRANCH   27   26
ATOM    129  H27 UNL A   1      11.394  59.194   4.556  1.00  0.00    +0.000 H 
ATOM     26  C21 UNL A   1      11.833  58.881   3.630  1.00  0.00    +0.000 C 
ATOM    130  H28 UNL A   1      11.807  59.647   2.884  1.00  0.00    +0.000 H 
BRANCH   26   25
ATOM     25  C20 UNL A   1      11.020  57.703   3.086  1.00  0.00    +0.000 C 
ATOM    127  H25 UNL A   1      11.248  56.830   3.661  1.00  0.00    +0.000 H 
ATOM    128  H26 UNL A   1       9.982  57.953   3.161  1.00  0.00    +0.000 H 
BRANCH   25   24
ATOM    126  H24 UNL A   1      11.210  58.218   1.102  1.00  0.00    +0.000 H 
ATOM     24  N2  UNL A   1      11.320  57.439   1.694  1.00  0.00    +0.000 N 
BRANCH   24   22
ATOM     22  C19 UNL A   1      11.727  56.306   1.060  1.00  0.00    +0.000 C 
ATOM     23  O3  UNL A   1      10.843  55.484   0.789  1.00  0.00    +0.000 O 
BRANCH   22   20
ATOM    122  H20 UNL A   1      13.623  55.620   1.606  1.00  0.00    +0.000 H 
ATOM     20  C17 UNL A   1      13.191  56.000   0.704  1.00  0.00    +0.000 C 
BRANCH   20   19
ATOM     97  C71 UNL A   1      13.403  55.117  -1.655  1.00  0.00    +0.000 C 
ATOM     98  C72 UNL A   1      13.615  54.086  -2.592  1.00  0.00    +0.000 C 
ATOM     16  C13 UNL A   1      13.882  52.767  -2.177  1.00  0.00    +0.000 C 
ATOM     17  C14 UNL A   1      13.783  52.511  -0.799  1.00  0.00    +0.000 C 
ATOM     18  C15 UNL A   1      13.484  53.520   0.123  1.00  0.00    +0.000 C 
ATOM     19  C16 UNL A   1      13.356  54.850  -0.278  1.00  0.00    +0.000 C 
ATOM    120  H18 UNL A   1      13.935  51.550  -0.457  1.00  0.00    +0.000 H 
ATOM    121  H19 UNL A   1      13.355  53.275   1.117  1.00  0.00    +0.000 H 
ATOM    154  H52 UNL A   1      13.280  56.086  -1.987  1.00  0.00    +0.000 H 
BRANCH   16   15
ATOM    102  C73 UNL A   1      13.374  50.754  -3.595  1.00  0.00    +0.000 C 
ATOM     11  C8  UNL A   1      13.795  49.725  -4.440  1.00  0.00    +0.000 C 
ATOM     12  C9  UNL A   1      15.130  49.595  -4.810  1.00  0.00    +0.000 C 
ATOM     13  C10 UNL A   1      16.059  50.512  -4.331  1.00  0.00    +0.000 C 
ATOM     14  C11 UNL A   1      15.651  51.532  -3.465  1.00  0.00    +0.000 C 
ATOM     15  C12 UNL A   1      14.305  51.671  -3.077  1.00  0.00    +0.000 C 
ATOM    117  H15 UNL A   1      15.428  48.827  -5.432  1.00  0.00    +0.000 H 
ATOM    118  H16 UNL A   1      17.049  50.440  -4.614  1.00  0.00    +0.000 H 
ATOM    119  H17 UNL A   1      16.352  52.197  -3.103  1.00  0.00    +0.000 H 
ATOM    155  H53 UNL A   1      12.376  50.841  -3.351  1.00  0.00    +0.000 H 
BRANCH   11   10
ATOM     10  O2  UNL A   1      12.931  48.684  -4.825  1.00  0.00    +0.000 O 
BRANCH   10    8
ATOM      9  O1  UNL A   1      13.499  47.012  -6.339  1.00  0.00    +0.000 O 
ATOM      8  C7  UNL A   1      13.052  48.123  -6.087  1.00  0.00    +0.000 C 
BRANCH    8    7
ATOM    116  H14 UNL A   1      11.826  49.520  -6.860  1.00  0.00    +0.000 H 
ATOM      7  N1  UNL A   1      12.599  48.951  -7.079  1.00  0.00    +0.000 N 
BRANCH    7    6
ATOM    114  H12 UNL A   1      13.180  48.100  -8.864  1.00  0.00    +0.000 H 
ATOM    115  H13 UNL A   1      12.498  49.725  -8.975  1.00  0.00    +0.000 H 
ATOM      6  C6  UNL A   1      13.139  49.072  -8.419  1.00  0.00    +0.000 C 
BRANCH    6    5
ATOM    113  H11 UNL A   1      14.732  49.997  -7.418  1.00  0.00    +0.000 H 
ATOM      5  C5  UNL A   1      14.543  49.677  -8.421  1.00  0.00    +0.000 C 
ATOM    112  H10 UNL A   1      14.560  50.476  -9.131  1.00  0.00    +0.000 H 
BRANCH    5    4
ATOM      4  C4  UNL A   1      15.667  48.698  -8.779  1.00  0.00    +0.000 C 
ATOM    110  H8  UNL A   1      15.268  47.707  -8.735  1.00  0.00    +0.000 H 
ATOM    111  H9  UNL A   1      16.006  48.983  -9.753  1.00  0.00    +0.000 H 
BRANCH    4    3
ATOM      3  C3  UNL A   1      16.902  48.751  -7.873  1.00  0.00    +0.000 C 
ATOM    108  H6  UNL A   1      17.593  49.448  -8.296  1.00  0.00    +0.000 H 
ATOM    109  H7  UNL A   1      16.545  49.032  -6.904  1.00  0.00    +0.000 H 
BRANCH    3    2
ATOM      2  C2  UNL A   1      17.633  47.420  -7.681  1.00  0.00    +0.000 C 
ATOM    107  H5  UNL A   1      18.682  47.631  -7.680  1.00  0.00    +0.000 H 
ATOM    106  H4  UNL A   1      17.355  46.761  -8.477  1.00  0.00    +0.000 H 
BRANCH    2    1
ATOM      1  C1  UNL A   1      17.310  46.741  -6.358  1.00  0.00    +0.000 C 
ATOM    105  H3  UNL A   1      17.991  45.932  -6.197  1.00  0.00    +0.000 H 
ATOM    103  H1  UNL A   1      16.309  46.363  -6.387  1.00  0.00    +0.000 H 
ATOM    104  H2  UNL A   1      17.400  47.449  -5.562  1.00  0.00    +0.000 H 
ENDBRANCH    2    1
ENDBRANCH    3    2
ENDBRANCH    4    3
ENDBRANCH    5    4
ENDBRANCH    6    5
ENDBRANCH    7    6
ENDBRANCH    8    7
ENDBRANCH   10    8
ENDBRANCH   11   10
ENDBRANCH   16   15
BRANCH   98   99
ATOM     99  N8  UNL A   1      13.490  54.424  -3.993  1.00  0.00    +0.000 N 
ATOM    100  O5  UNL A   1      14.354  55.066  -4.555  1.00  0.00    +0.000 O 
ATOM    101  O6  UNL A   1      12.335  54.161  -4.689  1.00  0.00    +0.000 O 
ENDBRANCH   98   99
ENDBRANCH   20   19
BRANCH   20   21
ATOM    125  H23 UNL A   1      14.027  57.883   1.278  1.00  0.00    +0.000 H 
ATOM    123  H21 UNL A   1      13.657  57.756  -0.425  1.00  0.00    +0.000 H 
ATOM    124  H22 UNL A   1      15.054  56.937   0.229  1.00  0.00    +0.000 H 
ATOM     21  C18 UNL A   1      14.046  57.237   0.426  1.00  0.00    +0.000 C 
ENDBRANCH   20   21
ENDBRANCH   22   20
ENDBRANCH   24   22
ENDBRANCH   25   24
ENDBRANCH   26   25
ENDBRANCH   27   26
ENDBRANCH   28   27
ENDBRANCH   29   28
ENDBRANCH   30   29
ENDBRANCH   31   30
ENDBRANCH   32   31
ENDBRANCH   34   32
ENDBRANCH   38   37
BRANCH   42   43
ATOM     43  C35 UNL A   1      12.410  48.196   5.244  1.00  0.00    +0.000 C 
ATOM     44  C36 UNL A   1      11.080  47.902   4.906  1.00  0.00    +0.000 C 
ATOM     45  F1  UNL A   1      10.488  48.537   3.884  1.00  0.00    +0.000 F 
ATOM     46  C37 UNL A   1      10.339  46.984   5.645  1.00  0.00    +0.000 C 
ATOM     47  F2  UNL A   1       9.054  46.758   5.335  1.00  0.00    +0.000 F 
ATOM     48  C38 UNL A   1      10.920  46.316   6.711  1.00  0.00    +0.000 C 
ATOM     49  F3  UNL A   1      10.206  45.429   7.418  1.00  0.00    +0.000 F 
ATOM     50  C39 UNL A   1      12.241  46.571   7.048  1.00  0.00    +0.000 C 
ATOM     51  F4  UNL A   1      12.810  45.916   8.070  1.00  0.00    +0.000 F 
ATOM     52  C40 UNL A   1      12.977  47.511   6.330  1.00  0.00    +0.000 C 
ATOM     53  F5  UNL A   1      14.247  47.749   6.692  1.00  0.00    +0.000 F 
ENDBRANCH   42   43
BRANCH   59   60
ATOM     65  C49 UNL A   1      17.631  46.405  -2.442  1.00  0.00    +0.000 C 
ATOM     66  F8  UNL A   1      18.056  45.532  -3.366  1.00  0.00    +0.000 F 
ATOM     67  C50 UNL A   1      16.358  46.947  -2.533  1.00  0.00    +0.000 C 
ATOM     68  F9  UNL A   1      15.544  46.580  -3.532  1.00  0.00    +0.000 F 
ATOM     69  C51 UNL A   1      15.924  47.871  -1.587  1.00  0.00    +0.000 C 
ATOM     70  F10 UNL A   1      14.692  48.388  -1.708  1.00  0.00    +0.000 F 
ATOM     60  C46 UNL A   1      16.750  48.253  -0.519  1.00  0.00    +0.000 C 
ATOM     61  C47 UNL A   1      18.027  47.678  -0.436  1.00  0.00    +0.000 C 
ATOM     62  F6  UNL A   1      18.859  48.023   0.558  1.00  0.00    +0.000 F 
ATOM     63  C48 UNL A   1      18.468  46.775  -1.400  1.00  0.00    +0.000 C 
ATOM     64  F7  UNL A   1      19.709  46.275  -1.327  1.00  0.00    +0.000 F 
ENDBRANCH   59   60
BRANCH   74   75
ATOM     75  C55 UNL A   1      17.952  55.034   0.534  1.00  0.00    +0.000 C 
ATOM     76  C56 UNL A   1      19.135  55.498   1.126  1.00  0.00    +0.000 C 
ATOM     77  F11 UNL A   1      19.495  55.054   2.339  1.00  0.00    +0.000 F 
ATOM     78  C57 UNL A   1      19.934  56.446   0.489  1.00  0.00    +0.000 C 
ATOM     79  F12 UNL A   1      21.039  56.901   1.095  1.00  0.00    +0.000 F 
ATOM     80  C58 UNL A   1      19.580  56.927  -0.761  1.00  0.00    +0.000 C 
ATOM     81  F13 UNL A   1      20.352  57.833  -1.376  1.00  0.00    +0.000 F 
ATOM     82  C59 UNL A   1      18.422  56.471  -1.373  1.00  0.00    +0.000 C 
ATOM     83  F14 UNL A   1      18.085  56.923  -2.589  1.00  0.00    +0.000 F 
ATOM     84  C60 UNL A   1      17.608  55.544  -0.726  1.00  0.00    +0.000 C 
ATOM     85  F15 UNL A   1      16.489  55.126  -1.337  1.00  0.00    +0.000 F 
ENDBRANCH   74   75
TORSDOF 28
ENDMDL
MODEL 2
REMARK VINA RESULT:      -6.1      4.134     10.135
ROOT
ATOM    142  H40 UNL A   1      13.498  46.936   3.151  1.00  0.00    +0.000 H 
ATOM    143  H41 UNL A   1      15.120  46.941   1.110  1.00  0.00    +0.000 H 
ATOM    144  H42 UNL A   1      15.003  50.768   2.688  1.00  0.00    +0.000 H 
ATOM    145  H43 UNL A   1      16.665  56.921   2.359  1.00  0.00    +0.000 H 
ATOM    146  H44 UNL A   1      15.131  56.897   4.384  1.00  0.00    +0.000 H 
ATOM    147  H45 UNL A   1      15.290  53.031   2.865  1.00  0.00    +0.000 H 
ATOM    148  H46 UNL A   1      18.477  53.202  -1.019  1.00  0.00    +0.000 H 
ATOM    149  H47 UNL A   1      17.945  50.728  -1.400  1.00  0.00    +0.000 H 
ATOM    150  H48 UNL A   1      12.081  50.652   6.760  1.00  0.00    +0.000 H 
ATOM    151  H49 UNL A   1      12.215  53.207   6.877  1.00  0.00    +0.000 H 
ATOM     38  C31 UNL A   1      13.997  54.348   4.967  1.00  0.00    +0.000 C 
ATOM     39  C32 UNL A   1      13.586  52.908   5.095  1.00  0.00    +0.000 C 
ATOM     40  N4  UNL A   1      13.944  51.876   4.370  1.00  0.00    +0.000 N 
ATOM     41  C33 UNL A   1      13.314  50.778   4.939  1.00  0.00    +0.000 C 
ATOM     42  C34 UNL A   1      13.319  49.489   4.520  1.00  0.00    +0.000 C 
ATOM     54  C41 UNL A   1      14.018  49.020   3.351  1.00  0.00    +0.000 C 
ATOM     55  C42 UNL A   1      14.030  47.750   2.804  1.00  0.00    +0.000 C 
ATOM     56  C43 UNL A   1      14.888  47.757   1.698  1.00  0.00    +0.000 C 
ATOM     57  C44 UNL A   1      15.372  49.043   1.527  1.00  0.00    +0.000 C 
ATOM     58  N5  UNL A   1      14.833  49.808   2.550  1.00  0.00    +0.000 N 
ATOM     59  C45 UNL A   1      16.261  49.541   0.509  1.00  0.00    +0.000 C 
ATOM     71  C52 UNL A   1      16.677  50.826   0.398  1.00  0.00    +0.000 C 
ATOM     72  N6  UNL A   1      16.364  51.916   1.200  1.00  0.00    +0.000 N 
ATOM     73  C53 UNL A   1      17.022  52.933   0.697  1.00  0.00    +0.000 C 
ATOM     74  C54 UNL A   1      17.037  54.368   1.147  1.00  0.00    +0.000 C 
ATOM     86  C61 UNL A   1      16.277  54.737   2.196  1.00  0.00    +0.000 C 
ATOM     87  C62 UNL A   1      16.181  56.090   2.735  1.00  0.00    +0.000 C 
ATOM     88  C63 UNL A   1      15.363  56.079   3.799  1.00  0.00    +0.000 C 
ATOM     89  C64 UNL A   1      14.850  54.722   3.995  1.00  0.00    +0.000 C 
ATOM     90  N7  UNL A   1      15.445  53.994   2.996  1.00  0.00    +0.000 N 
ATOM     91  C65 UNL A   1      17.848  52.596  -0.471  1.00  0.00    +0.000 C 
ATOM     92  C66 UNL A   1      17.571  51.311  -0.634  1.00  0.00    +0.000 C 
ATOM     93  C67 UNL A   1      12.592  51.258   6.098  1.00  0.00    +0.000 C 
ATOM     94  C68 UNL A   1      12.674  52.577   6.200  1.00  0.00    +0.000 C 
ENDROOT
BRANCH   38   37
ATOM     34  C27 UNL A   1      12.701  57.317   7.774  1.00  0.00    +0.000 C 
ATOM     35  C28 UNL A   1      11.910  57.030   6.657  1.00  0.00    +0.000 C 
ATOM     36  C29 UNL A   1      12.311  56.039   5.758  1.00  0.00    +0.000 C 
ATOM     37  C30 UNL A   1      13.522  55.354   5.950  1.00  0.00    +0.000 C 
ATOM    140  H38 UNL A   1      11.033  57.548   6.497  1.00  0.00    +0.000 H 
ATOM    141  H39 UNL A   1      11.714  55.809   4.948  1.00  0.00    +0.000 H 
ATOM    152  H50 UNL A   1      15.189  55.143   7.233  1.00  0.00    +0.000 H 
ATOM    153  H51 UNL A   1      14.394  56.725   8.888  1.00  0.00    +0.000 H 
ATOM     95  C69 UNL A   1      14.294  55.635   7.087  1.00  0.00    +0.000 C 
ATOM     96  C70 UNL A   1      13.860  56.576   8.018  1.00  0.00    +0.000 C 
BRANCH   34   32
ATOM     33  O4  UNL A   1      11.684  58.071   9.748  1.00  0.00    +0.000 O 
ATOM     32  C26 UNL A   1      12.259  58.378   8.708  1.00  0.00    +0.000 C 
BRANCH   32   31
ATOM    139  H37 UNL A   1      11.760  60.166   7.957  1.00  0.00    +0.000 H 
ATOM     31  N3  UNL A   1      12.492  59.699   8.419  1.00  0.00    +0.000 N 
BRANCH   31   30
ATOM    137  H35 UNL A   1      14.394  59.906   9.201  1.00  0.00    +0.000 H 
ATOM    138  H36 UNL A   1      14.049  60.870   7.763  1.00  0.00    +0.000 H 
ATOM     30  C25 UNL A   1      13.669  60.510   8.697  1.00  0.00    +0.000 C 
BRANCH   30   29
ATOM     29  C24 UNL A   1      13.339  61.717   9.571  1.00  0.00    +0.000 C 
ATOM    135  H33 UNL A   1      14.163  62.398   9.522  1.00  0.00    +0.000 H 
ATOM    136  H34 UNL A   1      12.428  62.127   9.186  1.00  0.00    +0.000 H 
BRANCH   29   28
ATOM     28  C23 UNL A   1      13.075  61.392  11.045  1.00  0.00    +0.000 C 
ATOM    133  H31 UNL A   1      13.511  60.437  11.254  1.00  0.00    +0.000 H 
ATOM    134  H32 UNL A   1      13.505  62.195  11.604  1.00  0.00    +0.000 H 
BRANCH   28   27
ATOM     27  C22 UNL A   1      11.597  61.336  11.457  1.00  0.00    +0.000 C 
ATOM    132  H30 UNL A   1      11.086  60.830  10.664  1.00  0.00    +0.000 H 
ATOM    131  H29 UNL A   1      11.259  62.340  11.610  1.00  0.00    +0.000 H 
BRANCH   27   26
ATOM    129  H27 UNL A   1      10.354  60.059  12.618  1.00  0.00    +0.000 H 
ATOM     26  C21 UNL A   1      11.306  60.537  12.731  1.00  0.00    +0.000 C 
ATOM    130  H28 UNL A   1      12.106  59.836  12.848  1.00  0.00    +0.000 H 
BRANCH   26   25
ATOM     25  C20 UNL A   1      11.271  61.388  14.003  1.00  0.00    +0.000 C 
ATOM    127  H25 UNL A   1      12.052  62.117  13.954  1.00  0.00    +0.000 H 
ATOM    128  H26 UNL A   1      10.310  61.856  14.063  1.00  0.00    +0.000 H 
BRANCH   25   24
ATOM    126  H24 UNL A   1      12.313  60.729  15.651  1.00  0.00    +0.000 H 
ATOM     24  N2  UNL A   1      11.454  60.584  15.193  1.00  0.00    +0.000 N 
BRANCH   24   22
ATOM     22  C19 UNL A   1      10.649  59.663  15.792  1.00  0.00    +0.000 C 
ATOM     23  O3  UNL A   1       9.433  59.817  15.634  1.00  0.00    +0.000 O 
BRANCH   22   20
ATOM    122  H20 UNL A   1      10.432  58.369  17.417  1.00  0.00    +0.000 H 
ATOM     20  C17 UNL A   1      11.168  58.498  16.651  1.00  0.00    +0.000 C 
BRANCH   20   19
ATOM     97  C71 UNL A   1      10.617  56.033  16.564  1.00  0.00    +0.000 C 
ATOM     98  C72 UNL A   1      10.543  54.788  15.907  1.00  0.00    +0.000 C 
ATOM     16  C13 UNL A   1      10.933  54.650  14.561  1.00  0.00    +0.000 C 
ATOM     17  C14 UNL A   1      11.526  55.774  13.962  1.00  0.00    +0.000 C 
ATOM     18  C15 UNL A   1      11.680  56.985  14.645  1.00  0.00    +0.000 C 
ATOM     19  C16 UNL A   1      11.168  57.158  15.931  1.00  0.00    +0.000 C 
ATOM    120  H18 UNL A   1      11.859  55.704  12.988  1.00  0.00    +0.000 H 
ATOM    121  H19 UNL A   1      12.181  57.764  14.190  1.00  0.00    +0.000 H 
ATOM    154  H52 UNL A   1      10.258  56.119  17.528  1.00  0.00    +0.000 H 
BRANCH   16   15
ATOM    102  C73 UNL A   1      11.624  52.370  13.757  1.00  0.00    +0.000 C 
ATOM     11  C8  UNL A   1      11.397  51.238  12.972  1.00  0.00    +0.000 C 
ATOM     12  C9  UNL A   1      10.259  51.125  12.180  1.00  0.00    +0.000 C 
ATOM     13  C10 UNL A   1       9.330  52.160  12.176  1.00  0.00    +0.000 C 
ATOM     14  C11 UNL A   1       9.561  53.308  12.940  1.00  0.00    +0.000 C 
ATOM     15  C12 UNL A   1      10.711  53.439  13.741  1.00  0.00    +0.000 C 
ATOM    117  H15 UNL A   1      10.106  50.284  11.602  1.00  0.00    +0.000 H 
ATOM    118  H16 UNL A   1       8.471  52.080  11.609  1.00  0.00    +0.000 H 
ATOM    119  H17 UNL A   1       8.872  54.076  12.916  1.00  0.00    +0.000 H 
ATOM    155  H53 UNL A   1      12.466  52.423  14.351  1.00  0.00    +0.000 H 
BRANCH   11   10
ATOM     10  O2  UNL A   1      12.373  50.238  12.818  1.00  0.00    +0.000 O 
BRANCH   10    8
ATOM      9  O1  UNL A   1      12.696  49.937  10.534  1.00  0.00    +0.000 O 
ATOM      8  C7  UNL A   1      13.124  50.185  11.654  1.00  0.00    +0.000 C 
BRANCH    8    7
ATOM    116  H14 UNL A   1      15.088  50.057  11.234  1.00  0.00    +0.000 H 
ATOM      7  N1  UNL A   1      14.449  50.457  11.865  1.00  0.00    +0.000 N 
BRANCH    7    6
ATOM    114  H12 UNL A   1      14.268  51.396  13.692  1.00  0.00    +0.000 H 
ATOM    115  H13 UNL A   1      15.877  50.777  13.302  1.00  0.00    +0.000 H 
ATOM      6  C6  UNL A   1      15.006  51.274  12.925  1.00  0.00    +0.000 C 
BRANCH    6    5
ATOM    113  H11 UNL A   1      15.818  52.509  11.438  1.00  0.00    +0.000 H 
ATOM      5  C5  UNL A   1      15.432  52.655  12.426  1.00  0.00    +0.000 C 
ATOM    112  H10 UNL A   1      16.153  53.048  13.110  1.00  0.00    +0.000 H 
BRANCH    5    4
ATOM      4  C4  UNL A   1      14.294  53.674  12.296  1.00  0.00    +0.000 C 
ATOM    110  H8  UNL A   1      13.425  53.259  12.759  1.00  0.00    +0.000 H 
ATOM    111  H9  UNL A   1      14.646  54.569  12.764  1.00  0.00    +0.000 H 
BRANCH    4    3
ATOM      3  C3  UNL A   1      13.922  54.069  10.863  1.00  0.00    +0.000 C 
ATOM    108  H6  UNL A   1      14.552  54.882  10.569  1.00  0.00    +0.000 H 
ATOM    109  H7  UNL A   1      14.051  53.187  10.271  1.00  0.00    +0.000 H 
BRANCH    3    2
ATOM      2  C2  UNL A   1      12.468  54.503  10.657  1.00  0.00    +0.000 C 
ATOM    107  H5  UNL A   1      12.486  55.504  10.281  1.00  0.00    +0.000 H 
ATOM    106  H4  UNL A   1      11.957  54.433  11.595  1.00  0.00    +0.000 H 
BRANCH    2    1
ATOM      1  C1  UNL A   1      11.724  53.652   9.639  1.00  0.00    +0.000 C 
ATOM    105  H3  UNL A   1      11.020  54.261   9.112  1.00  0.00    +0.000 H 
ATOM    103  H1  UNL A   1      11.206  52.863  10.143  1.00  0.00    +0.000 H 
ATOM    104  H2  UNL A   1      12.423  53.232   8.946  1.00  0.00    +0.000 H 
ENDBRANCH    2    1
ENDBRANCH    3    2
ENDBRANCH    4    3
ENDBRANCH    5    4
ENDBRANCH    6    5
ENDBRANCH    7    6
ENDBRANCH    8    7
ENDBRANCH   10    8
ENDBRANCH   11   10
ENDBRANCH   16   15
BRANCH   98   99
ATOM     99  N8  UNL A   1      10.109  53.650  16.686  1.00  0.00    +0.000 N 
ATOM    100  O5  UNL A   1      10.911  52.981  17.307  1.00  0.00    +0.000 O 
ATOM    101  O6  UNL A   1       8.810  53.203  16.634  1.00  0.00    +0.000 O 
ENDBRANCH   98   99
ENDBRANCH   20   19
BRANCH   20   21
ATOM    125  H23 UNL A   1      12.947  57.910  17.681  1.00  0.00    +0.000 H 
ATOM    123  H21 UNL A   1      12.155  59.309  18.367  1.00  0.00    +0.000 H 
ATOM    124  H22 UNL A   1      13.064  59.460  16.882  1.00  0.00    +0.000 H 
ATOM     21  C18 UNL A   1      12.428  58.818  17.456  1.00  0.00    +0.000 C 
ENDBRANCH   20   21
ENDBRANCH   22   20
ENDBRANCH   24   22
ENDBRANCH   25   24
ENDBRANCH   26   25
ENDBRANCH   27   26
ENDBRANCH   28   27
ENDBRANCH   29   28
ENDBRANCH   30   29
ENDBRANCH   31   30
ENDBRANCH   32   31
ENDBRANCH   34   32
ENDBRANCH   38   37
BRANCH   42   43
ATOM     43  C35 UNL A   1      12.543  48.493   5.332  1.00  0.00    +0.000 C 
ATOM     44  C36 UNL A   1      11.193  48.217   5.065  1.00  0.00    +0.000 C 
ATOM     45  F1  UNL A   1      10.550  48.876   4.089  1.00  0.00    +0.000 F 
ATOM     46  C37 UNL A   1      10.485  47.293   5.828  1.00  0.00    +0.000 C 
ATOM     47  F2  UNL A   1       9.183  47.084   5.588  1.00  0.00    +0.000 F 
ATOM     48  C38 UNL A   1      11.120  46.600   6.848  1.00  0.00    +0.000 C 
ATOM     49  F3  UNL A   1      10.438  45.708   7.579  1.00  0.00    +0.000 F 
ATOM     50  C39 UNL A   1      12.460  46.838   7.113  1.00  0.00    +0.000 C 
ATOM     51  F4  UNL A   1      13.079  46.159   8.090  1.00  0.00    +0.000 F 
ATOM     52  C40 UNL A   1      13.163  47.784   6.371  1.00  0.00    +0.000 C 
ATOM     53  F5  UNL A   1      14.454  48.003   6.665  1.00  0.00    +0.000 F 
ENDBRANCH   42   43
BRANCH   59   60
ATOM     65  C49 UNL A   1      17.712  46.794  -2.479  1.00  0.00    +0.000 C 
ATOM     66  F8  UNL A   1      18.166  45.937  -3.405  1.00  0.00    +0.000 F 
ATOM     67  C50 UNL A   1      18.484  47.085  -1.365  1.00  0.00    +0.000 C 
ATOM     68  F9  UNL A   1      19.693  46.526  -1.224  1.00  0.00    +0.000 F 
ATOM     69  C51 UNL A   1      18.004  47.957  -0.392  1.00  0.00    +0.000 C 
ATOM     70  F10 UNL A   1      18.767  48.209   0.682  1.00  0.00    +0.000 F 
ATOM     60  C46 UNL A   1      16.750  48.571  -0.529  1.00  0.00    +0.000 C 
ATOM     61  C47 UNL A   1      15.994  48.278  -1.674  1.00  0.00    +0.000 C 
ATOM     62  F6  UNL A   1      14.782  48.828  -1.842  1.00  0.00    +0.000 F 
ATOM     63  C48 UNL A   1      16.465  47.383  -2.631  1.00  0.00    +0.000 C 
ATOM     64  F7  UNL A   1      15.706  47.081  -3.692  1.00  0.00    +0.000 F 
ENDBRANCH   59   60
BRANCH   74   75
ATOM     75  C55 UNL A   1      17.852  55.384   0.432  1.00  0.00    +0.000 C 
ATOM     76  C56 UNL A   1      19.101  55.782   0.930  1.00  0.00    +0.000 C 
ATOM     77  F11 UNL A   1      19.557  55.265   2.081  1.00  0.00    +0.000 F 
ATOM     78  C57 UNL A   1      19.868  56.737   0.267  1.00  0.00    +0.000 C 
ATOM     79  F12 UNL A   1      21.040  57.128   0.786  1.00  0.00    +0.000 F 
ATOM     80  C58 UNL A   1      19.415  57.291  -0.919  1.00  0.00    +0.000 C 
ATOM     81  F13 UNL A   1      20.156  58.205  -1.561  1.00  0.00    +0.000 F 
ATOM     82  C59 UNL A   1      18.190  56.902  -1.439  1.00  0.00    +0.000 C 
ATOM     83  F14 UNL A   1      17.755  57.425  -2.594  1.00  0.00    +0.000 F 
ATOM     84  C60 UNL A   1      17.409  55.967  -0.763  1.00  0.00    +0.000 C 
ATOM     85  F15 UNL A   1      16.224  55.614  -1.284  1.00  0.00    +0.000 F 
ENDBRANCH   74   75
TORSDOF 28
ENDMDL
MODEL 3
REMARK VINA RESULT:      -6.1     46.332     52.694
ROOT
ATOM    142  H40 UNL A   1      11.407   9.463  29.342  1.00  0.00    +0.000 H 
ATOM    143  H41 UNL A   1      12.347   7.095  29.896  1.00  0.00    +0.000 H 
ATOM    144  H42 UNL A   1       9.048   6.642  27.434  1.00  0.00    +0.000 H 
ATOM    145  H43 UNL A   1       4.835   2.849  24.504  1.00  0.00    +0.000 H 
ATOM    146  H44 UNL A   1       3.960   5.160  23.917  1.00  0.00    +0.000 H 
ATOM    147  H45 UNL A   1       7.313   5.645  26.325  1.00  0.00    +0.000 H 
ATOM    148  H46 UNL A   1       9.022   1.011  27.264  1.00  0.00    +0.000 H 
ATOM    149  H47 UNL A   1      10.804   2.106  28.739  1.00  0.00    +0.000 H 
ATOM    150  H48 UNL A   1       7.433  11.221  26.185  1.00  0.00    +0.000 H 
ATOM    151  H49 UNL A   1       5.372  10.153  25.104  1.00  0.00    +0.000 H 
ATOM     38  C31 UNL A   1       5.449   7.305  25.062  1.00  0.00    +0.000 C 
ATOM     39  C32 UNL A   1       6.422   8.240  25.723  1.00  0.00    +0.000 C 
ATOM     40  N4  UNL A   1       7.498   7.962  26.417  1.00  0.00    +0.000 N 
ATOM     41  C33 UNL A   1       8.054   9.187  26.759  1.00  0.00    +0.000 C 
ATOM     42  C34 UNL A   1       9.142   9.436  27.526  1.00  0.00    +0.000 C 
ATOM     54  C41 UNL A   1       9.948   8.416  28.146  1.00  0.00    +0.000 C 
ATOM     55  C42 UNL A   1      11.029   8.567  28.996  1.00  0.00    +0.000 C 
ATOM     56  C43 UNL A   1      11.523   7.295  29.306  1.00  0.00    +0.000 C 
ATOM     57  C44 UNL A   1      10.721   6.350  28.689  1.00  0.00    +0.000 C 
ATOM     58  N5  UNL A   1       9.760   7.052  27.978  1.00  0.00    +0.000 N 
ATOM     59  C45 UNL A   1      10.820   4.914  28.742  1.00  0.00    +0.000 C 
ATOM     71  C52 UNL A   1       9.979   4.051  28.121  1.00  0.00    +0.000 C 
ATOM     72  N6  UNL A   1       8.877   4.330  27.324  1.00  0.00    +0.000 N 
ATOM     73  C53 UNL A   1       8.403   3.168  26.946  1.00  0.00    +0.000 C 
ATOM     74  C54 UNL A   1       7.202   2.865  26.092  1.00  0.00    +0.000 C 
ATOM     86  C61 UNL A   1       6.449   3.883  25.632  1.00  0.00    +0.000 C 
ATOM     87  C62 UNL A   1       5.254   3.743  24.806  1.00  0.00    +0.000 C 
ATOM     88  C63 UNL A   1       4.785   4.964  24.505  1.00  0.00    +0.000 C 
ATOM     89  C64 UNL A   1       5.630   5.973  25.145  1.00  0.00    +0.000 C 
ATOM     90  N7  UNL A   1       6.591   5.238  25.794  1.00  0.00    +0.000 N 
ATOM     91  C65 UNL A   1       9.168   2.016  27.444  1.00  0.00    +0.000 C 
ATOM     92  C66 UNL A   1      10.092   2.609  28.185  1.00  0.00    +0.000 C 
ATOM     93  C67 UNL A   1       7.226  10.210  26.156  1.00  0.00    +0.000 C 
ATOM     94  C68 UNL A   1       6.168   9.679  25.561  1.00  0.00    +0.000 C 
ENDROOT
BRANCH   38   37
ATOM     34  C27 UNL A   1       2.181   8.753  22.695  1.00  0.00    +0.000 C 
ATOM     35  C28 UNL A   1       2.041   8.660  24.083  1.00  0.00    +0.000 C 
ATOM     36  C29 UNL A   1       3.115   8.221  24.862  1.00  0.00    +0.000 C 
ATOM     37  C30 UNL A   1       4.322   7.839  24.256  1.00  0.00    +0.000 C 
ATOM    140  H38 UNL A   1       1.148   8.915  24.531  1.00  0.00    +0.000 H 
ATOM    141  H39 UNL A   1       3.020   8.178  25.889  1.00  0.00    +0.000 H 
ATOM    152  H50 UNL A   1       5.338   7.674  22.409  1.00  0.00    +0.000 H 
ATOM    153  H51 UNL A   1       3.540   8.617  21.084  1.00  0.00    +0.000 H 
ATOM     95  C69 UNL A   1       4.457   7.959  22.865  1.00  0.00    +0.000 C 
ATOM     96  C70 UNL A   1       3.410   8.460  22.096  1.00  0.00    +0.000 C 
BRANCH   34   32
ATOM     33  O4  UNL A   1      -0.043   8.614  21.967  1.00  0.00    +0.000 O 
ATOM     32  C26 UNL A   1       1.026   9.212  21.890  1.00  0.00    +0.000 C 
BRANCH   32   31
ATOM    139  H37 UNL A   1       1.608  10.140  20.214  1.00  0.00    +0.000 H 
ATOM     31  N3  UNL A   1       1.142  10.303  21.066  1.00  0.00    +0.000 N 
BRANCH   31   30
ATOM    137  H35 UNL A   1       1.425  12.343  20.912  1.00  0.00    +0.000 H 
ATOM    138  H36 UNL A   1      -0.240  11.787  20.732  1.00  0.00    +0.000 H 
ATOM     30  C25 UNL A   1       0.678  11.667  21.270  1.00  0.00    +0.000 C 
BRANCH   30   29
ATOM     29  C24 UNL A   1       0.405  11.965  22.742  1.00  0.00    +0.000 C 
ATOM    135  H33 UNL A   1      -0.322  12.748  22.794  1.00  0.00    +0.000 H 
ATOM    136  H34 UNL A   1       0.070  11.047  23.178  1.00  0.00    +0.000 H 
BRANCH   29   28
ATOM     28  C23 UNL A   1       1.634  12.402  23.548  1.00  0.00    +0.000 C 
ATOM    133  H31 UNL A   1       1.363  13.266  24.119  1.00  0.00    +0.000 H 
ATOM    134  H32 UNL A   1       1.908  11.558  24.143  1.00  0.00    +0.000 H 
BRANCH   28   27
ATOM     27  C22 UNL A   1       2.878  12.754  22.720  1.00  0.00    +0.000 C 
ATOM    132  H30 UNL A   1       3.075  13.790  22.905  1.00  0.00    +0.000 H 
ATOM    131  H29 UNL A   1       2.664  12.537  21.694  1.00  0.00    +0.000 H 
BRANCH   27   26
ATOM    129  H27 UNL A   1       4.230  11.998  24.177  1.00  0.00    +0.000 H 
ATOM     26  C21 UNL A   1       4.154  12.001  23.110  1.00  0.00    +0.000 C 
ATOM    130  H28 UNL A   1       4.070  11.016  22.700  1.00  0.00    +0.000 H 
BRANCH   26   25
ATOM     25  C20 UNL A   1       5.435  12.613  22.537  1.00  0.00    +0.000 C 
ATOM    127  H25 UNL A   1       5.201  13.115  21.621  1.00  0.00    +0.000 H 
ATOM    128  H26 UNL A   1       5.829  13.297  23.261  1.00  0.00    +0.000 H 
BRANCH   25   24
ATOM    126  H24 UNL A   1       6.131  10.859  21.716  1.00  0.00    +0.000 H 
ATOM     24  N2  UNL A   1       6.442  11.606  22.275  1.00  0.00    +0.000 N 
BRANCH   24   22
ATOM     22  C19 UNL A   1       7.743  11.510  22.665  1.00  0.00    +0.000 C 
ATOM     23  O3  UNL A   1       8.080  12.219  23.621  1.00  0.00    +0.000 O 
BRANCH   22   20
ATOM    122  H20 UNL A   1       9.622  10.599  22.637  1.00  0.00    +0.000 H 
ATOM     20  C17 UNL A   1       8.783  10.613  21.974  1.00  0.00    +0.000 C 
BRANCH   20   19
ATOM     97  C71 UNL A   1       7.822   8.649  20.705  1.00  0.00    +0.000 C 
ATOM     98  C72 UNL A   1       7.486   7.286  20.572  1.00  0.00    +0.000 C 
ATOM     16  C13 UNL A   1       7.778   6.361  21.592  1.00  0.00    +0.000 C 
ATOM     17  C14 UNL A   1       8.284   6.889  22.792  1.00  0.00    +0.000 C 
ATOM     18  C15 UNL A   1       8.534   8.256  22.954  1.00  0.00    +0.000 C 
ATOM     19  C16 UNL A   1       8.373   9.150  21.895  1.00  0.00    +0.000 C 
ATOM    120  H18 UNL A   1       8.478   6.249  23.578  1.00  0.00    +0.000 H 
ATOM    121  H19 UNL A   1       8.842   8.609  23.873  1.00  0.00    +0.000 H 
ATOM    154  H52 UNL A   1       7.660   9.290  19.913  1.00  0.00    +0.000 H 
BRANCH   16   15
ATOM    102  C73 UNL A   1       8.767   4.053  21.459  1.00  0.00    +0.000 C 
ATOM     11  C8  UNL A   1       8.613   2.671  21.331  1.00  0.00    +0.000 C 
ATOM     12  C9  UNL A   1       7.353   2.090  21.229  1.00  0.00    +0.000 C 
ATOM     13  C10 UNL A   1       6.226   2.905  21.260  1.00  0.00    +0.000 C 
ATOM     14  C11 UNL A   1       6.370   4.292  21.363  1.00  0.00    +0.000 C 
ATOM     15  C12 UNL A   1       7.640   4.893  21.461  1.00  0.00    +0.000 C 
ATOM    117  H15 UNL A   1       7.255   1.068  21.131  1.00  0.00    +0.000 H 
ATOM    118  H16 UNL A   1       5.284   2.486  21.206  1.00  0.00    +0.000 H 
ATOM    119  H17 UNL A   1       5.528   4.888  21.369  1.00  0.00    +0.000 H 
ATOM    155  H53 UNL A   1       9.710   4.458  21.553  1.00  0.00    +0.000 H 
BRANCH   11   10
ATOM     10  O2  UNL A   1       9.715   1.819  21.137  1.00  0.00    +0.000 O 
BRANCH   10    8
ATOM      9  O1  UNL A   1      11.244   2.113  22.865  1.00  0.00    +0.000 O 
ATOM      8  C7  UNL A   1      10.946   2.156  21.679  1.00  0.00    +0.000 C 
BRANCH    8    7
ATOM    116  H14 UNL A   1      12.449   3.295  20.974  1.00  0.00    +0.000 H 
ATOM      7  N1  UNL A   1      11.851   2.552  20.731  1.00  0.00    +0.000 N 
BRANCH    7    6
ATOM    114  H12 UNL A   1      13.012   1.597  19.321  1.00  0.00    +0.000 H 
ATOM    115  H13 UNL A   1      11.287   1.218  19.279  1.00  0.00    +0.000 H 
ATOM      6  C6  UNL A   1      12.019   1.989  19.406  1.00  0.00    +0.000 C 
BRANCH    6    5
ATOM    113  H11 UNL A   1      12.022   2.537  17.382  1.00  0.00    +0.000 H 
ATOM      5  C5  UNL A   1      11.802   3.029  18.307  1.00  0.00    +0.000 C 
ATOM    112  H10 UNL A   1      12.442   3.862  18.506  1.00  0.00    +0.000 H 
BRANCH    5    4
ATOM      4  C4  UNL A   1      10.366   3.550  18.184  1.00  0.00    +0.000 C 
ATOM    110  H8  UNL A   1      10.064   3.912  19.144  1.00  0.00    +0.000 H 
ATOM    111  H9  UNL A   1      10.391   4.306  17.427  1.00  0.00    +0.000 H 
BRANCH    4    3
ATOM      3  C3  UNL A   1       9.328   2.524  17.718  1.00  0.00    +0.000 C 
ATOM    108  H6  UNL A   1       9.825   1.812  17.093  1.00  0.00    +0.000 H 
ATOM    109  H7  UNL A   1       8.912   2.100  18.608  1.00  0.00    +0.000 H 
BRANCH    3    2
ATOM      2  C2  UNL A   1       8.145   3.096  16.932  1.00  0.00    +0.000 C 
ATOM    107  H5  UNL A   1       8.065   2.534  16.026  1.00  0.00    +0.000 H 
ATOM    106  H4  UNL A   1       8.329   4.134  16.749  1.00  0.00    +0.000 H 
BRANCH    2    1
ATOM      1  C1  UNL A   1       6.817   2.964  17.663  1.00  0.00    +0.000 C 
ATOM    105  H3  UNL A   1       6.436   1.973  17.533  1.00  0.00    +0.000 H 
ATOM    103  H1  UNL A   1       6.119   3.669  17.263  1.00  0.00    +0.000 H 
ATOM    104  H2  UNL A   1       6.962   3.158  18.705  1.00  0.00    +0.000 H 
ENDBRANCH    2    1
ENDBRANCH    3    2
ENDBRANCH    4    3
ENDBRANCH    5    4
ENDBRANCH    6    5
ENDBRANCH    7    6
ENDBRANCH    8    7
ENDBRANCH   10    8
ENDBRANCH   11   10
ENDBRANCH   16   15
BRANCH   98   99
ATOM     99  N8  UNL A   1       6.779   6.890  19.375  1.00  0.00    +0.000 N 
ATOM    100  O5  UNL A   1       5.568   6.964  19.317  1.00  0.00    +0.000 O 
ATOM    101  O6  UNL A   1       7.433   6.285  18.328  1.00  0.00    +0.000 O 
ENDBRANCH   98   99
ENDBRANCH   20   19
BRANCH   20   21
ATOM    125  H23 UNL A   1       9.907  12.104  20.933  1.00  0.00    +0.000 H 
ATOM    123  H21 UNL A   1       8.594  11.422  20.003  1.00  0.00    +0.000 H 
ATOM    124  H22 UNL A   1      10.055  10.499  20.260  1.00  0.00    +0.000 H 
ATOM     21  C18 UNL A   1       9.379  11.204  20.697  1.00  0.00    +0.000 C 
ENDBRANCH   20   21
ENDBRANCH   22   20
ENDBRANCH   24   22
ENDBRANCH   25   24
ENDBRANCH   26   25
ENDBRANCH   27   26
ENDBRANCH   28   27
ENDBRANCH   29   28
ENDBRANCH   30   29
ENDBRANCH   31   30
ENDBRANCH   32   31
ENDBRANCH   34   32
ENDBRANCH   38   37
BRANCH   42   43
ATOM     43  C35 UNL A   1       9.526  10.872  27.738  1.00  0.00    +0.000 C 
ATOM     44  C36 UNL A   1      10.595  11.459  27.044  1.00  0.00    +0.000 C 
ATOM     45  F1  UNL A   1      11.330  10.728  26.194  1.00  0.00    +0.000 F 
ATOM     46  C37 UNL A   1      10.941  12.792  27.254  1.00  0.00    +0.000 C 
ATOM     47  F2  UNL A   1      11.999  13.316  26.618  1.00  0.00    +0.000 F 
ATOM     48  C38 UNL A   1      10.204  13.573  28.131  1.00  0.00    +0.000 C 
ATOM     49  F3  UNL A   1      10.535  14.856  28.327  1.00  0.00    +0.000 F 
ATOM     50  C39 UNL A   1       9.127  13.021  28.808  1.00  0.00    +0.000 C 
ATOM     51  F4  UNL A   1       8.405  13.779  29.646  1.00  0.00    +0.000 F 
ATOM     52  C40 UNL A   1       8.797  11.681  28.624  1.00  0.00    +0.000 C 
ATOM     53  F5  UNL A   1       7.761  11.173  29.308  1.00  0.00    +0.000 F 
ENDBRANCH   42   43
BRANCH   59   60
ATOM     65  C49 UNL A   1      14.000   3.257  31.134  1.00  0.00    +0.000 C 
ATOM     66  F8  UNL A   1      14.986   2.741  31.881  1.00  0.00    +0.000 F 
ATOM     67  C50 UNL A   1      12.898   3.839  31.743  1.00  0.00    +0.000 C 
ATOM     68  F9  UNL A   1      12.830   3.904  33.079  1.00  0.00    +0.000 F 
ATOM     69  C51 UNL A   1      11.864   4.355  30.968  1.00  0.00    +0.000 C 
ATOM     70  F10 UNL A   1      10.805   4.899  31.585  1.00  0.00    +0.000 F 
ATOM     60  C46 UNL A   1      11.925   4.318  29.567  1.00  0.00    +0.000 C 
ATOM     61  C47 UNL A   1      13.057   3.743  28.972  1.00  0.00    +0.000 C 
ATOM     62  F6  UNL A   1      13.154   3.670  27.635  1.00  0.00    +0.000 F 
ATOM     63  C48 UNL A   1      14.077   3.202  29.750  1.00  0.00    +0.000 C 
ATOM     64  F7  UNL A   1      15.127   2.615  29.161  1.00  0.00    +0.000 F 
ENDBRANCH   59   60
BRANCH   74   75
ATOM     75  C55 UNL A   1       6.821   1.465  25.779  1.00  0.00    +0.000 C 
ATOM     76  C56 UNL A   1       7.544   0.717  24.839  1.00  0.00    +0.000 C 
ATOM     77  F11 UNL A   1       8.575   1.277  24.190  1.00  0.00    +0.000 F 
ATOM     78  C57 UNL A   1       7.189  -0.596  24.538  1.00  0.00    +0.000 C 
ATOM     79  F12 UNL A   1       7.873  -1.275  23.607  1.00  0.00    +0.000 F 
ATOM     80  C58 UNL A   1       6.123  -1.195  25.190  1.00  0.00    +0.000 C 
ATOM     81  F13 UNL A   1       5.786  -2.461  24.906  1.00  0.00    +0.000 F 
ATOM     82  C59 UNL A   1       5.402  -0.481  26.135  1.00  0.00    +0.000 C 
ATOM     83  F14 UNL A   1       4.380  -1.062  26.778  1.00  0.00    +0.000 F 
ATOM     84  C60 UNL A   1       5.738   0.842  26.417  1.00  0.00    +0.000 C 
ATOM     85  F15 UNL A   1       5.020   1.513  27.329  1.00  0.00    +0.000 F 
ENDBRANCH   74   75
TORSDOF 28
ENDMDL
MODEL 4
REMARK VINA RESULT:      -5.9      2.740      5.375
ROOT
ATOM    142  H40 UNL A   1      15.173  47.347   4.124  1.00  0.00    +0.000 H 
ATOM    143  H41 UNL A   1      16.093  47.189   1.689  1.00  0.00    +0.000 H 
ATOM    144  H42 UNL A   1      15.836  51.190   2.727  1.00  0.00    +0.000 H 
ATOM    145  H43 UNL A   1      16.313  57.346   1.113  1.00  0.00    +0.000 H 
ATOM    146  H44 UNL A   1      15.474  57.492   3.506  1.00  0.00    +0.000 H 
ATOM    147  H45 UNL A   1      15.795  53.468   2.517  1.00  0.00    +0.000 H 
ATOM    148  H46 UNL A   1      17.615  53.338  -2.168  1.00  0.00    +0.000 H 
ATOM    149  H47 UNL A   1      17.399  50.791  -2.044  1.00  0.00    +0.000 H 
ATOM    150  H48 UNL A   1      14.312  51.437   7.496  1.00  0.00    +0.000 H 
ATOM    151  H49 UNL A   1      14.063  53.972   7.241  1.00  0.00    +0.000 H 
ATOM     38  C31 UNL A   1      14.989  54.967   4.737  1.00  0.00    +0.000 C 
ATOM     39  C32 UNL A   1      14.872  53.532   5.169  1.00  0.00    +0.000 C 
ATOM     40  N4  UNL A   1      15.160  52.440   4.504  1.00  0.00    +0.000 N 
ATOM     41  C33 UNL A   1      14.913  51.390   5.378  1.00  0.00    +0.000 C 
ATOM     42  C34 UNL A   1      15.000  50.058   5.145  1.00  0.00    +0.000 C 
ATOM     54  C41 UNL A   1      15.387  49.480   3.884  1.00  0.00    +0.000 C 
ATOM     55  C42 UNL A   1      15.440  48.145   3.526  1.00  0.00    +0.000 C 
ATOM     56  C43 UNL A   1      15.918  48.062   2.213  1.00  0.00    +0.000 C 
ATOM     57  C44 UNL A   1      16.117  49.346   1.736  1.00  0.00    +0.000 C 
ATOM     58  N5  UNL A   1      15.790  50.207   2.772  1.00  0.00    +0.000 N 
ATOM     59  C45 UNL A   1      16.571  49.761   0.434  1.00  0.00    +0.000 C 
ATOM     71  C52 UNL A   1      16.723  51.048   0.036  1.00  0.00    +0.000 C 
ATOM     72  N6  UNL A   1      16.491  52.215   0.751  1.00  0.00    +0.000 N 
ATOM     73  C53 UNL A   1      16.798  53.200  -0.059  1.00  0.00    +0.000 C 
ATOM     74  C54 UNL A   1      16.715  54.683   0.178  1.00  0.00    +0.000 C 
ATOM     86  C61 UNL A   1      16.251  55.136   1.358  1.00  0.00    +0.000 C 
ATOM     87  C62 UNL A   1      16.103  56.541   1.725  1.00  0.00    +0.000 C 
ATOM     88  C63 UNL A   1      15.650  56.619   2.986  1.00  0.00    +0.000 C 
ATOM     89  C64 UNL A   1      15.443  55.266   3.505  1.00  0.00    +0.000 C 
ATOM     90  N7  UNL A   1      15.825  54.451   2.469  1.00  0.00    +0.000 N 
ATOM     91  C65 UNL A   1      17.282  52.766  -1.376  1.00  0.00    +0.000 C 
ATOM     92  C66 UNL A   1      17.180  51.449  -1.279  1.00  0.00    +0.000 C 
ATOM     93  C67 UNL A   1      14.500  51.975   6.635  1.00  0.00    +0.000 C 
ATOM     94  C68 UNL A   1      14.395  53.293   6.539  1.00  0.00    +0.000 C 
ENDROOT
BRANCH   38   37
ATOM     34  C27 UNL A   1      14.116  58.205   7.407  1.00  0.00    +0.000 C 
ATOM     35  C28 UNL A   1      13.073  57.571   6.725  1.00  0.00    +0.000 C 
ATOM     36  C29 UNL A   1      13.349  56.493   5.880  1.00  0.00    +0.000 C 
ATOM     37  C30 UNL A   1      14.672  56.065   5.684  1.00  0.00    +0.000 C 
ATOM    140  H38 UNL A   1      12.103  57.898   6.845  1.00  0.00    +0.000 H 
ATOM    141  H39 UNL A   1      12.576  56.009   5.397  1.00  0.00    +0.000 H 
ATOM    152  H50 UNL A   1      16.683  56.392   6.249  1.00  0.00    +0.000 H 
ATOM    153  H51 UNL A   1      16.178  58.134   7.858  1.00  0.00    +0.000 H 
ATOM     95  C69 UNL A   1      15.706  56.695   6.392  1.00  0.00    +0.000 C 
ATOM     96  C70 UNL A   1      15.423  57.725   7.285  1.00  0.00    +0.000 C 
BRANCH   34   32
ATOM     33  O4  UNL A   1      14.656  60.203   8.509  1.00  0.00    +0.000 O 
ATOM     32  C26 UNL A   1      13.800  59.351   8.289  1.00  0.00    +0.000 C 
BRANCH   32   31
ATOM    139  H37 UNL A   1      12.325  58.775   9.514  1.00  0.00    +0.000 H 
ATOM     31  N3  UNL A   1      12.556  59.469   8.856  1.00  0.00    +0.000 N 
BRANCH   31   30
ATOM    137  H35 UNL A   1      10.593  60.099   8.985  1.00  0.00    +0.000 H 
ATOM    138  H36 UNL A   1      11.813  61.364   9.143  1.00  0.00    +0.000 H 
ATOM     30  C25 UNL A   1      11.528  60.472   8.624  1.00  0.00    +0.000 C 
BRANCH   30   29
ATOM     29  C24 UNL A   1      11.383  60.813   7.142  1.00  0.00    +0.000 C 
ATOM    135  H33 UNL A   1      11.479  61.873   7.033  1.00  0.00    +0.000 H 
ATOM    136  H34 UNL A   1      12.148  60.265   6.632  1.00  0.00    +0.000 H 
BRANCH   29   28
ATOM     28  C23 UNL A   1      10.054  60.385   6.511  1.00  0.00    +0.000 C 
ATOM    133  H31 UNL A   1       9.348  60.232   7.300  1.00  0.00    +0.000 H 
ATOM    134  H32 UNL A   1       9.785  61.169   5.836  1.00  0.00    +0.000 H 
BRANCH   28   27
ATOM     27  C22 UNL A   1      10.103  59.103   5.667  1.00  0.00    +0.000 C 
ATOM    132  H30 UNL A   1       9.615  58.347   6.247  1.00  0.00    +0.000 H 
ATOM    131  H29 UNL A   1      11.130  58.884   5.459  1.00  0.00    +0.000 H 
BRANCH   27   26
ATOM    129  H27 UNL A   1       9.104  58.173   4.036  1.00  0.00    +0.000 H 
ATOM     26  C21 UNL A   1       9.351  59.172   4.335  1.00  0.00    +0.000 C 
ATOM    130  H28 UNL A   1       8.485  59.779   4.497  1.00  0.00    +0.000 H 
BRANCH   26   25
ATOM     25  C20 UNL A   1      10.149  59.828   3.204  1.00  0.00    +0.000 C 
ATOM    127  H25 UNL A   1       9.479  60.396   2.592  1.00  0.00    +0.000 H 
ATOM    128  H26 UNL A   1      10.894  60.457   3.645  1.00  0.00    +0.000 H 
BRANCH   25   24
ATOM    126  H24 UNL A   1      10.241  58.420   1.705  1.00  0.00    +0.000 H 
ATOM     24  N2  UNL A   1      10.820  58.846   2.378  1.00  0.00    +0.000 N 
BRANCH   24   22
ATOM     22  C19 UNL A   1      12.108  58.408   2.365  1.00  0.00    +0.000 C 
ATOM     23  O3  UNL A   1      12.820  58.782   3.305  1.00  0.00    +0.000 O 
BRANCH   22   20
ATOM    122  H20 UNL A   1      13.754  57.493   1.462  1.00  0.00    +0.000 H 
ATOM     20  C17 UNL A   1      12.705  57.526   1.257  1.00  0.00    +0.000 C 
BRANCH   20   19
ATOM     97  C71 UNL A   1      12.105  55.327   0.163  1.00  0.00    +0.000 C 
ATOM     98  C72 UNL A   1      11.775  53.957   0.202  1.00  0.00    +0.000 C 
ATOM     16  C13 UNL A   1      11.705  53.259   1.422  1.00  0.00    +0.000 C 
ATOM     17  C14 UNL A   1      11.838  54.026   2.593  1.00  0.00    +0.000 C 
ATOM     18  C15 UNL A   1      12.078  55.403   2.553  1.00  0.00    +0.000 C 
ATOM     19  C16 UNL A   1      12.284  56.066   1.343  1.00  0.00    +0.000 C 
ATOM    120  H18 UNL A   1      11.757  53.559   3.509  1.00  0.00    +0.000 H 
ATOM    121  H19 UNL A   1      12.103  55.939   3.435  1.00  0.00    +0.000 H 
ATOM    154  H52 UNL A   1      12.218  55.795  -0.750  1.00  0.00    +0.000 H 
BRANCH   16   15
ATOM    102  C73 UNL A   1      10.307  51.205   1.810  1.00  0.00    +0.000 C 
ATOM     11  C8  UNL A   1      10.191  49.818   1.925  1.00  0.00    +0.000 C 
ATOM     12  C9  UNL A   1      11.293  48.985   1.757  1.00  0.00    +0.000 C 
ATOM     13  C10 UNL A   1      12.530  49.547   1.464  1.00  0.00    +0.000 C 
ATOM     14  C11 UNL A   1      12.662  50.936   1.371  1.00  0.00    +0.000 C 
ATOM     15  C12 UNL A   1      11.557  51.792   1.545  1.00  0.00    +0.000 C 
ATOM    117  H15 UNL A   1      11.193  47.962   1.849  1.00  0.00    +0.000 H 
ATOM    118  H16 UNL A   1      13.351  48.940   1.316  1.00  0.00    +0.000 H 
ATOM    119  H17 UNL A   1      13.588  51.343   1.169  1.00  0.00    +0.000 H 
ATOM    155  H53 UNL A   1       9.473  51.801   1.920  1.00  0.00    +0.000 H 
BRANCH   11   10
ATOM     10  O2  UNL A   1       9.005  49.211   2.373  1.00  0.00    +0.000 O 
BRANCH   10    8
ATOM      9  O1  UNL A   1       9.496  47.996   4.295  1.00  0.00    +0.000 O 
ATOM      8  C7  UNL A   1       8.870  48.870   3.710  1.00  0.00    +0.000 C 
BRANCH    8    7
ATOM    116  H14 UNL A   1       7.224  49.156   4.833  1.00  0.00    +0.000 H 
ATOM      7  N1  UNL A   1       7.941  49.637   4.360  1.00  0.00    +0.000 N 
BRANCH    7    6
ATOM    114  H12 UNL A   1       8.305  51.480   3.513  1.00  0.00    +0.000 H 
ATOM    115  H13 UNL A   1       6.885  51.384   4.559  1.00  0.00    +0.000 H 
ATOM      6  C6  UNL A   1       7.904  51.085   4.423  1.00  0.00    +0.000 C 
BRANCH    6    5
ATOM    113  H11 UNL A   1       8.569  50.945   6.407  1.00  0.00    +0.000 H 
ATOM      5  C5  UNL A   1       8.715  51.631   5.599  1.00  0.00    +0.000 C 
ATOM    112  H10 UNL A   1       8.365  52.619   5.813  1.00  0.00    +0.000 H 
BRANCH    5    4
ATOM      4  C4  UNL A   1      10.228  51.702   5.362  1.00  0.00    +0.000 C 
ATOM    110  H8  UNL A   1      10.674  50.847   5.823  1.00  0.00    +0.000 H 
ATOM    111  H9  UNL A   1      10.358  51.737   4.301  1.00  0.00    +0.000 H 
BRANCH    4    3
ATOM      3  C3  UNL A   1      10.924  52.952   5.912  1.00  0.00    +0.000 C 
ATOM    108  H6  UNL A   1      11.910  52.673   6.218  1.00  0.00    +0.000 H 
ATOM    109  H7  UNL A   1      10.906  53.671   5.121  1.00  0.00    +0.000 H 
BRANCH    3    2
ATOM      2  C2  UNL A   1      10.232  53.619   7.104  1.00  0.00    +0.000 C 
ATOM    107  H5  UNL A   1       9.781  52.841   7.685  1.00  0.00    +0.000 H 
ATOM    106  H4  UNL A   1       9.509  54.314   6.731  1.00  0.00    +0.000 H 
BRANCH    2    1
ATOM      1  C1  UNL A   1      11.193  54.364   8.017  1.00  0.00    +0.000 C 
ATOM    105  H3  UNL A   1      11.310  55.369   7.668  1.00  0.00    +0.000 H 
ATOM    103  H1  UNL A   1      12.143  53.873   8.013  1.00  0.00    +0.000 H 
ATOM    104  H2  UNL A   1      10.802  54.375   9.014  1.00  0.00    +0.000 H 
ENDBRANCH    2    1
ENDBRANCH    3    2
ENDBRANCH    4    3
ENDBRANCH    5    4
ENDBRANCH    6    5
ENDBRANCH    7    6
ENDBRANCH    8    7
ENDBRANCH   10    8
ENDBRANCH   11   10
ENDBRANCH   16   15
BRANCH   98   99
ATOM     99  N8  UNL A   1      11.454  53.315  -1.053  1.00  0.00    +0.000 N 
ATOM    100  O5  UNL A   1      12.322  52.787  -1.719  1.00  0.00    +0.000 O 
ATOM    101  O6  UNL A   1      10.196  53.406  -1.600  1.00  0.00    +0.000 O 
ENDBRANCH   98   99
ENDBRANCH   20   19
BRANCH   20   21
ATOM    125  H23 UNL A   1      11.762  58.718  -0.247  1.00  0.00    +0.000 H 
ATOM    123  H21 UNL A   1      12.681  57.371  -0.876  1.00  0.00    +0.000 H 
ATOM    124  H22 UNL A   1      13.508  58.787  -0.272  1.00  0.00    +0.000 H 
ATOM     21  C18 UNL A   1      12.660  58.147  -0.139  1.00  0.00    +0.000 C 
ENDBRANCH   20   21
ENDBRANCH   22   20
ENDBRANCH   24   22
ENDBRANCH   25   24
ENDBRANCH   26   25
ENDBRANCH   27   26
ENDBRANCH   28   27
ENDBRANCH   29   28
ENDBRANCH   30   29
ENDBRANCH   31   30
ENDBRANCH   32   31
ENDBRANCH   34   32
ENDBRANCH   38   37
BRANCH   42   43
ATOM     43  C35 UNL A   1      14.670  49.133   6.280  1.00  0.00    +0.000 C 
ATOM     44  C36 UNL A   1      15.651  48.700   7.186  1.00  0.00    +0.000 C 
ATOM     45  F1  UNL A   1      16.928  49.078   7.029  1.00  0.00    +0.000 F 
ATOM     46  C37 UNL A   1      15.331  47.840   8.232  1.00  0.00    +0.000 C 
ATOM     47  F2  UNL A   1      16.294  47.397   9.053  1.00  0.00    +0.000 F 
ATOM     48  C38 UNL A   1      14.021  47.425   8.418  1.00  0.00    +0.000 C 
ATOM     49  F3  UNL A   1      13.714  46.601   9.428  1.00  0.00    +0.000 F 
ATOM     50  C39 UNL A   1      13.030  47.861   7.551  1.00  0.00    +0.000 C 
ATOM     51  F4  UNL A   1      11.761  47.473   7.736  1.00  0.00    +0.000 F 
ATOM     52  C40 UNL A   1      13.352  48.698   6.485  1.00  0.00    +0.000 C 
ATOM     53  F5  UNL A   1      12.374  49.087   5.653  1.00  0.00    +0.000 F 
ENDBRANCH   42   43
BRANCH   59   60
ATOM     65  C49 UNL A   1      17.418  46.655  -2.432  1.00  0.00    +0.000 C 
ATOM     66  F8  UNL A   1      17.678  45.691  -3.326  1.00  0.00    +0.000 F 
ATOM     67  C50 UNL A   1      16.129  47.148  -2.296  1.00  0.00    +0.000 C 
ATOM     68  F9  UNL A   1      15.138  46.644  -3.045  1.00  0.00    +0.000 F 
ATOM     69  C51 UNL A   1      15.863  48.165  -1.384  1.00  0.00    +0.000 C 
ATOM     70  F10 UNL A   1      14.609  48.631  -1.285  1.00  0.00    +0.000 F 
ATOM     60  C46 UNL A   1      16.879  48.692  -0.574  1.00  0.00    +0.000 C 
ATOM     61  C47 UNL A   1      18.172  48.165  -0.714  1.00  0.00    +0.000 C 
ATOM     62  F6  UNL A   1      19.181  48.648   0.027  1.00  0.00    +0.000 F 
ATOM     63  C48 UNL A   1      18.441  47.168  -1.647  1.00  0.00    +0.000 C 
ATOM     64  F7  UNL A   1      19.692  46.713  -1.797  1.00  0.00    +0.000 F 
ENDBRANCH   59   60
BRANCH   74   75
ATOM     75  C55 UNL A   1      17.106  55.649  -0.881  1.00  0.00    +0.000 C 
ATOM     76  C56 UNL A   1      16.152  56.167  -1.768  1.00  0.00    +0.000 C 
ATOM     77  F11 UNL A   1      14.875  55.768  -1.684  1.00  0.00    +0.000 F 
ATOM     78  C57 UNL A   1      16.513  57.070  -2.765  1.00  0.00    +0.000 C 
ATOM     79  F12 UNL A   1      15.589  57.520  -3.624  1.00  0.00    +0.000 F 
ATOM     80  C58 UNL A   1      17.829  57.492  -2.878  1.00  0.00    +0.000 C 
ATOM     81  F13 UNL A   1      18.175  58.366  -3.833  1.00  0.00    +0.000 F 
ATOM     82  C59 UNL A   1      18.787  57.005  -2.002  1.00  0.00    +0.000 C 
ATOM     83  F14 UNL A   1      20.057  57.422  -2.098  1.00  0.00    +0.000 F 
ATOM     84  C60 UNL A   1      18.433  56.081  -1.021  1.00  0.00    +0.000 C 
ATOM     85  F15 UNL A   1      19.381  55.619  -0.193  1.00  0.00    +0.000 F 
ENDBRANCH   74   75
TORSDOF 28
ENDMDL
MODEL 5
REMARK VINA RESULT:      -5.7     19.163     25.206
ROOT
ATOM    142  H40 UNL A   1      12.516  29.706   1.251  1.00  0.00    +0.000 H 
ATOM    143  H41 UNL A   1      12.490  27.340   2.345  1.00  0.00    +0.000 H 
ATOM    144  H42 UNL A   1       8.579  28.457   1.566  1.00  0.00    +0.000 H 
ATOM    145  H43 UNL A   1       2.320  27.307   2.037  1.00  0.00    +0.000 H 
ATOM    146  H44 UNL A   1       2.354  29.587   0.915  1.00  0.00    +0.000 H 
ATOM    147  H45 UNL A   1       6.292  28.457   1.617  1.00  0.00    +0.000 H 
ATOM    148  H46 UNL A   1       6.069  23.877   3.679  1.00  0.00    +0.000 H 
ATOM    149  H47 UNL A   1       8.618  23.985   3.883  1.00  0.00    +0.000 H 
ATOM    150  H48 UNL A   1       8.693  32.891  -0.770  1.00  0.00    +0.000 H 
ATOM    151  H49 UNL A   1       6.145  33.022  -0.555  1.00  0.00    +0.000 H 
ATOM     38  C31 UNL A   1       4.964  30.662   0.521  1.00  0.00    +0.000 C 
ATOM     39  C32 UNL A   1       6.427  30.972   0.376  1.00  0.00    +0.000 C 
ATOM     40  N4  UNL A   1       7.466  30.246   0.707  1.00  0.00    +0.000 N 
ATOM     41  C33 UNL A   1       8.579  30.979   0.318  1.00  0.00    +0.000 C 
ATOM     42  C34 UNL A   1       9.890  30.684   0.496  1.00  0.00    +0.000 C 
ATOM     54  C41 UNL A   1      10.371  29.497   1.153  1.00  0.00    +0.000 C 
ATOM     55  C42 UNL A   1      11.676  29.140   1.445  1.00  0.00    +0.000 C 
ATOM     56  C43 UNL A   1      11.660  27.876   2.047  1.00  0.00    +0.000 C 
ATOM     57  C44 UNL A   1      10.343  27.468   2.175  1.00  0.00    +0.000 C 
ATOM     58  N5  UNL A   1       9.563  28.470   1.620  1.00  0.00    +0.000 N 
ATOM     59  C45 UNL A   1       9.831  26.255   2.760  1.00  0.00    +0.000 C 
ATOM     71  C52 UNL A   1       8.518  25.935   2.865  1.00  0.00    +0.000 C 
ATOM     72  N6  UNL A   1       7.408  26.661   2.454  1.00  0.00    +0.000 N 
ATOM     73  C53 UNL A   1       6.365  25.927   2.760  1.00  0.00    +0.000 C 
ATOM     74  C54 UNL A   1       4.904  26.229   2.568  1.00  0.00    +0.000 C 
ATOM     86  C61 UNL A   1       4.541  27.408   2.028  1.00  0.00    +0.000 C 
ATOM     87  C62 UNL A   1       3.168  27.843   1.793  1.00  0.00    +0.000 C 
ATOM     88  C63 UNL A   1       3.186  29.052   1.211  1.00  0.00    +0.000 C 
ATOM     89  C64 UNL A   1       4.574  29.492   1.062  1.00  0.00    +0.000 C 
ATOM     90  N7  UNL A   1       5.308  28.453   1.576  1.00  0.00    +0.000 N 
ATOM     91  C65 UNL A   1       6.698  24.638   3.381  1.00  0.00    +0.000 C 
ATOM     92  C66 UNL A   1       8.019  24.710   3.457  1.00  0.00    +0.000 C 
ATOM     93  C67 UNL A   1       8.091  32.183  -0.319  1.00  0.00    +0.000 C 
ATOM     94  C68 UNL A   1       6.769  32.258  -0.250  1.00  0.00    +0.000 C 
ENDROOT
BRANCH   38   37
ATOM     34  C27 UNL A   1       1.938  33.316  -0.954  1.00  0.00    +0.000 C 
ATOM     35  C28 UNL A   1       2.433  33.484   0.343  1.00  0.00    +0.000 C 
ATOM     36  C29 UNL A   1       3.444  32.643   0.816  1.00  0.00    +0.000 C 
ATOM     37  C30 UNL A   1       3.940  31.607   0.010  1.00  0.00    +0.000 C 
ATOM    140  H38 UNL A   1       2.053  34.227   0.949  1.00  0.00    +0.000 H 
ATOM    141  H39 UNL A   1       3.827  32.784   1.764  1.00  0.00    +0.000 H 
ATOM    152  H50 UNL A   1       3.806  30.701  -1.897  1.00  0.00    +0.000 H 
ATOM    153  H51 UNL A   1       2.193  32.282  -2.777  1.00  0.00    +0.000 H 
ATOM     95  C69 UNL A   1       3.452  31.464  -1.298  1.00  0.00    +0.000 C 
ATOM     96  C70 UNL A   1       2.493  32.345  -1.792  1.00  0.00    +0.000 C 
BRANCH   34   32
ATOM     33  O4  UNL A   1       0.616  35.247  -0.813  1.00  0.00    +0.000 O 
ATOM     32  C26 UNL A   1       0.861  34.214  -1.429  1.00  0.00    +0.000 C 
BRANCH   32   31
ATOM    139  H37 UNL A   1      -0.697  33.410  -2.395  1.00  0.00    +0.000 H 
ATOM     31  N3  UNL A   1       0.141  33.901  -2.554  1.00  0.00    +0.000 N 
BRANCH   31   30
ATOM    137  H35 UNL A   1       1.063  33.413  -4.337  1.00  0.00    +0.000 H 
ATOM    138  H36 UNL A   1      -0.491  34.240  -4.480  1.00  0.00    +0.000 H 
ATOM     30  C25 UNL A   1       0.437  34.190  -3.949  1.00  0.00    +0.000 C 
BRANCH   30   29
ATOM     29  C24 UNL A   1       1.151  35.529  -4.118  1.00  0.00    +0.000 C 
ATOM    135  H33 UNL A   1       0.459  36.223  -4.548  1.00  0.00    +0.000 H 
ATOM    136  H34 UNL A   1       1.486  35.816  -3.143  1.00  0.00    +0.000 H 
BRANCH   29   28
ATOM     28  C23 UNL A   1       2.398  35.486  -5.007  1.00  0.00    +0.000 C 
ATOM    133  H31 UNL A   1       3.201  35.077  -4.429  1.00  0.00    +0.000 H 
ATOM    134  H32 UNL A   1       2.132  34.894  -5.856  1.00  0.00    +0.000 H 
BRANCH   28   27
ATOM     27  C22 UNL A   1       2.861  36.839  -5.566  1.00  0.00    +0.000 C 
ATOM    132  H30 UNL A   1       2.965  37.489  -4.722  1.00  0.00    +0.000 H 
ATOM    131  H29 UNL A   1       2.130  37.171  -6.273  1.00  0.00    +0.000 H 
BRANCH   27   26
ATOM    129  H27 UNL A   1       4.568  35.810  -6.309  1.00  0.00    +0.000 H 
ATOM     26  C21 UNL A   1       4.225  36.823  -6.263  1.00  0.00    +0.000 C 
ATOM    130  H28 UNL A   1       4.084  37.253  -7.233  1.00  0.00    +0.000 H 
BRANCH   26   25
ATOM     25  C20 UNL A   1       5.293  37.662  -5.556  1.00  0.00    +0.000 C 
ATOM    127  H25 UNL A   1       5.893  38.153  -6.294  1.00  0.00    +0.000 H 
ATOM    128  H26 UNL A   1       4.796  38.373  -4.929  1.00  0.00    +0.000 H 
BRANCH   25   24
ATOM    126  H24 UNL A   1       5.690  36.418  -3.965  1.00  0.00    +0.000 H 
ATOM     24  N2  UNL A   1       6.151  36.848  -4.721  1.00  0.00    +0.000 N 
BRANCH   24   22
ATOM     22  C19 UNL A   1       7.482  36.572  -4.795  1.00  0.00    +0.000 C 
ATOM     23  O3  UNL A   1       8.229  37.306  -4.138  1.00  0.00    +0.000 O 
BRANCH   22   20
ATOM    122  H20 UNL A   1       9.138  35.570  -5.580  1.00  0.00    +0.000 H 
ATOM     20  C17 UNL A   1       8.078  35.446  -5.655  1.00  0.00    +0.000 C 
BRANCH   20   19
ATOM     97  C71 UNL A   1       7.010  33.158  -5.774  1.00  0.00    +0.000 C 
ATOM     98  C72 UNL A   1       6.817  31.840  -5.313  1.00  0.00    +0.000 C 
ATOM     16  C13 UNL A   1       7.528  31.344  -4.204  1.00  0.00    +0.000 C 
ATOM     17  C14 UNL A   1       8.321  32.268  -3.503  1.00  0.00    +0.000 C 
ATOM     18  C15 UNL A   1       8.442  33.601  -3.911  1.00  0.00    +0.000 C 
ATOM     19  C16 UNL A   1       7.845  34.053  -5.088  1.00  0.00    +0.000 C 
ATOM    120  H18 UNL A   1       8.830  31.955  -2.663  1.00  0.00    +0.000 H 
ATOM    121  H19 UNL A   1       8.981  34.262  -3.330  1.00  0.00    +0.000 H 
ATOM    154  H52 UNL A   1       6.528  33.470  -6.631  1.00  0.00    +0.000 H 
BRANCH   16   15
ATOM    102  C73 UNL A   1       8.549  29.046  -4.182  1.00  0.00    +0.000 C 
ATOM     11  C8  UNL A   1       8.533  27.714  -3.766  1.00  0.00    +0.000 C 
ATOM     12  C9  UNL A   1       7.537  27.232  -2.923  1.00  0.00    +0.000 C 
ATOM     13  C10 UNL A   1       6.542  28.099  -2.484  1.00  0.00    +0.000 C 
ATOM     14  C11 UNL A   1       6.536  29.429  -2.914  1.00  0.00    +0.000 C 
ATOM     15  C12 UNL A   1       7.534  29.928  -3.773  1.00  0.00    +0.000 C 
ATOM    117  H15 UNL A   1       7.536  26.244  -2.627  1.00  0.00    +0.000 H 
ATOM    118  H16 UNL A   1       5.809  27.760  -1.841  1.00  0.00    +0.000 H 
ATOM    119  H17 UNL A   1       5.783  30.059  -2.595  1.00  0.00    +0.000 H 
ATOM    155  H53 UNL A   1       9.309  29.385  -4.792  1.00  0.00    +0.000 H 
BRANCH   11   10
ATOM     10  O2  UNL A   1       9.419  26.762  -4.302  1.00  0.00    +0.000 O 
BRANCH   10    8
ATOM      9  O1  UNL A   1      11.568  27.436  -3.719  1.00  0.00    +0.000 O 
ATOM      8  C7  UNL A   1      10.735  27.116  -4.557  1.00  0.00    +0.000 C 
BRANCH    8    7
ATOM    116  H14 UNL A   1      11.987  27.238  -6.128  1.00  0.00    +0.000 H 
ATOM      7  N1  UNL A   1      11.048  27.067  -5.888  1.00  0.00    +0.000 N 
BRANCH    7    6
ATOM    114  H12 UNL A   1      10.676  26.292  -7.762  1.00  0.00    +0.000 H 
ATOM    115  H13 UNL A   1       9.346  26.175  -6.605  1.00  0.00    +0.000 H 
ATOM      6  C6  UNL A   1      10.137  26.790  -6.982  1.00  0.00    +0.000 C 
BRANCH    6    5
ATOM    113  H11 UNL A   1       8.711  28.324  -6.890  1.00  0.00    +0.000 H 
ATOM      5  C5  UNL A   1       9.513  28.064  -7.549  1.00  0.00    +0.000 C 
ATOM    112  H10 UNL A   1       9.191  27.861  -8.549  1.00  0.00    +0.000 H 
BRANCH    5    4
ATOM      4  C4  UNL A   1      10.447  29.279  -7.589  1.00  0.00    +0.000 C 
ATOM    110  H8  UNL A   1      11.298  29.061  -6.978  1.00  0.00    +0.000 H 
ATOM    111  H9  UNL A   1      10.686  29.434  -8.620  1.00  0.00    +0.000 H 
BRANCH    4    3
ATOM      3  C3  UNL A   1       9.838  30.597  -7.097  1.00  0.00    +0.000 C 
ATOM    108  H6  UNL A   1       9.583  31.183  -7.954  1.00  0.00    +0.000 H 
ATOM    109  H7  UNL A   1       8.997  30.326  -6.494  1.00  0.00    +0.000 H 
BRANCH    3    2
ATOM      2  C2  UNL A   1      10.744  31.444  -6.199  1.00  0.00    +0.000 C 
ATOM    107  H5  UNL A   1      10.240  31.563  -5.263  1.00  0.00    +0.000 H 
ATOM    106  H4  UNL A   1      10.922  32.381  -6.683  1.00  0.00    +0.000 H 
BRANCH    2    1
ATOM      1  C1  UNL A   1      12.086  30.789  -5.908  1.00  0.00    +0.000 C 
ATOM    105  H3  UNL A   1      11.987  29.727  -5.982  1.00  0.00    +0.000 H 
ATOM    103  H1  UNL A   1      12.402  31.049  -4.919  1.00  0.00    +0.000 H 
ATOM    104  H2  UNL A   1      12.811  31.132  -6.615  1.00  0.00    +0.000 H 
ENDBRANCH    2    1
ENDBRANCH    3    2
ENDBRANCH    4    3
ENDBRANCH    5    4
ENDBRANCH    6    5
ENDBRANCH    7    6
ENDBRANCH    8    7
ENDBRANCH   10    8
ENDBRANCH   11   10
ENDBRANCH   16   15
BRANCH   98   99
ATOM     99  N8  UNL A   1       5.819  31.039  -5.988  1.00  0.00    +0.000 N 
ATOM    100  O5  UNL A   1       4.661  31.057  -5.624  1.00  0.00    +0.000 O 
ATOM    101  O6  UNL A   1       6.171  30.131  -6.958  1.00  0.00    +0.000 O 
ENDBRANCH   98   99
ENDBRANCH   20   19
BRANCH   20   21
ATOM    125  H23 UNL A   1       7.416  36.564  -7.353  1.00  0.00    +0.000 H 
ATOM    123  H21 UNL A   1       7.154  34.842  -7.487  1.00  0.00    +0.000 H 
ATOM    124  H22 UNL A   1       8.762  35.499  -7.681  1.00  0.00    +0.000 H 
ATOM     21  C18 UNL A   1       7.834  35.599  -7.157  1.00  0.00    +0.000 C 
ENDBRANCH   20   21
ENDBRANCH   22   20
ENDBRANCH   24   22
ENDBRANCH   25   24
ENDBRANCH   26   25
ENDBRANCH   27   26
ENDBRANCH   28   27
ENDBRANCH   29   28
ENDBRANCH   30   29
ENDBRANCH   31   30
ENDBRANCH   32   31
ENDBRANCH   34   32
ENDBRANCH   38   37
BRANCH   42   43
ATOM     43  C35 UNL A   1      10.898  31.665  -0.029  1.00  0.00    +0.000 C 
ATOM     44  C36 UNL A   1      11.544  32.580   0.817  1.00  0.00    +0.000 C 
ATOM     45  F1  UNL A   1      11.242  32.622   2.122  1.00  0.00    +0.000 F 
ATOM     46  C37 UNL A   1      12.475  33.486   0.315  1.00  0.00    +0.000 C 
ATOM     47  F2  UNL A   1      13.041  34.385   1.133  1.00  0.00    +0.000 F 
ATOM     48  C38 UNL A   1      12.806  33.472  -1.032  1.00  0.00    +0.000 C 
ATOM     49  F3  UNL A   1      13.705  34.341  -1.512  1.00  0.00    +0.000 F 
ATOM     50  C39 UNL A   1      12.198  32.559  -1.881  1.00  0.00    +0.000 C 
ATOM     51  F4  UNL A   1      12.526  32.534  -3.181  1.00  0.00    +0.000 F 
ATOM     52  C40 UNL A   1      11.244  31.672  -1.388  1.00  0.00    +0.000 C 
ATOM     53  F5  UNL A   1      10.662  30.814  -2.240  1.00  0.00    +0.000 F 
ENDBRANCH   42   43
BRANCH   59   60
ATOM     65  C49 UNL A   1      12.639  23.396   4.348  1.00  0.00    +0.000 C 
ATOM     66  F8  UNL A   1      13.514  22.508   4.837  1.00  0.00    +0.000 F 
ATOM     67  C50 UNL A   1      12.326  23.392   2.997  1.00  0.00    +0.000 C 
ATOM     68  F9  UNL A   1      12.884  22.484   2.185  1.00  0.00    +0.000 F 
ATOM     69  C51 UNL A   1      11.434  24.329   2.484  1.00  0.00    +0.000 C 
ATOM     70  F10 UNL A   1      11.162  24.309   1.171  1.00  0.00    +0.000 F 
ATOM     60  C46 UNL A   1      10.821  25.275   3.319  1.00  0.00    +0.000 C 
ATOM     61  C47 UNL A   1      11.137  25.249   4.686  1.00  0.00    +0.000 C 
ATOM     62  F6  UNL A   1      10.589  26.143   5.522  1.00  0.00    +0.000 F 
ATOM     63  C48 UNL A   1      12.051  24.328   5.191  1.00  0.00    +0.000 C 
ATOM     64  F7  UNL A   1      12.374  24.353   6.491  1.00  0.00    +0.000 F 
ENDBRANCH   59   60
BRANCH   74   75
ATOM     75  C55 UNL A   1       3.862  25.260   2.992  1.00  0.00    +0.000 C 
ATOM     76  C56 UNL A   1       3.307  24.356   2.075  1.00  0.00    +0.000 C 
ATOM     77  F11 UNL A   1       3.695  24.382   0.792  1.00  0.00    +0.000 F 
ATOM     78  C57 UNL A   1       2.326  23.447   2.466  1.00  0.00    +0.000 C 
ATOM     79  F12 UNL A   1       1.784  22.621   1.561  1.00  0.00    +0.000 F 
ATOM     80  C58 UNL A   1       1.901  23.405   3.785  1.00  0.00    +0.000 C 
ATOM     81  F13 UNL A   1       0.963  22.526   4.162  1.00  0.00    +0.000 F 
ATOM     82  C59 UNL A   1       2.447  24.279   4.712  1.00  0.00    +0.000 C 
ATOM     83  F14 UNL A   1       2.050  24.232   5.992  1.00  0.00    +0.000 F 
ATOM     84  C60 UNL A   1       3.408  25.208   4.318  1.00  0.00    +0.000 C 
ATOM     85  F15 UNL A   1       3.914  26.047   5.234  1.00  0.00    +0.000 F 
ENDBRANCH   74   75
TORSDOF 28
ENDMDL
MODEL 6
REMARK VINA RESULT:      -5.7     61.880     66.529
ROOT
ATOM    142  H40 UNL A   1      41.171  14.382  49.814  1.00  0.00    +0.000 H 
ATOM    143  H41 UNL A   1      41.859  13.048  47.683  1.00  0.00    +0.000 H 
ATOM    144  H42 UNL A   1      43.801  16.704  47.612  1.00  0.00    +0.000 H 
ATOM    145  H43 UNL A   1      47.522  20.913  44.584  1.00  0.00    +0.000 H 
ATOM    146  H44 UNL A   1      46.897  22.184  46.693  1.00  0.00    +0.000 H 
ATOM    147  H45 UNL A   1      44.995  18.490  46.825  1.00  0.00    +0.000 H 
ATOM    148  H46 UNL A   1      46.453  16.036  42.687  1.00  0.00    +0.000 H 
ATOM    149  H47 UNL A   1      44.898  14.140  43.418  1.00  0.00    +0.000 H 
ATOM    150  H48 UNL A   1      42.656  19.125  51.849  1.00  0.00    +0.000 H 
ATOM    151  H49 UNL A   1      43.813  21.212  50.921  1.00  0.00    +0.000 H 
ATOM     38  C31 UNL A   1      45.128  20.778  48.430  1.00  0.00    +0.000 C 
ATOM     39  C32 UNL A   1      44.256  19.817  49.188  1.00  0.00    +0.000 C 
ATOM     40  N4  UNL A   1      43.909  18.592  48.879  1.00  0.00    +0.000 N 
ATOM     41  C33 UNL A   1      43.134  18.140  49.939  1.00  0.00    +0.000 C 
ATOM     42  C34 UNL A   1      42.489  16.955  50.070  1.00  0.00    +0.000 C 
ATOM     54  C41 UNL A   1      42.502  15.912  49.077  1.00  0.00    +0.000 C 
ATOM     55  C42 UNL A   1      41.825  14.705  49.085  1.00  0.00    +0.000 C 
ATOM     56  C43 UNL A   1      42.182  13.996  47.932  1.00  0.00    +0.000 C 
ATOM     57  C44 UNL A   1      43.042  14.781  47.182  1.00  0.00    +0.000 C 
ATOM     58  N5  UNL A   1      43.232  15.953  47.898  1.00  0.00    +0.000 N 
ATOM     59  C45 UNL A   1      43.647  14.487  45.909  1.00  0.00    +0.000 C 
ATOM     71  C52 UNL A   1      44.470  15.322  45.226  1.00  0.00    +0.000 C 
ATOM     72  N6  UNL A   1      44.904  16.594  45.573  1.00  0.00    +0.000 N 
ATOM     73  C53 UNL A   1      45.693  16.982  44.601  1.00  0.00    +0.000 C 
ATOM     74  C54 UNL A   1      46.424  18.287  44.435  1.00  0.00    +0.000 C 
ATOM     86  C61 UNL A   1      46.278  19.245  45.370  1.00  0.00    +0.000 C 
ATOM     87  C62 UNL A   1      46.913  20.559  45.339  1.00  0.00    +0.000 C 
ATOM     88  C63 UNL A   1      46.574  21.235  46.447  1.00  0.00    +0.000 C 
ATOM     89  C64 UNL A   1      45.670  20.412  47.253  1.00  0.00    +0.000 C 
ATOM     90  N7  UNL A   1      45.551  19.249  46.534  1.00  0.00    +0.000 N 
ATOM     91  C65 UNL A   1      45.866  15.987  43.533  1.00  0.00    +0.000 C 
ATOM     92  C66 UNL A   1      45.069  15.011  43.944  1.00  0.00    +0.000 C 
ATOM     93  C67 UNL A   1      43.103  19.201  50.922  1.00  0.00    +0.000 C 
ATOM     94  C68 UNL A   1      43.726  20.283  50.478  1.00  0.00    +0.000 C 
ENDROOT
BRANCH   38   37
ATOM     34  C27 UNL A   1      46.152  24.625  50.021  1.00  0.00    +0.000 C 
ATOM     35  C28 UNL A   1      45.024  24.492  49.205  1.00  0.00    +0.000 C 
ATOM     36  C29 UNL A   1      44.666  23.234  48.712  1.00  0.00    +0.000 C 
ATOM     37  C30 UNL A   1      45.454  22.108  49.002  1.00  0.00    +0.000 C 
ATOM    140  H38 UNL A   1      44.457  25.320  48.968  1.00  0.00    +0.000 H 
ATOM    141  H39 UNL A   1      43.819  23.132  48.132  1.00  0.00    +0.000 H 
ATOM    152  H50 UNL A   1      47.159  21.431  50.054  1.00  0.00    +0.000 H 
ATOM    153  H51 UNL A   1      47.663  23.578  51.060  1.00  0.00    +0.000 H 
ATOM     95  C69 UNL A   1      46.569  22.251  49.840  1.00  0.00    +0.000 C 
ATOM     96  C70 UNL A   1      46.886  23.493  50.386  1.00  0.00    +0.000 C 
BRANCH   34   32
ATOM     33  O4  UNL A   1      47.642  26.167  50.968  1.00  0.00    +0.000 O 
ATOM     32  C26 UNL A   1      46.515  25.969  50.523  1.00  0.00    +0.000 C 
BRANCH   32   31
ATOM    139  H37 UNL A   1      45.502  27.438  49.616  1.00  0.00    +0.000 H 
ATOM     31  N3  UNL A   1      45.604  26.994  50.488  1.00  0.00    +0.000 N 
BRANCH   31   30
ATOM    137  H35 UNL A   1      45.395  27.942  52.311  1.00  0.00    +0.000 H 
ATOM    138  H36 UNL A   1      44.121  28.263  51.132  1.00  0.00    +0.000 H 
ATOM     30  C25 UNL A   1      44.767  27.520  51.555  1.00  0.00    +0.000 C 
BRANCH   30   29
ATOM     29  C24 UNL A   1      43.893  26.438  52.185  1.00  0.00    +0.000 C 
ATOM    135  H33 UNL A   1      42.898  26.821  52.272  1.00  0.00    +0.000 H 
ATOM    136  H34 UNL A   1      43.963  25.584  51.544  1.00  0.00    +0.000 H 
BRANCH   29   28
ATOM     28  C23 UNL A   1      44.348  25.973  53.573  1.00  0.00    +0.000 C 
ATOM    133  H31 UNL A   1      45.104  26.647  53.916  1.00  0.00    +0.000 H 
ATOM    134  H32 UNL A   1      43.468  25.963  54.181  1.00  0.00    +0.000 H 
BRANCH   28   27
ATOM     27  C22 UNL A   1      44.920  24.550  53.640  1.00  0.00    +0.000 C 
ATOM    132  H30 UNL A   1      44.972  24.298  54.679  1.00  0.00    +0.000 H 
ATOM    131  H29 UNL A   1      45.874  24.554  53.155  1.00  0.00    +0.000 H 
BRANCH   27   26
ATOM    129  H27 UNL A   1      43.123  23.910  52.700  1.00  0.00    +0.000 H 
ATOM     26  C21 UNL A   1      44.057  23.469  52.982  1.00  0.00    +0.000 C 
ATOM    130  H28 UNL A   1      44.607  23.100  52.142  1.00  0.00    +0.000 H 
BRANCH   26   25
ATOM     25  C20 UNL A   1      43.769  22.268  53.887  1.00  0.00    +0.000 C 
ATOM    127  H25 UNL A   1      43.944  22.550  54.904  1.00  0.00    +0.000 H 
ATOM    128  H26 UNL A   1      42.750  21.977  53.739  1.00  0.00    +0.000 H 
BRANCH   25   24
ATOM    126  H24 UNL A   1      44.390  20.696  52.711  1.00  0.00    +0.000 H 
ATOM     24  N2  UNL A   1      44.612  21.136  53.564  1.00  0.00    +0.000 N 
BRANCH   24   22
ATOM     22  C19 UNL A   1      45.657  20.571  54.229  1.00  0.00    +0.000 C 
ATOM     23  O3  UNL A   1      45.378  19.973  55.274  1.00  0.00    +0.000 O 
BRANCH   22   20
ATOM    122  H20 UNL A   1      47.685  20.178  54.534  1.00  0.00    +0.000 H 
ATOM     20  C17 UNL A   1      47.121  20.669  53.770  1.00  0.00    +0.000 C 
BRANCH   20   19
ATOM     97  C71 UNL A   1      48.505  20.220  51.703  1.00  0.00    +0.000 C 
ATOM     98  C72 UNL A   1      48.859  19.454  50.574  1.00  0.00    +0.000 C 
ATOM     16  C13 UNL A   1      48.206  18.241  50.283  1.00  0.00    +0.000 C 
ATOM     17  C14 UNL A   1      47.100  17.915  51.087  1.00  0.00    +0.000 C 
ATOM     18  C15 UNL A   1      46.695  18.724  52.154  1.00  0.00    +0.000 C 
ATOM     19  C16 UNL A   1      47.428  19.852  52.524  1.00  0.00    +0.000 C 
ATOM    120  H18 UNL A   1      46.571  17.053  50.884  1.00  0.00    +0.000 H 
ATOM    121  H19 UNL A   1      45.839  18.482  52.676  1.00  0.00    +0.000 H 
ATOM    154  H52 UNL A   1      49.048  21.068  51.930  1.00  0.00    +0.000 H 
BRANCH   16   15
ATOM    102  C73 UNL A   1      49.732  16.427  49.445  1.00  0.00    +0.000 C 
ATOM     11  C8  UNL A   1      50.122  15.533  48.446  1.00  0.00    +0.000 C 
ATOM     12  C9  UNL A   1      49.430  15.448  47.242  1.00  0.00    +0.000 C 
ATOM     13  C10 UNL A   1      48.325  16.266  47.035  1.00  0.00    +0.000 C 
ATOM     14  C11 UNL A   1      47.941  17.182  48.020  1.00  0.00    +0.000 C 
ATOM     15  C12 UNL A   1      48.636  17.283  49.240  1.00  0.00    +0.000 C 
ATOM    117  H15 UNL A   1      49.733  14.785  46.511  1.00  0.00    +0.000 H 
ATOM    118  H16 UNL A   1      47.790  16.198  46.155  1.00  0.00    +0.000 H 
ATOM    119  H17 UNL A   1      47.129  17.795  47.848  1.00  0.00    +0.000 H 
ATOM    155  H53 UNL A   1      50.249  16.458  50.336  1.00  0.00    +0.000 H 
BRANCH   11   10
ATOM     10  O2  UNL A   1      51.318  14.799  48.538  1.00  0.00    +0.000 O 
BRANCH   10    8
ATOM      9  O1  UNL A   1      51.384  14.059  50.742  1.00  0.00    +0.000 O 
ATOM      8  C7  UNL A   1      51.466  13.851  49.539  1.00  0.00    +0.000 C 
BRANCH    8    7
ATOM    116  H14 UNL A   1      52.608  12.223  49.223  1.00  0.00    +0.000 H 
ATOM      7  N1  UNL A   1      51.714  12.597  49.048  1.00  0.00    +0.000 N 
BRANCH    7    6
ATOM    114  H12 UNL A   1      50.455  12.310  47.442  1.00  0.00    +0.000 H 
ATOM    115  H13 UNL A   1      51.318  10.876  48.006  1.00  0.00    +0.000 H 
ATOM      6  C6  UNL A   1      50.796  11.764  48.297  1.00  0.00    +0.000 C 
BRANCH    6    5
ATOM    113  H11 UNL A   1      49.756  11.723  50.117  1.00  0.00    +0.000 H 
ATOM      5  C5  UNL A   1      49.585  11.345  49.130  1.00  0.00    +0.000 C 
ATOM    112  H10 UNL A   1      49.507  10.279  49.092  1.00  0.00    +0.000 H 
BRANCH    5    4
ATOM      4  C4  UNL A   1      48.247  11.936  48.669  1.00  0.00    +0.000 C 
ATOM    110  H8  UNL A   1      48.385  12.336  47.687  1.00  0.00    +0.000 H 
ATOM    111  H9  UNL A   1      47.541  11.133  48.713  1.00  0.00    +0.000 H 
BRANCH    4    3
ATOM      3  C3  UNL A   1      47.676  13.047  49.556  1.00  0.00    +0.000 C 
ATOM    108  H6  UNL A   1      47.464  12.627  50.517  1.00  0.00    +0.000 H 
ATOM    109  H7  UNL A   1      48.416  13.818  49.577  1.00  0.00    +0.000 H 
BRANCH    3    2
ATOM      2  C2  UNL A   1      46.395  13.707  49.039  1.00  0.00    +0.000 C 
ATOM    107  H5  UNL A   1      45.649  12.943  48.971  1.00  0.00    +0.000 H 
ATOM    106  H4  UNL A   1      46.603  14.154  48.089  1.00  0.00    +0.000 H 
BRANCH    2    1
ATOM      1  C1  UNL A   1      45.854  14.783  49.969  1.00  0.00    +0.000 C 
ATOM    105  H3  UNL A   1      44.786  14.787  49.926  1.00  0.00    +0.000 H 
ATOM    103  H1  UNL A   1      46.227  15.738  49.663  1.00  0.00    +0.000 H 
ATOM    104  H2  UNL A   1      46.171  14.581  50.971  1.00  0.00    +0.000 H 
ENDBRANCH    2    1
ENDBRANCH    3    2
ENDBRANCH    4    3
ENDBRANCH    5    4
ENDBRANCH    6    5
ENDBRANCH    7    6
ENDBRANCH    8    7
ENDBRANCH   10    8
ENDBRANCH   11   10
ENDBRANCH   16   15
BRANCH   98   99
ATOM     99  N8  UNL A   1      49.876  19.991  49.697  1.00  0.00    +0.000 N 
ATOM    100  O5  UNL A   1      51.050  19.928  49.999  1.00  0.00    +0.000 O 
ATOM    101  O6  UNL A   1      49.542  20.714  48.577  1.00  0.00    +0.000 O 
ENDBRANCH   98   99
ENDBRANCH   20   19
BRANCH   20   21
ATOM    125  H23 UNL A   1      48.306  22.236  52.926  1.00  0.00    +0.000 H 
ATOM    123  H21 UNL A   1      48.291  22.215  54.673  1.00  0.00    +0.000 H 
ATOM    124  H22 UNL A   1      46.898  22.796  53.794  1.00  0.00    +0.000 H 
ATOM     21  C18 UNL A   1      47.697  22.085  53.792  1.00  0.00    +0.000 C 
ENDBRANCH   20   21
ENDBRANCH   22   20
ENDBRANCH   24   22
ENDBRANCH   25   24
ENDBRANCH   26   25
ENDBRANCH   27   26
ENDBRANCH   28   27
ENDBRANCH   29   28
ENDBRANCH   30   29
ENDBRANCH   31   30
ENDBRANCH   32   31
ENDBRANCH   34   32
ENDBRANCH   38   37
BRANCH   42   43
ATOM     43  C35 UNL A   1      41.713  16.725  51.334  1.00  0.00    +0.000 C 
ATOM     44  C36 UNL A   1      42.316  16.182  52.480  1.00  0.00    +0.000 C 
ATOM     45  F1  UNL A   1      43.607  15.818  52.454  1.00  0.00    +0.000 F 
ATOM     46  C37 UNL A   1      41.584  15.972  53.645  1.00  0.00    +0.000 C 
ATOM     47  F2  UNL A   1      42.168  15.404  54.709  1.00  0.00    +0.000 F 
ATOM     48  C38 UNL A   1      40.246  16.333  53.701  1.00  0.00    +0.000 C 
ATOM     49  F3  UNL A   1      39.543  16.134  54.824  1.00  0.00    +0.000 F 
ATOM     50  C39 UNL A   1      39.635  16.895  52.589  1.00  0.00    +0.000 C 
ATOM     51  F4  UNL A   1      38.346  17.257  52.646  1.00  0.00    +0.000 F 
ATOM     52  C40 UNL A   1      40.358  17.078  51.413  1.00  0.00    +0.000 C 
ATOM     53  F5  UNL A   1      39.733  17.608  50.350  1.00  0.00    +0.000 F 
ENDBRANCH   42   43
BRANCH   59   60
ATOM     65  C49 UNL A   1      42.790  10.692  44.054  1.00  0.00    +0.000 C 
ATOM     66  F8  UNL A   1      42.525   9.510  43.482  1.00  0.00    +0.000 F 
ATOM     67  C50 UNL A   1      43.785  10.791  45.015  1.00  0.00    +0.000 C 
ATOM     68  F9  UNL A   1      44.497   9.708  45.355  1.00  0.00    +0.000 F 
ATOM     69  C51 UNL A   1      44.046  12.014  45.626  1.00  0.00    +0.000 C 
ATOM     70  F10 UNL A   1      45.005  12.076  46.561  1.00  0.00    +0.000 F 
ATOM     60  C46 UNL A   1      43.329  13.166  45.270  1.00  0.00    +0.000 C 
ATOM     61  C47 UNL A   1      42.340  13.048  44.282  1.00  0.00    +0.000 C 
ATOM     62  F6  UNL A   1      41.617  14.118  43.919  1.00  0.00    +0.000 F 
ATOM     63  C48 UNL A   1      42.063  11.817  43.693  1.00  0.00    +0.000 C 
ATOM     64  F7  UNL A   1      41.082  11.717  42.786  1.00  0.00    +0.000 F 
ENDBRANCH   59   60
BRANCH   74   75
ATOM     75  C55 UNL A   1      47.273  18.541  43.244  1.00  0.00    +0.000 C 
ATOM     76  C56 UNL A   1      46.701  18.927  42.023  1.00  0.00    +0.000 C 
ATOM     77  F11 UNL A   1      45.369  19.041  41.916  1.00  0.00    +0.000 F 
ATOM     78  C57 UNL A   1      47.492  19.163  40.901  1.00  0.00    +0.000 C 
ATOM     79  F12 UNL A   1      46.916  19.493  39.737  1.00  0.00    +0.000 F 
ATOM     80  C58 UNL A   1      48.870  19.044  40.984  1.00  0.00    +0.000 C 
ATOM     81  F13 UNL A   1      49.632  19.278  39.907  1.00  0.00    +0.000 F 
ATOM     82  C59 UNL A   1      49.460  18.678  42.185  1.00  0.00    +0.000 C 
ATOM     83  F14 UNL A   1      50.793  18.577  42.273  1.00  0.00    +0.000 F 
ATOM     84  C60 UNL A   1      48.669  18.415  43.301  1.00  0.00    +0.000 C 
ATOM     85  F15 UNL A   1      49.264  18.055  44.447  1.00  0.00    +0.000 F 
ENDBRANCH   74   75
TORSDOF 28
ENDMDL
MODEL 7
REMARK VINA RESULT:      -5.7     50.230     57.594
ROOT
ATOM    142  H40 UNL A   1      10.208  -1.287  27.324  1.00  0.00    +0.000 H 
ATOM    143  H41 UNL A   1       9.407  -3.748  27.014  1.00  0.00    +0.000 H 
ATOM    144  H42 UNL A   1       9.708  -1.997  23.273  1.00  0.00    +0.000 H 
ATOM    145  H43 UNL A   1       8.840  -2.301  16.958  1.00  0.00    +0.000 H 
ATOM    146  H44 UNL A   1       9.680   0.077  17.260  1.00  0.00    +0.000 H 
ATOM    147  H45 UNL A   1       9.460  -1.680  21.021  1.00  0.00    +0.000 H 
ATOM    148  H46 UNL A   1       7.948  -6.413  20.248  1.00  0.00    +0.000 H 
ATOM    149  H47 UNL A   1       7.952  -6.693  22.792  1.00  0.00    +0.000 H 
ATOM    150  H48 UNL A   1      11.498   2.643  23.898  1.00  0.00    +0.000 H 
ATOM    151  H49 UNL A   1      11.050   3.104  21.419  1.00  0.00    +0.000 H 
ATOM     38  C31 UNL A   1      10.166   0.814  19.971  1.00  0.00    +0.000 C 
ATOM     39  C32 UNL A   1      10.399   0.931  21.451  1.00  0.00    +0.000 C 
ATOM     40  N4  UNL A   1      10.248   0.028  22.388  1.00  0.00    +0.000 N 
ATOM     41  C33 UNL A   1      10.641   0.641  23.570  1.00  0.00    +0.000 C 
ATOM     42  C34 UNL A   1      10.612   0.143  24.830  1.00  0.00    +0.000 C 
ATOM     54  C41 UNL A   1      10.145  -1.176  25.170  1.00  0.00    +0.000 C 
ATOM     55  C42 UNL A   1      10.012  -1.749  26.422  1.00  0.00    +0.000 C 
ATOM     56  C43 UNL A   1       9.566  -3.065  26.256  1.00  0.00    +0.000 C 
ATOM     57  C44 UNL A   1       9.374  -3.297  24.904  1.00  0.00    +0.000 C 
ATOM     58  N5  UNL A   1       9.736  -2.130  24.249  1.00  0.00    +0.000 N 
ATOM     59  C45 UNL A   1       8.897  -4.491  24.256  1.00  0.00    +0.000 C 
ATOM     71  C52 UNL A   1       8.718  -4.633  22.919  1.00  0.00    +0.000 C 
ATOM     72  N6  UNL A   1       8.942  -3.710  21.907  1.00  0.00    +0.000 N 
ATOM     73  C53 UNL A   1       8.638  -4.322  20.788  1.00  0.00    +0.000 C 
ATOM     74  C54 UNL A   1       8.666  -3.795  19.380  1.00  0.00    +0.000 C 
ATOM     86  C61 UNL A   1       9.027  -2.515  19.164  1.00  0.00    +0.000 C 
ATOM     87  C62 UNL A   1       9.090  -1.864  17.859  1.00  0.00    +0.000 C 
ATOM     88  C63 UNL A   1       9.523  -0.604  18.020  1.00  0.00    +0.000 C 
ATOM     89  C64 UNL A   1       9.738  -0.349  19.446  1.00  0.00    +0.000 C 
ATOM     90  N7  UNL A   1       9.416  -1.540  20.048  1.00  0.00    +0.000 N 
ATOM     91  C65 UNL A   1       8.206  -5.716  20.964  1.00  0.00    +0.000 C 
ATOM     92  C66 UNL A   1       8.236  -5.842  22.283  1.00  0.00    +0.000 C 
ATOM     93  C67 UNL A   1      11.085   1.975  23.227  1.00  0.00    +0.000 C 
ATOM     94  C68 UNL A   1      10.894   2.227  21.941  1.00  0.00    +0.000 C 
ENDROOT
BRANCH   38   37
ATOM     34  C27 UNL A   1      11.068   4.038  17.293  1.00  0.00    +0.000 C 
ATOM     35  C28 UNL A   1       9.748   3.831  17.706  1.00  0.00    +0.000 C 
ATOM     36  C29 UNL A   1       9.454   2.803  18.606  1.00  0.00    +0.000 C 
ATOM     37  C30 UNL A   1      10.471   1.954  19.070  1.00  0.00    +0.000 C 
ATOM    140  H38 UNL A   1       8.993   4.435  17.348  1.00  0.00    +0.000 H 
ATOM    141  H39 UNL A   1       8.484   2.667  18.931  1.00  0.00    +0.000 H 
ATOM    152  H50 UNL A   1      12.548   1.564  18.996  1.00  0.00    +0.000 H 
ATOM    153  H51 UNL A   1      13.078   3.465  17.588  1.00  0.00    +0.000 H 
ATOM     95  C69 UNL A   1      11.795   2.187  18.666  1.00  0.00    +0.000 C 
ATOM     96  C70 UNL A   1      12.096   3.253  17.822  1.00  0.00    +0.000 C 
BRANCH   34   32
ATOM     33  O4  UNL A   1      11.027   5.000  15.155  1.00  0.00    +0.000 O 
ATOM     32  C26 UNL A   1      11.352   5.128  16.332  1.00  0.00    +0.000 C 
BRANCH   32   31
ATOM    139  H37 UNL A   1      12.900   6.391  16.450  1.00  0.00    +0.000 H 
ATOM     31  N3  UNL A   1      11.970   6.279  16.749  1.00  0.00    +0.000 N 
BRANCH   31   30
ATOM    137  H35 UNL A   1      12.106   8.200  17.497  1.00  0.00    +0.000 H 
ATOM    138  H36 UNL A   1      10.468   7.603  17.218  1.00  0.00    +0.000 H 
ATOM     30  C25 UNL A   1      11.448   7.360  17.573  1.00  0.00    +0.000 C 
BRANCH   30   29
ATOM     29  C24 UNL A   1      11.332   6.955  19.041  1.00  0.00    +0.000 C 
ATOM    135  H33 UNL A   1      11.513   5.903  19.112  1.00  0.00    +0.000 H 
ATOM    136  H34 UNL A   1      12.049   7.545  19.573  1.00  0.00    +0.000 H 
BRANCH   29   28
ATOM     28  C23 UNL A   1       9.972   7.249  19.683  1.00  0.00    +0.000 C 
ATOM    133  H31 UNL A   1      10.072   8.134  20.277  1.00  0.00    +0.000 H 
ATOM    134  H32 UNL A   1       9.281   7.348  18.873  1.00  0.00    +0.000 H 
BRANCH   28   27
ATOM     27  C22 UNL A   1       9.409   6.139  20.582  1.00  0.00    +0.000 C 
ATOM    132  H30 UNL A   1       9.477   6.506  21.585  1.00  0.00    +0.000 H 
ATOM    131  H29 UNL A   1       9.985   5.253  20.412  1.00  0.00    +0.000 H 
BRANCH   27   26
ATOM    129  H27 UNL A   1       7.784   5.646  19.301  1.00  0.00    +0.000 H 
ATOM     26  C21 UNL A   1       7.934   5.798  20.350  1.00  0.00    +0.000 C 
ATOM    130  H28 UNL A   1       7.723   4.922  20.927  1.00  0.00    +0.000 H 
BRANCH   26   25
ATOM     25  C20 UNL A   1       6.964   6.886  20.822  1.00  0.00    +0.000 C 
ATOM    127  H25 UNL A   1       7.528   7.705  21.216  1.00  0.00    +0.000 H 
ATOM    128  H26 UNL A   1       6.375   7.192  19.983  1.00  0.00    +0.000 H 
BRANCH   25   24
ATOM    126  H24 UNL A   1       5.674   5.516  21.656  1.00  0.00    +0.000 H 
ATOM     24  N2  UNL A   1       6.067   6.398  21.848  1.00  0.00    +0.000 N 
BRANCH   24   22
ATOM     22  C19 UNL A   1       5.669   6.943  23.030  1.00  0.00    +0.000 C 
ATOM     23  O3  UNL A   1       4.915   7.920  22.954  1.00  0.00    +0.000 O 
BRANCH   22   20
ATOM    122  H20 UNL A   1       5.540   6.983  25.115  1.00  0.00    +0.000 H 
ATOM     20  C17 UNL A   1       6.125   6.433  24.407  1.00  0.00    +0.000 C 
BRANCH   20   19
ATOM     97  C71 UNL A   1       4.412   4.577  24.507  1.00  0.00    +0.000 C 
ATOM     98  C72 UNL A   1       4.031   3.233  24.694  1.00  0.00    +0.000 C 
ATOM     16  C13 UNL A   1       4.986   2.236  24.971  1.00  0.00    +0.000 C 
ATOM     17  C14 UNL A   1       6.303   2.673  25.191  1.00  0.00    +0.000 C 
ATOM     18  C15 UNL A   1       6.664   4.021  25.092  1.00  0.00    +0.000 C 
ATOM     19  C16 UNL A   1       5.743   4.987  24.683  1.00  0.00    +0.000 C 
ATOM    120  H18 UNL A   1       7.027   1.979  25.432  1.00  0.00    +0.000 H 
ATOM    121  H19 UNL A   1       7.627   4.307  25.327  1.00  0.00    +0.000 H 
ATOM    154  H52 UNL A   1       3.700   5.272  24.235  1.00  0.00    +0.000 H 
BRANCH   16   15
ATOM    102  C73 UNL A   1       4.586   0.048  23.797  1.00  0.00    +0.000 C 
ATOM     11  C8  UNL A   1       4.317  -1.321  23.838  1.00  0.00    +0.000 C 
ATOM     12  C9  UNL A   1       4.184  -1.995  25.048  1.00  0.00    +0.000 C 
ATOM     13  C10 UNL A   1       4.329  -1.289  26.238  1.00  0.00    +0.000 C 
ATOM     14  C11 UNL A   1       4.574   0.088  26.207  1.00  0.00    +0.000 C 
ATOM     15  C12 UNL A   1       4.704   0.783  24.990  1.00  0.00    +0.000 C 
ATOM    117  H15 UNL A   1       3.981  -3.006  25.063  1.00  0.00    +0.000 H 
ATOM    118  H16 UNL A   1       4.254  -1.780  27.142  1.00  0.00    +0.000 H 
ATOM    119  H17 UNL A   1       4.663   0.604  27.096  1.00  0.00    +0.000 H 
ATOM    155  H53 UNL A   1       4.699   0.522  22.888  1.00  0.00    +0.000 H 
BRANCH   11   10
ATOM     10  O2  UNL A   1       4.007  -2.049  22.675  1.00  0.00    +0.000 O 
BRANCH   10    8
ATOM      9  O1  UNL A   1       5.340  -3.933  22.387  1.00  0.00    +0.000 O 
ATOM      8  C7  UNL A   1       4.990  -2.807  22.058  1.00  0.00    +0.000 C 
BRANCH    8    7
ATOM    116  H14 UNL A   1       6.451  -2.481  20.712  1.00  0.00    +0.000 H 
ATOM      7  N1  UNL A   1       5.561  -2.167  20.991  1.00  0.00    +0.000 N 
BRANCH    7    6
ATOM    114  H12 UNL A   1       4.244  -1.465  19.570  1.00  0.00    +0.000 H 
ATOM    115  H13 UNL A   1       4.564  -0.376  20.923  1.00  0.00    +0.000 H 
ATOM      6  C6  UNL A   1       4.989  -1.073  20.231  1.00  0.00    +0.000 C 
BRANCH    6    5
ATOM    113  H11 UNL A   1       5.923  -0.672  18.397  1.00  0.00    +0.000 H 
ATOM      5  C5  UNL A   1       6.042  -0.334  19.405  1.00  0.00    +0.000 C 
ATOM    112  H10 UNL A   1       7.003  -0.556  19.817  1.00  0.00    +0.000 H 
BRANCH    5    4
ATOM      4  C4  UNL A   1       5.881   1.191  19.369  1.00  0.00    +0.000 C 
ATOM    110  H8  UNL A   1       6.854   1.627  19.438  1.00  0.00    +0.000 H 
ATOM    111  H9  UNL A   1       5.374   1.411  18.452  1.00  0.00    +0.000 H 
BRANCH    4    3
ATOM      3  C3  UNL A   1       5.014   1.790  20.482  1.00  0.00    +0.000 C 
ATOM    108  H6  UNL A   1       4.169   2.260  20.026  1.00  0.00    +0.000 H 
ATOM    109  H7  UNL A   1       4.759   0.976  21.127  1.00  0.00    +0.000 H 
BRANCH    3    2
ATOM      2  C2  UNL A   1       5.709   2.828  21.368  1.00  0.00    +0.000 C 
ATOM    107  H5  UNL A   1       5.179   2.857  22.297  1.00  0.00    +0.000 H 
ATOM    106  H4  UNL A   1       5.691   3.771  20.864  1.00  0.00    +0.000 H 
BRANCH    2    1
ATOM      1  C1  UNL A   1       7.155   2.477  21.684  1.00  0.00    +0.000 C 
ATOM    105  H3  UNL A   1       7.711   3.375  21.851  1.00  0.00    +0.000 H 
ATOM    103  H1  UNL A   1       7.580   1.942  20.861  1.00  0.00    +0.000 H 
ATOM    104  H2  UNL A   1       7.190   1.866  22.562  1.00  0.00    +0.000 H 
ENDBRANCH    2    1
ENDBRANCH    3    2
ENDBRANCH    4    3
ENDBRANCH    5    4
ENDBRANCH    6    5
ENDBRANCH    7    6
ENDBRANCH    8    7
ENDBRANCH   10    8
ENDBRANCH   11   10
ENDBRANCH   16   15
BRANCH   98   99
ATOM     99  N8  UNL A   1       2.617   2.930  24.648  1.00  0.00    +0.000 N 
ATOM    100  O5  UNL A   1       1.989   3.058  23.616  1.00  0.00    +0.000 O 
ATOM    101  O6  UNL A   1       1.915   2.631  25.791  1.00  0.00    +0.000 O 
ENDBRANCH   98   99
ENDBRANCH   20   19
BRANCH   20   21
ATOM    125  H23 UNL A   1       7.745   7.827  24.465  1.00  0.00    +0.000 H 
ATOM    123  H21 UNL A   1       8.244   6.160  24.308  1.00  0.00    +0.000 H 
ATOM    124  H22 UNL A   1       7.673   6.760  25.846  1.00  0.00    +0.000 H 
ATOM     21  C18 UNL A   1       7.554   6.825  24.785  1.00  0.00    +0.000 C 
ENDBRANCH   20   21
ENDBRANCH   22   20
ENDBRANCH   24   22
ENDBRANCH   25   24
ENDBRANCH   26   25
ENDBRANCH   27   26
ENDBRANCH   28   27
ENDBRANCH   29   28
ENDBRANCH   30   29
ENDBRANCH   31   30
ENDBRANCH   32   31
ENDBRANCH   34   32
ENDBRANCH   38   37
BRANCH   42   43
ATOM     43  C35 UNL A   1      11.101   1.032  25.937  1.00  0.00    +0.000 C 
ATOM     44  C36 UNL A   1      12.470   1.231  26.172  1.00  0.00    +0.000 C 
ATOM     45  F1  UNL A   1      13.382   0.591  25.425  1.00  0.00    +0.000 F 
ATOM     46  C37 UNL A   1      12.908   2.056  27.204  1.00  0.00    +0.000 C 
ATOM     47  F2  UNL A   1      14.221   2.190  27.442  1.00  0.00    +0.000 F 
ATOM     48  C38 UNL A   1      11.990   2.727  27.998  1.00  0.00    +0.000 C 
ATOM     49  F3  UNL A   1      12.414   3.524  28.988  1.00  0.00    +0.000 F 
ATOM     50  C39 UNL A   1      10.632   2.565  27.768  1.00  0.00    +0.000 C 
ATOM     51  F4  UNL A   1       9.743   3.223  28.525  1.00  0.00    +0.000 F 
ATOM     52  C40 UNL A   1      10.190   1.717  26.755  1.00  0.00    +0.000 C 
ATOM     53  F5  UNL A   1       8.869   1.569  26.570  1.00  0.00    +0.000 F 
ENDBRANCH   42   43
BRANCH   59   60
ATOM     65  C49 UNL A   1       7.895  -7.900  26.695  1.00  0.00    +0.000 C 
ATOM     66  F8  UNL A   1       7.588  -8.960  27.455  1.00  0.00    +0.000 F 
ATOM     67  C50 UNL A   1       9.122  -7.838  26.052  1.00  0.00    +0.000 C 
ATOM     68  F9  UNL A   1       9.992  -8.849  26.174  1.00  0.00    +0.000 F 
ATOM     69  C51 UNL A   1       9.451  -6.726  25.282  1.00  0.00    +0.000 C 
ATOM     70  F10 UNL A   1      10.650  -6.688  24.683  1.00  0.00    +0.000 F 
ATOM     60  C46 UNL A   1       8.546  -5.666  25.122  1.00  0.00    +0.000 C 
ATOM     61  C47 UNL A   1       7.302  -5.758  25.765  1.00  0.00    +0.000 C 
ATOM     62  F6  UNL A   1       6.410  -4.762  25.656  1.00  0.00    +0.000 F 
ATOM     63  C48 UNL A   1       6.988  -6.859  26.559  1.00  0.00    +0.000 C 
ATOM     64  F7  UNL A   1       5.814  -6.904  27.202  1.00  0.00    +0.000 F 
ENDBRANCH   59   60
BRANCH   74   75
ATOM     75  C55 UNL A   1       8.272  -4.654  18.234  1.00  0.00    +0.000 C 
ATOM     76  C56 UNL A   1       9.194  -5.532  17.646  1.00  0.00    +0.000 C 
ATOM     77  F11 UNL A   1      10.455  -5.579  18.098  1.00  0.00    +0.000 F 
ATOM     78  C57 UNL A   1       8.832  -6.337  16.568  1.00  0.00    +0.000 C 
ATOM     79  F12 UNL A   1       9.743  -7.138  15.999  1.00  0.00    +0.000 F 
ATOM     80  C58 UNL A   1       7.537  -6.301  16.077  1.00  0.00    +0.000 C 
ATOM     81  F13 UNL A   1       7.187  -7.081  15.045  1.00  0.00    +0.000 F 
ATOM     82  C59 UNL A   1       6.604  -5.452  16.652  1.00  0.00    +0.000 C 
ATOM     83  F14 UNL A   1       5.346  -5.425  16.189  1.00  0.00    +0.000 F 
ATOM     84  C60 UNL A   1       6.971  -4.625  17.712  1.00  0.00    +0.000 C 
ATOM     85  F15 UNL A   1       6.052  -3.807  18.245  1.00  0.00    +0.000 F 
ENDBRANCH   74   75
TORSDOF 28
ENDMDL
MODEL 8
REMARK VINA RESULT:      -5.6     55.507     61.391
ROOT
ATOM    142  H40 UNL A   1       6.262   9.300  39.271  1.00  0.00    +0.000 H 
ATOM    143  H41 UNL A   1       4.688  11.352  39.611  1.00  0.00    +0.000 H 
ATOM    144  H42 UNL A   1       2.561   8.392  37.645  1.00  0.00    +0.000 H 
ATOM    145  H43 UNL A   1      -2.751   6.466  34.680  1.00  0.00    +0.000 H 
ATOM    146  H44 UNL A   1      -1.234   4.447  34.405  1.00  0.00    +0.000 H 
ATOM    147  H45 UNL A   1       0.900   7.373  36.446  1.00  0.00    +0.000 H 
ATOM    148  H46 UNL A   1      -2.273  11.225  37.057  1.00  0.00    +0.000 H 
ATOM    149  H47 UNL A   1      -0.333  12.483  38.153  1.00  0.00    +0.000 H 
ATOM    150  H48 UNL A   1       5.539   4.379  37.245  1.00  0.00    +0.000 H 
ATOM    151  H49 UNL A   1       3.787   3.282  35.734  1.00  0.00    +0.000 H 
ATOM     38  C31 UNL A   1       1.378   4.785  35.498  1.00  0.00    +0.000 C 
ATOM     39  C32 UNL A   1       2.646   5.187  36.196  1.00  0.00    +0.000 C 
ATOM     40  N4  UNL A   1       2.925   6.296  36.835  1.00  0.00    +0.000 N 
ATOM     41  C33 UNL A   1       4.213   6.136  37.327  1.00  0.00    +0.000 C 
ATOM     42  C34 UNL A   1       4.975   7.026  38.007  1.00  0.00    +0.000 C 
ATOM     54  C41 UNL A   1       4.552   8.359  38.351  1.00  0.00    +0.000 C 
ATOM     55  C42 UNL A   1       5.274   9.360  38.977  1.00  0.00    +0.000 C 
ATOM     56  C43 UNL A   1       4.434  10.467  39.144  1.00  0.00    +0.000 C 
ATOM     57  C44 UNL A   1       3.204  10.173  38.580  1.00  0.00    +0.000 C 
ATOM     58  N5  UNL A   1       3.289   8.876  38.099  1.00  0.00    +0.000 N 
ATOM     59  C45 UNL A   1       2.036  11.011  38.484  1.00  0.00    +0.000 C 
ATOM     71  C52 UNL A   1       0.868  10.655  37.896  1.00  0.00    +0.000 C 
ATOM     72  N6  UNL A   1       0.533   9.458  37.277  1.00  0.00    +0.000 N 
ATOM     73  C53 UNL A   1      -0.709   9.594  36.880  1.00  0.00    +0.000 C 
ATOM     74  C54 UNL A   1      -1.578   8.621  36.131  1.00  0.00    +0.000 C 
ATOM     86  C61 UNL A   1      -1.066   7.429  35.766  1.00  0.00    +0.000 C 
ATOM     87  C62 UNL A   1      -1.782   6.393  35.028  1.00  0.00    +0.000 C 
ATOM     88  C63 UNL A   1      -0.977   5.331  34.874  1.00  0.00    +0.000 C 
ATOM     89  C64 UNL A   1       0.325   5.625  35.474  1.00  0.00    +0.000 C 
ATOM     90  N7  UNL A   1       0.179   6.893  35.978  1.00  0.00    +0.000 N 
ATOM     91  C65 UNL A   1      -1.312  10.889  37.224  1.00  0.00    +0.000 C 
ATOM     92  C66 UNL A   1      -0.297  11.511  37.807  1.00  0.00    +0.000 C 
ATOM     93  C67 UNL A   1       4.643   4.805  36.957  1.00  0.00    +0.000 C 
ATOM     94  C68 UNL A   1       3.738   4.202  36.200  1.00  0.00    +0.000 C 
ENDROOT
BRANCH   38   37
ATOM     34  C27 UNL A   1       1.106   0.875  33.761  1.00  0.00    +0.000 C 
ATOM     35  C28 UNL A   1       0.466   1.138  34.977  1.00  0.00    +0.000 C 
ATOM     36  C29 UNL A   1       0.523   2.420  35.529  1.00  0.00    +0.000 C 
ATOM     37  C30 UNL A   1       1.249   3.437  34.890  1.00  0.00    +0.000 C 
ATOM    140  H38 UNL A   1      -0.047   0.387  35.464  1.00  0.00    +0.000 H 
ATOM    141  H39 UNL A   1       0.029   2.620  36.413  1.00  0.00    +0.000 H 
ATOM    152  H50 UNL A   1       2.409   3.905  33.185  1.00  0.00    +0.000 H 
ATOM    153  H51 UNL A   1       2.146   1.735  32.138  1.00  0.00    +0.000 H 
ATOM     95  C69 UNL A   1       1.867   3.166  33.659  1.00  0.00    +0.000 C 
ATOM     96  C70 UNL A   1       1.754   1.907  33.076  1.00  0.00    +0.000 C 
BRANCH   34   32
ATOM     33  O4  UNL A   1       0.788  -0.651  32.010  1.00  0.00    +0.000 O 
ATOM     32  C26 UNL A   1       1.039  -0.494  33.201  1.00  0.00    +0.000 C 
BRANCH   32   31
ATOM    139  H37 UNL A   1       0.463  -2.116  34.222  1.00  0.00    +0.000 H 
ATOM     31  N3  UNL A   1       1.261  -1.585  34.003  1.00  0.00    +0.000 N 
BRANCH   31   30
ATOM    137  H35 UNL A   1       2.375  -2.194  35.632  1.00  0.00    +0.000 H 
ATOM    138  H36 UNL A   1       2.749  -2.999  34.106  1.00  0.00    +0.000 H 
ATOM     30  C25 UNL A   1       2.507  -2.069  34.578  1.00  0.00    +0.000 C 
BRANCH   30   29
ATOM     29  C24 UNL A   1       3.664  -1.102  34.336  1.00  0.00    +0.000 C 
ATOM    135  H33 UNL A   1       4.537  -1.677  34.109  1.00  0.00    +0.000 H 
ATOM    136  H34 UNL A   1       3.359  -0.463  33.533  1.00  0.00    +0.000 H 
BRANCH   29   28
ATOM     28  C23 UNL A   1       3.991  -0.183  35.518  1.00  0.00    +0.000 C 
ATOM    133  H31 UNL A   1       5.055  -0.154  35.628  1.00  0.00    +0.000 H 
ATOM    134  H32 UNL A   1       3.555   0.764  35.282  1.00  0.00    +0.000 H 
BRANCH   28   27
ATOM     27  C22 UNL A   1       3.389  -0.599  36.867  1.00  0.00    +0.000 C 
ATOM    132  H30 UNL A   1       4.199  -0.993  37.445  1.00  0.00    +0.000 H 
ATOM    131  H29 UNL A   1       2.614  -1.312  36.677  1.00  0.00    +0.000 H 
BRANCH   27   26
ATOM    129  H27 UNL A   1       3.506   0.832  38.436  1.00  0.00    +0.000 H 
ATOM     26  C21 UNL A   1       2.791   0.544  37.693  1.00  0.00    +0.000 C 
ATOM    130  H28 UNL A   1       2.566   1.337  37.011  1.00  0.00    +0.000 H 
BRANCH   26   25
ATOM     25  C20 UNL A   1       1.482   0.181  38.400  1.00  0.00    +0.000 C 
ATOM    127  H25 UNL A   1       0.690   0.175  37.680  1.00  0.00    +0.000 H 
ATOM    128  H26 UNL A   1       1.603  -0.783  38.848  1.00  0.00    +0.000 H 
BRANCH   25   24
ATOM    126  H24 UNL A   1       0.266   0.994  39.848  1.00  0.00    +0.000 H 
ATOM     24  N2  UNL A   1       1.156   1.126  39.447  1.00  0.00    +0.000 N 
BRANCH   24   22
ATOM     22  C19 UNL A   1       1.860   2.164  39.976  1.00  0.00    +0.000 C 
ATOM     23  O3  UNL A   1       2.739   1.867  40.793  1.00  0.00    +0.000 O 
BRANCH   22   20
ATOM    122  H20 UNL A   1       1.840   3.734  38.598  1.00  0.00    +0.000 H 
ATOM     20  C17 UNL A   1       1.599   3.641  39.636  1.00  0.00    +0.000 C 
BRANCH   20   19
ATOM     97  C71 UNL A   1      -0.604   3.796  40.866  1.00  0.00    +0.000 C 
ATOM     98  C72 UNL A   1      -1.950   4.199  40.979  1.00  0.00    +0.000 C 
ATOM     16  C13 UNL A   1      -2.579   4.936  39.957  1.00  0.00    +0.000 C 
ATOM     17  C14 UNL A   1      -1.844   5.119  38.773  1.00  0.00    +0.000 C 
ATOM     18  C15 UNL A   1      -0.537   4.641  38.630  1.00  0.00    +0.000 C 
ATOM     19  C16 UNL A   1       0.130   4.032  39.693  1.00  0.00    +0.000 C 
ATOM    120  H18 UNL A   1      -2.281   5.623  37.986  1.00  0.00    +0.000 H 
ATOM    121  H19 UNL A   1      -0.059   4.739  37.721  1.00  0.00    +0.000 H 
ATOM    154  H52 UNL A   1      -0.150   3.319  41.660  1.00  0.00    +0.000 H 
BRANCH   16   15
ATOM    102  C73 UNL A   1      -5.070   4.902  39.617  1.00  0.00    +0.000 C 
ATOM     11  C8  UNL A   1      -6.320   5.513  39.731  1.00  0.00    +0.000 C 
ATOM     12  C9  UNL A   1      -6.460   6.768  40.315  1.00  0.00    +0.000 C 
ATOM     13  C10 UNL A   1      -5.331   7.422  40.797  1.00  0.00    +0.000 C 
ATOM     14  C11 UNL A   1      -4.071   6.829  40.665  1.00  0.00    +0.000 C 
ATOM     15  C12 UNL A   1      -3.915   5.562  40.071  1.00  0.00    +0.000 C 
ATOM    117  H15 UNL A   1      -7.390   7.209  40.389  1.00  0.00    +0.000 H 
ATOM    118  H16 UNL A   1      -5.423   8.344  41.251  1.00  0.00    +0.000 H 
ATOM    119  H17 UNL A   1      -3.239   7.331  41.012  1.00  0.00    +0.000 H 
ATOM    155  H53 UNL A   1      -4.994   3.963  39.198  1.00  0.00    +0.000 H 
BRANCH   11   10
ATOM     10  O2  UNL A   1      -7.466   4.970  39.123  1.00  0.00    +0.000 O 
BRANCH   10    8
ATOM      9  O1  UNL A   1      -7.571   3.242  37.570  1.00  0.00    +0.000 O 
ATOM      8  C7  UNL A   1      -7.372   4.415  37.856  1.00  0.00    +0.000 C 
BRANCH    8    7
ATOM    116  H14 UNL A   1      -7.396   6.241  37.010  1.00  0.00    +0.000 H 
ATOM      7  N1  UNL A   1      -7.032   5.333  36.900  1.00  0.00    +0.000 N 
BRANCH    7    6
ATOM    114  H12 UNL A   1      -6.611   4.309  35.161  1.00  0.00    +0.000 H 
ATOM    115  H13 UNL A   1      -6.153   6.015  35.177  1.00  0.00    +0.000 H 
ATOM      6  C6  UNL A   1      -6.192   5.105  35.741  1.00  0.00    +0.000 C 
BRANCH    6    5
ATOM    113  H11 UNL A   1      -4.734   4.732  37.200  1.00  0.00    +0.000 H 
ATOM      5  C5  UNL A   1      -4.761   4.732  36.131  1.00  0.00    +0.000 C 
ATOM    112  H10 UNL A   1      -4.099   5.446  35.689  1.00  0.00    +0.000 H 
BRANCH    5    4
ATOM      4  C4  UNL A   1      -4.315   3.333  35.689  1.00  0.00    +0.000 C 
ATOM    110  H8  UNL A   1      -5.134   2.663  35.842  1.00  0.00    +0.000 H 
ATOM    111  H9  UNL A   1      -4.021   3.428  34.665  1.00  0.00    +0.000 H 
BRANCH    4    3
ATOM      3  C3  UNL A   1      -3.096   2.766  36.425  1.00  0.00    +0.000 C 
ATOM    108  H6  UNL A   1      -2.322   2.605  35.706  1.00  0.00    +0.000 H 
ATOM    109  H7  UNL A   1      -2.845   3.485  37.176  1.00  0.00    +0.000 H 
BRANCH    3    2
ATOM      2  C2  UNL A   1      -3.332   1.448  37.167  1.00  0.00    +0.000 C 
ATOM    107  H5  UNL A   1      -2.435   0.871  37.082  1.00  0.00    +0.000 H 
ATOM    106  H4  UNL A   1      -4.172   0.954  36.726  1.00  0.00    +0.000 H 
BRANCH    2    1
ATOM      1  C1  UNL A   1      -3.608   1.634  38.652  1.00  0.00    +0.000 C 
ATOM    105  H3  UNL A   1      -4.434   1.019  38.941  1.00  0.00    +0.000 H 
ATOM    103  H1  UNL A   1      -3.843   2.660  38.844  1.00  0.00    +0.000 H 
ATOM    104  H2  UNL A   1      -2.741   1.357  39.214  1.00  0.00    +0.000 H 
ENDBRANCH    2    1
ENDBRANCH    3    2
ENDBRANCH    4    3
ENDBRANCH    5    4
ENDBRANCH    6    5
ENDBRANCH    7    6
ENDBRANCH    8    7
ENDBRANCH   10    8
ENDBRANCH   11   10
ENDBRANCH   16   15
BRANCH   98   99
ATOM     99  N8  UNL A   1      -2.674   3.775  42.157  1.00  0.00    +0.000 N 
ATOM    100  O5  UNL A   1      -2.517   4.344  43.219  1.00  0.00    +0.000 O 
ATOM    101  O6  UNL A   1      -3.444   2.637  42.149  1.00  0.00    +0.000 O 
ENDBRANCH   98   99
ENDBRANCH   20   19
BRANCH   20   21
ATOM    125  H23 UNL A   1       3.396   4.082  40.707  1.00  0.00    +0.000 H 
ATOM    123  H21 UNL A   1       2.068   5.160  41.066  1.00  0.00    +0.000 H 
ATOM    124  H22 UNL A   1       2.932   5.311  39.555  1.00  0.00    +0.000 H 
ATOM     21  C18 UNL A   1       2.572   4.622  40.290  1.00  0.00    +0.000 C 
ENDBRANCH   20   21
ENDBRANCH   22   20
ENDBRANCH   24   22
ENDBRANCH   25   24
ENDBRANCH   26   25
ENDBRANCH   27   26
ENDBRANCH   28   27
ENDBRANCH   29   28
ENDBRANCH   30   29
ENDBRANCH   31   30
ENDBRANCH   32   31
ENDBRANCH   34   32
ENDBRANCH   38   37
BRANCH   42   43
ATOM     43  C35 UNL A   1       6.349   6.586  38.424  1.00  0.00    +0.000 C 
ATOM     44  C36 UNL A   1       7.491   6.948  37.693  1.00  0.00    +0.000 C 
ATOM     45  F1  UNL A   1       7.373   7.673  36.571  1.00  0.00    +0.000 F 
ATOM     46  C37 UNL A   1       8.759   6.530  38.090  1.00  0.00    +0.000 C 
ATOM     47  F2  UNL A   1       9.830   6.845  37.348  1.00  0.00    +0.000 F 
ATOM     48  C38 UNL A   1       8.914   5.775  39.243  1.00  0.00    +0.000 C 
ATOM     49  F3  UNL A   1      10.134   5.377  39.626  1.00  0.00    +0.000 F 
ATOM     50  C39 UNL A   1       7.801   5.427  39.995  1.00  0.00    +0.000 C 
ATOM     51  F4  UNL A   1       7.950   4.708  41.116  1.00  0.00    +0.000 F 
ATOM     52  C40 UNL A   1       6.530   5.817  39.583  1.00  0.00    +0.000 C 
ATOM     53  F5  UNL A   1       5.472   5.449  40.323  1.00  0.00    +0.000 F 
ENDBRANCH   42   43
BRANCH   59   60
ATOM     65  C49 UNL A   1       2.216  14.987  40.140  1.00  0.00    +0.000 C 
ATOM     66  F8  UNL A   1       2.273  16.220  40.660  1.00  0.00    +0.000 F 
ATOM     67  C50 UNL A   1       1.775  13.926  40.917  1.00  0.00    +0.000 C 
ATOM     68  F9  UNL A   1       1.385  14.139  42.181  1.00  0.00    +0.000 F 
ATOM     69  C51 UNL A   1       1.737  12.639  40.385  1.00  0.00    +0.000 C 
ATOM     70  F10 UNL A   1       1.319  11.632  41.164  1.00  0.00    +0.000 F 
ATOM     60  C46 UNL A   1       2.119  12.397  39.057  1.00  0.00    +0.000 C 
ATOM     61  C47 UNL A   1       2.543  13.487  38.284  1.00  0.00    +0.000 C 
ATOM     62  F6  UNL A   1       2.934  13.302  37.014  1.00  0.00    +0.000 F 
ATOM     63  C48 UNL A   1       2.607  14.767  38.827  1.00  0.00    +0.000 C 
ATOM     64  F7  UNL A   1       3.060  15.786  38.085  1.00  0.00    +0.000 F 
ENDBRANCH   59   60
BRANCH   74   75
ATOM     75  C55 UNL A   1      -2.974   8.968  35.763  1.00  0.00    +0.000 C 
ATOM     76  C56 UNL A   1      -3.250   9.683  34.589  1.00  0.00    +0.000 C 
ATOM     77  F11 UNL A   1      -2.244  10.086  33.800  1.00  0.00    +0.000 F 
ATOM     78  C57 UNL A   1      -4.557  10.015  34.240  1.00  0.00    +0.000 C 
ATOM     79  F12 UNL A   1      -4.789  10.733  33.133  1.00  0.00    +0.000 F 
ATOM     80  C58 UNL A   1      -5.614   9.618  35.043  1.00  0.00    +0.000 C 
ATOM     81  F13 UNL A   1      -6.872   9.931  34.704  1.00  0.00    +0.000 F 
ATOM     82  C59 UNL A   1      -5.366   8.897  36.202  1.00  0.00    +0.000 C 
ATOM     83  F14 UNL A   1      -6.387   8.497  36.973  1.00  0.00    +0.000 F 
ATOM     84  C60 UNL A   1      -4.058   8.587  36.567  1.00  0.00    +0.000 C 
ATOM     85  F15 UNL A   1      -3.846   7.896  37.696  1.00  0.00    +0.000 F 
ENDBRANCH   74   75
TORSDOF 28
ENDMDL
MODEL 9
REMARK VINA RESULT:      -5.6      3.958      8.802
ROOT
ATOM    142  H40 UNL A   1      13.424  46.470   2.832  1.00  0.00    +0.000 H 
ATOM    143  H41 UNL A   1      15.081  46.634   0.825  1.00  0.00    +0.000 H 
ATOM    144  H42 UNL A   1      14.847  50.355   2.627  1.00  0.00    +0.000 H 
ATOM    145  H43 UNL A   1      16.370  56.552   2.697  1.00  0.00    +0.000 H 
ATOM    146  H44 UNL A   1      14.802  56.373   4.688  1.00  0.00    +0.000 H 
ATOM    147  H45 UNL A   1      15.078  52.609   2.944  1.00  0.00    +0.000 H 
ATOM    148  H46 UNL A   1      18.328  53.085  -0.862  1.00  0.00    +0.000 H 
ATOM    149  H47 UNL A   1      17.860  50.627  -1.400  1.00  0.00    +0.000 H 
ATOM    150  H48 UNL A   1      11.858  49.931   6.629  1.00  0.00    +0.000 H 
ATOM    151  H49 UNL A   1      11.930  52.475   6.901  1.00  0.00    +0.000 H 
ATOM     38  C31 UNL A   1      13.718  53.768   5.097  1.00  0.00    +0.000 C 
ATOM     39  C32 UNL A   1      13.339  52.315   5.130  1.00  0.00    +0.000 C 
ATOM     40  N4  UNL A   1      13.733  51.337   4.352  1.00  0.00    +0.000 N 
ATOM     41  C33 UNL A   1      13.119  50.192   4.842  1.00  0.00    +0.000 C 
ATOM     42  C34 UNL A   1      13.162  48.932   4.347  1.00  0.00    +0.000 C 
ATOM     54  C41 UNL A   1      13.892  48.550   3.166  1.00  0.00    +0.000 C 
ATOM     55  C42 UNL A   1      13.942  47.315   2.544  1.00  0.00    +0.000 C 
ATOM     56  C43 UNL A   1      14.819  47.408   1.457  1.00  0.00    +0.000 C 
ATOM     57  C44 UNL A   1      15.277  48.712   1.372  1.00  0.00    +0.000 C 
ATOM     58  N5  UNL A   1      14.702  49.402   2.429  1.00  0.00    +0.000 N 
ATOM     59  C45 UNL A   1      16.171  49.290   0.402  1.00  0.00    +0.000 C 
ATOM     71  C52 UNL A   1      16.559  50.589   0.377  1.00  0.00    +0.000 C 
ATOM     72  N6  UNL A   1      16.207  51.620   1.236  1.00  0.00    +0.000 N 
ATOM     73  C53 UNL A   1      16.849  52.680   0.808  1.00  0.00    +0.000 C 
ATOM     74  C54 UNL A   1      16.823  54.086   1.342  1.00  0.00    +0.000 C 
ATOM     86  C61 UNL A   1      16.037  54.374   2.396  1.00  0.00    +0.000 C 
ATOM     87  C62 UNL A   1      15.900  55.690   3.014  1.00  0.00    +0.000 C 
ATOM     88  C63 UNL A   1      15.063  55.597   4.059  1.00  0.00    +0.000 C 
ATOM     89  C64 UNL A   1      14.578  54.220   4.165  1.00  0.00    +0.000 C 
ATOM     90  N7  UNL A   1      15.208  53.566   3.135  1.00  0.00    +0.000 N 
ATOM     91  C65 UNL A   1      17.703  52.433  -0.363  1.00  0.00    +0.000 C 
ATOM     92  C66 UNL A   1      17.459  51.154  -0.608  1.00  0.00    +0.000 C 
ATOM     93  C67 UNL A   1      12.366  50.586   6.014  1.00  0.00    +0.000 C 
ATOM     94  C68 UNL A   1      12.416  51.898   6.196  1.00  0.00    +0.000 C 
ENDROOT
BRANCH   38   37
ATOM     34  C27 UNL A   1      12.303  56.535   8.050  1.00  0.00    +0.000 C 
ATOM     35  C28 UNL A   1      11.535  56.291   6.907  1.00  0.00    +0.000 C 
ATOM     36  C29 UNL A   1      11.975  55.364   5.959  1.00  0.00    +0.000 C 
ATOM     37  C30 UNL A   1      13.202  54.703   6.128  1.00  0.00    +0.000 C 
ATOM    140  H38 UNL A   1      10.646  56.793   6.765  1.00  0.00    +0.000 H 
ATOM    141  H39 UNL A   1      11.396  55.165   5.128  1.00  0.00    +0.000 H 
ATOM    152  H50 UNL A   1      14.858  54.464   7.421  1.00  0.00    +0.000 H 
ATOM    153  H51 UNL A   1      13.998  55.926   9.153  1.00  0.00    +0.000 H 
ATOM     95  C69 UNL A   1      13.952  54.940   7.290  1.00  0.00    +0.000 C 
ATOM     96  C70 UNL A   1      13.480  55.812   8.267  1.00  0.00    +0.000 C 
BRANCH   34   32
ATOM     33  O4  UNL A   1      12.290  58.662   9.036  1.00  0.00    +0.000 O 
ATOM     32  C26 UNL A   1      11.820  57.528   9.036  1.00  0.00    +0.000 C 
BRANCH   32   31
ATOM    139  H37 UNL A   1       9.951  57.543   9.753  1.00  0.00    +0.000 H 
ATOM     31  N3  UNL A   1      10.849  57.190   9.945  1.00  0.00    +0.000 N 
BRANCH   31   30
ATOM    137  H35 UNL A   1      11.971  56.067  11.267  1.00  0.00    +0.000 H 
ATOM    138  H36 UNL A   1      10.645  56.989  11.980  1.00  0.00    +0.000 H 
ATOM     30  C25 UNL A   1      10.956  56.385  11.152  1.00  0.00    +0.000 C 
BRANCH   30   29
ATOM     29  C24 UNL A   1      10.055  55.153  11.101  1.00  0.00    +0.000 C 
ATOM    135  H33 UNL A   1      10.142  54.638  12.035  1.00  0.00    +0.000 H 
ATOM    136  H34 UNL A   1       9.066  55.512  10.907  1.00  0.00    +0.000 H 
BRANCH   29   28
ATOM     28  C23 UNL A   1      10.382  54.164   9.977  1.00  0.00    +0.000 C 
ATOM    133  H31 UNL A   1      11.260  54.513   9.475  1.00  0.00    +0.000 H 
ATOM    134  H32 UNL A   1      10.504  53.213  10.451  1.00  0.00    +0.000 H 
BRANCH   28   27
ATOM     27  C22 UNL A   1       9.282  53.970   8.924  1.00  0.00    +0.000 C 
ATOM    132  H30 UNL A   1       9.168  54.917   8.437  1.00  0.00    +0.000 H 
ATOM    131  H29 UNL A   1       8.398  53.640   9.427  1.00  0.00    +0.000 H 
BRANCH   27   26
ATOM    129  H27 UNL A   1      10.636  53.078   7.548  1.00  0.00    +0.000 H 
ATOM     26  C21 UNL A   1       9.608  52.959   7.821  1.00  0.00    +0.000 C 
ATOM    130  H28 UNL A   1       9.397  51.988   8.217  1.00  0.00    +0.000 H 
BRANCH   26   25
ATOM     25  C20 UNL A   1       8.754  53.119   6.560  1.00  0.00    +0.000 C 
ATOM    127  H25 UNL A   1       7.892  53.708   6.797  1.00  0.00    +0.000 H 
ATOM    128  H26 UNL A   1       9.352  53.596   5.812  1.00  0.00    +0.000 H 
BRANCH   25   24
ATOM    126  H24 UNL A   1       9.051  51.231   5.796  1.00  0.00    +0.000 H 
ATOM     24  N2  UNL A   1       8.318  51.840   6.039  1.00  0.00    +0.000 N 
BRANCH   24   22
ATOM     22  C19 UNL A   1       7.073  51.331   5.827  1.00  0.00    +0.000 C 
ATOM     23  O3  UNL A   1       6.793  51.045   4.657  1.00  0.00    +0.000 O 
BRANCH   22   20
ATOM    122  H20 UNL A   1       5.364  50.380   6.559  1.00  0.00    +0.000 H 
ATOM     20  C17 UNL A   1       6.027  51.131   6.935  1.00  0.00    +0.000 C 
BRANCH   20   19
ATOM     97  C71 UNL A   1       6.881  49.131   8.223  1.00  0.00    +0.000 C 
ATOM     98  C72 UNL A   1       7.458  48.524   9.357  1.00  0.00    +0.000 C 
ATOM     16  C13 UNL A   1       7.848  49.287  10.473  1.00  0.00    +0.000 C 
ATOM     17  C14 UNL A   1       7.501  50.649  10.454  1.00  0.00    +0.000 C 
ATOM     18  C15 UNL A   1       6.848  51.233   9.363  1.00  0.00    +0.000 C 
ATOM     19  C16 UNL A   1       6.588  50.503   8.202  1.00  0.00    +0.000 C 
ATOM    120  H18 UNL A   1       7.736  51.237  11.268  1.00  0.00    +0.000 H 
ATOM    121  H19 UNL A   1       6.553  52.220   9.417  1.00  0.00    +0.000 H 
ATOM    154  H52 UNL A   1       6.671  48.555   7.392  1.00  0.00    +0.000 H 
BRANCH   16   15
ATOM    102  C73 UNL A   1      10.029  48.904  11.665  1.00  0.00    +0.000 C 
ATOM     11  C8  UNL A   1      10.747  48.402  12.752  1.00  0.00    +0.000 C 
ATOM     12  C9  UNL A   1      10.105  47.784  13.820  1.00  0.00    +0.000 C 
ATOM     13  C10 UNL A   1       8.719  47.669  13.803  1.00  0.00    +0.000 C 
ATOM     14  C11 UNL A   1       7.992  48.146  12.707  1.00  0.00    +0.000 C 
ATOM     15  C12 UNL A   1       8.630  48.768  11.617  1.00  0.00    +0.000 C 
ATOM    117  H15 UNL A   1      10.649  47.415  14.614  1.00  0.00    +0.000 H 
ATOM    118  H16 UNL A   1       8.227  47.231  14.598  1.00  0.00    +0.000 H 
ATOM    119  H17 UNL A   1       6.966  48.040  12.698  1.00  0.00    +0.000 H 
ATOM    155  H53 UNL A   1      10.526  49.375  10.894  1.00  0.00    +0.000 H 
BRANCH   11   10
ATOM     10  O2  UNL A   1      12.153  48.351  12.748  1.00  0.00    +0.000 O 
BRANCH   10    8
ATOM      9  O1  UNL A   1      12.683  46.328  11.729  1.00  0.00    +0.000 O 
ATOM      8  C7  UNL A   1      12.807  47.542  11.832  1.00  0.00    +0.000 C 
BRANCH    8    7
ATOM    116  H14 UNL A   1      13.792  49.191  11.230  1.00  0.00    +0.000 H 
ATOM      7  N1  UNL A   1      13.639  48.245  11.004  1.00  0.00    +0.000 N 
BRANCH    7    6
ATOM    114  H12 UNL A   1      14.225  46.674   9.805  1.00  0.00    +0.000 H 
ATOM    115  H13 UNL A   1      13.864  48.186   8.966  1.00  0.00    +0.000 H 
ATOM      6  C6  UNL A   1      14.319  47.740   9.827  1.00  0.00    +0.000 C 
BRANCH    6    5
ATOM    113  H11 UNL A   1      16.086  48.181   8.788  1.00  0.00    +0.000 H 
ATOM      5  C5  UNL A   1      15.803  48.105   9.818  1.00  0.00    +0.000 C 
ATOM    112  H10 UNL A   1      16.336  47.345  10.349  1.00  0.00    +0.000 H 
BRANCH    5    4
ATOM      4  C4  UNL A   1      16.140  49.458  10.456  1.00  0.00    +0.000 C 
ATOM    110  H8  UNL A   1      15.288  49.779  11.016  1.00  0.00    +0.000 H 
ATOM    111  H9  UNL A   1      17.011  49.291  11.055  1.00  0.00    +0.000 H 
BRANCH    4    3
ATOM      3  C3  UNL A   1      16.511  50.576   9.477  1.00  0.00    +0.000 C 
ATOM    108  H6  UNL A   1      16.560  51.493  10.025  1.00  0.00    +0.000 H 
ATOM    109  H7  UNL A   1      17.443  50.286   9.038  1.00  0.00    +0.000 H 
BRANCH    3    2
ATOM      2  C2  UNL A   1      15.541  50.777   8.309  1.00  0.00    +0.000 C 
ATOM    107  H5  UNL A   1      15.101  51.745   8.426  1.00  0.00    +0.000 H 
ATOM    106  H4  UNL A   1      14.810  49.995   8.337  1.00  0.00    +0.000 H 
BRANCH    2    1
ATOM      1  C1  UNL A   1      16.222  50.752   6.950  1.00  0.00    +0.000 C 
ATOM    105  H3  UNL A   1      16.456  49.742   6.686  1.00  0.00    +0.000 H 
ATOM    103  H1  UNL A   1      17.124  51.327   6.992  1.00  0.00    +0.000 H 
ATOM    104  H2  UNL A   1      15.567  51.171   6.214  1.00  0.00    +0.000 H 
ENDBRANCH    2    1
ENDBRANCH    3    2
ENDBRANCH    4    3
ENDBRANCH    5    4
ENDBRANCH    6    5
ENDBRANCH    7    6
ENDBRANCH    8    7
ENDBRANCH   10    8
ENDBRANCH   11   10
ENDBRANCH   16   15
BRANCH   98   99
ATOM     99  N8  UNL A   1       7.579  47.082   9.351  1.00  0.00    +0.000 N 
ATOM    100  O5  UNL A   1       8.648  46.551   9.128  1.00  0.00    +0.000 O 
ATOM    101  O6  UNL A   1       6.472  46.274   9.450  1.00  0.00    +0.000 O 
ENDBRANCH   98   99
ENDBRANCH   20   19
BRANCH   20   21
ATOM    125  H23 UNL A   1       4.145  52.117   6.691  1.00  0.00    +0.000 H 
ATOM    123  H21 UNL A   1       5.520  53.195   6.697  1.00  0.00    +0.000 H 
ATOM    124  H22 UNL A   1       4.956  52.490   8.193  1.00  0.00    +0.000 H 
ATOM     21  C18 UNL A   1       5.092  52.322   7.145  1.00  0.00    +0.000 C 
ENDBRANCH   20   21
ENDBRANCH   22   20
ENDBRANCH   24   22
ENDBRANCH   25   24
ENDBRANCH   26   25
ENDBRANCH   27   26
ENDBRANCH   28   27
ENDBRANCH   29   28
ENDBRANCH   30   29
ENDBRANCH   31   30
ENDBRANCH   32   31
ENDBRANCH   34   32
ENDBRANCH   38   37
BRANCH   42   43
ATOM     43  C35 UNL A   1      12.395  47.872   5.083  1.00  0.00    +0.000 C 
ATOM     44  C36 UNL A   1      12.942  47.200   6.187  1.00  0.00    +0.000 C 
ATOM     45  F1  UNL A   1      14.193  47.468   6.588  1.00  0.00    +0.000 F 
ATOM     46  C37 UNL A   1      12.219  46.217   6.859  1.00  0.00    +0.000 C 
ATOM     47  F2  UNL A   1      12.782  45.552   7.878  1.00  0.00    +0.000 F 
ATOM     48  C38 UNL A   1      10.925  45.913   6.465  1.00  0.00    +0.000 C 
ATOM     49  F3  UNL A   1      10.230  44.970   7.115  1.00  0.00    +0.000 F 
ATOM     50  C39 UNL A   1      10.354  46.582   5.393  1.00  0.00    +0.000 C 
ATOM     51  F4  UNL A   1       9.099  46.299   5.019  1.00  0.00    +0.000 F 
ATOM     52  C40 UNL A   1      11.085  47.544   4.700  1.00  0.00    +0.000 C 
ATOM     53  F5  UNL A   1      10.511  48.161   3.656  1.00  0.00    +0.000 F 
ENDBRANCH   42   43
BRANCH   59   60
ATOM     65  C49 UNL A   1      17.648  46.685  -2.698  1.00  0.00    +0.000 C 
ATOM     66  F8  UNL A   1      18.104  45.877  -3.665  1.00  0.00    +0.000 F 
ATOM     67  C50 UNL A   1      16.361  47.199  -2.771  1.00  0.00    +0.000 C 
ATOM     68  F9  UNL A   1      15.567  46.870  -3.799  1.00  0.00    +0.000 F 
ATOM     69  C51 UNL A   1      15.895  48.056  -1.779  1.00  0.00    +0.000 C 
ATOM     70  F10 UNL A   1      14.652  48.548  -1.883  1.00  0.00    +0.000 F 
ATOM     60  C46 UNL A   1      16.701  48.396  -0.682  1.00  0.00    +0.000 C 
ATOM     61  C47 UNL A   1      17.991  47.849  -0.618  1.00  0.00    +0.000 C 
ATOM     62  F6  UNL A   1      18.805  48.158   0.403  1.00  0.00    +0.000 F 
ATOM     63  C48 UNL A   1      18.465  47.015  -1.627  1.00  0.00    +0.000 C 
ATOM     64  F7  UNL A   1      19.717  46.543  -1.569  1.00  0.00    +0.000 F 
ENDBRANCH   59   60
BRANCH   74   75
ATOM     75  C55 UNL A   1      17.626  55.160   0.705  1.00  0.00    +0.000 C 
ATOM     76  C56 UNL A   1      17.158  55.825  -0.437  1.00  0.00    +0.000 C 
ATOM     77  F11 UNL A   1      15.986  55.471  -0.983  1.00  0.00    +0.000 F 
ATOM     78  C57 UNL A   1      17.908  56.832  -1.041  1.00  0.00    +0.000 C 
ATOM     79  F12 UNL A   1      17.455  57.424  -2.155  1.00  0.00    +0.000 F 
ATOM     80  C58 UNL A   1      19.127  57.211  -0.501  1.00  0.00    +0.000 C 
ATOM     81  F13 UNL A   1      19.845  58.184  -1.079  1.00  0.00    +0.000 F 
ATOM     82  C59 UNL A   1      19.603  56.578   0.637  1.00  0.00    +0.000 C 
ATOM     83  F14 UNL A   1      20.774  56.952   1.171  1.00  0.00    +0.000 F 
ATOM     84  C60 UNL A   1      18.868  55.553   1.227  1.00  0.00    +0.000 C 
ATOM     85  F15 UNL A   1      19.355  54.952   2.322  1.00  0.00    +0.000 F 
ENDBRANCH   74   75
TORSDOF 28
ENDMDL
MODEL 10
REMARK VINA RESULT:      -5.5     19.556     25.604
ROOT
ATOM    142  H40 UNL A   1      12.481  29.741   1.082  1.00  0.00    +0.000 H 
ATOM    143  H41 UNL A   1      12.464  27.373   2.172  1.00  0.00    +0.000 H 
ATOM    144  H42 UNL A   1       8.544  28.514   1.480  1.00  0.00    +0.000 H 
ATOM    145  H43 UNL A   1       2.289  27.402   2.084  1.00  0.00    +0.000 H 
ATOM    146  H44 UNL A   1       2.313  29.683   0.966  1.00  0.00    +0.000 H 
ATOM    147  H45 UNL A   1       6.259  28.528   1.581  1.00  0.00    +0.000 H 
ATOM    148  H46 UNL A   1       6.052  23.945   3.638  1.00  0.00    +0.000 H 
ATOM    149  H47 UNL A   1       8.606  24.038   3.787  1.00  0.00    +0.000 H 
ATOM    150  H48 UNL A   1       8.634  32.952  -0.849  1.00  0.00    +0.000 H 
ATOM    151  H49 UNL A   1       6.092  33.099  -0.578  1.00  0.00    +0.000 H 
ATOM     38  C31 UNL A   1       4.921  30.743   0.518  1.00  0.00    +0.000 C 
ATOM     39  C32 UNL A   1       6.382  31.046   0.341  1.00  0.00    +0.000 C 
ATOM     40  N4  UNL A   1       7.423  30.312   0.648  1.00  0.00    +0.000 N 
ATOM     41  C33 UNL A   1       8.532  31.039   0.237  1.00  0.00    +0.000 C 
ATOM     42  C34 UNL A   1       9.844  30.736   0.386  1.00  0.00    +0.000 C 
ATOM     54  C41 UNL A   1      10.333  29.545   1.031  1.00  0.00    +0.000 C 
ATOM     55  C42 UNL A   1      11.641  29.179   1.293  1.00  0.00    +0.000 C 
ATOM     56  C43 UNL A   1      11.631  27.915   1.893  1.00  0.00    +0.000 C 
ATOM     57  C44 UNL A   1      10.314  27.514   2.049  1.00  0.00    +0.000 C 
ATOM     58  N5  UNL A   1       9.528  28.522   1.513  1.00  0.00    +0.000 N 
ATOM     59  C45 UNL A   1       9.808  26.303   2.642  1.00  0.00    +0.000 C 
ATOM     71  C52 UNL A   1       8.495  25.990   2.775  1.00  0.00    +0.000 C 
ATOM     72  N6  UNL A   1       7.381  26.724   2.390  1.00  0.00    +0.000 N 
ATOM     73  C53 UNL A   1       6.341  25.996   2.716  1.00  0.00    +0.000 C 
ATOM     74  C54 UNL A   1       4.878  26.306   2.557  1.00  0.00    +0.000 C 
ATOM     86  C61 UNL A   1       4.511  27.489   2.028  1.00  0.00    +0.000 C 
ATOM     87  C62 UNL A   1       3.135  27.933   1.823  1.00  0.00    +0.000 C 
ATOM     88  C63 UNL A   1       3.148  29.143   1.243  1.00  0.00    +0.000 C 
ATOM     89  C64 UNL A   1       4.535  29.575   1.065  1.00  0.00    +0.000 C 
ATOM     90  N7  UNL A   1       5.274  28.530   1.561  1.00  0.00    +0.000 N 
ATOM     91  C65 UNL A   1       6.680  24.703   3.328  1.00  0.00    +0.000 C 
ATOM     92  C66 UNL A   1       8.002  24.767   3.375  1.00  0.00    +0.000 C 
ATOM     93  C67 UNL A   1       8.037  32.248  -0.387  1.00  0.00    +0.000 C 
ATOM     94  C68 UNL A   1       6.718  32.331  -0.289  1.00  0.00    +0.000 C 
ENDROOT
BRANCH   38   37
ATOM     34  C27 UNL A   1       1.880  33.419  -0.887  1.00  0.00    +0.000 C 
ATOM     35  C28 UNL A   1       2.398  33.576   0.403  1.00  0.00    +0.000 C 
ATOM     36  C29 UNL A   1       3.413  32.728   0.853  1.00  0.00    +0.000 C 
ATOM     37  C30 UNL A   1       3.892  31.696   0.031  1.00  0.00    +0.000 C 
ATOM    140  H38 UNL A   1       2.031  34.316   1.020  1.00  0.00    +0.000 H 
ATOM    141  H39 UNL A   1       3.812  32.861   1.795  1.00  0.00    +0.000 H 
ATOM    152  H50 UNL A   1       3.722  30.804  -1.879  1.00  0.00    +0.000 H 
ATOM    153  H51 UNL A   1       2.099  32.396  -2.721  1.00  0.00    +0.000 H 
ATOM     95  C69 UNL A   1       3.381  31.564  -1.269  1.00  0.00    +0.000 C 
ATOM     96  C70 UNL A   1       2.417  32.451  -1.741  1.00  0.00    +0.000 C 
BRANCH   34   32
ATOM     33  O4  UNL A   1       0.550  35.340  -0.695  1.00  0.00    +0.000 O 
ATOM     32  C26 UNL A   1       0.798  34.324  -1.337  1.00  0.00    +0.000 C 
BRANCH   32   31
ATOM    139  H37 UNL A   1      -0.748  33.521  -2.323  1.00  0.00    +0.000 H 
ATOM     31  N3  UNL A   1       0.078  34.037  -2.468  1.00  0.00    +0.000 N 
BRANCH   31   30
ATOM    137  H35 UNL A   1       0.958  33.612  -4.288  1.00  0.00    +0.000 H 
ATOM    138  H36 UNL A   1      -0.578  34.478  -4.366  1.00  0.00    +0.000 H 
ATOM     30  C25 UNL A   1       0.357  34.383  -3.854  1.00  0.00    +0.000 C 
BRANCH   30   29
ATOM     29  C24 UNL A   1       1.098  35.713  -3.973  1.00  0.00    +0.000 C 
ATOM    135  H33 UNL A   1       0.395  36.460  -4.277  1.00  0.00    +0.000 H 
ATOM    136  H34 UNL A   1       1.529  35.905  -3.012  1.00  0.00    +0.000 H 
BRANCH   29   28
ATOM     28  C23 UNL A   1       2.260  35.715  -4.973  1.00  0.00    +0.000 C 
ATOM    133  H31 UNL A   1       3.138  35.382  -4.459  1.00  0.00    +0.000 H 
ATOM    134  H32 UNL A   1       1.958  35.074  -5.773  1.00  0.00    +0.000 H 
BRANCH   28   27
ATOM     27  C22 UNL A   1       2.577  37.072  -5.617  1.00  0.00    +0.000 C 
ATOM    132  H30 UNL A   1       2.736  37.755  -4.809  1.00  0.00    +0.000 H 
ATOM    131  H29 UNL A   1       1.753  37.339  -6.246  1.00  0.00    +0.000 H 
BRANCH   27   26
ATOM    129  H27 UNL A   1       4.156  36.100  -6.659  1.00  0.00    +0.000 H 
ATOM     26  C21 UNL A   1       3.853  37.108  -6.464  1.00  0.00    +0.000 C 
ATOM    130  H28 UNL A   1       3.618  37.647  -7.358  1.00  0.00    +0.000 H 
BRANCH   26   25
ATOM     25  C20 UNL A   1       5.020  37.841  -5.797  1.00  0.00    +0.000 C 
ATOM    127  H25 UNL A   1       5.665  38.229  -6.557  1.00  0.00    +0.000 H 
ATOM    128  H26 UNL A   1       4.617  38.628  -5.195  1.00  0.00    +0.000 H 
BRANCH   25   24
ATOM    126  H24 UNL A   1       5.260  36.537  -4.222  1.00  0.00    +0.000 H 
ATOM     24  N2  UNL A   1       5.786  36.963  -4.937  1.00  0.00    +0.000 N 
BRANCH   24   22
ATOM     22  C19 UNL A   1       7.104  36.622  -4.941  1.00  0.00    +0.000 C 
ATOM     23  O3  UNL A   1       7.848  37.315  -4.238  1.00  0.00    +0.000 O 
BRANCH   22   20
ATOM    122  H20 UNL A   1       8.751  35.564  -5.667  1.00  0.00    +0.000 H 
ATOM     20  C17 UNL A   1       7.691  35.473  -5.776  1.00  0.00    +0.000 C 
BRANCH   20   19
ATOM     97  C71 UNL A   1       6.888  33.092  -6.054  1.00  0.00    +0.000 C 
ATOM     98  C72 UNL A   1       6.659  31.783  -5.582  1.00  0.00    +0.000 C 
ATOM     16  C13 UNL A   1       7.020  31.407  -4.274  1.00  0.00    +0.000 C 
ATOM     17  C14 UNL A   1       7.481  32.433  -3.431  1.00  0.00    +0.000 C 
ATOM     18  C15 UNL A   1       7.624  33.751  -3.876  1.00  0.00    +0.000 C 
ATOM     19  C16 UNL A   1       7.396  34.091  -5.210  1.00  0.00    +0.000 C 
ATOM    120  H18 UNL A   1       7.722  32.207  -2.454  1.00  0.00    +0.000 H 
ATOM    121  H19 UNL A   1       7.902  34.485  -3.206  1.00  0.00    +0.000 H 
ATOM    154  H52 UNL A   1       6.678  33.319  -7.038  1.00  0.00    +0.000 H 
BRANCH   16   15
ATOM    102  C73 UNL A   1       8.042  29.122  -4.038  1.00  0.00    +0.000 C 
ATOM     11  C8  UNL A   1       7.997  27.816  -3.547  1.00  0.00    +0.000 C 
ATOM     12  C9  UNL A   1       6.940  27.377  -2.756  1.00  0.00    +0.000 C 
ATOM     13  C10 UNL A   1       5.912  28.262  -2.447  1.00  0.00    +0.000 C 
ATOM     14  C11 UNL A   1       5.935  29.565  -2.955  1.00  0.00    +0.000 C 
ATOM     15  C12 UNL A   1       6.996  30.019  -3.761  1.00  0.00    +0.000 C 
ATOM    117  H15 UNL A   1       6.918  26.408  -2.403  1.00  0.00    +0.000 H 
ATOM    118  H16 UNL A   1       5.132  27.956  -1.844  1.00  0.00    +0.000 H 
ATOM    119  H17 UNL A   1       5.159  30.206  -2.732  1.00  0.00    +0.000 H 
ATOM    155  H53 UNL A   1       8.846  29.429  -4.606  1.00  0.00    +0.000 H 
BRANCH   11   10
ATOM     10  O2  UNL A   1       8.924  26.840  -3.955  1.00  0.00    +0.000 O 
BRANCH   10    8
ATOM      9  O1  UNL A   1       7.708  25.170  -5.023  1.00  0.00    +0.000 O 
ATOM      8  C7  UNL A   1       8.501  25.537  -4.166  1.00  0.00    +0.000 C 
BRANCH    8    7
ATOM    116  H14 UNL A   1       8.930  23.691  -3.488  1.00  0.00    +0.000 H 
ATOM      7  N1  UNL A   1       9.077  24.647  -3.301  1.00  0.00    +0.000 N 
BRANCH    7    6
ATOM    114  H12 UNL A   1      10.531  24.141  -1.930  1.00  0.00    +0.000 H 
ATOM    115  H13 UNL A   1      10.438  25.853  -2.355  1.00  0.00    +0.000 H 
ATOM      6  C6  UNL A   1       9.880  24.966  -2.138  1.00  0.00    +0.000 C 
BRANCH    6    5
ATOM    113  H11 UNL A   1       8.369  26.047  -1.166  1.00  0.00    +0.000 H 
ATOM      5  C5  UNL A   1       9.022  25.241  -0.903  1.00  0.00    +0.000 C 
ATOM    112  H10 UNL A   1       9.675  25.473  -0.089  1.00  0.00    +0.000 H 
BRANCH    5    4
ATOM      4  C4  UNL A   1       8.118  24.080  -0.472  1.00  0.00    +0.000 C 
ATOM    110  H8  UNL A   1       8.283  23.267  -1.146  1.00  0.00    +0.000 H 
ATOM    111  H9  UNL A   1       8.384  23.861   0.541  1.00  0.00    +0.000 H 
BRANCH    4    3
ATOM      3  C3  UNL A   1       6.616  24.383  -0.455  1.00  0.00    +0.000 C 
ATOM    108  H6  UNL A   1       6.276  24.310   0.556  1.00  0.00    +0.000 H 
ATOM    109  H7  UNL A   1       6.508  25.360  -0.878  1.00  0.00    +0.000 H 
BRANCH    3    2
ATOM      2  C2  UNL A   1       5.749  23.456  -1.313  1.00  0.00    +0.000 C 
ATOM    107  H5  UNL A   1       4.883  23.209  -0.735  1.00  0.00    +0.000 H 
ATOM    106  H4  UNL A   1       6.325  22.592  -1.567  1.00  0.00    +0.000 H 
BRANCH    2    1
ATOM      1  C1  UNL A   1       5.263  24.107  -2.599  1.00  0.00    +0.000 C 
ATOM    105  H3  UNL A   1       4.452  24.769  -2.378  1.00  0.00    +0.000 H 
ATOM    103  H1  UNL A   1       4.931  23.350  -3.278  1.00  0.00    +0.000 H 
ATOM    104  H2  UNL A   1       6.064  24.659  -3.045  1.00  0.00    +0.000 H 
ENDBRANCH    2    1
ENDBRANCH    3    2
ENDBRANCH    4    3
ENDBRANCH    5    4
ENDBRANCH    6    5
ENDBRANCH    7    6
ENDBRANCH    8    7
ENDBRANCH   10    8
ENDBRANCH   11   10
ENDBRANCH   16   15
BRANCH   98   99
ATOM     99  N8  UNL A   1       5.987  30.863  -6.472  1.00  0.00    +0.000 N 
ATOM    100  O5  UNL A   1       6.604  30.281  -7.341  1.00  0.00    +0.000 O 
ATOM    101  O6  UNL A   1       4.619  30.730  -6.460  1.00  0.00    +0.000 O 
ENDBRANCH   98   99
ENDBRANCH   20   19
BRANCH   20   21
ATOM    125  H23 UNL A   1       6.828  34.870  -7.637  1.00  0.00    +0.000 H 
ATOM    123  H21 UNL A   1       8.443  35.521  -7.777  1.00  0.00    +0.000 H 
ATOM    124  H22 UNL A   1       7.092  36.592  -7.497  1.00  0.00    +0.000 H 
ATOM     21  C18 UNL A   1       7.499  35.625  -7.285  1.00  0.00    +0.000 C 
ENDBRANCH   20   21
ENDBRANCH   22   20
ENDBRANCH   24   22
ENDBRANCH   25   24
ENDBRANCH   26   25
ENDBRANCH   27   26
ENDBRANCH   28   27
ENDBRANCH   29   28
ENDBRANCH   30   29
ENDBRANCH   31   30
ENDBRANCH   32   31
ENDBRANCH   34   32
ENDBRANCH   38   37
BRANCH   42   43
ATOM     43  C35 UNL A   1      10.847  31.713  -0.158  1.00  0.00    +0.000 C 
ATOM     44  C36 UNL A   1      11.591  32.551   0.686  1.00  0.00    +0.000 C 
ATOM     45  F1  UNL A   1      11.391  32.524   2.011  1.00  0.00    +0.000 F 
ATOM     46  C37 UNL A   1      12.516  33.453   0.166  1.00  0.00    +0.000 C 
ATOM     47  F2  UNL A   1      13.177  34.281   0.987  1.00  0.00    +0.000 F 
ATOM     48  C38 UNL A   1      12.741  33.510  -1.201  1.00  0.00    +0.000 C 
ATOM     49  F3  UNL A   1      13.634  34.376  -1.699  1.00  0.00    +0.000 F 
ATOM     50  C39 UNL A   1      12.035  32.672  -2.052  1.00  0.00    +0.000 C 
ATOM     51  F4  UNL A   1      12.262  32.716  -3.373  1.00  0.00    +0.000 F 
ATOM     52  C40 UNL A   1      11.089  31.790  -1.538  1.00  0.00    +0.000 C 
ATOM     53  F5  UNL A   1      10.410  31.006  -2.390  1.00  0.00    +0.000 F 
ENDBRANCH   42   43
BRANCH   59   60
ATOM     65  C49 UNL A   1      12.634  23.424   4.161  1.00  0.00    +0.000 C 
ATOM     66  F8  UNL A   1      13.515  22.529   4.629  1.00  0.00    +0.000 F 
ATOM     67  C50 UNL A   1      12.341  23.468   2.806  1.00  0.00    +0.000 C 
ATOM     68  F9  UNL A   1      12.923  22.600   1.968  1.00  0.00    +0.000 F 
ATOM     69  C51 UNL A   1      11.443  24.412   2.316  1.00  0.00    +0.000 C 
ATOM     70  F10 UNL A   1      11.190  24.439   0.999  1.00  0.00    +0.000 F 
ATOM     60  C46 UNL A   1      10.804  25.315   3.178  1.00  0.00    +0.000 C 
ATOM     61  C47 UNL A   1      11.100  25.241   4.547  1.00  0.00    +0.000 C 
ATOM     62  F6  UNL A   1      10.527  26.094   5.409  1.00  0.00    +0.000 F 
ATOM     63  C48 UNL A   1      12.020  24.314   5.030  1.00  0.00    +0.000 C 
ATOM     64  F7  UNL A   1      12.324  24.292   6.335  1.00  0.00    +0.000 F 
ENDBRANCH   59   60
BRANCH   74   75
ATOM     75  C55 UNL A   1       3.839  25.343   3.001  1.00  0.00    +0.000 C 
ATOM     76  C56 UNL A   1       3.198  24.503   2.080  1.00  0.00    +0.000 C 
ATOM     77  F11 UNL A   1       3.499  24.587   0.776  1.00  0.00    +0.000 F 
ATOM     78  C57 UNL A   1       2.220  23.600   2.490  1.00  0.00    +0.000 C 
ATOM     79  F12 UNL A   1       1.595  22.837   1.583  1.00  0.00    +0.000 F 
ATOM     80  C58 UNL A   1       1.884  23.499   3.831  1.00  0.00    +0.000 C 
ATOM     81  F13 UNL A   1       0.949  22.625   4.226  1.00  0.00    +0.000 F 
ATOM     82  C59 UNL A   1       2.516  24.308   4.763  1.00  0.00    +0.000 C 
ATOM     83  F14 UNL A   1       2.205  24.203   6.062  1.00  0.00    +0.000 F 
ATOM     84  C60 UNL A   1       3.475  25.232   4.351  1.00  0.00    +0.000 C 
ATOM     85  F15 UNL A   1       4.065  26.008   5.272  1.00  0.00    +0.000 F 
ENDBRANCH   74   75
TORSDOF 28
ENDMDL
