MODEL 1
REMARK VINA RESULT:     -11.0      0.000      0.000
ROOT
ATOM    129  H29 UNL A   1      43.387  29.725  36.612  1.00  0.00    +0.000 H 
ATOM    130  H30 UNL A   1      41.473  31.347  37.118  1.00  0.00    +0.000 H 
ATOM    131  H31 UNL A   1      37.824  30.057  27.838  1.00  0.00    +0.000 H 
ATOM    132  H32 UNL A   1      39.566  28.231  27.407  1.00  0.00    +0.000 H 
ATOM     28  C22 UNL A   1      41.450  27.904  29.530  1.00  0.00    +0.000 C 
ATOM     29  C23 UNL A   1      40.249  28.816  29.489  1.00  0.00    +0.000 C 
ATOM     30  N3  UNL A   1      39.799  29.635  30.407  1.00  0.00    +0.000 N 
ATOM     31  C24 UNL A   1      38.681  30.250  29.856  1.00  0.00    +0.000 C 
ATOM     32  C25 UNL A   1      37.838  31.143  30.428  1.00  0.00    +0.000 C 
ATOM     44  C32 UNL A   1      37.966  31.632  31.777  1.00  0.00    +0.000 C 
ATOM     45  C33 UNL A   1      37.149  32.523  32.451  1.00  0.00    +0.000 C 
ATOM     46  C34 UNL A   1      37.693  32.744  33.720  1.00  0.00    +0.000 C 
ATOM     47  C35 UNL A   1      38.817  31.946  33.860  1.00  0.00    +0.000 C 
ATOM     48  N4  UNL A   1      38.975  31.271  32.658  1.00  0.00    +0.000 N 
ATOM     49  C36 UNL A   1      39.688  31.815  35.000  1.00  0.00    +0.000 C 
ATOM     61  C43 UNL A   1      40.744  30.968  35.075  1.00  0.00    +0.000 C 
ATOM     62  N5  UNL A   1      41.221  30.085  34.117  1.00  0.00    +0.000 N 
ATOM     63  C44 UNL A   1      42.278  29.518  34.645  1.00  0.00    +0.000 C 
ATOM     64  C45 UNL A   1      43.186  28.472  34.060  1.00  0.00    +0.000 C 
ATOM     76  C52 UNL A   1      42.977  28.050  32.799  1.00  0.00    +0.000 C 
ATOM     77  C53 UNL A   1      43.785  27.056  32.099  1.00  0.00    +0.000 C 
ATOM     78  C54 UNL A   1      43.345  26.946  30.838  1.00  0.00    +0.000 C 
ATOM     79  C55 UNL A   1      42.177  27.809  30.660  1.00  0.00    +0.000 C 
ATOM     80  N6  UNL A   1      42.032  28.428  31.877  1.00  0.00    +0.000 N 
ATOM     81  C56 UNL A   1      42.599  29.988  35.999  1.00  0.00    +0.000 C 
ATOM     82  C57 UNL A   1      41.609  30.840  36.230  1.00  0.00    +0.000 C 
ATOM     83  C58 UNL A   1      38.540  29.739  28.510  1.00  0.00    +0.000 C 
ATOM     84  C59 UNL A   1      39.449  28.810  28.253  1.00  0.00    +0.000 C 
ATOM    123  H23 UNL A   1      36.286  32.952  32.081  1.00  0.00    +0.000 H 
ATOM    124  H24 UNL A   1      37.320  33.390  34.433  1.00  0.00    +0.000 H 
ATOM    125  H25 UNL A   1      39.696  30.631  32.460  1.00  0.00    +0.000 H 
ATOM    126  H26 UNL A   1      44.569  26.524  32.510  1.00  0.00    +0.000 H 
ATOM    127  H27 UNL A   1      43.763  26.347  30.109  1.00  0.00    +0.000 H 
ATOM    128  H28 UNL A   1      41.320  29.078  32.069  1.00  0.00    +0.000 H 
ENDROOT
BRANCH   28   27
ATOM    122  H22 UNL A   1      43.265  28.394  27.615  1.00  0.00    +0.000 H 
ATOM    133  H33 UNL A   1      40.358  25.550  28.704  1.00  0.00    +0.000 H 
ATOM    134  H34 UNL A   1      41.192  24.051  26.982  1.00  0.00    +0.000 H 
ATOM     85  C60 UNL A   1      41.167  25.829  28.127  1.00  0.00    +0.000 C 
ATOM     86  C61 UNL A   1      41.629  24.975  27.120  1.00  0.00    +0.000 C 
ATOM     24  C18 UNL A   1      42.686  25.380  26.299  1.00  0.00    +0.000 C 
ATOM     25  C19 UNL A   1      43.203  26.672  26.411  1.00  0.00    +0.000 C 
ATOM     26  C20 UNL A   1      42.810  27.479  27.473  1.00  0.00    +0.000 C 
ATOM     27  C21 UNL A   1      41.800  27.061  28.355  1.00  0.00    +0.000 C 
ATOM    121  H21 UNL A   1      43.873  27.025  25.710  1.00  0.00    +0.000 H 
BRANCH   24   22
ATOM     22  C17 UNL A   1      43.279  24.404  25.357  1.00  0.00    +0.000 C 
ATOM     23  O4  UNL A   1      44.286  24.704  24.723  1.00  0.00    +0.000 O 
BRANCH   22   21
ATOM     21  N2  UNL A   1      42.670  23.185  25.164  1.00  0.00    +0.000 N 
ATOM    120  H20 UNL A   1      42.193  23.084  24.309  1.00  0.00    +0.000 H 
BRANCH   21   20
ATOM     20  C16 UNL A   1      42.627  22.023  26.039  1.00  0.00    +0.000 C 
ATOM    118  H18 UNL A   1      43.394  21.342  25.734  1.00  0.00    +0.000 H 
ATOM    119  H19 UNL A   1      42.771  22.376  27.038  1.00  0.00    +0.000 H 
BRANCH   20   19
ATOM     19  C15 UNL A   1      41.292  21.290  26.009  1.00  0.00    +0.000 C 
ATOM    116  H16 UNL A   1      41.020  21.148  24.984  1.00  0.00    +0.000 H 
ATOM    117  H17 UNL A   1      41.449  20.380  26.549  1.00  0.00    +0.000 H 
BRANCH   19   18
ATOM     18  C14 UNL A   1      40.130  21.991  26.710  1.00  0.00    +0.000 C 
ATOM    115  H15 UNL A   1      40.405  23.024  26.751  1.00  0.00    +0.000 H 
ATOM    114  H14 UNL A   1      40.000  21.527  27.666  1.00  0.00    +0.000 H 
BRANCH   18   17
ATOM     17  C13 UNL A   1      38.781  21.958  25.991  1.00  0.00    +0.000 C 
ATOM    113  H13 UNL A   1      38.177  21.286  26.563  1.00  0.00    +0.000 H 
ATOM    112  H12 UNL A   1      38.960  21.653  24.981  1.00  0.00    +0.000 H 
BRANCH   17   16
ATOM    110  H10 UNL A   1      38.326  23.871  26.761  1.00  0.00    +0.000 H 
ATOM    111  H11 UNL A   1      38.182  23.665  24.970  1.00  0.00    +0.000 H 
ATOM     16  C12 UNL A   1      37.991  23.265  25.945  1.00  0.00    +0.000 C 
BRANCH   16   15
ATOM    108  H8  UNL A   1      36.173  22.236  25.614  1.00  0.00    +0.000 H 
ATOM    109  H9  UNL A   1      36.236  23.276  27.075  1.00  0.00    +0.000 H 
ATOM     15  C11 UNL A   1      36.472  23.174  26.037  1.00  0.00    +0.000 C 
BRANCH   15   14
ATOM    107  H7  UNL A   1      35.884  25.127  25.717  1.00  0.00    +0.000 H 
ATOM     14  N1  UNL A   1      35.734  24.221  25.360  1.00  0.00    +0.000 N 
BRANCH   14   12
ATOM     12  C10 UNL A   1      34.859  24.154  24.298  1.00  0.00    +0.000 C 
ATOM     13  O3  UNL A   1      34.475  23.053  23.908  1.00  0.00    +0.000 O 
BRANCH   12   11
ATOM    135  H35 UNL A   1      34.681  26.760  25.235  1.00  0.00    +0.000 H 
ATOM    136  H36 UNL A   1      33.140  28.446  24.411  1.00  0.00    +0.000 H 
ATOM      9  C7  UNL A   1      32.956  26.295  21.864  1.00  0.00    +0.000 C 
ATOM    105  H5  UNL A   1      32.625  26.250  20.888  1.00  0.00    +0.000 H 
ATOM      8  C6  UNL A   1      32.613  27.371  22.675  1.00  0.00    +0.000 C 
ATOM     10  C8  UNL A   1      33.755  25.276  22.391  1.00  0.00    +0.000 C 
ATOM    106  H6  UNL A   1      33.966  24.443  21.819  1.00  0.00    +0.000 H 
ATOM     11  C9  UNL A   1      34.272  25.380  23.691  1.00  0.00    +0.000 C 
ATOM     87  C62 UNL A   1      34.142  26.590  24.372  1.00  0.00    +0.000 C 
ATOM     88  C63 UNL A   1      33.282  27.572  23.882  1.00  0.00    +0.000 C 
BRANCH    8    7
ATOM      7  O2  UNL A   1      31.695  28.313  22.321  1.00  0.00    +0.000 O 
BRANCH    7    6
ATOM      2  C2  UNL A   1      27.552  28.523  23.051  1.00  0.00    +0.000 C 
ATOM      3  C3  UNL A   1      28.144  29.513  22.382  1.00  0.00    +0.000 C 
ATOM    100  O7  UNL A   1      28.258  27.476  23.605  1.00  0.00    +0.000 O 
ATOM      4  C4  UNL A   1      29.597  29.460  22.177  1.00  0.00    +0.000 C 
ATOM      5  O1  UNL A   1      30.153  30.396  21.606  1.00  0.00    +0.000 O 
ATOM      6  C5  UNL A   1      30.353  28.266  22.679  1.00  0.00    +0.000 C 
ATOM    104  H4  UNL A   1      27.590  30.302  22.013  1.00  0.00    +0.000 H 
ATOM     89  C64 UNL A   1      29.636  27.378  23.420  1.00  0.00    +0.000 C 
BRANCH    2    1
ATOM      1  C1  UNL A   1      26.075  28.465  23.280  1.00  0.00    +0.000 C 
ATOM    101  H1  UNL A   1      25.593  28.094  22.399  1.00  0.00    +0.000 H 
ATOM    102  H2  UNL A   1      25.710  29.446  23.500  1.00  0.00    +0.000 H 
ATOM    103  H3  UNL A   1      25.867  27.813  24.102  1.00  0.00    +0.000 H 
ENDBRANCH    2    1
BRANCH   89   90
ATOM     98  C70 UNL A   1      30.731  23.821  24.144  1.00  0.00    +0.000 C 
ATOM     99  C71 UNL A   1      30.311  24.960  23.448  1.00  0.00    +0.000 C 
ATOM    137  H37 UNL A   1      30.410  27.167  25.973  1.00  0.00    +0.000 H 
ATOM    138  H38 UNL A   1      31.089  25.181  27.196  1.00  0.00    +0.000 H 
ATOM    142  H42 UNL A   1      30.842  22.922  23.648  1.00  0.00    +0.000 H 
ATOM    143  H43 UNL A   1      30.127  24.904  22.434  1.00  0.00    +0.000 H 
ATOM     90  C65 UNL A   1      30.138  26.179  24.121  1.00  0.00    +0.000 C 
ATOM     91  C66 UNL A   1      30.469  26.260  25.484  1.00  0.00    +0.000 C 
ATOM     92  C67 UNL A   1      30.878  25.122  26.187  1.00  0.00    +0.000 C 
ATOM     93  C68 UNL A   1      30.997  23.905  25.512  1.00  0.00    +0.000 C 
BRANCH   93   94
ATOM     97  O6  UNL A   1      31.623  21.359  25.494  1.00  0.00    +0.000 O 
ATOM     94  S1  UNL A   1      31.391  22.438  26.440  1.00  0.00    +0.000 S 
ATOM     96  O5  UNL A   1      30.407  22.319  27.495  1.00  0.00    +0.000 O 
BRANCH   94   95
ATOM    139  H39 UNL A   1      33.329  23.729  26.780  1.00  0.00    +0.000 H 
ATOM    140  H40 UNL A   1      33.639  22.023  27.004  1.00  0.00    +0.000 H 
ATOM    141  H41 UNL A   1      32.815  22.934  28.247  1.00  0.00    +0.000 H 
ATOM     95  C69 UNL A   1      32.948  22.818  27.192  1.00  0.00    +0.000 C 
ENDBRANCH   94   95
ENDBRANCH   93   94
ENDBRANCH   89   90
ENDBRANCH    7    6
ENDBRANCH    8    7
ENDBRANCH   12   11
ENDBRANCH   14   12
ENDBRANCH   15   14
ENDBRANCH   16   15
ENDBRANCH   17   16
ENDBRANCH   18   17
ENDBRANCH   19   18
ENDBRANCH   20   19
ENDBRANCH   21   20
ENDBRANCH   22   21
ENDBRANCH   24   22
ENDBRANCH   28   27
BRANCH   32   33
ATOM     33  C26 UNL A   1      36.694  31.662  29.602  1.00  0.00    +0.000 C 
ATOM     34  C27 UNL A   1      36.665  32.983  29.131  1.00  0.00    +0.000 C 
ATOM     35  F1  UNL A   1      37.631  33.847  29.481  1.00  0.00    +0.000 F 
ATOM     36  C28 UNL A   1      35.627  33.433  28.318  1.00  0.00    +0.000 C 
ATOM     37  F2  UNL A   1      35.603  34.709  27.910  1.00  0.00    +0.000 F 
ATOM     38  C29 UNL A   1      34.618  32.564  27.931  1.00  0.00    +0.000 C 
ATOM     39  F3  UNL A   1      33.632  32.994  27.133  1.00  0.00    +0.000 F 
ATOM     40  C30 UNL A   1      34.632  31.250  28.374  1.00  0.00    +0.000 C 
ATOM     41  F4  UNL A   1      33.667  30.405  27.989  1.00  0.00    +0.000 F 
ATOM     42  C31 UNL A   1      35.651  30.806  29.213  1.00  0.00    +0.000 C 
ATOM     43  F5  UNL A   1      35.633  29.531  29.628  1.00  0.00    +0.000 F 
ENDBRANCH   32   33
BRANCH   49   50
ATOM     50  C37 UNL A   1      39.401  32.671  36.201  1.00  0.00    +0.000 C 
ATOM     51  C38 UNL A   1      39.986  33.936  36.353  1.00  0.00    +0.000 C 
ATOM     52  F6  UNL A   1      40.875  34.382  35.453  1.00  0.00    +0.000 F 
ATOM     53  C39 UNL A   1      39.684  34.738  37.450  1.00  0.00    +0.000 C 
ATOM     54  F7  UNL A   1      40.289  35.924  37.599  1.00  0.00    +0.000 F 
ATOM     55  C40 UNL A   1      38.765  34.306  38.396  1.00  0.00    +0.000 C 
ATOM     56  F8  UNL A   1      38.464  35.086  39.444  1.00  0.00    +0.000 F 
ATOM     57  C41 UNL A   1      38.163  33.065  38.257  1.00  0.00    +0.000 C 
ATOM     58  F9  UNL A   1      37.262  32.655  39.161  1.00  0.00    +0.000 F 
ATOM     59  C42 UNL A   1      38.488  32.247  37.179  1.00  0.00    +0.000 C 
ATOM     60  F10 UNL A   1      37.894  31.049  37.078  1.00  0.00    +0.000 F 
ENDBRANCH   49   50
BRANCH   64   65
ATOM     65  C46 UNL A   1      44.308  27.900  34.850  1.00  0.00    +0.000 C 
ATOM     66  C47 UNL A   1      45.576  28.495  34.834  1.00  0.00    +0.000 C 
ATOM     67  F11 UNL A   1      45.801  29.570  34.064  1.00  0.00    +0.000 F 
ATOM     68  C48 UNL A   1      46.626  27.972  35.586  1.00  0.00    +0.000 C 
ATOM     69  F12 UNL A   1      47.838  28.540  35.525  1.00  0.00    +0.000 F 
ATOM     70  C49 UNL A   1      46.420  26.863  36.392  1.00  0.00    +0.000 C 
ATOM     71  F13 UNL A   1      47.425  26.371  37.130  1.00  0.00    +0.000 F 
ATOM     72  C50 UNL A   1      45.171  26.262  36.432  1.00  0.00    +0.000 C 
ATOM     73  F14 UNL A   1      44.962  25.202  37.224  1.00  0.00    +0.000 F 
ATOM     74  C51 UNL A   1      44.131  26.764  35.655  1.00  0.00    +0.000 C 
ATOM     75  F15 UNL A   1      42.935  26.157  35.707  1.00  0.00    +0.000 F 
ENDBRANCH   64   65
TORSDOF 21
ENDMDL
MODEL 2
REMARK VINA RESULT:     -10.8     37.690     43.084
ROOT
ATOM    129  H29 UNL A   1      18.390  52.862  -1.185  1.00  0.00    +0.000 H 
ATOM    130  H30 UNL A   1      17.865  50.374  -1.485  1.00  0.00    +0.000 H 
ATOM    131  H31 UNL A   1      11.992  50.549   6.674  1.00  0.00    +0.000 H 
ATOM    132  H32 UNL A   1      12.285  53.087   6.831  1.00  0.00    +0.000 H 
ATOM     28  C22 UNL A   1      14.129  54.159   4.930  1.00  0.00    +0.000 C 
ATOM     29  C23 UNL A   1      13.656  52.733   5.059  1.00  0.00    +0.000 C 
ATOM     30  N3  UNL A   1      13.965  51.688   4.331  1.00  0.00    +0.000 N 
ATOM     31  C24 UNL A   1      13.272  50.618   4.885  1.00  0.00    +0.000 C 
ATOM     32  C25 UNL A   1      13.223  49.332   4.462  1.00  0.00    +0.000 C 
ATOM     44  C32 UNL A   1      13.920  48.830   3.305  1.00  0.00    +0.000 C 
ATOM     45  C33 UNL A   1      13.914  47.546   2.787  1.00  0.00    +0.000 C 
ATOM     46  C34 UNL A   1      14.778  47.514   1.688  1.00  0.00    +0.000 C 
ATOM     47  C35 UNL A   1      15.276  48.790   1.484  1.00  0.00    +0.000 C 
ATOM     48  N4  UNL A   1      14.743  49.588   2.486  1.00  0.00    +0.000 N 
ATOM     49  C36 UNL A   1      16.178  49.248   0.458  1.00  0.00    +0.000 C 
ATOM     61  C43 UNL A   1      16.579  50.532   0.295  1.00  0.00    +0.000 C 
ATOM     62  N5  UNL A   1      16.248  51.650   1.048  1.00  0.00    +0.000 N 
ATOM     63  C44 UNL A   1      16.912  52.649   0.522  1.00  0.00    +0.000 C 
ATOM     64  C45 UNL A   1      16.927  54.097   0.925  1.00  0.00    +0.000 C 
ATOM     76  C52 UNL A   1      16.223  54.485   2.006  1.00  0.00    +0.000 C 
ATOM     77  C53 UNL A   1      16.158  55.849   2.521  1.00  0.00    +0.000 C 
ATOM     78  C54 UNL A   1      15.440  55.854   3.654  1.00  0.00    +0.000 C 
ATOM     79  C55 UNL A   1      14.933  54.505   3.905  1.00  0.00    +0.000 C 
ATOM     80  N6  UNL A   1      15.450  53.758   2.876  1.00  0.00    +0.000 N 
ATOM     81  C56 UNL A   1      17.753  52.274  -0.623  1.00  0.00    +0.000 C 
ATOM     82  C57 UNL A   1      17.482  50.982  -0.745  1.00  0.00    +0.000 C 
ATOM     83  C58 UNL A   1      12.555  51.129   6.032  1.00  0.00    +0.000 C 
ATOM     84  C59 UNL A   1      12.712  52.440   6.150  1.00  0.00    +0.000 C 
ATOM    123  H23 UNL A   1      13.368  46.749   3.150  1.00  0.00    +0.000 H 
ATOM    124  H24 UNL A   1      15.005  46.681   1.123  1.00  0.00    +0.000 H 
ATOM    125  H25 UNL A   1      14.923  50.549   2.598  1.00  0.00    +0.000 H 
ATOM    126  H26 UNL A   1      16.595  56.677   2.085  1.00  0.00    +0.000 H 
ATOM    127  H27 UNL A   1      15.272  56.679   4.251  1.00  0.00    +0.000 H 
ATOM    128  H28 UNL A   1      15.282  52.794   2.772  1.00  0.00    +0.000 H 
ENDROOT
BRANCH   28   27
ATOM    122  H22 UNL A   1      15.336  55.016   7.169  1.00  0.00    +0.000 H 
ATOM    133  H33 UNL A   1      11.815  55.594   4.934  1.00  0.00    +0.000 H 
ATOM    134  H34 UNL A   1      11.263  57.514   6.318  1.00  0.00    +0.000 H 
ATOM     85  C60 UNL A   1      12.459  55.890   5.684  1.00  0.00    +0.000 C 
ATOM     86  C61 UNL A   1      12.127  56.979   6.496  1.00  0.00    +0.000 C 
ATOM     24  C18 UNL A   1      12.971  57.342   7.550  1.00  0.00    +0.000 C 
ATOM     25  C19 UNL A   1      14.080  56.554   7.859  1.00  0.00    +0.000 C 
ATOM     26  C20 UNL A   1      14.461  55.533   6.994  1.00  0.00    +0.000 C 
ATOM     27  C21 UNL A   1      13.665  55.200   5.886  1.00  0.00    +0.000 C 
ATOM    121  H21 UNL A   1      14.616  56.728   8.724  1.00  0.00    +0.000 H 
BRANCH   24   22
ATOM     22  C17 UNL A   1      12.701  58.597   8.289  1.00  0.00    +0.000 C 
ATOM     23  O4  UNL A   1      13.616  59.385   8.505  1.00  0.00    +0.000 O 
BRANCH   22   21
ATOM     21  N2  UNL A   1      11.435  58.847   8.768  1.00  0.00    +0.000 N 
ATOM    120  H20 UNL A   1      10.860  59.383   8.175  1.00  0.00    +0.000 H 
BRANCH   21   20
ATOM     20  C16 UNL A   1      10.823  58.437  10.023  1.00  0.00    +0.000 C 
ATOM    118  H18 UNL A   1      11.061  59.166  10.769  1.00  0.00    +0.000 H 
ATOM    119  H19 UNL A   1       9.771  58.361   9.849  1.00  0.00    +0.000 H 
BRANCH   20   19
ATOM     19  C15 UNL A   1      11.298  57.074  10.512  1.00  0.00    +0.000 C 
ATOM    116  H16 UNL A   1      12.333  56.977  10.256  1.00  0.00    +0.000 H 
ATOM    117  H17 UNL A   1      11.106  57.062  11.564  1.00  0.00    +0.000 H 
BRANCH   19   18
ATOM     18  C14 UNL A   1      10.558  55.866   9.942  1.00  0.00    +0.000 C 
ATOM    115  H15 UNL A   1      11.176  55.503   9.148  1.00  0.00    +0.000 H 
ATOM    114  H14 UNL A   1       9.587  56.195   9.635  1.00  0.00    +0.000 H 
BRANCH   18   17
ATOM     17  C13 UNL A   1      10.369  54.676  10.885  1.00  0.00    +0.000 C 
ATOM    113  H13 UNL A   1      11.337  54.499  11.306  1.00  0.00    +0.000 H 
ATOM    112  H12 UNL A   1       9.975  53.866  10.307  1.00  0.00    +0.000 H 
BRANCH   17   16
ATOM    110  H10 UNL A   1       8.699  55.596  11.792  1.00  0.00    +0.000 H 
ATOM    111  H11 UNL A   1       9.075  53.907  12.315  1.00  0.00    +0.000 H 
ATOM     16  C12 UNL A   1       9.443  54.884  12.082  1.00  0.00    +0.000 C 
BRANCH   16   15
ATOM    108  H8  UNL A   1      10.174  56.446  13.306  1.00  0.00    +0.000 H 
ATOM    109  H9  UNL A   1       9.416  55.063  14.162  1.00  0.00    +0.000 H 
ATOM     15  C11 UNL A   1      10.071  55.383  13.379  1.00  0.00    +0.000 C 
BRANCH   15   14
ATOM    107  H7  UNL A   1      12.135  55.398  13.446  1.00  0.00    +0.000 H 
ATOM     14  N1  UNL A   1      11.371  54.832  13.703  1.00  0.00    +0.000 N 
BRANCH   14   12
ATOM     12  C10 UNL A   1      11.711  53.644  14.314  1.00  0.00    +0.000 C 
ATOM     13  O3  UNL A   1      10.943  53.156  15.140  1.00  0.00    +0.000 O 
BRANCH   12   11
ATOM    135  H35 UNL A   1      14.044  54.436  13.038  1.00  0.00    +0.000 H 
ATOM    136  H36 UNL A   1      15.592  52.954  11.896  1.00  0.00    +0.000 H 
ATOM      9  C7  UNL A   1      13.936  50.679  13.692  1.00  0.00    +0.000 C 
ATOM    105  H5  UNL A   1      14.017  49.696  13.993  1.00  0.00    +0.000 H 
ATOM      8  C6  UNL A   1      14.781  51.187  12.712  1.00  0.00    +0.000 C 
ATOM     10  C8  UNL A   1      12.975  51.519  14.261  1.00  0.00    +0.000 C 
ATOM    106  H6  UNL A   1      12.302  51.139  14.945  1.00  0.00    +0.000 H 
ATOM     11  C9  UNL A   1      12.921  52.876  13.909  1.00  0.00    +0.000 C 
ATOM     87  C62 UNL A   1      13.953  53.414  13.140  1.00  0.00    +0.000 C 
ATOM     88  C63 UNL A   1      14.861  52.565  12.511  1.00  0.00    +0.000 C 
BRANCH    8    7
ATOM      7  O2  UNL A   1      15.617  50.410  11.969  1.00  0.00    +0.000 O 
BRANCH    7    6
ATOM      2  C2  UNL A   1      16.485  50.611   7.851  1.00  0.00    +0.000 C 
ATOM      3  C3  UNL A   1      17.474  50.774   8.732  1.00  0.00    +0.000 C 
ATOM    100  O7  UNL A   1      15.167  50.477   8.233  1.00  0.00    +0.000 O 
ATOM      4  C4  UNL A   1      17.156  50.757  10.166  1.00  0.00    +0.000 C 
ATOM      5  O1  UNL A   1      18.055  50.960  10.978  1.00  0.00    +0.000 O 
ATOM      6  C5  UNL A   1      15.740  50.499  10.587  1.00  0.00    +0.000 C 
ATOM    104  H4  UNL A   1      18.445  50.910   8.411  1.00  0.00    +0.000 H 
ATOM     89  C64 UNL A   1      14.823  50.438   9.583  1.00  0.00    +0.000 C 
BRANCH    2    1
ATOM      1  C1  UNL A   1      16.710  50.574   6.373  1.00  0.00    +0.000 C 
ATOM    101  H1  UNL A   1      15.767  50.599   5.869  1.00  0.00    +0.000 H 
ATOM    102  H2  UNL A   1      17.231  49.676   6.114  1.00  0.00    +0.000 H 
ATOM    103  H3  UNL A   1      17.294  51.423   6.081  1.00  0.00    +0.000 H 
ENDBRANCH    2    1
BRANCH   89   90
ATOM     98  C70 UNL A   1      11.149  51.276   9.994  1.00  0.00    +0.000 C 
ATOM     99  C71 UNL A   1      12.528  51.428   9.813  1.00  0.00    +0.000 C 
ATOM    137  H37 UNL A   1      13.371  48.190   9.568  1.00  0.00    +0.000 H 
ATOM    138  H38 UNL A   1      10.984  47.920   9.933  1.00  0.00    +0.000 H 
ATOM    142  H42 UNL A   1      10.543  52.108  10.084  1.00  0.00    +0.000 H 
ATOM    143  H43 UNL A   1      12.937  52.373   9.756  1.00  0.00    +0.000 H 
ATOM     90  C65 UNL A   1      13.359  50.301   9.710  1.00  0.00    +0.000 C 
ATOM     91  C66 UNL A   1      12.777  49.022   9.710  1.00  0.00    +0.000 C 
ATOM     92  C67 UNL A   1      11.401  48.864   9.902  1.00  0.00    +0.000 C 
ATOM     93  C68 UNL A   1      10.595  49.995  10.052  1.00  0.00    +0.000 C 
BRANCH   93   94
ATOM     97  O6  UNL A   1       8.764  49.238  11.769  1.00  0.00    +0.000 O 
ATOM     94  S1  UNL A   1       8.868  49.782  10.426  1.00  0.00    +0.000 S 
ATOM     96  O5  UNL A   1       8.262  49.115   9.292  1.00  0.00    +0.000 O 
BRANCH   94   95
ATOM    139  H39 UNL A   1       9.046  52.127  10.353  1.00  0.00    +0.000 H 
ATOM    140  H40 UNL A   1       7.767  51.607  11.424  1.00  0.00    +0.000 H 
ATOM    141  H41 UNL A   1       7.526  51.572   9.694  1.00  0.00    +0.000 H 
ATOM     95  C69 UNL A   1       8.239  51.435  10.480  1.00  0.00    +0.000 C 
ENDBRANCH   94   95
ENDBRANCH   93   94
ENDBRANCH   89   90
ENDBRANCH    7    6
ENDBRANCH    8    7
ENDBRANCH   12   11
ENDBRANCH   14   12
ENDBRANCH   15   14
ENDBRANCH   16   15
ENDBRANCH   17   16
ENDBRANCH   18   17
ENDBRANCH   19   18
ENDBRANCH   20   19
ENDBRANCH   21   20
ENDBRANCH   22   21
ENDBRANCH   24   22
ENDBRANCH   28   27
BRANCH   32   33
ATOM     33  C26 UNL A   1      12.391  48.361   5.252  1.00  0.00    +0.000 C 
ATOM     34  C27 UNL A   1      11.048  48.111   4.932  1.00  0.00    +0.000 C 
ATOM     35  F1  UNL A   1      10.447  48.802   3.951  1.00  0.00    +0.000 F 
ATOM     36  C28 UNL A   1      10.306  47.166   5.637  1.00  0.00    +0.000 C 
ATOM     37  F2  UNL A   1       9.015  46.970   5.336  1.00  0.00    +0.000 F 
ATOM     38  C29 UNL A   1      10.899  46.428   6.650  1.00  0.00    +0.000 C 
ATOM     39  F3  UNL A   1      10.189  45.505   7.314  1.00  0.00    +0.000 F 
ATOM     40  C30 UNL A   1      12.228  46.650   6.977  1.00  0.00    +0.000 C 
ATOM     41  F4  UNL A   1      12.809  45.927   7.945  1.00  0.00    +0.000 F 
ATOM     42  C31 UNL A   1      12.964  47.616   6.296  1.00  0.00    +0.000 C 
ATOM     43  F5  UNL A   1      14.246  47.810   6.638  1.00  0.00    +0.000 F 
ENDBRANCH   32   33
BRANCH   49   50
ATOM     50  C37 UNL A   1      16.707  48.230  -0.513  1.00  0.00    +0.000 C 
ATOM     51  C38 UNL A   1      15.933  47.777  -1.591  1.00  0.00    +0.000 C 
ATOM     52  F6  UNL A   1      14.667  48.196  -1.737  1.00  0.00    +0.000 F 
ATOM     53  C39 UNL A   1      16.446  46.862  -2.507  1.00  0.00    +0.000 C 
ATOM     54  F7  UNL A   1      15.674  46.409  -3.503  1.00  0.00    +0.000 F 
ATOM     55  C40 UNL A   1      17.753  46.413  -2.384  1.00  0.00    +0.000 C 
ATOM     56  F8  UNL A   1      18.250  45.544  -3.276  1.00  0.00    +0.000 F 
ATOM     57  C41 UNL A   1      18.541  46.860  -1.336  1.00  0.00    +0.000 C 
ATOM     58  F9  UNL A   1      19.810  46.440  -1.226  1.00  0.00    +0.000 F 
ATOM     59  C42 UNL A   1      18.020  47.748  -0.399  1.00  0.00    +0.000 C 
ATOM     60  F10 UNL A   1      18.806  48.156   0.609  1.00  0.00    +0.000 F 
ENDBRANCH   49   50
BRANCH   64   65
ATOM     65  C46 UNL A   1      17.703  55.102   0.154  1.00  0.00    +0.000 C 
ATOM     66  C47 UNL A   1      17.160  55.711  -0.985  1.00  0.00    +0.000 C 
ATOM     67  F11 UNL A   1      15.940  55.357  -1.417  1.00  0.00    +0.000 F 
ATOM     68  C48 UNL A   1      17.877  56.667  -1.702  1.00  0.00    +0.000 C 
ATOM     69  F12 UNL A   1      17.348  57.208  -2.807  1.00  0.00    +0.000 F 
ATOM     70  C49 UNL A   1      19.139  57.053  -1.276  1.00  0.00    +0.000 C 
ATOM     71  F13 UNL A   1      19.822  57.986  -1.956  1.00  0.00    +0.000 F 
ATOM     72  C50 UNL A   1      19.695  56.471  -0.148  1.00  0.00    +0.000 C 
ATOM     73  F14 UNL A   1      20.905  56.855   0.278  1.00  0.00    +0.000 F 
ATOM     74  C51 UNL A   1      18.992  55.492   0.550  1.00  0.00    +0.000 C 
ATOM     75  F15 UNL A   1      19.557  54.941   1.634  1.00  0.00    +0.000 F 
ENDBRANCH   64   65
TORSDOF 21
ENDMDL
MODEL 3
REMARK VINA RESULT:     -10.5     18.309     25.710
ROOT
ATOM    129  H29 UNL A   1      45.077  16.746  41.582  1.00  0.00    +0.000 H 
ATOM    130  H30 UNL A   1      43.894  14.734  42.632  1.00  0.00    +0.000 H 
ATOM    131  H31 UNL A   1      50.981  14.181  49.743  1.00  0.00    +0.000 H 
ATOM    132  H32 UNL A   1      52.023  16.351  48.872  1.00  0.00    +0.000 H 
ATOM     28  C22 UNL A   1      50.800  17.350  46.491  1.00  0.00    +0.000 C 
ATOM     29  C23 UNL A   1      50.386  16.156  47.315  1.00  0.00    +0.000 C 
ATOM     30  N3  UNL A   1      49.381  15.335  47.137  1.00  0.00    +0.000 N 
ATOM     31  C24 UNL A   1      49.463  14.403  48.164  1.00  0.00    +0.000 C 
ATOM     32  C25 UNL A   1      48.624  13.376  48.445  1.00  0.00    +0.000 C 
ATOM     44  C32 UNL A   1      47.442  13.062  47.683  1.00  0.00    +0.000 C 
ATOM     45  C33 UNL A   1      46.519  12.053  47.903  1.00  0.00    +0.000 C 
ATOM     46  C34 UNL A   1      45.569  12.098  46.878  1.00  0.00    +0.000 C 
ATOM     47  C35 UNL A   1      45.864  13.171  46.053  1.00  0.00    +0.000 C 
ATOM     48  N4  UNL A   1      47.019  13.752  46.557  1.00  0.00    +0.000 N 
ATOM     49  C36 UNL A   1      45.154  13.627  44.886  1.00  0.00    +0.000 C 
ATOM     61  C43 UNL A   1      45.481  14.723  44.158  1.00  0.00    +0.000 C 
ATOM     62  N5  UNL A   1      46.532  15.609  44.344  1.00  0.00    +0.000 N 
ATOM     63  C44 UNL A   1      46.449  16.478  43.367  1.00  0.00    +0.000 C 
ATOM     64  C45 UNL A   1      47.322  17.667  43.076  1.00  0.00    +0.000 C 
ATOM     76  C52 UNL A   1      48.392  17.903  43.857  1.00  0.00    +0.000 C 
ATOM     77  C53 UNL A   1      49.333  19.006  43.684  1.00  0.00    +0.000 C 
ATOM     78  C54 UNL A   1      50.320  18.883  44.584  1.00  0.00    +0.000 C 
ATOM     79  C55 UNL A   1      50.043  17.733  45.445  1.00  0.00    +0.000 C 
ATOM     80  N6  UNL A   1      48.879  17.211  44.938  1.00  0.00    +0.000 N 
ATOM     81  C56 UNL A   1      45.337  16.232  42.438  1.00  0.00    +0.000 C 
ATOM     82  C57 UNL A   1      44.755  15.176  42.990  1.00  0.00    +0.000 C 
ATOM     83  C58 UNL A   1      50.636  14.735  48.942  1.00  0.00    +0.000 C 
ATOM     84  C59 UNL A   1      51.210  15.842  48.494  1.00  0.00    +0.000 C 
ATOM    123  H23 UNL A   1      46.531  11.383  48.687  1.00  0.00    +0.000 H 
ATOM    124  H24 UNL A   1      44.780  11.444  46.757  1.00  0.00    +0.000 H 
ATOM    125  H25 UNL A   1      47.470  14.537  46.172  1.00  0.00    +0.000 H 
ATOM    126  H26 UNL A   1      49.252  19.759  42.982  1.00  0.00    +0.000 H 
ATOM    127  H27 UNL A   1      51.143  19.502  44.657  1.00  0.00    +0.000 H 
ATOM    128  H28 UNL A   1      48.436  16.417  45.314  1.00  0.00    +0.000 H 
ENDROOT
BRANCH   28   27
ATOM    122  H22 UNL A   1      53.311  17.087  45.581  1.00  0.00    +0.000 H 
ATOM    133  H33 UNL A   1      51.054  19.346  48.324  1.00  0.00    +0.000 H 
ATOM    134  H34 UNL A   1      52.948  20.835  48.644  1.00  0.00    +0.000 H 
ATOM     85  C60 UNL A   1      51.924  19.195  47.791  1.00  0.00    +0.000 C 
ATOM     86  C61 UNL A   1      53.021  20.037  47.995  1.00  0.00    +0.000 C 
ATOM     24  C18 UNL A   1      54.219  19.793  47.315  1.00  0.00    +0.000 C 
ATOM     25  C19 UNL A   1      54.353  18.652  46.524  1.00  0.00    +0.000 C 
ATOM     26  C20 UNL A   1      53.234  17.873  46.246  1.00  0.00    +0.000 C 
ATOM     27  C21 UNL A   1      52.002  18.144  46.861  1.00  0.00    +0.000 C 
ATOM    121  H21 UNL A   1      55.277  18.388  46.146  1.00  0.00    +0.000 H 
BRANCH   24   22
ATOM     22  C17 UNL A   1      55.312  20.788  47.404  1.00  0.00    +0.000 C 
ATOM     23  O4  UNL A   1      56.344  20.507  48.004  1.00  0.00    +0.000 O 
BRANCH   22   21
ATOM     21  N2  UNL A   1      55.143  22.039  46.854  1.00  0.00    +0.000 N 
ATOM    120  H20 UNL A   1      55.377  22.792  47.443  1.00  0.00    +0.000 H 
BRANCH   21   20
ATOM     20  C16 UNL A   1      54.669  22.410  45.529  1.00  0.00    +0.000 C 
ATOM    118  H18 UNL A   1      55.317  23.166  45.138  1.00  0.00    +0.000 H 
ATOM    119  H19 UNL A   1      54.674  21.522  44.933  1.00  0.00    +0.000 H 
BRANCH   20   19
ATOM     19  C15 UNL A   1      53.244  22.947  45.523  1.00  0.00    +0.000 C 
ATOM    116  H16 UNL A   1      52.966  23.147  46.537  1.00  0.00    +0.000 H 
ATOM    117  H17 UNL A   1      53.264  23.814  44.897  1.00  0.00    +0.000 H 
BRANCH   19   18
ATOM     18  C14 UNL A   1      52.186  22.026  44.919  1.00  0.00    +0.000 C 
ATOM    115  H15 UNL A   1      52.266  21.108  45.462  1.00  0.00    +0.000 H 
ATOM    114  H14 UNL A   1      52.388  21.942  43.872  1.00  0.00    +0.000 H 
BRANCH   18   17
ATOM     17  C13 UNL A   1      50.729  22.466  45.077  1.00  0.00    +0.000 C 
ATOM    113  H13 UNL A   1      50.157  21.723  44.561  1.00  0.00    +0.000 H 
ATOM    112  H12 UNL A   1      50.646  23.455  44.678  1.00  0.00    +0.000 H 
BRANCH   17   16
ATOM    110  H10 UNL A   1      50.464  21.582  46.976  1.00  0.00    +0.000 H 
ATOM    111  H11 UNL A   1      50.558  23.387  46.931  1.00  0.00    +0.000 H 
ATOM     16  C12 UNL A   1      50.165  22.491  46.497  1.00  0.00    +0.000 C 
BRANCH   16   15
ATOM    108  H8  UNL A   1      48.450  22.919  47.658  1.00  0.00    +0.000 H 
ATOM    109  H9  UNL A   1      48.341  23.321  45.913  1.00  0.00    +0.000 H 
ATOM     15  C11 UNL A   1      48.653  22.614  46.652  1.00  0.00    +0.000 C 
BRANCH   15   14
ATOM    107  H7  UNL A   1      47.424  21.397  45.525  1.00  0.00    +0.000 H 
ATOM     14  N1  UNL A   1      47.893  21.409  46.391  1.00  0.00    +0.000 N 
BRANCH   14   12
ATOM     12  C10 UNL A   1      47.719  20.278  47.159  1.00  0.00    +0.000 C 
ATOM     13  O3  UNL A   1      48.672  19.839  47.801  1.00  0.00    +0.000 O 
BRANCH   12   11
ATOM    135  H35 UNL A   1      45.614  20.873  48.867  1.00  0.00    +0.000 H 
ATOM    136  H36 UNL A   1      43.806  19.358  49.446  1.00  0.00    +0.000 H 
ATOM      9  C7  UNL A   1      44.936  17.789  46.724  1.00  0.00    +0.000 C 
ATOM    105  H5  UNL A   1      44.650  17.057  46.056  1.00  0.00    +0.000 H 
ATOM      8  C6  UNL A   1      44.225  17.983  47.903  1.00  0.00    +0.000 C 
ATOM     10  C8  UNL A   1      46.044  18.600  46.459  1.00  0.00    +0.000 C 
ATOM    106  H6  UNL A   1      46.616  18.426  45.618  1.00  0.00    +0.000 H 
ATOM     11  C9  UNL A   1      46.381  19.647  47.329  1.00  0.00    +0.000 C 
ATOM     87  C62 UNL A   1      45.491  19.990  48.346  1.00  0.00    +0.000 C 
ATOM     88  C63 UNL A   1      44.434  19.137  48.658  1.00  0.00    +0.000 C 
BRANCH    8    7
ATOM      7  O2  UNL A   1      43.255  17.133  48.340  1.00  0.00    +0.000 O 
BRANCH    7    6
ATOM      2  C2  UNL A   1      43.673  13.248  49.913  1.00  0.00    +0.000 C 
ATOM      3  C3  UNL A   1      42.590  13.544  49.194  1.00  0.00    +0.000 C 
ATOM    100  O7  UNL A   1      44.620  14.192  50.250  1.00  0.00    +0.000 O 
ATOM      4  C4  UNL A   1      42.424  14.915  48.693  1.00  0.00    +0.000 C 
ATOM      5  O1  UNL A   1      41.402  15.204  48.075  1.00  0.00    +0.000 O 
ATOM      6  C5  UNL A   1      43.507  15.916  48.962  1.00  0.00    +0.000 C 
ATOM    104  H4  UNL A   1      41.881  12.821  48.992  1.00  0.00    +0.000 H 
ATOM     89  C64 UNL A   1      44.511  15.499  49.782  1.00  0.00    +0.000 C 
BRANCH    2    1
ATOM      1  C1  UNL A   1      43.953  11.874  50.434  1.00  0.00    +0.000 C 
ATOM    101  H1  UNL A   1      45.011  11.717  50.472  1.00  0.00    +0.000 H 
ATOM    102  H2  UNL A   1      43.506  11.149  49.786  1.00  0.00    +0.000 H 
ATOM    103  H3  UNL A   1      43.542  11.776  51.418  1.00  0.00    +0.000 H 
ENDBRANCH    2    1
BRANCH   89   90
ATOM     98  C70 UNL A   1      46.637  17.725  51.995  1.00  0.00    +0.000 C 
ATOM     99  C71 UNL A   1      45.580  16.922  51.552  1.00  0.00    +0.000 C 
ATOM    137  H37 UNL A   1      46.891  15.916  48.633  1.00  0.00    +0.000 H 
ATOM    138  H38 UNL A   1      48.708  17.349  49.374  1.00  0.00    +0.000 H 
ATOM    142  H42 UNL A   1      46.582  18.194  52.913  1.00  0.00    +0.000 H 
ATOM    143  H43 UNL A   1      44.751  16.789  52.151  1.00  0.00    +0.000 H 
ATOM     90  C65 UNL A   1      45.641  16.298  50.296  1.00  0.00    +0.000 C 
ATOM     91  C66 UNL A   1      46.810  16.425  49.526  1.00  0.00    +0.000 C 
ATOM     92  C67 UNL A   1      47.864  17.236  49.959  1.00  0.00    +0.000 C 
ATOM     93  C68 UNL A   1      47.767  17.889  51.190  1.00  0.00    +0.000 C 
BRANCH   93   94
ATOM     97  O6  UNL A   1      50.229  18.728  50.868  1.00  0.00    +0.000 O 
ATOM     94  S1  UNL A   1      49.055  19.019  51.673  1.00  0.00    +0.000 S 
ATOM     96  O5  UNL A   1      49.110  19.015  53.119  1.00  0.00    +0.000 O 
BRANCH   94   95
ATOM    139  H39 UNL A   1      49.241  21.158  50.710  1.00  0.00    +0.000 H 
ATOM    140  H40 UNL A   1      48.070  21.131  52.007  1.00  0.00    +0.000 H 
ATOM    141  H41 UNL A   1      47.660  20.464  50.445  1.00  0.00    +0.000 H 
ATOM     95  C69 UNL A   1      48.446  20.599  51.158  1.00  0.00    +0.000 C 
ENDBRANCH   94   95
ENDBRANCH   93   94
ENDBRANCH   89   90
ENDBRANCH    7    6
ENDBRANCH    8    7
ENDBRANCH   12   11
ENDBRANCH   14   12
ENDBRANCH   15   14
ENDBRANCH   16   15
ENDBRANCH   17   16
ENDBRANCH   18   17
ENDBRANCH   19   18
ENDBRANCH   20   19
ENDBRANCH   21   20
ENDBRANCH   22   21
ENDBRANCH   24   22
ENDBRANCH   28   27
BRANCH   32   33
ATOM     33  C26 UNL A   1      48.946  12.505  49.626  1.00  0.00    +0.000 C 
ATOM     34  C27 UNL A   1      48.348  12.709  50.878  1.00  0.00    +0.000 C 
ATOM     35  F1  UNL A   1      47.524  13.751  51.071  1.00  0.00    +0.000 F 
ATOM     36  C28 UNL A   1      48.612  11.857  51.948  1.00  0.00    +0.000 C 
ATOM     37  F2  UNL A   1      48.055  12.093  53.145  1.00  0.00    +0.000 F 
ATOM     38  C29 UNL A   1      49.451  10.766  51.780  1.00  0.00    +0.000 C 
ATOM     39  F3  UNL A   1      49.688   9.936  52.805  1.00  0.00    +0.000 F 
ATOM     40  C30 UNL A   1      50.045  10.537  50.548  1.00  0.00    +0.000 C 
ATOM     41  F4  UNL A   1      50.843   9.474  50.378  1.00  0.00    +0.000 F 
ATOM     42  C31 UNL A   1      49.808  11.404  49.485  1.00  0.00    +0.000 C 
ATOM     43  F5  UNL A   1      50.401  11.158  48.308  1.00  0.00    +0.000 F 
ENDBRANCH   32   33
BRANCH   49   50
ATOM     50  C37 UNL A   1      43.953  12.838  44.445  1.00  0.00    +0.000 C 
ATOM     51  C38 UNL A   1      42.661  13.379  44.505  1.00  0.00    +0.000 C 
ATOM     52  F6  UNL A   1      42.463  14.599  45.027  1.00  0.00    +0.000 F 
ATOM     53  C39 UNL A   1      41.559  12.654  44.059  1.00  0.00    +0.000 C 
ATOM     54  F7  UNL A   1      40.329  13.173  44.167  1.00  0.00    +0.000 F 
ATOM     55  C40 UNL A   1      41.732  11.392  43.511  1.00  0.00    +0.000 C 
ATOM     56  F8  UNL A   1      40.672  10.701  43.068  1.00  0.00    +0.000 F 
ATOM     57  C41 UNL A   1      43.003  10.844  43.427  1.00  0.00    +0.000 C 
ATOM     58  F9  UNL A   1      43.173   9.631  42.882  1.00  0.00    +0.000 F 
ATOM     59  C42 UNL A   1      44.102  11.552  43.904  1.00  0.00    +0.000 C 
ATOM     60  F10 UNL A   1      45.317  10.991  43.816  1.00  0.00    +0.000 F 
ENDBRANCH   49   50
BRANCH   64   65
ATOM     65  C46 UNL A   1      47.022  18.581  41.943  1.00  0.00    +0.000 C 
ATOM     66  C47 UNL A   1      46.099  19.624  42.085  1.00  0.00    +0.000 C 
ATOM     67  F11 UNL A   1      45.438  19.781  43.242  1.00  0.00    +0.000 F 
ATOM     68  C48 UNL A   1      45.828  20.494  41.031  1.00  0.00    +0.000 C 
ATOM     69  F12 UNL A   1      44.914  21.462  41.183  1.00  0.00    +0.000 F 
ATOM     70  C49 UNL A   1      46.497  20.357  39.825  1.00  0.00    +0.000 C 
ATOM     71  F13 UNL A   1      46.250  21.205  38.817  1.00  0.00    +0.000 F 
ATOM     72  C50 UNL A   1      47.422  19.337  39.663  1.00  0.00    +0.000 C 
ATOM     73  F14 UNL A   1      48.086  19.211  38.505  1.00  0.00    +0.000 F 
ATOM     74  C51 UNL A   1      47.669  18.447  40.704  1.00  0.00    +0.000 C 
ATOM     75  F15 UNL A   1      48.564  17.465  40.516  1.00  0.00    +0.000 F 
ENDBRANCH   64   65
TORSDOF 21
ENDMDL
MODEL 4
REMARK VINA RESULT:     -10.4      6.025     11.910
ROOT
ATOM    129  H29 UNL A   1      39.393  28.486  26.900  1.00  0.00    +0.000 H 
ATOM    130  H30 UNL A   1      37.576  30.211  27.426  1.00  0.00    +0.000 H 
ATOM    131  H31 UNL A   1      40.823  30.849  36.921  1.00  0.00    +0.000 H 
ATOM    132  H32 UNL A   1      42.808  29.339  36.343  1.00  0.00    +0.000 H 
ATOM     28  C22 UNL A   1      42.736  28.298  33.683  1.00  0.00    +0.000 C 
ATOM     29  C23 UNL A   1      41.784  29.280  34.320  1.00  0.00    +0.000 C 
ATOM     30  N3  UNL A   1      40.741  29.879  33.801  1.00  0.00    +0.000 N 
ATOM     31  C24 UNL A   1      40.206  30.663  34.816  1.00  0.00    +0.000 C 
ATOM     32  C25 UNL A   1      39.148  31.508  34.764  1.00  0.00    +0.000 C 
ATOM     44  C32 UNL A   1      38.358  31.749  33.584  1.00  0.00    +0.000 C 
ATOM     45  C33 UNL A   1      37.280  32.604  33.430  1.00  0.00    +0.000 C 
ATOM     46  C34 UNL A   1      36.796  32.468  32.125  1.00  0.00    +0.000 C 
ATOM     47  C35 UNL A   1      37.608  31.573  31.447  1.00  0.00    +0.000 C 
ATOM     48  N4  UNL A   1      38.561  31.137  32.356  1.00  0.00    +0.000 N 
ATOM     49  C36 UNL A   1      37.517  31.140  30.076  1.00  0.00    +0.000 C 
ATOM     61  C43 UNL A   1      38.388  30.295  29.471  1.00  0.00    +0.000 C 
ATOM     62  N5  UNL A   1      39.504  29.667  30.004  1.00  0.00    +0.000 N 
ATOM     63  C44 UNL A   1      39.995  28.927  29.041  1.00  0.00    +0.000 C 
ATOM     64  C45 UNL A   1      41.208  28.038  29.051  1.00  0.00    +0.000 C 
ATOM     76  C52 UNL A   1      41.906  27.891  30.192  1.00  0.00    +0.000 C 
ATOM     77  C53 UNL A   1      43.089  27.052  30.352  1.00  0.00    +0.000 C 
ATOM     78  C54 UNL A   1      43.472  27.077  31.637  1.00  0.00    +0.000 C 
ATOM     79  C55 UNL A   1      42.603  27.992  32.378  1.00  0.00    +0.000 C 
ATOM     80  N6  UNL A   1      41.701  28.428  31.439  1.00  0.00    +0.000 N 
ATOM     81  C56 UNL A   1      39.234  28.992  27.786  1.00  0.00    +0.000 C 
ATOM     82  C57 UNL A   1      38.289  29.871  28.089  1.00  0.00    +0.000 C 
ATOM     83  C58 UNL A   1      41.015  30.438  35.993  1.00  0.00    +0.000 C 
ATOM     84  C59 UNL A   1      42.036  29.637  35.726  1.00  0.00    +0.000 C 
ATOM    123  H23 UNL A   1      36.898  33.233  34.153  1.00  0.00    +0.000 H 
ATOM    124  H24 UNL A   1      35.974  32.953  31.732  1.00  0.00    +0.000 H 
ATOM    125  H25 UNL A   1      39.276  30.490  32.158  1.00  0.00    +0.000 H 
ATOM    126  H26 UNL A   1      43.557  26.524  29.598  1.00  0.00    +0.000 H 
ATOM    127  H27 UNL A   1      44.255  26.537  32.038  1.00  0.00    +0.000 H 
ATOM    128  H28 UNL A   1      40.979  29.064  31.641  1.00  0.00    +0.000 H 
ENDROOT
BRANCH   28   27
ATOM    122  H22 UNL A   1      42.694  26.161  35.306  1.00  0.00    +0.000 H 
ATOM    133  H33 UNL A   1      45.303  29.168  33.936  1.00  0.00    +0.000 H 
ATOM    134  H34 UNL A   1      47.175  27.993  34.949  1.00  0.00    +0.000 H 
ATOM     85  C60 UNL A   1      45.147  28.270  34.419  1.00  0.00    +0.000 C 
ATOM     86  C61 UNL A   1      46.221  27.608  35.023  1.00  0.00    +0.000 C 
ATOM     24  C18 UNL A   1      45.997  26.422  35.728  1.00  0.00    +0.000 C 
ATOM     25  C19 UNL A   1      44.694  25.960  35.923  1.00  0.00    +0.000 C 
ATOM     26  C20 UNL A   1      43.643  26.564  35.241  1.00  0.00    +0.000 C 
ATOM     27  C21 UNL A   1      43.858  27.715  34.467  1.00  0.00    +0.000 C 
ATOM    121  H21 UNL A   1      44.513  25.175  36.568  1.00  0.00    +0.000 H 
BRANCH   24   22
ATOM     22  C17 UNL A   1      47.159  25.642  36.210  1.00  0.00    +0.000 C 
ATOM     23  O4  UNL A   1      48.232  25.718  35.620  1.00  0.00    +0.000 O 
BRANCH   22   21
ATOM     21  N2  UNL A   1      47.015  24.800  37.291  1.00  0.00    +0.000 N 
ATOM    120  H20 UNL A   1      46.633  23.916  37.086  1.00  0.00    +0.000 H 
BRANCH   21   20
ATOM     20  C16 UNL A   1      47.345  25.026  38.690  1.00  0.00    +0.000 C 
ATOM    118  H18 UNL A   1      47.350  24.082  39.192  1.00  0.00    +0.000 H 
ATOM    119  H19 UNL A   1      48.300  25.506  38.714  1.00  0.00    +0.000 H 
BRANCH   20   19
ATOM     19  C15 UNL A   1      46.362  25.946  39.404  1.00  0.00    +0.000 C 
ATOM    116  H16 UNL A   1      45.397  25.797  38.964  1.00  0.00    +0.000 H 
ATOM    117  H17 UNL A   1      46.416  25.679  40.438  1.00  0.00    +0.000 H 
BRANCH   19   18
ATOM     18  C14 UNL A   1      46.680  27.438  39.343  1.00  0.00    +0.000 C 
ATOM    115  H15 UNL A   1      47.100  27.600  38.373  1.00  0.00    +0.000 H 
ATOM    114  H14 UNL A   1      47.339  27.662  40.156  1.00  0.00    +0.000 H 
BRANCH   18   17
ATOM     17  C13 UNL A   1      45.489  28.393  39.435  1.00  0.00    +0.000 C 
ATOM    113  H13 UNL A   1      45.838  29.218  40.020  1.00  0.00    +0.000 H 
ATOM    112  H12 UNL A   1      44.672  27.851  39.864  1.00  0.00    +0.000 H 
BRANCH   17   16
ATOM    110  H10 UNL A   1      45.226  28.321  37.341  1.00  0.00    +0.000 H 
ATOM    111  H11 UNL A   1      43.954  29.191  38.286  1.00  0.00    +0.000 H 
ATOM     16  C12 UNL A   1      44.997  29.010  38.127  1.00  0.00    +0.000 C 
BRANCH   16   15
ATOM    108  H8  UNL A   1      46.154  30.729  38.548  1.00  0.00    +0.000 H 
ATOM    109  H9  UNL A   1      46.134  30.193  36.837  1.00  0.00    +0.000 H 
ATOM     15  C11 UNL A   1      45.570  30.366  37.728  1.00  0.00    +0.000 C 
BRANCH   15   14
ATOM    107  H7  UNL A   1      43.683  31.205  37.703  1.00  0.00    +0.000 H 
ATOM     14  N1  UNL A   1      44.599  31.386  37.389  1.00  0.00    +0.000 N 
BRANCH   14   12
ATOM     12  C10 UNL A   1      44.751  32.568  36.697  1.00  0.00    +0.000 C 
ATOM     13  O3  UNL A   1      45.448  33.458  37.180  1.00  0.00    +0.000 O 
BRANCH   12   11
ATOM    135  H35 UNL A   1      42.972  34.436  35.673  1.00  0.00    +0.000 H 
ATOM    136  H36 UNL A   1      41.697  34.182  33.621  1.00  0.00    +0.000 H 
ATOM      9  C7  UNL A   1      43.995  31.818  33.092  1.00  0.00    +0.000 C 
ATOM    105  H5  UNL A   1      44.369  31.234  32.329  1.00  0.00    +0.000 H 
ATOM      8  C6  UNL A   1      42.824  32.546  32.914  1.00  0.00    +0.000 C 
ATOM     10  C8  UNL A   1      44.658  31.891  34.321  1.00  0.00    +0.000 C 
ATOM    106  H6  UNL A   1      45.494  31.308  34.488  1.00  0.00    +0.000 H 
ATOM     11  C9  UNL A   1      44.193  32.749  35.329  1.00  0.00    +0.000 C 
ATOM     87  C62 UNL A   1      43.188  33.666  35.021  1.00  0.00    +0.000 C 
ATOM     88  C63 UNL A   1      42.478  33.541  33.828  1.00  0.00    +0.000 C 
BRANCH    8    7
ATOM      7  O2  UNL A   1      42.011  32.400  31.832  1.00  0.00    +0.000 O 
BRANCH    7    6
ATOM      2  C2  UNL A   1      41.957  35.032  28.542  1.00  0.00    +0.000 C 
ATOM      3  C3  UNL A   1      40.956  35.073  29.423  1.00  0.00    +0.000 C 
ATOM    100  O7  UNL A   1      42.964  34.092  28.608  1.00  0.00    +0.000 O 
ATOM      4  C4  UNL A   1      40.953  34.117  30.538  1.00  0.00    +0.000 C 
ATOM      5  O1  UNL A   1      40.006  34.117  31.320  1.00  0.00    +0.000 O 
ATOM      6  C5  UNL A   1      42.106  33.168  30.676  1.00  0.00    +0.000 C 
ATOM    104  H4  UNL A   1      40.197  35.765  29.322  1.00  0.00    +0.000 H 
ATOM     89  C64 UNL A   1      43.009  33.178  29.658  1.00  0.00    +0.000 C 
BRANCH    2    1
ATOM      1  C1  UNL A   1      42.072  35.985  27.396  1.00  0.00    +0.000 C 
ATOM    101  H1  UNL A   1      42.591  36.864  27.715  1.00  0.00    +0.000 H 
ATOM    102  H2  UNL A   1      41.093  36.252  27.055  1.00  0.00    +0.000 H 
ATOM    103  H3  UNL A   1      42.613  35.520  26.598  1.00  0.00    +0.000 H 
ENDBRANCH    2    1
BRANCH   89   90
ATOM     98  C70 UNL A   1      46.542  31.942  29.054  1.00  0.00    +0.000 C 
ATOM     99  C71 UNL A   1      45.463  32.803  29.282  1.00  0.00    +0.000 C 
ATOM    137  H37 UNL A   1      43.064  30.504  29.741  1.00  0.00    +0.000 H 
ATOM    138  H38 UNL A   1      44.925  29.007  29.297  1.00  0.00    +0.000 H 
ATOM    142  H42 UNL A   1      47.487  32.327  28.894  1.00  0.00    +0.000 H 
ATOM    143  H43 UNL A   1      45.615  33.823  29.302  1.00  0.00    +0.000 H 
ATOM     90  C65 UNL A   1      44.173  32.287  29.481  1.00  0.00    +0.000 C 
ATOM     91  C66 UNL A   1      43.995  30.893  29.529  1.00  0.00    +0.000 C 
ATOM     92  C67 UNL A   1      45.068  30.029  29.291  1.00  0.00    +0.000 C 
ATOM     93  C68 UNL A   1      46.337  30.561  29.046  1.00  0.00    +0.000 C 
BRANCH   93   94
ATOM     97  O6  UNL A   1      48.572  30.175  27.733  1.00  0.00    +0.000 O 
ATOM     94  S1  UNL A   1      47.667  29.460  28.616  1.00  0.00    +0.000 S 
ATOM     96  O5  UNL A   1      47.073  28.198  28.227  1.00  0.00    +0.000 O 
BRANCH   94   95
ATOM    139  H39 UNL A   1      47.866  28.721  30.842  1.00  0.00    +0.000 H 
ATOM    140  H40 UNL A   1      48.824  30.152  30.546  1.00  0.00    +0.000 H 
ATOM    141  H41 UNL A   1      49.380  28.596  29.980  1.00  0.00    +0.000 H 
ATOM     95  C69 UNL A   1      48.519  29.208  30.147  1.00  0.00    +0.000 C 
ENDBRANCH   94   95
ENDBRANCH   93   94
ENDBRANCH   89   90
ENDBRANCH    7    6
ENDBRANCH    8    7
ENDBRANCH   12   11
ENDBRANCH   14   12
ENDBRANCH   15   14
ENDBRANCH   16   15
ENDBRANCH   17   16
ENDBRANCH   18   17
ENDBRANCH   19   18
ENDBRANCH   20   19
ENDBRANCH   21   20
ENDBRANCH   22   21
ENDBRANCH   24   22
ENDBRANCH   28   27
BRANCH   32   33
ATOM     33  C26 UNL A   1      38.771  32.242  36.020  1.00  0.00    +0.000 C 
ATOM     34  C27 UNL A   1      38.043  31.621  37.046  1.00  0.00    +0.000 C 
ATOM     35  F1  UNL A   1      37.593  30.366  36.891  1.00  0.00    +0.000 F 
ATOM     36  C28 UNL A   1      37.751  32.296  38.229  1.00  0.00    +0.000 C 
ATOM     37  F2  UNL A   1      37.023  31.693  39.181  1.00  0.00    +0.000 F 
ATOM     38  C29 UNL A   1      38.209  33.590  38.425  1.00  0.00    +0.000 C 
ATOM     39  F3  UNL A   1      37.943  34.230  39.572  1.00  0.00    +0.000 F 
ATOM     40  C30 UNL A   1      38.940  34.221  37.430  1.00  0.00    +0.000 C 
ATOM     41  F4  UNL A   1      39.397  35.465  37.623  1.00  0.00    +0.000 F 
ATOM     42  C31 UNL A   1      39.206  33.560  36.234  1.00  0.00    +0.000 C 
ATOM     43  F5  UNL A   1      39.912  34.199  35.289  1.00  0.00    +0.000 F 
ENDBRANCH   32   33
BRANCH   49   50
ATOM     50  C37 UNL A   1      36.380  31.670  29.250  1.00  0.00    +0.000 C 
ATOM     51  C38 UNL A   1      35.297  30.856  28.888  1.00  0.00    +0.000 C 
ATOM     52  F6  UNL A   1      35.290  29.556  29.219  1.00  0.00    +0.000 F 
ATOM     53  C39 UNL A   1      34.230  31.367  28.154  1.00  0.00    +0.000 C 
ATOM     54  F7  UNL A   1      33.228  30.560  27.781  1.00  0.00    +0.000 F 
ATOM     55  C40 UNL A   1      34.208  32.708  27.800  1.00  0.00    +0.000 C 
ATOM     56  F8  UNL A   1      33.172  33.202  27.107  1.00  0.00    +0.000 F 
ATOM     57  C41 UNL A   1      35.260  33.536  28.161  1.00  0.00    +0.000 C 
ATOM     58  F9  UNL A   1      35.231  34.836  27.835  1.00  0.00    +0.000 F 
ATOM     59  C42 UNL A   1      36.344  33.020  28.865  1.00  0.00    +0.000 C 
ATOM     60  F10 UNL A   1      37.351  33.844  29.192  1.00  0.00    +0.000 F 
ENDBRANCH   49   50
BRANCH   64   65
ATOM     65  C46 UNL A   1      41.644  27.321  27.824  1.00  0.00    +0.000 C 
ATOM     66  C47 UNL A   1      42.427  27.963  26.856  1.00  0.00    +0.000 C 
ATOM     67  F11 UNL A   1      42.755  29.255  27.009  1.00  0.00    +0.000 F 
ATOM     68  C48 UNL A   1      42.854  27.290  25.713  1.00  0.00    +0.000 C 
ATOM     69  F12 UNL A   1      43.572  27.938  24.786  1.00  0.00    +0.000 F 
ATOM     70  C49 UNL A   1      42.531  25.954  25.531  1.00  0.00    +0.000 C 
ATOM     71  F13 UNL A   1      42.957  25.301  24.440  1.00  0.00    +0.000 F 
ATOM     72  C50 UNL A   1      41.765  25.294  26.479  1.00  0.00    +0.000 C 
ATOM     73  F14 UNL A   1      41.467  23.998  26.317  1.00  0.00    +0.000 F 
ATOM     74  C51 UNL A   1      41.310  25.975  27.605  1.00  0.00    +0.000 C 
ATOM     75  F15 UNL A   1      40.564  25.314  28.502  1.00  0.00    +0.000 F 
ENDBRANCH   64   65
TORSDOF 21
ENDMDL
MODEL 5
REMARK VINA RESULT:     -10.4     22.987     30.631
ROOT
ATOM    129  H29 UNL A   1      50.441  18.157   4.100  1.00  0.00    +0.000 H 
ATOM    130  H30 UNL A   1      52.604  16.969   3.420  1.00  0.00    +0.000 H 
ATOM    131  H31 UNL A   1      56.877  19.596  12.134  1.00  0.00    +0.000 H 
ATOM    132  H32 UNL A   1      54.643  20.549  12.943  1.00  0.00    +0.000 H 
ATOM     28  C22 UNL A   1      52.584  20.513  10.962  1.00  0.00    +0.000 C 
ATOM     29  C23 UNL A   1      53.981  19.955  10.856  1.00  0.00    +0.000 C 
ATOM     30  N3  UNL A   1      54.548  19.323   9.858  1.00  0.00    +0.000 N 
ATOM     31  C24 UNL A   1      55.846  19.043  10.270  1.00  0.00    +0.000 C 
ATOM     32  C25 UNL A   1      56.814  18.363   9.611  1.00  0.00    +0.000 C 
ATOM     44  C32 UNL A   1      56.654  17.784   8.302  1.00  0.00    +0.000 C 
ATOM     45  C33 UNL A   1      57.573  17.059   7.563  1.00  0.00    +0.000 C 
ATOM     46  C34 UNL A   1      56.994  16.746   6.329  1.00  0.00    +0.000 C 
ATOM     47  C35 UNL A   1      55.694  17.225   6.321  1.00  0.00    +0.000 C 
ATOM     48  N4  UNL A   1      55.499  17.863   7.538  1.00  0.00    +0.000 N 
ATOM     49  C36 UNL A   1      54.705  17.118   5.279  1.00  0.00    +0.000 C 
ATOM     61  C43 UNL A   1      53.430  17.571   5.370  1.00  0.00    +0.000 C 
ATOM     62  N5  UNL A   1      52.813  18.226   6.426  1.00  0.00    +0.000 N 
ATOM     63  C44 UNL A   1      51.595  18.491   6.023  1.00  0.00    +0.000 C 
ATOM     64  C45 UNL A   1      50.479  19.179   6.760  1.00  0.00    +0.000 C 
ATOM     76  C52 UNL A   1      50.709  19.666   7.994  1.00  0.00    +0.000 C 
ATOM     77  C53 UNL A   1      49.729  20.368   8.817  1.00  0.00    +0.000 C 
ATOM     78  C54 UNL A   1      50.324  20.786   9.943  1.00  0.00    +0.000 C 
ATOM     79  C55 UNL A   1      51.711  20.319   9.954  1.00  0.00    +0.000 C 
ATOM     80  N6  UNL A   1      51.851  19.664   8.756  1.00  0.00    +0.000 N 
ATOM     81  C56 UNL A   1      51.304  18.043   4.655  1.00  0.00    +0.000 C 
ATOM     82  C57 UNL A   1      52.442  17.452   4.318  1.00  0.00    +0.000 C 
ATOM     83  C58 UNL A   1      55.997  19.604  11.594  1.00  0.00    +0.000 C 
ATOM     84  C59 UNL A   1      54.859  20.128  12.026  1.00  0.00    +0.000 C 
ATOM    123  H23 UNL A   1      58.522  16.794   7.869  1.00  0.00    +0.000 H 
ATOM    124  H24 UNL A   1      57.456  16.244   5.555  1.00  0.00    +0.000 H 
ATOM    125  H25 UNL A   1      54.665  18.305   7.816  1.00  0.00    +0.000 H 
ATOM    126  H26 UNL A   1      48.737  20.518   8.571  1.00  0.00    +0.000 H 
ATOM    127  H27 UNL A   1      49.875  21.347  10.684  1.00  0.00    +0.000 H 
ATOM    128  H28 UNL A   1      52.689  19.234   8.472  1.00  0.00    +0.000 H 
ENDROOT
BRANCH   28   27
ATOM    122  H22 UNL A   1      51.096  19.562  12.983  1.00  0.00    +0.000 H 
ATOM    133  H33 UNL A   1      52.971  23.106  11.697  1.00  0.00    +0.000 H 
ATOM    134  H34 UNL A   1      52.531  24.115  13.864  1.00  0.00    +0.000 H 
ATOM     85  C60 UNL A   1      52.502  22.557  12.435  1.00  0.00    +0.000 C 
ATOM     86  C61 UNL A   1      52.227  23.148  13.672  1.00  0.00    +0.000 C 
ATOM     24  C18 UNL A   1      51.537  22.422  14.649  1.00  0.00    +0.000 C 
ATOM     25  C19 UNL A   1      51.030  21.157  14.351  1.00  0.00    +0.000 C 
ATOM     26  C20 UNL A   1      51.389  20.536  13.159  1.00  0.00    +0.000 C 
ATOM     27  C21 UNL A   1      52.144  21.221  12.194  1.00  0.00    +0.000 C 
ATOM    121  H21 UNL A   1      50.393  20.685  15.012  1.00  0.00    +0.000 H 
BRANCH   24   22
ATOM     22  C17 UNL A   1      51.406  22.992  16.009  1.00  0.00    +0.000 C 
ATOM     23  O4  UNL A   1      51.069  24.164  16.149  1.00  0.00    +0.000 O 
BRANCH   22   21
ATOM     21  N2  UNL A   1      51.710  22.217  17.106  1.00  0.00    +0.000 N 
ATOM    120  H20 UNL A   1      51.079  22.290  17.858  1.00  0.00    +0.000 H 
BRANCH   21   20
ATOM     20  C16 UNL A   1      52.825  21.307  17.316  1.00  0.00    +0.000 C 
ATOM    118  H18 UNL A   1      52.918  21.123  18.366  1.00  0.00    +0.000 H 
ATOM    119  H19 UNL A   1      52.613  20.417  16.763  1.00  0.00    +0.000 H 
BRANCH   20   19
ATOM     19  C15 UNL A   1      54.154  21.848  16.803  1.00  0.00    +0.000 C 
ATOM    116  H16 UNL A   1      54.015  22.883  16.563  1.00  0.00    +0.000 H 
ATOM    117  H17 UNL A   1      54.859  21.674  17.588  1.00  0.00    +0.000 H 
BRANCH   19   18
ATOM     18  C14 UNL A   1      54.727  21.153  15.570  1.00  0.00    +0.000 C 
ATOM    115  H15 UNL A   1      55.621  21.689  15.332  1.00  0.00    +0.000 H 
ATOM    114  H14 UNL A   1      53.977  21.178  14.807  1.00  0.00    +0.000 H 
BRANCH   18   17
ATOM     17  C13 UNL A   1      55.160  19.697  15.748  1.00  0.00    +0.000 C 
ATOM    113  H13 UNL A   1      55.773  19.484  14.897  1.00  0.00    +0.000 H 
ATOM    112  H12 UNL A   1      54.273  19.103  15.823  1.00  0.00    +0.000 H 
BRANCH   17   16
ATOM    110  H10 UNL A   1      56.092  20.269  17.554  1.00  0.00    +0.000 H 
ATOM    111  H11 UNL A   1      55.554  18.547  17.431  1.00  0.00    +0.000 H 
ATOM     16  C12 UNL A   1      56.033  19.380  16.961  1.00  0.00    +0.000 C 
BRANCH   16   15
ATOM    108  H8  UNL A   1      57.913  18.692  17.643  1.00  0.00    +0.000 H 
ATOM    109  H9  UNL A   1      57.373  18.062  16.052  1.00  0.00    +0.000 H 
ATOM     15  C11 UNL A   1      57.460  18.910  16.698  1.00  0.00    +0.000 C 
BRANCH   15   14
ATOM    107  H7  UNL A   1      58.902  20.383  16.585  1.00  0.00    +0.000 H 
ATOM     14  N1  UNL A   1      58.315  19.850  16.001  1.00  0.00    +0.000 N 
BRANCH   14   12
ATOM     12  C10 UNL A   1      58.438  20.117  14.655  1.00  0.00    +0.000 C 
ATOM     13  O3  UNL A   1      58.485  19.179  13.861  1.00  0.00    +0.000 O 
BRANCH   12   11
ATOM    135  H35 UNL A   1      57.967  22.543  15.917  1.00  0.00    +0.000 H 
ATOM    136  H36 UNL A   1      57.296  24.596  14.807  1.00  0.00    +0.000 H 
ATOM      9  C7  UNL A   1      58.413  22.916  12.146  1.00  0.00    +0.000 C 
ATOM    105  H5  UNL A   1      58.687  23.079  11.166  1.00  0.00    +0.000 H 
ATOM      8  C6  UNL A   1      57.758  23.908  12.868  1.00  0.00    +0.000 C 
ATOM     10  C8  UNL A   1      58.694  21.697  12.770  1.00  0.00    +0.000 C 
ATOM    106  H6  UNL A   1      59.124  20.931  12.228  1.00  0.00    +0.000 H 
ATOM     11  C9  UNL A   1      58.394  21.509  14.128  1.00  0.00    +0.000 C 
ATOM     87  C62 UNL A   1      57.997  22.608  14.888  1.00  0.00    +0.000 C 
ATOM     88  C63 UNL A   1      57.643  23.798  14.253  1.00  0.00    +0.000 C 
BRANCH    8    7
ATOM      7  O2  UNL A   1      57.276  25.050  12.303  1.00  0.00    +0.000 O 
BRANCH    7    6
ATOM      2  C2  UNL A   1      53.392  25.704  10.811  1.00  0.00    +0.000 C 
ATOM      3  C3  UNL A   1      53.685  26.094  12.052  1.00  0.00    +0.000 C 
ATOM    100  O7  UNL A   1      54.281  25.003  10.025  1.00  0.00    +0.000 O 
ATOM      4  C4  UNL A   1      55.024  25.815  12.586  1.00  0.00    +0.000 C 
ATOM      5  O1  UNL A   1      55.280  26.125  13.747  1.00  0.00    +0.000 O 
ATOM      6  C5  UNL A   1      56.031  25.153  11.694  1.00  0.00    +0.000 C 
ATOM    104  H4  UNL A   1      52.982  26.584  12.628  1.00  0.00    +0.000 H 
ATOM     89  C64 UNL A   1      55.568  24.732  10.485  1.00  0.00    +0.000 C 
BRANCH    2    1
ATOM      1  C1  UNL A   1      52.071  25.975  10.163  1.00  0.00    +0.000 C 
ATOM    101  H1  UNL A   1      51.511  25.065  10.105  1.00  0.00    +0.000 H 
ATOM    102  H2  UNL A   1      52.230  26.361   9.178  1.00  0.00    +0.000 H 
ATOM    103  H3  UNL A   1      51.529  26.691  10.745  1.00  0.00    +0.000 H 
ENDBRANCH    2    1
BRANCH   89   90
ATOM     98  C70 UNL A   1      58.031  23.805   7.756  1.00  0.00    +0.000 C 
ATOM     99  C71 UNL A   1      57.387  24.526   8.767  1.00  0.00    +0.000 C 
ATOM    137  H37 UNL A   1      55.172  22.197   9.726  1.00  0.00    +0.000 H 
ATOM    138  H38 UNL A   1      56.253  20.959   7.937  1.00  0.00    +0.000 H 
ATOM    142  H42 UNL A   1      58.820  24.227   7.240  1.00  0.00    +0.000 H 
ATOM    143  H43 UNL A   1      57.711  25.476   9.006  1.00  0.00    +0.000 H 
ATOM     90  C65 UNL A   1      56.303  23.965   9.459  1.00  0.00    +0.000 C 
ATOM     91  C66 UNL A   1      55.924  22.641   9.178  1.00  0.00    +0.000 C 
ATOM     92  C67 UNL A   1      56.557  21.920   8.160  1.00  0.00    +0.000 C 
ATOM     93  C68 UNL A   1      57.603  22.511   7.448  1.00  0.00    +0.000 C 
BRANCH   93   94
ATOM     97  O6  UNL A   1      58.115  22.441   4.878  1.00  0.00    +0.000 O 
ATOM     94  S1  UNL A   1      58.314  21.636   6.071  1.00  0.00    +0.000 S 
ATOM     96  O5  UNL A   1      57.848  20.267   6.144  1.00  0.00    +0.000 O 
BRANCH   94   95
ATOM    139  H39 UNL A   1      60.228  21.117   7.338  1.00  0.00    +0.000 H 
ATOM    140  H40 UNL A   1      60.396  22.645   6.507  1.00  0.00    +0.000 H 
ATOM    141  H41 UNL A   1      60.573  21.146   5.626  1.00  0.00    +0.000 H 
ATOM     95  C69 UNL A   1      60.049  21.636   6.420  1.00  0.00    +0.000 C 
ENDBRANCH   94   95
ENDBRANCH   93   94
ENDBRANCH   89   90
ENDBRANCH    7    6
ENDBRANCH    8    7
ENDBRANCH   12   11
ENDBRANCH   14   12
ENDBRANCH   15   14
ENDBRANCH   16   15
ENDBRANCH   17   16
ENDBRANCH   18   17
ENDBRANCH   19   18
ENDBRANCH   20   19
ENDBRANCH   21   20
ENDBRANCH   22   21
ENDBRANCH   24   22
ENDBRANCH   28   27
BRANCH   32   33
ATOM     33  C26 UNL A   1      58.147  18.202  10.288  1.00  0.00    +0.000 C 
ATOM     34  C27 UNL A   1      58.469  17.046  11.015  1.00  0.00    +0.000 C 
ATOM     35  F1  UNL A   1      57.553  16.082  11.193  1.00  0.00    +0.000 F 
ATOM     36  C28 UNL A   1      59.729  16.887  11.588  1.00  0.00    +0.000 C 
ATOM     37  F2  UNL A   1      60.002  15.789  12.308  1.00  0.00    +0.000 F 
ATOM     38  C29 UNL A   1      60.702  17.860  11.416  1.00  0.00    +0.000 C 
ATOM     39  F3  UNL A   1      61.920  17.695  11.950  1.00  0.00    +0.000 F 
ATOM     40  C30 UNL A   1      60.411  19.005  10.691  1.00  0.00    +0.000 C 
ATOM     41  F4  UNL A   1      61.353  19.939  10.509  1.00  0.00    +0.000 F 
ATOM     42  C31 UNL A   1      59.142  19.182  10.144  1.00  0.00    +0.000 C 
ATOM     43  F5  UNL A   1      58.890  20.303   9.452  1.00  0.00    +0.000 F 
ENDBRANCH   32   33
BRANCH   49   50
ATOM     50  C37 UNL A   1      55.109  16.444   3.998  1.00  0.00    +0.000 C 
ATOM     51  C38 UNL A   1      56.034  17.032   3.123  1.00  0.00    +0.000 C 
ATOM     52  F6  UNL A   1      56.528  18.252   3.383  1.00  0.00    +0.000 F 
ATOM     53  C39 UNL A   1      56.431  16.382   1.958  1.00  0.00    +0.000 C 
ATOM     54  F7  UNL A   1      57.281  16.982   1.114  1.00  0.00    +0.000 F 
ATOM     55  C40 UNL A   1      55.940  15.119   1.663  1.00  0.00    +0.000 C 
ATOM     56  F8  UNL A   1      56.334  14.488   0.549  1.00  0.00    +0.000 F 
ATOM     57  C41 UNL A   1      55.037  14.511   2.522  1.00  0.00    +0.000 C 
ATOM     58  F9  UNL A   1      54.575  13.283   2.248  1.00  0.00    +0.000 F 
ATOM     59  C42 UNL A   1      54.612  15.173   3.671  1.00  0.00    +0.000 C 
ATOM     60  F10 UNL A   1      53.731  14.562   4.477  1.00  0.00    +0.000 F 
ENDBRANCH   49   50
BRANCH   64   65
ATOM     65  C46 UNL A   1      49.133  19.329   6.149  1.00  0.00    +0.000 C 
ATOM     66  C47 UNL A   1      48.244  18.247   6.094  1.00  0.00    +0.000 C 
ATOM     67  F11 UNL A   1      48.621  17.045   6.555  1.00  0.00    +0.000 F 
ATOM     68  C48 UNL A   1      46.974  18.387   5.537  1.00  0.00    +0.000 C 
ATOM     69  F12 UNL A   1      46.157  17.328   5.465  1.00  0.00    +0.000 F 
ATOM     70  C49 UNL A   1      46.557  19.618   5.055  1.00  0.00    +0.000 C 
ATOM     71  F13 UNL A   1      45.329  19.758   4.537  1.00  0.00    +0.000 F 
ATOM     72  C50 UNL A   1      47.416  20.706   5.107  1.00  0.00    +0.000 C 
ATOM     73  F14 UNL A   1      47.011  21.902   4.659  1.00  0.00    +0.000 F 
ATOM     74  C51 UNL A   1      48.697  20.558   5.632  1.00  0.00    +0.000 C 
ATOM     75  F15 UNL A   1      49.509  21.626   5.662  1.00  0.00    +0.000 F 
ENDBRANCH   64   65
TORSDOF 21
ENDMDL
MODEL 6
REMARK VINA RESULT:     -10.4     32.475     38.825
ROOT
ATOM    129  H29 UNL A   1      12.245   7.294  29.488  1.00  0.00    +0.000 H 
ATOM    130  H30 UNL A   1      11.386   9.594  28.765  1.00  0.00    +0.000 H 
ATOM    131  H31 UNL A   1       4.022   5.262  23.464  1.00  0.00    +0.000 H 
ATOM    132  H32 UNL A   1       4.697   2.975  24.394  1.00  0.00    +0.000 H 
ATOM     28  C22 UNL A   1       7.058   3.031  26.003  1.00  0.00    +0.000 C 
ATOM     29  C23 UNL A   1       6.335   4.197  25.377  1.00  0.00    +0.000 C 
ATOM     30  N3  UNL A   1       6.612   5.476  25.445  1.00  0.00    +0.000 N 
ATOM     31  C24 UNL A   1       5.647   6.117  24.677  1.00  0.00    +0.000 C 
ATOM     32  C25 UNL A   1       5.474   7.445  24.472  1.00  0.00    +0.000 C 
ATOM     44  C32 UNL A   1       6.306   8.471  25.045  1.00  0.00    +0.000 C 
ATOM     45  C33 UNL A   1       6.196   9.845  24.910  1.00  0.00    +0.000 C 
ATOM     46  C34 UNL A   1       7.257  10.440  25.601  1.00  0.00    +0.000 C 
ATOM     47  C35 UNL A   1       7.994   9.441  26.215  1.00  0.00    +0.000 C 
ATOM     48  N4  UNL A   1       7.401   8.237  25.863  1.00  0.00    +0.000 N 
ATOM     49  C36 UNL A   1       9.158   9.573  27.054  1.00  0.00    +0.000 C 
ATOM     61  C43 UNL A   1       9.795   8.543  27.664  1.00  0.00    +0.000 C 
ATOM     62  N5  UNL A   1       9.504   7.187  27.613  1.00  0.00    +0.000 N 
ATOM     63  C44 UNL A   1      10.423   6.594  28.334  1.00  0.00    +0.000 C 
ATOM     64  C45 UNL A   1      10.595   5.132  28.637  1.00  0.00    +0.000 C 
ATOM     76  C52 UNL A   1       9.753   4.242  28.080  1.00  0.00    +0.000 C 
ATOM     77  C53 UNL A   1       9.810   2.796  28.272  1.00  0.00    +0.000 C 
ATOM     78  C54 UNL A   1       8.878   2.216  27.502  1.00  0.00    +0.000 C 
ATOM     79  C55 UNL A   1       8.109   3.255  26.816  1.00  0.00    +0.000 C 
ATOM     80  N6  UNL A   1       8.700   4.427  27.218  1.00  0.00    +0.000 N 
ATOM     81  C56 UNL A   1      11.414   7.510  28.915  1.00  0.00    +0.000 C 
ATOM     82  C57 UNL A   1      10.962   8.689  28.510  1.00  0.00    +0.000 C 
ATOM     83  C58 UNL A   1       4.798   5.087  24.122  1.00  0.00    +0.000 C 
ATOM     84  C59 UNL A   1       5.145   3.888  24.568  1.00  0.00    +0.000 C 
ATOM    123  H23 UNL A   1       5.459  10.344  24.389  1.00  0.00    +0.000 H 
ATOM    124  H24 UNL A   1       7.456  11.451  25.646  1.00  0.00    +0.000 H 
ATOM    125  H25 UNL A   1       7.712   7.349  26.152  1.00  0.00    +0.000 H 
ATOM    126  H26 UNL A   1      10.462   2.299  28.899  1.00  0.00    +0.000 H 
ATOM    127  H27 UNL A   1       8.727   1.199  27.409  1.00  0.00    +0.000 H 
ATOM    128  H28 UNL A   1       8.398   5.314  26.918  1.00  0.00    +0.000 H 
ENDROOT
BRANCH   28   27
ATOM    122  H22 UNL A   1       5.295   1.625  27.458  1.00  0.00    +0.000 H 
ATOM    133  H33 UNL A   1       7.817   1.226  24.110  1.00  0.00    +0.000 H 
ATOM    134  H34 UNL A   1       6.766  -0.901  23.582  1.00  0.00    +0.000 H 
ATOM     85  C60 UNL A   1       7.044   0.875  24.696  1.00  0.00    +0.000 C 
ATOM     86  C61 UNL A   1       6.458  -0.361  24.405  1.00  0.00    +0.000 C 
ATOM     24  C18 UNL A   1       5.450  -0.864  25.236  1.00  0.00    +0.000 C 
ATOM     25  C19 UNL A   1       5.111  -0.188  26.409  1.00  0.00    +0.000 C 
ATOM     26  C20 UNL A   1       5.623   1.084  26.642  1.00  0.00    +0.000 C 
ATOM     27  C21 UNL A   1       6.582   1.639  25.780  1.00  0.00    +0.000 C 
ATOM    121  H21 UNL A   1       4.482  -0.630  27.098  1.00  0.00    +0.000 H 
BRANCH   24   22
ATOM     22  C17 UNL A   1       4.719  -2.083  24.822  1.00  0.00    +0.000 C 
ATOM     23  O4  UNL A   1       4.831  -2.500  23.674  1.00  0.00    +0.000 O 
BRANCH   22   21
ATOM     21  N2  UNL A   1       3.883  -2.713  25.716  1.00  0.00    +0.000 N 
ATOM    120  H20 UNL A   1       2.926  -2.501  25.616  1.00  0.00    +0.000 H 
BRANCH   21   20
ATOM     20  C16 UNL A   1       4.205  -3.645  26.785  1.00  0.00    +0.000 C 
ATOM    118  H18 UNL A   1       4.603  -3.091  27.609  1.00  0.00    +0.000 H 
ATOM    119  H19 UNL A   1       3.301  -4.158  27.038  1.00  0.00    +0.000 H 
BRANCH   20   19
ATOM     19  C15 UNL A   1       5.224  -4.704  26.381  1.00  0.00    +0.000 C 
ATOM    116  H16 UNL A   1       4.968  -5.613  26.885  1.00  0.00    +0.000 H 
ATOM    117  H17 UNL A   1       5.169  -4.765  25.315  1.00  0.00    +0.000 H 
BRANCH   19   18
ATOM     18  C14 UNL A   1       6.682  -4.384  26.703  1.00  0.00    +0.000 C 
ATOM    115  H15 UNL A   1       6.999  -5.150  27.378  1.00  0.00    +0.000 H 
ATOM    114  H14 UNL A   1       6.715  -3.394  27.107  1.00  0.00    +0.000 H 
BRANCH   18   17
ATOM     17  C13 UNL A   1       7.666  -4.441  25.533  1.00  0.00    +0.000 C 
ATOM    113  H13 UNL A   1       8.515  -3.876  25.856  1.00  0.00    +0.000 H 
ATOM    112  H12 UNL A   1       7.167  -4.049  24.672  1.00  0.00    +0.000 H 
BRANCH   17   16
ATOM    110  H10 UNL A   1       8.244  -6.403  26.056  1.00  0.00    +0.000 H 
ATOM    111  H11 UNL A   1       7.561  -6.176  24.397  1.00  0.00    +0.000 H 
ATOM     16  C12 UNL A   1       8.218  -5.816  25.161  1.00  0.00    +0.000 C 
BRANCH   16   15
ATOM    108  H8  UNL A   1      10.322  -5.667  25.308  1.00  0.00    +0.000 H 
ATOM    109  H9  UNL A   1       9.697  -6.849  24.112  1.00  0.00    +0.000 H 
ATOM     15  C11 UNL A   1       9.608  -5.872  24.538  1.00  0.00    +0.000 C 
BRANCH   15   14
ATOM    107  H7  UNL A   1       9.523  -5.245  22.572  1.00  0.00    +0.000 H 
ATOM     14  N1  UNL A   1       9.850  -4.944  23.451  1.00  0.00    +0.000 N 
BRANCH   14   12
ATOM     12  C10 UNL A   1      10.462  -3.710  23.450  1.00  0.00    +0.000 C 
ATOM     13  O3  UNL A   1      11.320  -3.467  24.297  1.00  0.00    +0.000 O 
BRANCH   12   11
ATOM    135  H35 UNL A   1      11.957  -2.963  21.235  1.00  0.00    +0.000 H 
ATOM    136  H36 UNL A   1      11.684  -0.896  19.989  1.00  0.00    +0.000 H 
ATOM      9  C7  UNL A   1       8.764  -0.908  21.607  1.00  0.00    +0.000 C 
ATOM    105  H5  UNL A   1       7.841  -0.448  21.579  1.00  0.00    +0.000 H 
ATOM      8  C6  UNL A   1       9.820  -0.415  20.850  1.00  0.00    +0.000 C 
ATOM     10  C8  UNL A   1       8.970  -2.037  22.405  1.00  0.00    +0.000 C 
ATOM    106  H6  UNL A   1       8.212  -2.377  23.019  1.00  0.00    +0.000 H 
ATOM     11  C9  UNL A   1      10.201  -2.710  22.378  1.00  0.00    +0.000 C 
ATOM     87  C62 UNL A   1      11.138  -2.359  21.407  1.00  0.00    +0.000 C 
ATOM     88  C63 UNL A   1      10.966  -1.189  20.669  1.00  0.00    +0.000 C 
BRANCH    8    7
ATOM      7  O2  UNL A   1       9.777   0.776  20.191  1.00  0.00    +0.000 O 
BRANCH    7    6
ATOM      2  C2  UNL A   1       8.961   4.599  21.762  1.00  0.00    +0.000 C 
ATOM      3  C3  UNL A   1       8.502   4.283  20.550  1.00  0.00    +0.000 C 
ATOM    100  O7  UNL A   1       9.780   3.759  22.486  1.00  0.00    +0.000 O 
ATOM      4  C4  UNL A   1       8.835   2.969  19.986  1.00  0.00    +0.000 C 
ATOM      5  O1  UNL A   1       8.458   2.696  18.849  1.00  0.00    +0.000 O 
ATOM      6  C5  UNL A   1       9.631   2.009  20.818  1.00  0.00    +0.000 C 
ATOM    104  H4  UNL A   1       7.922   4.952  20.019  1.00  0.00    +0.000 H 
ATOM     89  C64 UNL A   1      10.106   2.496  21.996  1.00  0.00    +0.000 C 
BRANCH    2    1
ATOM      1  C1  UNL A   1       8.646   5.895  22.439  1.00  0.00    +0.000 C 
ATOM    101  H1  UNL A   1       7.770   5.778  23.041  1.00  0.00    +0.000 H 
ATOM    102  H2  UNL A   1       8.475   6.650  21.701  1.00  0.00    +0.000 H 
ATOM    103  H3  UNL A   1       9.470   6.182  23.060  1.00  0.00    +0.000 H 
ENDBRANCH    2    1
BRANCH   89   90
ATOM     98  C70 UNL A   1      11.446   0.910  25.168  1.00  0.00    +0.000 C 
ATOM     99  C71 UNL A   1      10.567   1.500  24.254  1.00  0.00    +0.000 C 
ATOM    137  H37 UNL A   1      12.603   1.621  21.591  1.00  0.00    +0.000 H 
ATOM    138  H38 UNL A   1      14.149   0.643  23.189  1.00  0.00    +0.000 H 
ATOM    142  H42 UNL A   1      11.129   0.694  26.127  1.00  0.00    +0.000 H 
ATOM    143  H43 UNL A   1       9.596   1.707  24.536  1.00  0.00    +0.000 H 
ATOM     90  C65 UNL A   1      10.998   1.815  22.956  1.00  0.00    +0.000 C 
ATOM     91  C66 UNL A   1      12.298   1.456  22.562  1.00  0.00    +0.000 C 
ATOM     92  C67 UNL A   1      13.185   0.876  23.476  1.00  0.00    +0.000 C 
ATOM     93  C68 UNL A   1      12.755   0.615  24.779  1.00  0.00    +0.000 C 
BRANCH   93   94
ATOM     97  O6  UNL A   1      14.096   1.012  26.995  1.00  0.00    +0.000 O 
ATOM     94  S1  UNL A   1      13.926  -0.002  25.968  1.00  0.00    +0.000 S 
ATOM     96  O5  UNL A   1      15.056  -0.525  25.229  1.00  0.00    +0.000 O 
BRANCH   94   95
ATOM    139  H39 UNL A   1      12.557  -1.916  25.965  1.00  0.00    +0.000 H 
ATOM    140  H40 UNL A   1      12.400  -1.009  27.451  1.00  0.00    +0.000 H 
ATOM    141  H41 UNL A   1      13.804  -2.014  27.184  1.00  0.00    +0.000 H 
ATOM     95  C69 UNL A   1      13.089  -1.370  26.717  1.00  0.00    +0.000 C 
ENDBRANCH   94   95
ENDBRANCH   93   94
ENDBRANCH   89   90
ENDBRANCH    7    6
ENDBRANCH    8    7
ENDBRANCH   12   11
ENDBRANCH   14   12
ENDBRANCH   15   14
ENDBRANCH   16   15
ENDBRANCH   17   16
ENDBRANCH   18   17
ENDBRANCH   19   18
ENDBRANCH   20   19
ENDBRANCH   21   20
ENDBRANCH   22   21
ENDBRANCH   24   22
ENDBRANCH   28   27
BRANCH   32   33
ATOM     33  C26 UNL A   1       4.341   7.879  23.584  1.00  0.00    +0.000 C 
ATOM     34  C27 UNL A   1       3.101   8.271  24.111  1.00  0.00    +0.000 C 
ATOM     35  F1  UNL A   1       2.871   8.189  25.431  1.00  0.00    +0.000 F 
ATOM     36  C28 UNL A   1       2.080   8.727  23.280  1.00  0.00    +0.000 C 
ATOM     37  F2  UNL A   1       0.892   9.062  23.803  1.00  0.00    +0.000 F 
ATOM     38  C29 UNL A   1       2.288   8.832  21.913  1.00  0.00    +0.000 C 
ATOM     39  F3  UNL A   1       1.311   9.290  21.119  1.00  0.00    +0.000 F 
ATOM     40  C30 UNL A   1       3.509   8.462  21.371  1.00  0.00    +0.000 C 
ATOM     41  F4  UNL A   1       3.718   8.578  20.053  1.00  0.00    +0.000 F 
ATOM     42  C31 UNL A   1       4.521   7.976  22.195  1.00  0.00    +0.000 C 
ATOM     43  F5  UNL A   1       5.689   7.621  21.639  1.00  0.00    +0.000 F 
ENDBRANCH   32   33
BRANCH   49   50
ATOM     50  C37 UNL A   1       9.703  10.955  27.282  1.00  0.00    +0.000 C 
ATOM     51  C38 UNL A   1      10.804  11.434  26.559  1.00  0.00    +0.000 C 
ATOM     52  F6  UNL A   1      11.442  10.635  25.690  1.00  0.00    +0.000 F 
ATOM     53  C39 UNL A   1      11.278  12.730  26.750  1.00  0.00    +0.000 C 
ATOM     54  F7  UNL A   1      12.359  13.152  26.081  1.00  0.00    +0.000 F 
ATOM     55  C40 UNL A   1      10.638  13.581  27.638  1.00  0.00    +0.000 C 
ATOM     56  F8  UNL A   1      11.085  14.833  27.810  1.00  0.00    +0.000 F 
ATOM     57  C41 UNL A   1       9.537  13.133  28.352  1.00  0.00    +0.000 C 
ATOM     58  F9  UNL A   1       8.906  13.960  29.198  1.00  0.00    +0.000 F 
ATOM     59  C42 UNL A   1       9.082  11.828  28.188  1.00  0.00    +0.000 C 
ATOM     60  F10 UNL A   1       8.020  11.422  28.900  1.00  0.00    +0.000 F 
ENDBRANCH   49   50
BRANCH   64   65
ATOM     65  C46 UNL A   1      11.676   4.656  29.539  1.00  0.00    +0.000 C 
ATOM     66  C47 UNL A   1      11.572   4.806  30.928  1.00  0.00    +0.000 C 
ATOM     67  F11 UNL A   1      10.506   5.426  31.457  1.00  0.00    +0.000 F 
ATOM     68  C48 UNL A   1      12.575   4.347  31.779  1.00  0.00    +0.000 C 
ATOM     69  F12 UNL A   1      12.467   4.535  33.101  1.00  0.00    +0.000 F 
ATOM     70  C49 UNL A   1      13.687   3.700  31.259  1.00  0.00    +0.000 C 
ATOM     71  F13 UNL A   1      14.643   3.242  32.079  1.00  0.00    +0.000 F 
ATOM     72  C50 UNL A   1      13.808   3.532  29.889  1.00  0.00    +0.000 C 
ATOM     73  F14 UNL A   1      14.871   2.891  29.383  1.00  0.00    +0.000 F 
ATOM     74  C51 UNL A   1      12.822   4.021  29.036  1.00  0.00    +0.000 C 
ATOM     75  F15 UNL A   1      12.969   3.850  27.714  1.00  0.00    +0.000 F 
ENDBRANCH   64   65
TORSDOF 21
ENDMDL
MODEL 7
REMARK VINA RESULT:     -10.1     35.930     42.531
ROOT
ATOM    129  H29 UNL A   1       6.302  -5.004  20.976  1.00  0.00    +0.000 H 
ATOM    130  H30 UNL A   1       7.088  -5.777  23.286  1.00  0.00    +0.000 H 
ATOM    131  H31 UNL A   1      13.912   1.605  23.516  1.00  0.00    +0.000 H 
ATOM    132  H32 UNL A   1      12.958   2.555  21.338  1.00  0.00    +0.000 H 
ATOM     28  C22 UNL A   1      10.912   0.938  20.168  1.00  0.00    +0.000 C 
ATOM     29  C23 UNL A   1      11.622   0.728  21.482  1.00  0.00    +0.000 C 
ATOM     30  N3  UNL A   1      11.450  -0.216  22.374  1.00  0.00    +0.000 N 
ATOM     31  C24 UNL A   1      12.367   0.042  23.386  1.00  0.00    +0.000 C 
ATOM     32  C25 UNL A   1      12.550  -0.623  24.552  1.00  0.00    +0.000 C 
ATOM     44  C32 UNL A   1      11.783  -1.770  24.962  1.00  0.00    +0.000 C 
ATOM     45  C33 UNL A   1      11.883  -2.498  26.136  1.00  0.00    +0.000 C 
ATOM     46  C34 UNL A   1      10.972  -3.558  26.074  1.00  0.00    +0.000 C 
ATOM     47  C35 UNL A   1      10.264  -3.457  24.888  1.00  0.00    +0.000 C 
ATOM     48  N4  UNL A   1      10.774  -2.357  24.214  1.00  0.00    +0.000 N 
ATOM     49  C36 UNL A   1       9.206  -4.305  24.400  1.00  0.00    +0.000 C 
ATOM     61  C43 UNL A   1       8.524  -4.108  23.245  1.00  0.00    +0.000 C 
ATOM     62  N5  UNL A   1       8.685  -3.105  22.300  1.00  0.00    +0.000 N 
ATOM     63  C44 UNL A   1       7.821  -3.363  21.350  1.00  0.00    +0.000 C 
ATOM     64  C45 UNL A   1       7.547  -2.602  20.082  1.00  0.00    +0.000 C 
ATOM     76  C52 UNL A   1       8.296  -1.521  19.790  1.00  0.00    +0.000 C 
ATOM     77  C53 UNL A   1       8.154  -0.699  18.592  1.00  0.00    +0.000 C 
ATOM     78  C54 UNL A   1       9.116   0.234  18.588  1.00  0.00    +0.000 C 
ATOM     79  C55 UNL A   1       9.899   0.122  19.819  1.00  0.00    +0.000 C 
ATOM     80  N6  UNL A   1       9.341  -0.949  20.471  1.00  0.00    +0.000 N 
ATOM     81  C56 UNL A   1       7.019  -4.572  21.580  1.00  0.00    +0.000 C 
ATOM     82  C57 UNL A   1       7.458  -4.965  22.767  1.00  0.00    +0.000 C 
ATOM     83  C58 UNL A   1      13.120   1.209  22.983  1.00  0.00    +0.000 C 
ATOM     84  C59 UNL A   1      12.662   1.705  21.843  1.00  0.00    +0.000 C 
ATOM    123  H23 UNL A   1      12.519  -2.294  26.923  1.00  0.00    +0.000 H 
ATOM    124  H24 UNL A   1      10.848  -4.290  26.790  1.00  0.00    +0.000 H 
ATOM    125  H25 UNL A   1      10.465  -2.040  23.334  1.00  0.00    +0.000 H 
ATOM    126  H26 UNL A   1       7.430  -0.818  17.866  1.00  0.00    +0.000 H 
ATOM    127  H27 UNL A   1       9.277   0.923  17.835  1.00  0.00    +0.000 H 
ATOM    128  H28 UNL A   1       9.659  -1.274  21.343  1.00  0.00    +0.000 H 
ENDROOT
BRANCH   28   27
ATOM    122  H22 UNL A   1      10.957   3.555  20.762  1.00  0.00    +0.000 H 
ATOM    133  H33 UNL A   1      11.596   0.931  17.533  1.00  0.00    +0.000 H 
ATOM    134  H34 UNL A   1      12.516   2.768  16.233  1.00  0.00    +0.000 H 
ATOM     85  C60 UNL A   1      11.677   1.870  17.954  1.00  0.00    +0.000 C 
ATOM     86  C61 UNL A   1      12.183   2.931  17.196  1.00  0.00    +0.000 C 
ATOM     24  C18 UNL A   1      12.235   4.215  17.748  1.00  0.00    +0.000 C 
ATOM     25  C19 UNL A   1      11.682   4.456  19.007  1.00  0.00    +0.000 C 
ATOM     26  C20 UNL A   1      11.272   3.386  19.794  1.00  0.00    +0.000 C 
ATOM     27  C21 UNL A   1      11.280   2.078  19.285  1.00  0.00    +0.000 C 
ATOM    121  H21 UNL A   1      11.581   5.424  19.352  1.00  0.00    +0.000 H 
BRANCH   24   22
ATOM     22  C17 UNL A   1      12.930   5.289  17.005  1.00  0.00    +0.000 C 
ATOM     23  O4  UNL A   1      13.950   5.790  17.469  1.00  0.00    +0.000 O 
BRANCH   22   21
ATOM     21  N2  UNL A   1      12.402   5.752  15.820  1.00  0.00    +0.000 N 
ATOM    120  H20 UNL A   1      12.762   5.330  15.007  1.00  0.00    +0.000 H 
BRANCH   21   20
ATOM     20  C16 UNL A   1      11.391   6.773  15.594  1.00  0.00    +0.000 C 
ATOM    118  H18 UNL A   1      11.778   7.712  15.930  1.00  0.00    +0.000 H 
ATOM    119  H19 UNL A   1      11.173   6.774  14.547  1.00  0.00    +0.000 H 
BRANCH   20   19
ATOM     19  C15 UNL A   1      10.082   6.502  16.325  1.00  0.00    +0.000 C 
ATOM    116  H16 UNL A   1      10.285   6.519  17.376  1.00  0.00    +0.000 H 
ATOM    117  H17 UNL A   1       9.406   7.264  15.999  1.00  0.00    +0.000 H 
BRANCH   19   18
ATOM     18  C14 UNL A   1       9.398   5.175  16.001  1.00  0.00    +0.000 C 
ATOM    115  H15 UNL A   1      10.083   4.418  16.319  1.00  0.00    +0.000 H 
ATOM    114  H14 UNL A   1       9.184   5.169  14.952  1.00  0.00    +0.000 H 
BRANCH   18   17
ATOM     17  C13 UNL A   1       8.094   4.882  16.743  1.00  0.00    +0.000 C 
ATOM    113  H13 UNL A   1       7.604   4.131  16.158  1.00  0.00    +0.000 H 
ATOM    112  H12 UNL A   1       7.558   5.803  16.832  1.00  0.00    +0.000 H 
BRANCH   17   16
ATOM    110  H10 UNL A   1       7.524   3.467  18.204  1.00  0.00    +0.000 H 
ATOM    111  H11 UNL A   1       9.248   4.012  18.235  1.00  0.00    +0.000 H 
ATOM     16  C12 UNL A   1       8.216   4.281  18.143  1.00  0.00    +0.000 C 
BRANCH   16   15
ATOM    108  H8  UNL A   1       8.636   6.018  19.275  1.00  0.00    +0.000 H 
ATOM    109  H9  UNL A   1       6.921   5.491  19.245  1.00  0.00    +0.000 H 
ATOM     15  C11 UNL A   1       7.946   5.200  19.329  1.00  0.00    +0.000 C 
BRANCH   15   14
ATOM    107  H7  UNL A   1       8.158   3.613  20.633  1.00  0.00    +0.000 H 
ATOM     14  N1  UNL A   1       8.078   4.595  20.639  1.00  0.00    +0.000 N 
BRANCH   14   12
ATOM     12  C10 UNL A   1       8.111   5.171  21.890  1.00  0.00    +0.000 C 
ATOM     13  O3  UNL A   1       7.585   6.269  22.056  1.00  0.00    +0.000 O 
BRANCH   12   11
ATOM    135  H35 UNL A   1       9.870   3.032  22.075  1.00  0.00    +0.000 H 
ATOM    136  H36 UNL A   1      10.128   1.591  24.012  1.00  0.00    +0.000 H 
ATOM      9  C7  UNL A   1       8.550   4.141  25.479  1.00  0.00    +0.000 C 
ATOM    105  H5  UNL A   1       8.347   4.511  26.420  1.00  0.00    +0.000 H 
ATOM      8  C6  UNL A   1       9.072   2.863  25.322  1.00  0.00    +0.000 C 
ATOM     10  C8  UNL A   1       8.304   4.918  24.342  1.00  0.00    +0.000 C 
ATOM    106  H6  UNL A   1       7.860   5.844  24.441  1.00  0.00    +0.000 H 
ATOM     11  C9  UNL A   1       8.658   4.445  23.070  1.00  0.00    +0.000 C 
ATOM     87  C62 UNL A   1       9.429   3.287  22.972  1.00  0.00    +0.000 C 
ATOM     88  C63 UNL A   1       9.605   2.476  24.092  1.00  0.00    +0.000 C 
BRANCH    8    7
ATOM      7  O2  UNL A   1       9.172   1.965  26.341  1.00  0.00    +0.000 O 
BRANCH    7    6
ATOM      2  C2  UNL A   1       6.595  -1.141  27.547  1.00  0.00    +0.000 C 
ATOM      3  C3  UNL A   1       7.886  -1.204  27.876  1.00  0.00    +0.000 C 
ATOM    100  O7  UNL A   1       6.084  -0.148  26.739  1.00  0.00    +0.000 O 
ATOM      4  C4  UNL A   1       8.790  -0.145  27.407  1.00  0.00    +0.000 C 
ATOM      5  O1  UNL A   1       9.988  -0.228  27.664  1.00  0.00    +0.000 O 
ATOM      6  C5  UNL A   1       8.216   0.997  26.623  1.00  0.00    +0.000 C 
ATOM    104  H4  UNL A   1       8.243  -1.983  28.451  1.00  0.00    +0.000 H 
ATOM     89  C64 UNL A   1       6.902   0.886  26.287  1.00  0.00    +0.000 C 
BRANCH    2    1
ATOM      1  C1  UNL A   1       5.588  -2.147  28.006  1.00  0.00    +0.000 C 
ATOM    101  H1  UNL A   1       5.448  -2.883  27.242  1.00  0.00    +0.000 H 
ATOM    102  H2  UNL A   1       4.658  -1.656  28.205  1.00  0.00    +0.000 H 
ATOM    103  H3  UNL A   1       5.940  -2.622  28.898  1.00  0.00    +0.000 H 
ENDBRANCH    2    1
BRANCH   89   90
ATOM     98  C70 UNL A   1       5.368   2.564  23.253  1.00  0.00    +0.000 C 
ATOM     99  C71 UNL A   1       6.074   1.651  24.044  1.00  0.00    +0.000 C 
ATOM    137  H37 UNL A   1       5.329   2.907  27.064  1.00  0.00    +0.000 H 
ATOM    138  H38 UNL A   1       4.143   4.524  25.693  1.00  0.00    +0.000 H 
ATOM    142  H42 UNL A   1       5.355   2.459  22.226  1.00  0.00    +0.000 H 
ATOM    143  H43 UNL A   1       6.572   0.864  23.599  1.00  0.00    +0.000 H 
ATOM     90  C65 UNL A   1       6.111   1.800  25.439  1.00  0.00    +0.000 C 
ATOM     91  C66 UNL A   1       5.363   2.829  26.036  1.00  0.00    +0.000 C 
ATOM     92  C67 UNL A   1       4.665   3.751  25.249  1.00  0.00    +0.000 C 
ATOM     93  C68 UNL A   1       4.679   3.618  23.859  1.00  0.00    +0.000 C 
BRANCH   93   94
ATOM     97  O6  UNL A   1       4.454   6.155  23.243  1.00  0.00    +0.000 O 
ATOM     94  S1  UNL A   1       3.897   4.868  22.863  1.00  0.00    +0.000 S 
ATOM     96  O5  UNL A   1       2.471   4.620  22.902  1.00  0.00    +0.000 O 
BRANCH   94   95
ATOM    139  H39 UNL A   1       4.739   5.430  20.738  1.00  0.00    +0.000 H 
ATOM    140  H40 UNL A   1       3.680   4.041  20.669  1.00  0.00    +0.000 H 
ATOM    141  H41 UNL A   1       5.312   3.868  21.269  1.00  0.00    +0.000 H 
ATOM     95  C69 UNL A   1       4.462   4.517  21.223  1.00  0.00    +0.000 C 
ENDBRANCH   94   95
ENDBRANCH   93   94
ENDBRANCH   89   90
ENDBRANCH    7    6
ENDBRANCH    8    7
ENDBRANCH   12   11
ENDBRANCH   14   12
ENDBRANCH   15   14
ENDBRANCH   16   15
ENDBRANCH   17   16
ENDBRANCH   18   17
ENDBRANCH   19   18
ENDBRANCH   20   19
ENDBRANCH   21   20
ENDBRANCH   22   21
ENDBRANCH   24   22
ENDBRANCH   28   27
BRANCH   32   33
ATOM     33  C26 UNL A   1      13.626  -0.133  25.481  1.00  0.00    +0.000 C 
ATOM     34  C27 UNL A   1      14.920  -0.676  25.461  1.00  0.00    +0.000 C 
ATOM     35  F1  UNL A   1      15.205  -1.714  24.659  1.00  0.00    +0.000 F 
ATOM     36  C28 UNL A   1      15.923  -0.173  26.287  1.00  0.00    +0.000 C 
ATOM     37  F2  UNL A   1      17.141  -0.732  26.275  1.00  0.00    +0.000 F 
ATOM     38  C29 UNL A   1      15.664   0.904  27.121  1.00  0.00    +0.000 C 
ATOM     39  F3  UNL A   1      16.635   1.399  27.899  1.00  0.00    +0.000 F 
ATOM     40  C30 UNL A   1      14.396   1.465  27.149  1.00  0.00    +0.000 C 
ATOM     41  F4  UNL A   1      14.148   2.516  27.942  1.00  0.00    +0.000 F 
ATOM     42  C31 UNL A   1      13.383   0.944  26.349  1.00  0.00    +0.000 C 
ATOM     43  F5  UNL A   1      12.167   1.506  26.402  1.00  0.00    +0.000 F 
ENDBRANCH   32   33
BRANCH   49   50
ATOM     50  C37 UNL A   1       8.821  -5.493  25.236  1.00  0.00    +0.000 C 
ATOM     51  C38 UNL A   1       7.679  -5.474  26.050  1.00  0.00    +0.000 C 
ATOM     52  F6  UNL A   1       6.940  -4.359  26.151  1.00  0.00    +0.000 F 
ATOM     53  C39 UNL A   1       7.309  -6.593  26.791  1.00  0.00    +0.000 C 
ATOM     54  F7  UNL A   1       6.240  -6.538  27.597  1.00  0.00    +0.000 F 
ATOM     55  C40 UNL A   1       8.051  -7.762  26.705  1.00  0.00    +0.000 C 
ATOM     56  F8  UNL A   1       7.685  -8.843  27.407  1.00  0.00    +0.000 F 
ATOM     57  C41 UNL A   1       9.174  -7.808  25.894  1.00  0.00    +0.000 C 
ATOM     58  F9  UNL A   1       9.882  -8.943  25.795  1.00  0.00    +0.000 F 
ATOM     59  C42 UNL A   1       9.566  -6.681  25.177  1.00  0.00    +0.000 C 
ATOM     60  F10 UNL A   1      10.662  -6.755  24.408  1.00  0.00    +0.000 F 
ENDBRANCH   49   50
BRANCH   64   65
ATOM     65  C46 UNL A   1       6.469  -3.023  19.150  1.00  0.00    +0.000 C 
ATOM     66  C47 UNL A   1       5.161  -2.542  19.300  1.00  0.00    +0.000 C 
ATOM     67  F11 UNL A   1       4.861  -1.725  20.320  1.00  0.00    +0.000 F 
ATOM     68  C48 UNL A   1       4.151  -2.921  18.419  1.00  0.00    +0.000 C 
ATOM     69  F12 UNL A   1       2.901  -2.474  18.605  1.00  0.00    +0.000 F 
ATOM     70  C49 UNL A   1       4.434  -3.763  17.354  1.00  0.00    +0.000 C 
ATOM     71  F13 UNL A   1       3.466  -4.112  16.496  1.00  0.00    +0.000 F 
ATOM     72  C50 UNL A   1       5.722  -4.245  17.180  1.00  0.00    +0.000 C 
ATOM     73  F14 UNL A   1       6.006  -5.043  16.142  1.00  0.00    +0.000 F 
ATOM     74  C51 UNL A   1       6.725  -3.893  18.080  1.00  0.00    +0.000 C 
ATOM     75  F15 UNL A   1       7.961  -4.381  17.891  1.00  0.00    +0.000 F 
ENDBRANCH   64   65
TORSDOF 21
ENDMDL
MODEL 8
REMARK VINA RESULT:     -10.1     30.122     35.448
ROOT
ATOM    129  H29 UNL A   1      22.272  20.911   2.906  1.00  0.00    +0.000 H 
ATOM    130  H30 UNL A   1      22.939  18.826   4.233  1.00  0.00    +0.000 H 
ATOM    131  H31 UNL A   1      14.012  18.821   8.859  1.00  0.00    +0.000 H 
ATOM    132  H32 UNL A   1      13.228  20.734   7.349  1.00  0.00    +0.000 H 
ATOM     28  C22 UNL A   1      15.265  21.759   5.627  1.00  0.00    +0.000 C 
ATOM     29  C23 UNL A   1      15.354  20.587   6.573  1.00  0.00    +0.000 C 
ATOM     30  N3  UNL A   1      16.361  19.780   6.799  1.00  0.00    +0.000 N 
ATOM     31  C24 UNL A   1      15.924  18.888   7.772  1.00  0.00    +0.000 C 
ATOM     32  C25 UNL A   1      16.583  17.833   8.309  1.00  0.00    +0.000 C 
ATOM     44  C32 UNL A   1      17.918  17.436   7.942  1.00  0.00    +0.000 C 
ATOM     45  C33 UNL A   1      18.660  16.368   8.417  1.00  0.00    +0.000 C 
ATOM     46  C34 UNL A   1      19.921  16.407   7.814  1.00  0.00    +0.000 C 
ATOM     47  C35 UNL A   1      19.946  17.465   6.919  1.00  0.00    +0.000 C 
ATOM     48  N4  UNL A   1      18.710  18.089   7.010  1.00  0.00    +0.000 N 
ATOM     49  C36 UNL A   1      21.018  17.881   6.052  1.00  0.00    +0.000 C 
ATOM     61  C43 UNL A   1      20.944  18.901   5.162  1.00  0.00    +0.000 C 
ATOM     62  N5  UNL A   1      19.880  19.753   4.901  1.00  0.00    +0.000 N 
ATOM     63  C44 UNL A   1      20.306  20.592   3.989  1.00  0.00    +0.000 C 
ATOM     64  C45 UNL A   1      19.573  21.724   3.325  1.00  0.00    +0.000 C 
ATOM     76  C52 UNL A   1      18.315  22.009   3.710  1.00  0.00    +0.000 C 
ATOM     77  C53 UNL A   1      17.492  23.085   3.167  1.00  0.00    +0.000 C 
ATOM     78  C54 UNL A   1      16.334  23.131   3.841  1.00  0.00    +0.000 C 
ATOM     79  C55 UNL A   1      16.303  22.042   4.816  1.00  0.00    +0.000 C 
ATOM     80  N6  UNL A   1      17.522  21.428   4.669  1.00  0.00    +0.000 N 
ATOM     81  C56 UNL A   1      21.699  20.374   3.576  1.00  0.00    +0.000 C 
ATOM     82  C57 UNL A   1      22.027  19.307   4.291  1.00  0.00    +0.000 C 
ATOM     83  C58 UNL A   1      14.575  19.273   8.121  1.00  0.00    +0.000 C 
ATOM     84  C59 UNL A   1      14.155  20.280   7.370  1.00  0.00    +0.000 C 
ATOM    123  H23 UNL A   1      18.338  15.663   9.100  1.00  0.00    +0.000 H 
ATOM    124  H24 UNL A   1      20.701  15.759   8.003  1.00  0.00    +0.000 H 
ATOM    125  H25 UNL A   1      18.437  18.879   6.490  1.00  0.00    +0.000 H 
ATOM    126  H26 UNL A   1      17.759  23.709   2.389  1.00  0.00    +0.000 H 
ATOM    127  H27 UNL A   1      15.584  23.825   3.693  1.00  0.00    +0.000 H 
ATOM    128  H28 UNL A   1      17.800  20.648   5.199  1.00  0.00    +0.000 H 
ENDROOT
BRANCH   28   27
ATOM    122  H22 UNL A   1      14.519  23.839   7.150  1.00  0.00    +0.000 H 
ATOM    133  H33 UNL A   1      13.121  21.450   3.978  1.00  0.00    +0.000 H 
ATOM    134  H34 UNL A   1      11.273  22.994   3.642  1.00  0.00    +0.000 H 
ATOM     85  C60 UNL A   1      13.043  22.295   4.565  1.00  0.00    +0.000 C 
ATOM     86  C61 UNL A   1      11.965  23.168   4.387  1.00  0.00    +0.000 C 
ATOM     24  C18 UNL A   1      11.828  24.281   5.223  1.00  0.00    +0.000 C 
ATOM     25  C19 UNL A   1      12.699  24.457   6.299  1.00  0.00    +0.000 C 
ATOM     26  C20 UNL A   1      13.822  23.646   6.414  1.00  0.00    +0.000 C 
ATOM     27  C21 UNL A   1      14.018  22.566   5.538  1.00  0.00    +0.000 C 
ATOM    121  H21 UNL A   1      12.510  25.186   7.005  1.00  0.00    +0.000 H 
BRANCH   24   22
ATOM     22  C17 UNL A   1      10.788  25.289   4.915  1.00  0.00    +0.000 C 
ATOM     23  O4  UNL A   1      10.274  25.932   5.825  1.00  0.00    +0.000 O 
BRANCH   22   21
ATOM     21  N2  UNL A   1      10.371  25.464   3.614  1.00  0.00    +0.000 N 
ATOM    120  H20 UNL A   1       9.665  24.847   3.313  1.00  0.00    +0.000 H 
BRANCH   21   20
ATOM     20  C16 UNL A   1      10.822  26.425   2.620  1.00  0.00    +0.000 C 
ATOM    118  H18 UNL A   1      10.055  27.160   2.488  1.00  0.00    +0.000 H 
ATOM    119  H19 UNL A   1      11.734  26.849   2.983  1.00  0.00    +0.000 H 
BRANCH   20   19
ATOM     19  C15 UNL A   1      11.126  25.799   1.264  1.00  0.00    +0.000 C 
ATOM    116  H16 UNL A   1      10.324  25.131   1.026  1.00  0.00    +0.000 H 
ATOM    117  H17 UNL A   1      11.228  26.618   0.584  1.00  0.00    +0.000 H 
BRANCH   19   18
ATOM     18  C14 UNL A   1      12.433  25.016   1.169  1.00  0.00    +0.000 C 
ATOM    115  H15 UNL A   1      12.689  24.767   2.177  1.00  0.00    +0.000 H 
ATOM    114  H14 UNL A   1      13.147  25.637   0.670  1.00  0.00    +0.000 H 
BRANCH   18   17
ATOM     17  C13 UNL A   1      12.376  23.682   0.423  1.00  0.00    +0.000 C 
ATOM    113  H13 UNL A   1      11.740  23.058   1.017  1.00  0.00    +0.000 H 
ATOM    112  H12 UNL A   1      13.380  23.328   0.316  1.00  0.00    +0.000 H 
BRANCH   17   16
ATOM    110  H10 UNL A   1      10.776  23.234  -0.880  1.00  0.00    +0.000 H 
ATOM    111  H11 UNL A   1      11.728  24.725  -1.252  1.00  0.00    +0.000 H 
ATOM     16  C12 UNL A   1      11.739  23.694  -0.966  1.00  0.00    +0.000 C 
BRANCH   16   15
ATOM    108  H8  UNL A   1      12.283  21.937  -2.009  1.00  0.00    +0.000 H 
ATOM    109  H9  UNL A   1      12.134  23.427  -2.998  1.00  0.00    +0.000 H 
ATOM     15  C11 UNL A   1      12.486  22.986  -2.090  1.00  0.00    +0.000 C 
BRANCH   15   14
ATOM    107  H7  UNL A   1      14.409  22.622  -1.431  1.00  0.00    +0.000 H 
ATOM     14  N1  UNL A   1      13.924  23.160  -2.098  1.00  0.00    +0.000 N 
BRANCH   14   12
ATOM     12  C10 UNL A   1      14.723  23.957  -2.890  1.00  0.00    +0.000 C 
ATOM     13  O3  UNL A   1      15.013  23.576  -4.022  1.00  0.00    +0.000 O 
BRANCH   12   11
ATOM    135  H35 UNL A   1      13.362  25.937  -1.500  1.00  0.00    +0.000 H 
ATOM    136  H36 UNL A   1      13.964  28.289  -1.460  1.00  0.00    +0.000 H 
ATOM      9  C7  UNL A   1      16.848  27.043  -2.589  1.00  0.00    +0.000 C 
ATOM    105  H5  UNL A   1      17.833  27.320  -2.720  1.00  0.00    +0.000 H 
ATOM      8  C6  UNL A   1      15.883  27.996  -2.282  1.00  0.00    +0.000 C 
ATOM     10  C8  UNL A   1      16.463  25.705  -2.717  1.00  0.00    +0.000 C 
ATOM    106  H6  UNL A   1      17.158  24.997  -3.004  1.00  0.00    +0.000 H 
ATOM     11  C9  UNL A   1      15.139  25.319  -2.457  1.00  0.00    +0.000 C 
ATOM     87  C62 UNL A   1      14.269  26.246  -1.884  1.00  0.00    +0.000 C 
ATOM     88  C63 UNL A   1      14.627  27.592  -1.831  1.00  0.00    +0.000 C 
BRANCH    8    7
ATOM      7  O2  UNL A   1      16.118  29.337  -2.319  1.00  0.00    +0.000 O 
BRANCH    7    6
ATOM      2  C2  UNL A   1      16.897  31.659   1.109  1.00  0.00    +0.000 C 
ATOM      3  C3  UNL A   1      15.673  31.676   0.577  1.00  0.00    +0.000 C 
ATOM    100  O7  UNL A   1      17.950  30.989   0.524  1.00  0.00    +0.000 O 
ATOM      4  C4  UNL A   1      15.422  30.907  -0.649  1.00  0.00    +0.000 C 
ATOM      5  O1  UNL A   1      14.311  30.963  -1.170  1.00  0.00    +0.000 O 
ATOM      6  C5  UNL A   1      16.536  30.085  -1.224  1.00  0.00    +0.000 C 
ATOM    104  H4  UNL A   1      14.917  32.220   1.020  1.00  0.00    +0.000 H 
ATOM     89  C64 UNL A   1      17.752  30.232  -0.630  1.00  0.00    +0.000 C 
BRANCH    2    1
ATOM      1  C1  UNL A   1      17.244  32.377   2.374  1.00  0.00    +0.000 C 
ATOM    101  H1  UNL A   1      17.444  31.663   3.144  1.00  0.00    +0.000 H 
ATOM    102  H2  UNL A   1      16.424  33.000   2.666  1.00  0.00    +0.000 H 
ATOM    103  H3  UNL A   1      18.112  32.983   2.213  1.00  0.00    +0.000 H 
ENDBRANCH    2    1
BRANCH   89   90
ATOM     98  C70 UNL A   1      20.803  27.986  -0.773  1.00  0.00    +0.000 C 
ATOM     99  C71 UNL A   1      19.556  28.502  -0.402  1.00  0.00    +0.000 C 
ATOM    137  H37 UNL A   1      19.340  30.983  -2.649  1.00  0.00    +0.000 H 
ATOM    138  H38 UNL A   1      21.527  30.124  -3.263  1.00  0.00    +0.000 H 
ATOM    142  H42 UNL A   1      21.189  27.162  -0.285  1.00  0.00    +0.000 H 
ATOM    143  H43 UNL A   1      19.016  28.047   0.351  1.00  0.00    +0.000 H 
ATOM     90  C65 UNL A   1      19.035  29.633  -1.048  1.00  0.00    +0.000 C 
ATOM     91  C66 UNL A   1      19.745  30.193  -2.124  1.00  0.00    +0.000 C 
ATOM     92  C67 UNL A   1      20.997  29.689  -2.491  1.00  0.00    +0.000 C 
ATOM     93  C68 UNL A   1      21.523  28.591  -1.805  1.00  0.00    +0.000 C 
BRANCH   93   94
ATOM     97  O6  UNL A   1      23.769  27.527  -0.972  1.00  0.00    +0.000 O 
ATOM     94  S1  UNL A   1      23.170  28.039  -2.192  1.00  0.00    +0.000 S 
ATOM     96  O5  UNL A   1      23.805  29.087  -2.964  1.00  0.00    +0.000 O 
BRANCH   94   95
ATOM    139  H39 UNL A   1      21.953  26.224  -3.066  1.00  0.00    +0.000 H 
ATOM    140  H40 UNL A   1      23.676  25.927  -3.102  1.00  0.00    +0.000 H 
ATOM    141  H41 UNL A   1      22.946  26.985  -4.285  1.00  0.00    +0.000 H 
ATOM     95  C69 UNL A   1      22.911  26.657  -3.268  1.00  0.00    +0.000 C 
ENDBRANCH   94   95
ENDBRANCH   93   94
ENDBRANCH   89   90
ENDBRANCH    7    6
ENDBRANCH    8    7
ENDBRANCH   12   11
ENDBRANCH   14   12
ENDBRANCH   15   14
ENDBRANCH   16   15
ENDBRANCH   17   16
ENDBRANCH   18   17
ENDBRANCH   19   18
ENDBRANCH   20   19
ENDBRANCH   21   20
ENDBRANCH   22   21
ENDBRANCH   24   22
ENDBRANCH   28   27
BRANCH   32   33
ATOM     33  C26 UNL A   1      15.876  17.022   9.359  1.00  0.00    +0.000 C 
ATOM     34  C27 UNL A   1      15.807  17.445  10.694  1.00  0.00    +0.000 C 
ATOM     35  F1  UNL A   1      16.448  18.558  11.084  1.00  0.00    +0.000 F 
ATOM     36  C28 UNL A   1      15.099  16.713  11.645  1.00  0.00    +0.000 C 
ATOM     37  F2  UNL A   1      15.076  17.119  12.922  1.00  0.00    +0.000 F 
ATOM     38  C29 UNL A   1      14.418  15.563  11.273  1.00  0.00    +0.000 C 
ATOM     39  F3  UNL A   1      13.721  14.871  12.185  1.00  0.00    +0.000 F 
ATOM     40  C30 UNL A   1      14.462  15.131   9.957  1.00  0.00    +0.000 C 
ATOM     41  F4  UNL A   1      13.793  14.029   9.592  1.00  0.00    +0.000 F 
ATOM     42  C31 UNL A   1      15.195  15.843   9.011  1.00  0.00    +0.000 C 
ATOM     43  F5  UNL A   1      15.222  15.396   7.747  1.00  0.00    +0.000 F 
ENDBRANCH   32   33
BRANCH   49   50
ATOM     50  C37 UNL A   1      22.313  17.123   6.128  1.00  0.00    +0.000 C 
ATOM     51  C38 UNL A   1      22.587  16.055   5.263  1.00  0.00    +0.000 C 
ATOM     52  F6  UNL A   1      21.660  15.640   4.386  1.00  0.00    +0.000 F 
ATOM     53  C39 UNL A   1      23.806  15.383   5.316  1.00  0.00    +0.000 C 
ATOM     54  F7  UNL A   1      24.029  14.336   4.510  1.00  0.00    +0.000 F 
ATOM     55  C40 UNL A   1      24.786  15.791   6.209  1.00  0.00    +0.000 C 
ATOM     56  F8  UNL A   1      25.965  15.153   6.249  1.00  0.00    +0.000 F 
ATOM     57  C41 UNL A   1      24.543  16.855   7.063  1.00  0.00    +0.000 C 
ATOM     58  F9  UNL A   1      25.496  17.261   7.914  1.00  0.00    +0.000 F 
ATOM     59  C42 UNL A   1      23.313  17.506   7.036  1.00  0.00    +0.000 C 
ATOM     60  F10 UNL A   1      23.106  18.527   7.881  1.00  0.00    +0.000 F 
ENDBRANCH   49   50
BRANCH   64   65
ATOM     65  C46 UNL A   1      20.215  22.531   2.254  1.00  0.00    +0.000 C 
ATOM     66  C47 UNL A   1      21.020  23.633   2.569  1.00  0.00    +0.000 C 
ATOM     67  F11 UNL A   1      21.185  23.998   3.849  1.00  0.00    +0.000 F 
ATOM     68  C48 UNL A   1      21.638  24.382   1.570  1.00  0.00    +0.000 C 
ATOM     69  F12 UNL A   1      22.374  25.452   1.897  1.00  0.00    +0.000 F 
ATOM     70  C49 UNL A   1      21.486  24.026   0.238  1.00  0.00    +0.000 C 
ATOM     71  F13 UNL A   1      22.095  24.735  -0.722  1.00  0.00    +0.000 F 
ATOM     72  C50 UNL A   1      20.700  22.934  -0.098  1.00  0.00    +0.000 C 
ATOM     73  F14 UNL A   1      20.567  22.574  -1.381  1.00  0.00    +0.000 F 
ATOM     74  C51 UNL A   1      20.056  22.205   0.898  1.00  0.00    +0.000 C 
ATOM     75  F15 UNL A   1      19.296  21.158   0.543  1.00  0.00    +0.000 F 
ENDBRANCH   64   65
TORSDOF 21
ENDMDL
MODEL 9
REMARK VINA RESULT:     -10.0     40.280     44.432
ROOT
ATOM    129  H29 UNL A   1      15.055  46.661   1.033  1.00  0.00    +0.000 H 
ATOM    130  H30 UNL A   1      13.304  46.489   2.892  1.00  0.00    +0.000 H 
ATOM    131  H31 UNL A   1      15.143  55.992   5.611  1.00  0.00    +0.000 H 
ATOM    132  H32 UNL A   1      16.693  56.270   3.593  1.00  0.00    +0.000 H 
ATOM     28  C22 UNL A   1      17.104  53.863   2.108  1.00  0.00    +0.000 C 
ATOM     29  C23 UNL A   1      16.190  54.079   3.289  1.00  0.00    +0.000 C 
ATOM     30  N3  UNL A   1      15.382  53.232   3.877  1.00  0.00    +0.000 N 
ATOM     31  C24 UNL A   1      14.789  53.932   4.922  1.00  0.00    +0.000 C 
ATOM     32  C25 UNL A   1      13.844  53.508   5.795  1.00  0.00    +0.000 C 
ATOM     44  C32 UNL A   1      13.263  52.191   5.788  1.00  0.00    +0.000 C 
ATOM     45  C33 UNL A   1      12.284  51.677   6.621  1.00  0.00    +0.000 C 
ATOM     46  C34 UNL A   1      12.074  50.337   6.276  1.00  0.00    +0.000 C 
ATOM     47  C35 UNL A   1      12.879  50.033   5.191  1.00  0.00    +0.000 C 
ATOM     48  N4  UNL A   1      13.606  51.179   4.903  1.00  0.00    +0.000 N 
ATOM     49  C36 UNL A   1      12.985  48.788   4.474  1.00  0.00    +0.000 C 
ATOM     61  C43 UNL A   1      13.763  48.585   3.383  1.00  0.00    +0.000 C 
ATOM     62  N5  UNL A   1      14.611  49.477   2.741  1.00  0.00    +0.000 N 
ATOM     63  C44 UNL A   1      15.168  48.804   1.764  1.00  0.00    +0.000 C 
ATOM     64  C45 UNL A   1      16.163  49.269   0.738  1.00  0.00    +0.000 C 
ATOM     76  C52 UNL A   1      16.634  50.529   0.802  1.00  0.00    +0.000 C 
ATOM     77  C53 UNL A   1      17.611  51.110  -0.113  1.00  0.00    +0.000 C 
ATOM     78  C54 UNL A   1      17.913  52.349   0.299  1.00  0.00    +0.000 C 
ATOM     79  C55 UNL A   1      17.097  52.677   1.468  1.00  0.00    +0.000 C 
ATOM     80  N6  UNL A   1      16.368  51.537   1.696  1.00  0.00    +0.000 N 
ATOM     81  C56 UNL A   1      14.744  47.400   1.683  1.00  0.00    +0.000 C 
ATOM     82  C57 UNL A   1      13.857  47.330   2.666  1.00  0.00    +0.000 C 
ATOM     83  C58 UNL A   1      15.356  55.262   4.913  1.00  0.00    +0.000 C 
ATOM     84  C59 UNL A   1      16.184  55.423   3.890  1.00  0.00    +0.000 C 
ATOM    123  H23 UNL A   1      11.793  52.192   7.368  1.00  0.00    +0.000 H 
ATOM    124  H24 UNL A   1      11.428  49.687   6.750  1.00  0.00    +0.000 H 
ATOM    125  H25 UNL A   1      14.267  51.261   4.178  1.00  0.00    +0.000 H 
ATOM    126  H26 UNL A   1      18.006  50.642  -0.945  1.00  0.00    +0.000 H 
ATOM    127  H27 UNL A   1      18.610  52.972  -0.139  1.00  0.00    +0.000 H 
ATOM    128  H28 UNL A   1      15.718  51.450   2.430  1.00  0.00    +0.000 H 
ENDROOT
BRANCH   28   27
ATOM    122  H22 UNL A   1      16.662  55.498   0.027  1.00  0.00    +0.000 H 
ATOM    133  H33 UNL A   1      19.555  54.673   2.972  1.00  0.00    +0.000 H 
ATOM    134  H34 UNL A   1      20.758  56.690   2.343  1.00  0.00    +0.000 H 
ATOM     85  C60 UNL A   1      19.181  55.286   2.231  1.00  0.00    +0.000 C 
ATOM     86  C61 UNL A   1      19.887  56.432   1.853  1.00  0.00    +0.000 C 
ATOM     24  C18 UNL A   1      19.410  57.229   0.807  1.00  0.00    +0.000 C 
ATOM     25  C19 UNL A   1      18.296  56.821   0.072  1.00  0.00    +0.000 C 
ATOM     26  C20 UNL A   1      17.541  55.738   0.511  1.00  0.00    +0.000 C 
ATOM     27  C21 UNL A   1      17.964  54.967   1.606  1.00  0.00    +0.000 C 
ATOM    121  H21 UNL A   1      18.032  57.322  -0.791  1.00  0.00    +0.000 H 
BRANCH   24   22
ATOM     22  C17 UNL A   1      20.067  58.526   0.534  1.00  0.00    +0.000 C 
ATOM     23  O4  UNL A   1      21.251  58.554   0.212  1.00  0.00    +0.000 O 
BRANCH   22   21
ATOM     21  N2  UNL A   1      19.358  59.697   0.688  1.00  0.00    +0.000 N 
ATOM    120  H20 UNL A   1      18.380  59.604   0.638  1.00  0.00    +0.000 H 
BRANCH   21   20
ATOM     20  C16 UNL A   1      19.844  61.049   0.914  1.00  0.00    +0.000 C 
ATOM    118  H18 UNL A   1      19.136  61.565   1.528  1.00  0.00    +0.000 H 
ATOM    119  H19 UNL A   1      20.803  60.966   1.381  1.00  0.00    +0.000 H 
BRANCH   20   19
ATOM     19  C15 UNL A   1      20.038  61.846  -0.370  1.00  0.00    +0.000 C 
ATOM    116  H16 UNL A   1      19.780  62.865  -0.164  1.00  0.00    +0.000 H 
ATOM    117  H17 UNL A   1      21.060  61.703  -0.648  1.00  0.00    +0.000 H 
BRANCH   19   18
ATOM     18  C14 UNL A   1      19.213  61.388  -1.571  1.00  0.00    +0.000 C 
ATOM    115  H15 UNL A   1      18.817  62.283  -2.002  1.00  0.00    +0.000 H 
ATOM    114  H14 UNL A   1      18.474  60.701  -1.214  1.00  0.00    +0.000 H 
BRANCH   18   17
ATOM     17  C13 UNL A   1      19.980  60.699  -2.701  1.00  0.00    +0.000 C 
ATOM    113  H13 UNL A   1      20.979  60.591  -2.333  1.00  0.00    +0.000 H 
ATOM    112  H12 UNL A   1      19.886  61.309  -3.574  1.00  0.00    +0.000 H 
BRANCH   17   16
ATOM    110  H10 UNL A   1      18.850  58.955  -2.322  1.00  0.00    +0.000 H 
ATOM    111  H11 UNL A   1      19.127  59.379  -4.058  1.00  0.00    +0.000 H 
ATOM     16  C12 UNL A   1      19.537  59.285  -3.074  1.00  0.00    +0.000 C 
BRANCH   16   15
ATOM    108  H8  UNL A   1      21.552  58.717  -3.376  1.00  0.00    +0.000 H 
ATOM    109  H9  UNL A   1      20.587  57.659  -2.294  1.00  0.00    +0.000 H 
ATOM     15  C11 UNL A   1      20.619  58.219  -3.204  1.00  0.00    +0.000 C 
BRANCH   15   14
ATOM    107  H7  UNL A   1      20.007  57.615  -5.081  1.00  0.00    +0.000 H 
ATOM     14  N1  UNL A   1      20.429  57.254  -4.268  1.00  0.00    +0.000 N 
BRANCH   14   12
ATOM     12  C10 UNL A   1      20.744  55.914  -4.325  1.00  0.00    +0.000 C 
ATOM     13  O3  UNL A   1      21.924  55.580  -4.416  1.00  0.00    +0.000 O 
BRANCH   12   11
ATOM    135  H35 UNL A   1      18.656  55.669  -2.514  1.00  0.00    +0.000 H 
ATOM    136  H36 UNL A   1      17.494  53.604  -1.982  1.00  0.00    +0.000 H 
ATOM      9  C7  UNL A   1      18.938  52.657  -4.839  1.00  0.00    +0.000 C 
ATOM    105  H5  UNL A   1      18.879  51.909  -5.546  1.00  0.00    +0.000 H 
ATOM      8  C6  UNL A   1      18.268  52.536  -3.628  1.00  0.00    +0.000 C 
ATOM     10  C8  UNL A   1      19.694  53.808  -5.084  1.00  0.00    +0.000 C 
ATOM    106  H6  UNL A   1      20.246  53.883  -5.953  1.00  0.00    +0.000 H 
ATOM     11  C9  UNL A   1      19.707  54.860  -4.156  1.00  0.00    +0.000 C 
ATOM     87  C62 UNL A   1      18.809  54.826  -3.089  1.00  0.00    +0.000 C 
ATOM     88  C63 UNL A   1      18.117  53.651  -2.803  1.00  0.00    +0.000 C 
BRANCH    8    7
ATOM      7  O2  UNL A   1      17.663  51.387  -3.218  1.00  0.00    +0.000 O 
BRANCH    7    6
ATOM      2  C2  UNL A   1      14.122  49.743  -4.802  1.00  0.00    +0.000 C 
ATOM      3  C3  UNL A   1      15.291  49.432  -5.365  1.00  0.00    +0.000 C 
ATOM    100  O7  UNL A   1      14.013  50.663  -3.781  1.00  0.00    +0.000 O 
ATOM      4  C4  UNL A   1      16.517  50.050  -4.842  1.00  0.00    +0.000 C 
ATOM      5  O1  UNL A   1      17.588  49.806  -5.392  1.00  0.00    +0.000 O 
ATOM      6  C5  UNL A   1      16.414  50.964  -3.658  1.00  0.00    +0.000 C 
ATOM    104  H4  UNL A   1      15.333  48.768  -6.154  1.00  0.00    +0.000 H 
ATOM     89  C64 UNL A   1      15.152  51.260  -3.244  1.00  0.00    +0.000 C 
BRANCH    2    1
ATOM      1  C1  UNL A   1      12.825  49.139  -5.236  1.00  0.00    +0.000 C 
ATOM    101  H1  UNL A   1      12.940  48.080  -5.334  1.00  0.00    +0.000 H 
ATOM    102  H2  UNL A   1      12.535  49.556  -6.179  1.00  0.00    +0.000 H 
ATOM    103  H3  UNL A   1      12.072  49.351  -4.506  1.00  0.00    +0.000 H 
ENDBRANCH    2    1
BRANCH   89   90
ATOM     98  C70 UNL A   1      13.636  52.688  -0.076  1.00  0.00    +0.000 C 
ATOM     99  C71 UNL A   1      14.059  51.769  -1.042  1.00  0.00    +0.000 C 
ATOM    137  H37 UNL A   1      15.655  53.884  -3.098  1.00  0.00    +0.000 H 
ATOM    138  H38 UNL A   1      14.880  55.491  -1.450  1.00  0.00    +0.000 H 
ATOM    142  H42 UNL A   1      13.113  52.365   0.754  1.00  0.00    +0.000 H 
ATOM    143  H43 UNL A   1      13.858  50.764  -0.917  1.00  0.00    +0.000 H 
ATOM     90  C65 UNL A   1      14.753  52.204  -2.181  1.00  0.00    +0.000 C 
ATOM     91  C66 UNL A   1      15.088  53.564  -2.298  1.00  0.00    +0.000 C 
ATOM     92  C67 UNL A   1      14.657  54.489  -1.341  1.00  0.00    +0.000 C 
ATOM     93  C68 UNL A   1      13.925  54.045  -0.238  1.00  0.00    +0.000 C 
BRANCH   93   94
ATOM     97  O6  UNL A   1      14.256  56.301   1.054  1.00  0.00    +0.000 O 
ATOM     94  S1  UNL A   1      13.272  55.243   0.905  1.00  0.00    +0.000 S 
ATOM     96  O5  UNL A   1      12.766  54.515   2.049  1.00  0.00    +0.000 O 
BRANCH   94   95
ATOM    139  H39 UNL A   1      12.103  55.982  -1.000  1.00  0.00    +0.000 H 
ATOM    140  H40 UNL A   1      11.692  56.919   0.417  1.00  0.00    +0.000 H 
ATOM    141  H41 UNL A   1      11.026  55.318   0.204  1.00  0.00    +0.000 H 
ATOM     95  C69 UNL A   1      11.886  55.934   0.047  1.00  0.00    +0.000 C 
ENDBRANCH   94   95
ENDBRANCH   93   94
ENDBRANCH   89   90
ENDBRANCH    7    6
ENDBRANCH    8    7
ENDBRANCH   12   11
ENDBRANCH   14   12
ENDBRANCH   15   14
ENDBRANCH   16   15
ENDBRANCH   17   16
ENDBRANCH   18   17
ENDBRANCH   19   18
ENDBRANCH   20   19
ENDBRANCH   21   20
ENDBRANCH   22   21
ENDBRANCH   24   22
ENDBRANCH   28   27
BRANCH   32   33
ATOM     33  C26 UNL A   1      13.371  54.475   6.844  1.00  0.00    +0.000 C 
ATOM     34  C27 UNL A   1      12.417  55.463   6.560  1.00  0.00    +0.000 C 
ATOM     35  F1  UNL A   1      11.960  55.621   5.307  1.00  0.00    +0.000 F 
ATOM     36  C28 UNL A   1      11.944  56.314   7.556  1.00  0.00    +0.000 C 
ATOM     37  F2  UNL A   1      11.059  57.274   7.252  1.00  0.00    +0.000 F 
ATOM     38  C29 UNL A   1      12.388  56.173   8.862  1.00  0.00    +0.000 C 
ATOM     39  F3  UNL A   1      11.918  56.979   9.823  1.00  0.00    +0.000 F 
ATOM     40  C30 UNL A   1      13.322  55.196   9.171  1.00  0.00    +0.000 C 
ATOM     41  F4  UNL A   1      13.741  55.046  10.434  1.00  0.00    +0.000 F 
ATOM     42  C31 UNL A   1      13.820  54.364   8.170  1.00  0.00    +0.000 C 
ATOM     43  F5  UNL A   1      14.726  53.432   8.500  1.00  0.00    +0.000 F 
ENDBRANCH   32   33
BRANCH   49   50
ATOM     50  C37 UNL A   1      12.164  47.628   4.963  1.00  0.00    +0.000 C 
ATOM     51  C38 UNL A   1      12.629  46.780   5.978  1.00  0.00    +0.000 C 
ATOM     52  F6  UNL A   1      13.858  46.948   6.489  1.00  0.00    +0.000 F 
ATOM     53  C39 UNL A   1      11.845  45.731   6.450  1.00  0.00    +0.000 C 
ATOM     54  F7  UNL A   1      12.328  44.905   7.389  1.00  0.00    +0.000 F 
ATOM     55  C40 UNL A   1      10.569  45.533   5.944  1.00  0.00    +0.000 C 
ATOM     56  F8  UNL A   1       9.809  44.532   6.411  1.00  0.00    +0.000 F 
ATOM     57  C41 UNL A   1      10.082  46.369   4.952  1.00  0.00    +0.000 C 
ATOM     58  F9  UNL A   1       8.842  46.190   4.475  1.00  0.00    +0.000 F 
ATOM     59  C42 UNL A   1      10.877  47.398   4.453  1.00  0.00    +0.000 C 
ATOM     60  F10 UNL A   1      10.380  48.185   3.487  1.00  0.00    +0.000 F 
ENDBRANCH   49   50
BRANCH   64   65
ATOM     65  C46 UNL A   1      16.633  48.363  -0.343  1.00  0.00    +0.000 C 
ATOM     66  C47 UNL A   1      17.916  47.803  -0.303  1.00  0.00    +0.000 C 
ATOM     67  F11 UNL A   1      18.754  48.117   0.696  1.00  0.00    +0.000 F 
ATOM     68  C48 UNL A   1      18.355  46.939  -1.305  1.00  0.00    +0.000 C 
ATOM     69  F12 UNL A   1      19.600  46.445  -1.261  1.00  0.00    +0.000 F 
ATOM     70  C49 UNL A   1      17.509  46.596  -2.348  1.00  0.00    +0.000 C 
ATOM     71  F13 UNL A   1      17.925  45.751  -3.302  1.00  0.00    +0.000 F 
ATOM     72  C50 UNL A   1      16.232  47.131  -2.404  1.00  0.00    +0.000 C 
ATOM     73  F14 UNL A   1      15.404  46.788  -3.400  1.00  0.00    +0.000 F 
ATOM     74  C51 UNL A   1      15.804  48.020  -1.422  1.00  0.00    +0.000 C 
ATOM     75  F15 UNL A   1      14.566  48.528  -1.506  1.00  0.00    +0.000 F 
ENDBRANCH   64   65
TORSDOF 21
ENDMDL
MODEL 10
REMARK VINA RESULT:     -10.0      2.209      8.390
ROOT
ATOM    129  H29 UNL A   1      36.261  32.477  32.686  1.00  0.00    +0.000 H 
ATOM    130  H30 UNL A   1      37.006  32.733  35.121  1.00  0.00    +0.000 H 
ATOM    131  H31 UNL A   1      45.922  28.648  32.905  1.00  0.00    +0.000 H 
ATOM    132  H32 UNL A   1      45.299  28.636  30.422  1.00  0.00    +0.000 H 
ATOM     28  C22 UNL A   1      42.617  29.469  29.897  1.00  0.00    +0.000 C 
ATOM     29  C23 UNL A   1      43.336  29.442  31.222  1.00  0.00    +0.000 C 
ATOM     30  N3  UNL A   1      42.906  29.804  32.406  1.00  0.00    +0.000 N 
ATOM     31  C24 UNL A   1      43.954  29.559  33.285  1.00  0.00    +0.000 C 
ATOM     32  C25 UNL A   1      44.020  29.811  34.614  1.00  0.00    +0.000 C 
ATOM     44  C32 UNL A   1      42.958  30.407  35.382  1.00  0.00    +0.000 C 
ATOM     45  C33 UNL A   1      42.940  30.720  36.730  1.00  0.00    +0.000 C 
ATOM     46  C34 UNL A   1      41.678  31.233  37.045  1.00  0.00    +0.000 C 
ATOM     47  C35 UNL A   1      40.928  31.296  35.882  1.00  0.00    +0.000 C 
ATOM     48  N4  UNL A   1      41.725  30.783  34.869  1.00  0.00    +0.000 N 
ATOM     49  C36 UNL A   1      39.582  31.780  35.708  1.00  0.00    +0.000 C 
ATOM     61  C43 UNL A   1      38.934  31.857  34.520  1.00  0.00    +0.000 C 
ATOM     62  N5  UNL A   1      39.382  31.491  33.258  1.00  0.00    +0.000 N 
ATOM     63  C44 UNL A   1      38.384  31.720  32.441  1.00  0.00    +0.000 C 
ATOM     64  C45 UNL A   1      38.310  31.519  30.953  1.00  0.00    +0.000 C 
ATOM     76  C52 UNL A   1      39.363  30.980  30.310  1.00  0.00    +0.000 C 
ATOM     77  C53 UNL A   1      39.425  30.713  28.876  1.00  0.00    +0.000 C 
ATOM     78  C54 UNL A   1      40.583  30.096  28.597  1.00  0.00    +0.000 C 
ATOM     79  C55 UNL A   1      41.376  29.988  29.822  1.00  0.00    +0.000 C 
ATOM     80  N6  UNL A   1      40.571  30.538  30.789  1.00  0.00    +0.000 N 
ATOM     81  C56 UNL A   1      37.180  32.247  33.097  1.00  0.00    +0.000 C 
ATOM     82  C57 UNL A   1      37.582  32.350  34.356  1.00  0.00    +0.000 C 
ATOM     83  C58 UNL A   1      45.029  28.983  32.508  1.00  0.00    +0.000 C 
ATOM     84  C59 UNL A   1      44.720  28.941  31.220  1.00  0.00    +0.000 C 
ATOM    123  H23 UNL A   1      43.724  30.595  37.391  1.00  0.00    +0.000 H 
ATOM    124  H24 UNL A   1      41.359  31.518  37.984  1.00  0.00    +0.000 H 
ATOM    125  H25 UNL A   1      41.455  30.699  33.926  1.00  0.00    +0.000 H 
ATOM    126  H26 UNL A   1      38.696  30.959  28.188  1.00  0.00    +0.000 H 
ATOM    127  H27 UNL A   1      40.868  29.752  27.666  1.00  0.00    +0.000 H 
ATOM    128  H28 UNL A   1      40.836  30.609  31.733  1.00  0.00    +0.000 H 
ENDROOT
BRANCH   28   27
ATOM    122  H22 UNL A   1      43.972  30.901  28.075  1.00  0.00    +0.000 H 
ATOM    133  H33 UNL A   1      42.703  26.960  28.842  1.00  0.00    +0.000 H 
ATOM    134  H34 UNL A   1      44.096  26.166  27.016  1.00  0.00    +0.000 H 
ATOM     85  C60 UNL A   1      43.285  27.627  28.311  1.00  0.00    +0.000 C 
ATOM     86  C61 UNL A   1      44.066  27.171  27.244  1.00  0.00    +0.000 C 
ATOM     24  C18 UNL A   1      44.807  28.084  26.487  1.00  0.00    +0.000 C 
ATOM     25  C19 UNL A   1      44.679  29.454  26.724  1.00  0.00    +0.000 C 
ATOM     26  C20 UNL A   1      43.982  29.895  27.844  1.00  0.00    +0.000 C 
ATOM     27  C21 UNL A   1      43.290  28.987  28.661  1.00  0.00    +0.000 C 
ATOM    121  H21 UNL A   1      45.102  30.135  26.074  1.00  0.00    +0.000 H 
BRANCH   24   22
ATOM     22  C17 UNL A   1      45.762  27.574  25.478  1.00  0.00    +0.000 C 
ATOM     23  O4  UNL A   1      46.640  28.312  25.042  1.00  0.00    +0.000 O 
BRANCH   22   21
ATOM     21  N2  UNL A   1      45.629  26.289  25.000  1.00  0.00    +0.000 N 
ATOM    120  H20 UNL A   1      44.764  26.086  24.577  1.00  0.00    +0.000 H 
BRANCH   21   20
ATOM     20  C16 UNL A   1      46.579  25.188  25.031  1.00  0.00    +0.000 C 
ATOM    118  H18 UNL A   1      47.058  25.129  24.076  1.00  0.00    +0.000 H 
ATOM    119  H19 UNL A   1      47.271  25.391  25.821  1.00  0.00    +0.000 H 
BRANCH   20   19
ATOM     19  C15 UNL A   1      45.936  23.840  25.332  1.00  0.00    +0.000 C 
ATOM    116  H16 UNL A   1      45.571  23.439  24.408  1.00  0.00    +0.000 H 
ATOM    117  H17 UNL A   1      46.701  23.251  25.791  1.00  0.00    +0.000 H 
BRANCH   19   18
ATOM     18  C14 UNL A   1      44.776  23.861  26.325  1.00  0.00    +0.000 C 
ATOM    115  H15 UNL A   1      43.955  23.405  25.812  1.00  0.00    +0.000 H 
ATOM    114  H14 UNL A   1      44.612  24.878  26.611  1.00  0.00    +0.000 H 
BRANCH   18   17
ATOM     17  C13 UNL A   1      44.960  23.042  27.604  1.00  0.00    +0.000 C 
ATOM    113  H13 UNL A   1      45.985  22.736  27.593  1.00  0.00    +0.000 H 
ATOM    112  H12 UNL A   1      44.251  22.241  27.579  1.00  0.00    +0.000 H 
BRANCH   17   16
ATOM    110  H10 UNL A   1      45.200  23.168  29.698  1.00  0.00    +0.000 H 
ATOM    111  H11 UNL A   1      45.256  24.726  28.782  1.00  0.00    +0.000 H 
ATOM     16  C12 UNL A   1      44.777  23.780  28.929  1.00  0.00    +0.000 C 
BRANCH   16   15
ATOM    108  H8  UNL A   1      43.133  23.579  30.244  1.00  0.00    +0.000 H 
ATOM    109  H9  UNL A   1      43.338  25.189  29.478  1.00  0.00    +0.000 H 
ATOM     15  C11 UNL A   1      43.354  24.127  29.351  1.00  0.00    +0.000 C 
BRANCH   15   14
ATOM    107  H7  UNL A   1      42.547  23.120  27.739  1.00  0.00    +0.000 H 
ATOM     14  N1  UNL A   1      42.318  23.830  28.382  1.00  0.00    +0.000 N 
BRANCH   14   12
ATOM     12  C10 UNL A   1      41.066  24.381  28.216  1.00  0.00    +0.000 C 
ATOM     13  O3  UNL A   1      40.861  25.529  28.605  1.00  0.00    +0.000 O 
BRANCH   12   11
ATOM    135  H35 UNL A   1      40.833  21.733  27.419  1.00  0.00    +0.000 H 
ATOM    136  H36 UNL A   1      39.352  20.917  25.675  1.00  0.00    +0.000 H 
ATOM      9  C7  UNL A   1      37.926  23.888  26.210  1.00  0.00    +0.000 C 
ATOM    105  H5  UNL A   1      37.051  24.394  26.006  1.00  0.00    +0.000 H 
ATOM      8  C6  UNL A   1      38.209  22.687  25.571  1.00  0.00    +0.000 C 
ATOM     10  C8  UNL A   1      38.844  24.400  27.132  1.00  0.00    +0.000 C 
ATOM    106  H6  UNL A   1      38.674  25.320  27.567  1.00  0.00    +0.000 H 
ATOM     11  C9  UNL A   1      39.993  23.669  27.468  1.00  0.00    +0.000 C 
ATOM     87  C62 UNL A   1      40.107  22.352  27.024  1.00  0.00    +0.000 C 
ATOM     88  C63 UNL A   1      39.237  21.873  26.047  1.00  0.00    +0.000 C 
BRANCH    8    7
ATOM      7  O2  UNL A   1      37.478  22.202  24.530  1.00  0.00    +0.000 O 
BRANCH    7    6
ATOM      2  C2  UNL A   1      33.930  20.001  25.090  1.00  0.00    +0.000 C 
ATOM      3  C3  UNL A   1      35.090  19.350  24.998  1.00  0.00    +0.000 C 
ATOM    100  O7  UNL A   1      33.828  21.364  24.908  1.00  0.00    +0.000 O 
ATOM      4  C4  UNL A   1      36.317  20.118  24.749  1.00  0.00    +0.000 C 
ATOM      5  O1  UNL A   1      37.379  19.517  24.612  1.00  0.00    +0.000 O 
ATOM      6  C5  UNL A   1      36.226  21.612  24.664  1.00  0.00    +0.000 C 
ATOM    104  H4  UNL A   1      35.125  18.324  25.101  1.00  0.00    +0.000 H 
ATOM     89  C64 UNL A   1      34.969  22.133  24.688  1.00  0.00    +0.000 C 
BRANCH    2    1
ATOM      1  C1  UNL A   1      32.632  19.315  25.379  1.00  0.00    +0.000 C 
ATOM    101  H1  UNL A   1      32.212  18.949  24.465  1.00  0.00    +0.000 H 
ATOM    102  H2  UNL A   1      31.955  20.010  25.831  1.00  0.00    +0.000 H 
ATOM    103  H3  UNL A   1      32.803  18.496  26.046  1.00  0.00    +0.000 H 
ENDBRANCH    2    1
BRANCH   89   90
ATOM     98  C70 UNL A   1      34.064  25.737  25.440  1.00  0.00    +0.000 C 
ATOM     99  C71 UNL A   1      34.494  24.418  25.614  1.00  0.00    +0.000 C 
ATOM    137  H37 UNL A   1      34.427  23.429  22.410  1.00  0.00    +0.000 H 
ATOM    138  H38 UNL A   1      33.630  25.704  22.107  1.00  0.00    +0.000 H 
ATOM    142  H42 UNL A   1      33.989  26.370  26.252  1.00  0.00    +0.000 H 
ATOM    143  H43 UNL A   1      34.750  24.082  26.556  1.00  0.00    +0.000 H 
ATOM     90  C65 UNL A   1      34.579  23.547  24.517  1.00  0.00    +0.000 C 
ATOM     91  C66 UNL A   1      34.303  24.042  23.230  1.00  0.00    +0.000 C 
ATOM     92  C67 UNL A   1      33.861  25.357  23.052  1.00  0.00    +0.000 C 
ATOM     93  C68 UNL A   1      33.736  26.195  24.162  1.00  0.00    +0.000 C 
BRANCH   93   94
ATOM     97  O6  UNL A   1      32.840  28.031  22.519  1.00  0.00    +0.000 O 
ATOM     94  S1  UNL A   1      33.050  27.823  23.941  1.00  0.00    +0.000 S 
ATOM     96  O5  UNL A   1      33.851  28.737  24.728  1.00  0.00    +0.000 O 
BRANCH   94   95
ATOM    139  H39 UNL A   1      31.387  28.428  25.493  1.00  0.00    +0.000 H 
ATOM    140  H40 UNL A   1      31.308  26.730  25.086  1.00  0.00    +0.000 H 
ATOM    141  H41 UNL A   1      30.699  27.926  23.968  1.00  0.00    +0.000 H 
ATOM     95  C69 UNL A   1      31.453  27.715  24.697  1.00  0.00    +0.000 C 
ENDBRANCH   94   95
ENDBRANCH   93   94
ENDBRANCH   89   90
ENDBRANCH    7    6
ENDBRANCH    8    7
ENDBRANCH   12   11
ENDBRANCH   14   12
ENDBRANCH   15   14
ENDBRANCH   16   15
ENDBRANCH   17   16
ENDBRANCH   18   17
ENDBRANCH   19   18
ENDBRANCH   20   19
ENDBRANCH   21   20
ENDBRANCH   22   21
ENDBRANCH   24   22
ENDBRANCH   28   27
BRANCH   32   33
ATOM     33  C26 UNL A   1      45.284  29.442  35.339  1.00  0.00    +0.000 C 
ATOM     34  C27 UNL A   1      45.468  28.169  35.899  1.00  0.00    +0.000 C 
ATOM     35  F1  UNL A   1      44.473  27.268  35.870  1.00  0.00    +0.000 F 
ATOM     36  C28 UNL A   1      46.667  27.822  36.518  1.00  0.00    +0.000 C 
ATOM     37  F2  UNL A   1      46.805  26.611  37.077  1.00  0.00    +0.000 F 
ATOM     38  C29 UNL A   1      47.718  28.726  36.558  1.00  0.00    +0.000 C 
ATOM     39  F3  UNL A   1      48.877  28.383  37.135  1.00  0.00    +0.000 F 
ATOM     40  C30 UNL A   1      47.564  29.986  36.001  1.00  0.00    +0.000 C 
ATOM     41  F4  UNL A   1      48.583  30.856  36.023  1.00  0.00    +0.000 F 
ATOM     42  C31 UNL A   1      46.356  30.347  35.410  1.00  0.00    +0.000 C 
ATOM     43  F5  UNL A   1      46.238  31.575  34.884  1.00  0.00    +0.000 F 
ENDBRANCH   32   33
BRANCH   49   50
ATOM     50  C37 UNL A   1      38.843  32.245  36.930  1.00  0.00    +0.000 C 
ATOM     51  C38 UNL A   1      39.023  33.535  37.447  1.00  0.00    +0.000 C 
ATOM     52  F6  UNL A   1      39.922  34.365  36.895  1.00  0.00    +0.000 F 
ATOM     53  C39 UNL A   1      38.304  33.969  38.558  1.00  0.00    +0.000 C 
ATOM     54  F7  UNL A   1      38.526  35.191  39.062  1.00  0.00    +0.000 F 
ATOM     55  C40 UNL A   1      37.366  33.136  39.149  1.00  0.00    +0.000 C 
ATOM     56  F8  UNL A   1      36.664  33.561  40.209  1.00  0.00    +0.000 F 
ATOM     57  C41 UNL A   1      37.159  31.862  38.645  1.00  0.00    +0.000 C 
ATOM     58  F9  UNL A   1      36.240  31.062  39.204  1.00  0.00    +0.000 F 
ATOM     59  C42 UNL A   1      37.901  31.413  37.555  1.00  0.00    +0.000 C 
ATOM     60  F10 UNL A   1      37.683  30.171  37.096  1.00  0.00    +0.000 F 
ENDBRANCH   49   50
BRANCH   64   65
ATOM     65  C46 UNL A   1      37.097  31.904  30.185  1.00  0.00    +0.000 C 
ATOM     66  C47 UNL A   1      36.830  33.246  29.889  1.00  0.00    +0.000 C 
ATOM     67  F11 UNL A   1      37.650  34.208  30.339  1.00  0.00    +0.000 F 
ATOM     68  C48 UNL A   1      35.703  33.611  29.155  1.00  0.00    +0.000 C 
ATOM     69  F12 UNL A   1      35.452  34.905  28.916  1.00  0.00    +0.000 F 
ATOM     70  C49 UNL A   1      34.839  32.637  28.676  1.00  0.00    +0.000 C 
ATOM     71  F13 UNL A   1      33.766  32.986  27.954  1.00  0.00    +0.000 F 
ATOM     72  C50 UNL A   1      35.088  31.301  28.949  1.00  0.00    +0.000 C 
ATOM     73  F14 UNL A   1      34.267  30.355  28.472  1.00  0.00    +0.000 F 
ATOM     74  C51 UNL A   1      36.195  30.939  29.711  1.00  0.00    +0.000 C 
ATOM     75  F15 UNL A   1      36.407  29.639  29.965  1.00  0.00    +0.000 F 
ENDBRANCH   64   65
TORSDOF 21
ENDMDL
