MODEL 1
REMARK VINA RESULT:      -9.7      0.000      0.000
ROOT
ATOM    129  H36 UNL A   1      43.526  24.457  29.571  1.00  0.00    +0.000 H 
ATOM    130  H37 UNL A   1      44.465  26.124  31.298  1.00  0.00    +0.000 H 
ATOM    131  H38 UNL A   1      39.329  27.567  33.892  1.00  0.00    +0.000 H 
ATOM    132  H39 UNL A   1      38.406  27.362  31.490  1.00  0.00    +0.000 H 
ATOM     35  C29 UNL A   1      39.924  28.922  29.605  1.00  0.00    +0.000 C 
ATOM     36  C30 UNL A   1      40.234  28.627  31.028  1.00  0.00    +0.000 C 
ATOM     37  N5  UNL A   1      41.201  29.109  31.736  1.00  0.00    +0.000 N 
ATOM     38  C31 UNL A   1      41.101  28.494  32.981  1.00  0.00    +0.000 C 
ATOM     39  C32 UNL A   1      42.215  28.283  33.736  1.00  0.00    +0.000 C 
ATOM     51  C39 UNL A   1      43.314  29.084  33.250  1.00  0.00    +0.000 C 
ATOM     52  C40 UNL A   1      43.579  30.432  33.134  1.00  0.00    +0.000 C 
ATOM     53  C41 UNL A   1      44.334  30.563  31.928  1.00  0.00    +0.000 C 
ATOM     54  C42 UNL A   1      44.554  29.288  31.405  1.00  0.00    +0.000 C 
ATOM     55  N6  UNL A   1      44.198  28.445  32.420  1.00  0.00    +0.000 N 
ATOM     56  C43 UNL A   1      44.930  28.822  30.089  1.00  0.00    +0.000 C 
ATOM     68  C50 UNL A   1      44.791  27.541  29.637  1.00  0.00    +0.000 C 
ATOM     69  N7  UNL A   1      44.679  27.288  28.279  1.00  0.00    +0.000 N 
ATOM     70  C51 UNL A   1      43.951  26.208  28.205  1.00  0.00    +0.000 C 
ATOM     71  C52 UNL A   1      42.920  25.989  27.164  1.00  0.00    +0.000 C 
ATOM     83  C59 UNL A   1      41.946  26.906  27.389  1.00  0.00    +0.000 C 
ATOM     84  C60 UNL A   1      40.929  27.410  26.497  1.00  0.00    +0.000 C 
ATOM     85  C61 UNL A   1      40.213  28.340  27.158  1.00  0.00    +0.000 C 
ATOM     86  C62 UNL A   1      40.596  28.355  28.576  1.00  0.00    +0.000 C 
ATOM     87  N8  UNL A   1      41.717  27.558  28.621  1.00  0.00    +0.000 N 
ATOM     88  C63 UNL A   1      43.871  25.418  29.420  1.00  0.00    +0.000 C 
ATOM     89  C64 UNL A   1      44.377  26.300  30.286  1.00  0.00    +0.000 C 
ATOM     90  C65 UNL A   1      39.793  27.899  33.032  1.00  0.00    +0.000 C 
ATOM     91  C66 UNL A   1      39.265  27.837  31.807  1.00  0.00    +0.000 C 
ATOM    123  H30 UNL A   1      43.293  31.185  33.779  1.00  0.00    +0.000 H 
ATOM    124  H31 UNL A   1      44.661  31.451  31.515  1.00  0.00    +0.000 H 
ATOM    125  H32 UNL A   1      44.525  27.523  32.535  1.00  0.00    +0.000 H 
ATOM    126  H33 UNL A   1      40.776  27.108  25.522  1.00  0.00    +0.000 H 
ATOM    127  H34 UNL A   1      39.500  28.952  26.731  1.00  0.00    +0.000 H 
ATOM    128  H35 UNL A   1      42.290  27.454  29.416  1.00  0.00    +0.000 H 
ENDROOT
BRANCH   35   34
ATOM     33  C27 UNL A   1      37.434  29.037  29.379  1.00  0.00    +0.000 C 
ATOM     34  C28 UNL A   1      38.687  29.670  29.410  1.00  0.00    +0.000 C 
ATOM    133  H40 UNL A   1      39.734  31.464  29.054  1.00  0.00    +0.000 H 
ATOM    134  H41 UNL A   1      37.726  32.812  29.049  1.00  0.00    +0.000 H 
ATOM    121  H28 UNL A   1      35.383  29.325  28.954  1.00  0.00    +0.000 H 
ATOM    122  H29 UNL A   1      37.351  28.033  29.603  1.00  0.00    +0.000 H 
ATOM     92  C67 UNL A   1      38.803  31.028  29.147  1.00  0.00    +0.000 C 
ATOM     93  C68 UNL A   1      37.671  31.782  29.010  1.00  0.00    +0.000 C 
ATOM     31  C25 UNL A   1      36.445  31.154  28.819  1.00  0.00    +0.000 C 
ATOM     32  C26 UNL A   1      36.304  29.780  29.040  1.00  0.00    +0.000 C 
BRANCH   31   29
ATOM     29  C24 UNL A   1      35.334  31.986  28.328  1.00  0.00    +0.000 C 
ATOM     30  O2  UNL A   1      34.620  31.589  27.411  1.00  0.00    +0.000 O 
BRANCH   29   28
ATOM     28  N4  UNL A   1      35.112  33.216  28.925  1.00  0.00    +0.000 N 
ATOM    120  H27 UNL A   1      35.347  34.015  28.400  1.00  0.00    +0.000 H 
BRANCH   28   27
ATOM     27  C23 UNL A   1      34.561  33.442  30.265  1.00  0.00    +0.000 C 
ATOM    118  H25 UNL A   1      33.870  32.655  30.485  1.00  0.00    +0.000 H 
ATOM    119  H26 UNL A   1      35.383  33.456  30.950  1.00  0.00    +0.000 H 
BRANCH   27   26
ATOM     26  C22 UNL A   1      33.838  34.774  30.397  1.00  0.00    +0.000 C 
ATOM    116  H23 UNL A   1      34.391  35.509  29.853  1.00  0.00    +0.000 H 
ATOM    117  H24 UNL A   1      32.850  34.621  30.013  1.00  0.00    +0.000 H 
BRANCH   26   25
ATOM     25  C21 UNL A   1      33.670  35.271  31.839  1.00  0.00    +0.000 C 
ATOM    114  H21 UNL A   1      33.243  36.251  31.795  1.00  0.00    +0.000 H 
ATOM    115  H22 UNL A   1      33.060  34.535  32.318  1.00  0.00    +0.000 H 
BRANCH   25   24
ATOM    113  H20 UNL A   1      35.023  36.383  32.985  1.00  0.00    +0.000 H 
ATOM    112  H19 UNL A   1      35.757  34.994  32.108  1.00  0.00    +0.000 H 
ATOM     24  C20 UNL A   1      34.941  35.356  32.698  1.00  0.00    +0.000 C 
BRANCH   24   23
ATOM    111  H18 UNL A   1      34.495  33.614  33.789  1.00  0.00    +0.000 H 
ATOM    110  H17 UNL A   1      34.370  35.126  34.732  1.00  0.00    +0.000 H 
ATOM     23  C19 UNL A   1      34.930  34.566  34.012  1.00  0.00    +0.000 C 
BRANCH   23   22
ATOM    108  H15 UNL A   1      36.877  33.729  33.881  1.00  0.00    +0.000 H 
ATOM    109  H16 UNL A   1      36.764  35.228  34.816  1.00  0.00    +0.000 H 
ATOM     22  C18 UNL A   1      36.309  34.285  34.596  1.00  0.00    +0.000 C 
BRANCH   22   21
ATOM    107  H14 UNL A   1      35.372  33.236  36.175  1.00  0.00    +0.000 H 
ATOM     21  N3  UNL A   1      36.249  33.527  35.833  1.00  0.00    +0.000 N 
BRANCH   21    2
ATOM      1  O1  UNL A   1      37.827  33.911  37.446  1.00  0.00    +0.000 O 
ATOM      2  C1  UNL A   1      37.389  33.202  36.542  1.00  0.00    +0.000 C 
BRANCH    2    3
ATOM      3  C2  UNL A   1      38.135  31.964  36.089  1.00  0.00    +0.000 C 
ATOM     94  H1  UNL A   1      37.500  31.118  36.250  1.00  0.00    +0.000 H 
ATOM     95  H2  UNL A   1      39.038  31.936  36.663  1.00  0.00    +0.000 H 
BRANCH    3    4
ATOM      4  N1  UNL A   1      38.545  31.962  34.693  1.00  0.00    +0.000 N 
ATOM      5  C3  UNL A   1      37.952  31.184  33.732  1.00  0.00    +0.000 C 
ATOM      6  N2  UNL A   1      38.425  31.439  32.536  1.00  0.00    +0.000 N 
ATOM      7  C4  UNL A   1      39.362  32.423  32.725  1.00  0.00    +0.000 C 
ATOM     14  C11 UNL A   1      39.460  32.784  34.063  1.00  0.00    +0.000 C 
ATOM     96  H3  UNL A   1      37.221  30.482  33.927  1.00  0.00    +0.000 H 
BRANCH    7    8
ATOM     97  H4  UNL A   1      38.676  34.502  31.206  1.00  0.00    +0.000 H 
ATOM     98  H5  UNL A   1      40.012  35.607  29.507  1.00  0.00    +0.000 H 
ATOM     99  H6  UNL A   1      42.212  34.754  28.944  1.00  0.00    +0.000 H 
ATOM    100  H7  UNL A   1      43.071  32.779  30.062  1.00  0.00    +0.000 H 
ATOM    101  H8  UNL A   1      41.747  31.683  31.771  1.00  0.00    +0.000 H 
ATOM      8  C5  UNL A   1      40.118  33.023  31.643  1.00  0.00    +0.000 C 
ATOM      9  C6  UNL A   1      39.614  34.143  30.974  1.00  0.00    +0.000 C 
ATOM     10  C7  UNL A   1      40.380  34.775  29.992  1.00  0.00    +0.000 C 
ATOM     11  C8  UNL A   1      41.644  34.281  29.665  1.00  0.00    +0.000 C 
ATOM     12  C9  UNL A   1      42.141  33.150  30.311  1.00  0.00    +0.000 C 
ATOM     13  C10 UNL A   1      41.379  32.522  31.296  1.00  0.00    +0.000 C 
ENDBRANCH    7    8
BRANCH   14   15
ATOM    102  H9  UNL A   1      38.867  35.366  34.430  1.00  0.00    +0.000 H 
ATOM    103  H10 UNL A   1      40.287  37.118  35.321  1.00  0.00    +0.000 H 
ATOM    104  H11 UNL A   1      42.505  36.586  36.147  1.00  0.00    +0.000 H 
ATOM    105  H12 UNL A   1      43.330  34.310  36.013  1.00  0.00    +0.000 H 
ATOM    106  H13 UNL A   1      41.951  32.581  35.028  1.00  0.00    +0.000 H 
ATOM     15  C12 UNL A   1      40.280  33.819  34.690  1.00  0.00    +0.000 C 
ATOM     16  C13 UNL A   1      39.816  35.138  34.762  1.00  0.00    +0.000 C 
ATOM     17  C14 UNL A   1      40.633  36.147  35.281  1.00  0.00    +0.000 C 
ATOM     18  C15 UNL A   1      41.911  35.844  35.746  1.00  0.00    +0.000 C 
ATOM     19  C16 UNL A   1      42.385  34.538  35.666  1.00  0.00    +0.000 C 
ATOM     20  C17 UNL A   1      41.581  33.540  35.118  1.00  0.00    +0.000 C 
ENDBRANCH   14   15
ENDBRANCH    3    4
ENDBRANCH    2    3
ENDBRANCH   21    2
ENDBRANCH   22   21
ENDBRANCH   23   22
ENDBRANCH   24   23
ENDBRANCH   25   24
ENDBRANCH   26   25
ENDBRANCH   27   26
ENDBRANCH   28   27
ENDBRANCH   29   28
ENDBRANCH   31   29
ENDBRANCH   35   34
BRANCH   39   40
ATOM     40  C33 UNL A   1      42.461  27.050  34.586  1.00  0.00    +0.000 C 
ATOM     41  C34 UNL A   1      42.239  27.134  35.979  1.00  0.00    +0.000 C 
ATOM     42  F1  UNL A   1      41.563  28.168  36.501  1.00  0.00    +0.000 F 
ATOM     43  C35 UNL A   1      42.793  26.216  36.875  1.00  0.00    +0.000 C 
ATOM     44  F2  UNL A   1      42.669  26.416  38.195  1.00  0.00    +0.000 F 
ATOM     45  C36 UNL A   1      43.532  25.144  36.415  1.00  0.00    +0.000 C 
ATOM     46  F3  UNL A   1      44.120  24.300  37.273  1.00  0.00    +0.000 F 
ATOM     47  C37 UNL A   1      43.703  24.980  35.058  1.00  0.00    +0.000 C 
ATOM     48  F4  UNL A   1      44.434  23.957  34.592  1.00  0.00    +0.000 F 
ATOM     49  C38 UNL A   1      43.197  25.922  34.163  1.00  0.00    +0.000 C 
ATOM     50  F5  UNL A   1      43.558  25.733  32.890  1.00  0.00    +0.000 F 
ENDBRANCH   39   40
BRANCH   56   57
ATOM     65  F9  UNL A   1      43.546  32.106  26.805  1.00  0.00    +0.000 F 
ATOM     66  C49 UNL A   1      44.291  30.581  28.449  1.00  0.00    +0.000 C 
ATOM     67  F10 UNL A   1      43.013  30.359  28.793  1.00  0.00    +0.000 F 
ATOM     57  C44 UNL A   1      45.320  29.872  29.084  1.00  0.00    +0.000 C 
ATOM     58  C45 UNL A   1      46.635  30.113  28.648  1.00  0.00    +0.000 C 
ATOM     59  F6  UNL A   1      47.662  29.413  29.146  1.00  0.00    +0.000 F 
ATOM     60  C46 UNL A   1      46.904  31.049  27.650  1.00  0.00    +0.000 C 
ATOM     61  F7  UNL A   1      48.169  31.274  27.261  1.00  0.00    +0.000 F 
ATOM     62  C47 UNL A   1      45.865  31.729  27.034  1.00  0.00    +0.000 C 
ATOM     63  F8  UNL A   1      46.119  32.599  26.048  1.00  0.00    +0.000 F 
ATOM     64  C48 UNL A   1      44.559  31.486  27.427  1.00  0.00    +0.000 C 
ENDBRANCH   56   57
BRANCH   71   72
ATOM     72  C53 UNL A   1      42.885  24.769  26.326  1.00  0.00    +0.000 C 
ATOM     73  C54 UNL A   1      43.806  24.581  25.281  1.00  0.00    +0.000 C 
ATOM     74  F11 UNL A   1      44.569  25.603  24.866  1.00  0.00    +0.000 F 
ATOM     75  C55 UNL A   1      44.014  23.325  24.702  1.00  0.00    +0.000 C 
ATOM     76  F12 UNL A   1      44.950  23.171  23.755  1.00  0.00    +0.000 F 
ATOM     77  C56 UNL A   1      43.301  22.224  25.146  1.00  0.00    +0.000 C 
ATOM     78  F13 UNL A   1      43.549  21.006  24.641  1.00  0.00    +0.000 F 
ATOM     79  C57 UNL A   1      42.362  22.382  26.149  1.00  0.00    +0.000 C 
ATOM     80  F14 UNL A   1      41.694  21.316  26.613  1.00  0.00    +0.000 F 
ATOM     81  C58 UNL A   1      42.155  23.634  26.729  1.00  0.00    +0.000 C 
ATOM     82  F15 UNL A   1      41.302  23.701  27.761  1.00  0.00    +0.000 F 
ENDBRANCH   71   72
TORSDOF 18
ENDMDL
MODEL 2
REMARK VINA RESULT:      -9.5     39.737     43.825
ROOT
ATOM    129  H36 UNL A   1       2.409  14.332  36.537  1.00  0.00    +0.000 H 
ATOM    130  H37 UNL A   1       4.685  15.126  37.449  1.00  0.00    +0.000 H 
ATOM    131  H38 UNL A   1       7.956  10.570  35.517  1.00  0.00    +0.000 H 
ATOM    132  H39 UNL A   1       5.846   9.201  36.099  1.00  0.00    +0.000 H 
ATOM     35  C29 UNL A   1       4.935   9.697  38.785  1.00  0.00    +0.000 C 
ATOM     36  C30 UNL A   1       5.986  10.411  38.015  1.00  0.00    +0.000 C 
ATOM     37  N5  UNL A   1       6.781  11.335  38.444  1.00  0.00    +0.000 N 
ATOM     38  C31 UNL A   1       7.541  11.721  37.343  1.00  0.00    +0.000 C 
ATOM     39  C32 UNL A   1       8.013  12.995  37.246  1.00  0.00    +0.000 C 
ATOM     51  C39 UNL A   1       7.939  13.661  38.524  1.00  0.00    +0.000 C 
ATOM     52  C40 UNL A   1       8.512  13.484  39.766  1.00  0.00    +0.000 C 
ATOM     53  C41 UNL A   1       7.499  13.855  40.703  1.00  0.00    +0.000 C 
ATOM     54  C42 UNL A   1       6.386  14.307  39.992  1.00  0.00    +0.000 C 
ATOM     55  N6  UNL A   1       6.848  14.467  38.715  1.00  0.00    +0.000 N 
ATOM     56  C43 UNL A   1       4.996  14.476  40.354  1.00  0.00    +0.000 C 
ATOM     68  C50 UNL A   1       3.963  14.615  39.472  1.00  0.00    +0.000 C 
ATOM     69  N7  UNL A   1       2.675  14.260  39.844  1.00  0.00    +0.000 N 
ATOM     70  C51 UNL A   1       2.105  13.884  38.732  1.00  0.00    +0.000 C 
ATOM     71  C52 UNL A   1       1.162  12.745  38.644  1.00  0.00    +0.000 C 
ATOM     83  C59 UNL A   1       1.882  11.629  38.918  1.00  0.00    +0.000 C 
ATOM     84  C60 UNL A   1       1.436  10.326  39.351  1.00  0.00    +0.000 C 
ATOM     85  C61 UNL A   1       2.521   9.549  39.535  1.00  0.00    +0.000 C 
ATOM     86  C62 UNL A   1       3.722  10.238  39.046  1.00  0.00    +0.000 C 
ATOM     87  N8  UNL A   1       3.286  11.521  38.799  1.00  0.00    +0.000 N 
ATOM     88  C63 UNL A   1       2.748  14.333  37.511  1.00  0.00    +0.000 C 
ATOM     89  C64 UNL A   1       3.911  14.750  38.019  1.00  0.00    +0.000 C 
ATOM     90  C65 UNL A   1       7.359  10.697  36.350  1.00  0.00    +0.000 C 
ATOM     91  C66 UNL A   1       6.309   9.933  36.660  1.00  0.00    +0.000 C 
ATOM    123  H30 UNL A   1       9.467  13.152  39.975  1.00  0.00    +0.000 H 
ATOM    124  H31 UNL A   1       7.578  13.798  41.731  1.00  0.00    +0.000 H 
ATOM    125  H32 UNL A   1       6.456  15.067  38.040  1.00  0.00    +0.000 H 
ATOM    126  H33 UNL A   1       0.455  10.039  39.494  1.00  0.00    +0.000 H 
ATOM    127  H34 UNL A   1       2.510   8.607  39.958  1.00  0.00    +0.000 H 
ATOM    128  H35 UNL A   1       3.880  12.272  38.569  1.00  0.00    +0.000 H 
ENDROOT
BRANCH   35   34
ATOM     33  C27 UNL A   1       4.213   7.364  39.331  1.00  0.00    +0.000 C 
ATOM     34  C28 UNL A   1       5.224   8.286  39.016  1.00  0.00    +0.000 C 
ATOM    133  H40 UNL A   1       7.302   8.611  38.906  1.00  0.00    +0.000 H 
ATOM    134  H41 UNL A   1       7.827   6.250  38.954  1.00  0.00    +0.000 H 
ATOM    121  H28 UNL A   1       3.845   5.385  39.979  1.00  0.00    +0.000 H 
ATOM    122  H29 UNL A   1       3.221   7.646  39.299  1.00  0.00    +0.000 H 
ATOM     92  C67 UNL A   1       6.559   7.905  39.020  1.00  0.00    +0.000 C 
ATOM     93  C68 UNL A   1       6.877   6.586  39.179  1.00  0.00    +0.000 C 
ATOM     31  C25 UNL A   1       5.914   5.697  39.644  1.00  0.00    +0.000 C 
ATOM     32  C26 UNL A   1       4.565   6.063  39.688  1.00  0.00    +0.000 C 
BRANCH   31   29
ATOM     29  C24 UNL A   1       6.387   4.390  40.132  1.00  0.00    +0.000 C 
ATOM     30  O2  UNL A   1       5.618   3.433  40.186  1.00  0.00    +0.000 O 
BRANCH   29   28
ATOM     28  N4  UNL A   1       7.710   4.267  40.522  1.00  0.00    +0.000 N 
ATOM    120  H27 UNL A   1       7.994   4.789  41.306  1.00  0.00    +0.000 H 
BRANCH   28   27
ATOM     27  C23 UNL A   1       8.729   3.432  39.877  1.00  0.00    +0.000 C 
ATOM    118  H25 UNL A   1       8.416   3.229  38.874  1.00  0.00    +0.000 H 
ATOM    119  H26 UNL A   1       9.651   3.973  39.908  1.00  0.00    +0.000 H 
BRANCH   27   26
ATOM     26  C22 UNL A   1       8.955   2.108  40.591  1.00  0.00    +0.000 C 
ATOM    116  H23 UNL A   1       8.594   1.323  39.961  1.00  0.00    +0.000 H 
ATOM    117  H24 UNL A   1      10.006   2.044  40.783  1.00  0.00    +0.000 H 
BRANCH   26   25
ATOM     25  C21 UNL A   1       8.258   1.987  41.953  1.00  0.00    +0.000 C 
ATOM    114  H21 UNL A   1       8.101   2.978  42.324  1.00  0.00    +0.000 H 
ATOM    115  H22 UNL A   1       7.364   1.432  41.759  1.00  0.00    +0.000 H 
BRANCH   25   24
ATOM    113  H20 UNL A   1       9.814   0.721  42.547  1.00  0.00    +0.000 H 
ATOM    112  H19 UNL A   1       8.289   0.514  43.480  1.00  0.00    +0.000 H 
ATOM     24  C20 UNL A   1       8.992   1.193  43.043  1.00  0.00    +0.000 C 
BRANCH   24   23
ATOM    111  H18 UNL A   1       9.564   1.400  45.056  1.00  0.00    +0.000 H 
ATOM    110  H17 UNL A   1       9.071   2.927  44.270  1.00  0.00    +0.000 H 
ATOM     23  C19 UNL A   1       9.617   2.010  44.179  1.00  0.00    +0.000 C 
BRANCH   23   22
ATOM    108  H15 UNL A   1      11.179   2.991  43.125  1.00  0.00    +0.000 H 
ATOM    109  H16 UNL A   1      11.430   2.837  44.871  1.00  0.00    +0.000 H 
ATOM     22  C18 UNL A   1      11.088   2.354  43.980  1.00  0.00    +0.000 C 
BRANCH   22   21
ATOM    107  H14 UNL A   1      12.303   1.016  42.882  1.00  0.00    +0.000 H 
ATOM     21  N3  UNL A   1      11.915   1.178  43.772  1.00  0.00    +0.000 N 
BRANCH   21    2
ATOM      1  O1  UNL A   1      12.855   0.577  45.772  1.00  0.00    +0.000 O 
ATOM      2  C1  UNL A   1      12.173   0.282  44.792  1.00  0.00    +0.000 C 
BRANCH    2    3
ATOM      3  C2  UNL A   1      11.647  -1.125  44.602  1.00  0.00    +0.000 C 
ATOM     94  H1  UNL A   1      10.590  -1.064  44.446  1.00  0.00    +0.000 H 
ATOM     95  H2  UNL A   1      11.918  -1.665  45.485  1.00  0.00    +0.000 H 
BRANCH    3    4
ATOM      4  N1  UNL A   1      12.226  -1.860  43.487  1.00  0.00    +0.000 N 
ATOM      5  C3  UNL A   1      13.575  -2.022  43.307  1.00  0.00    +0.000 C 
ATOM      6  N2  UNL A   1      13.842  -2.811  42.295  1.00  0.00    +0.000 N 
ATOM      7  C4  UNL A   1      12.619  -3.179  41.796  1.00  0.00    +0.000 C 
ATOM     14  C11 UNL A   1      11.579  -2.610  42.522  1.00  0.00    +0.000 C 
ATOM     96  H3  UNL A   1      14.294  -1.576  43.898  1.00  0.00    +0.000 H 
BRANCH    7    8
ATOM     97  H4  UNL A   1      13.814  -3.065  39.417  1.00  0.00    +0.000 H 
ATOM     98  H5  UNL A   1      13.660  -4.664  37.598  1.00  0.00    +0.000 H 
ATOM     99  H6  UNL A   1      12.192  -6.587  37.789  1.00  0.00    +0.000 H 
ATOM    100  H7  UNL A   1      10.857  -6.902  39.790  1.00  0.00    +0.000 H 
ATOM    101  H8  UNL A   1      11.022  -5.316  41.617  1.00  0.00    +0.000 H 
ATOM      8  C5  UNL A   1      12.452  -4.080  40.673  1.00  0.00    +0.000 C 
ATOM      9  C6  UNL A   1      13.196  -3.886  39.504  1.00  0.00    +0.000 C 
ATOM     10  C7  UNL A   1      13.102  -4.803  38.454  1.00  0.00    +0.000 C 
ATOM     11  C8  UNL A   1      12.255  -5.906  38.562  1.00  0.00    +0.000 C 
ATOM     12  C9  UNL A   1      11.492  -6.091  39.715  1.00  0.00    +0.000 C 
ATOM     13  C10 UNL A   1      11.589  -5.179  40.766  1.00  0.00    +0.000 C 
ENDBRANCH    7    8
BRANCH   14   15
ATOM    102  H9  UNL A   1       9.973  -4.312  43.818  1.00  0.00    +0.000 H 
ATOM    103  H10 UNL A   1       7.609  -4.712  43.456  1.00  0.00    +0.000 H 
ATOM    104  H11 UNL A   1       6.383  -3.384  41.839  1.00  0.00    +0.000 H 
ATOM    105  H12 UNL A   1       7.540  -1.702  40.530  1.00  0.00    +0.000 H 
ATOM    106  H13 UNL A   1       9.922  -1.375  40.819  1.00  0.00    +0.000 H 
ATOM     15  C12 UNL A   1      10.136  -2.782  42.373  1.00  0.00    +0.000 C 
ATOM     16  C13 UNL A   1       9.461  -3.757  43.116  1.00  0.00    +0.000 C 
ATOM     17  C14 UNL A   1       8.097  -3.984  42.911  1.00  0.00    +0.000 C 
ATOM     18  C15 UNL A   1       7.394  -3.229  41.974  1.00  0.00    +0.000 C 
ATOM     19  C16 UNL A   1       8.059  -2.266  41.222  1.00  0.00    +0.000 C 
ATOM     20  C17 UNL A   1       9.426  -2.064  41.405  1.00  0.00    +0.000 C 
ENDBRANCH   14   15
ENDBRANCH    3    4
ENDBRANCH    2    3
ENDBRANCH   21    2
ENDBRANCH   22   21
ENDBRANCH   23   22
ENDBRANCH   24   23
ENDBRANCH   25   24
ENDBRANCH   26   25
ENDBRANCH   27   26
ENDBRANCH   28   27
ENDBRANCH   29   28
ENDBRANCH   31   29
ENDBRANCH   35   34
BRANCH   39   40
ATOM     40  C33 UNL A   1       8.098  13.788  35.954  1.00  0.00    +0.000 C 
ATOM     41  C34 UNL A   1       9.089  14.787  35.839  1.00  0.00    +0.000 C 
ATOM     42  F1  UNL A   1      10.103  14.848  36.714  1.00  0.00    +0.000 F 
ATOM     43  C35 UNL A   1       9.006  15.808  34.887  1.00  0.00    +0.000 C 
ATOM     44  F2  UNL A   1       9.895  16.811  34.907  1.00  0.00    +0.000 F 
ATOM     45  C36 UNL A   1       7.970  15.834  33.974  1.00  0.00    +0.000 C 
ATOM     46  F3  UNL A   1       7.851  16.846  33.104  1.00  0.00    +0.000 F 
ATOM     47  C37 UNL A   1       7.028  14.830  34.000  1.00  0.00    +0.000 C 
ATOM     48  F4  UNL A   1       6.003  14.847  33.134  1.00  0.00    +0.000 F 
ATOM     49  C38 UNL A   1       7.077  13.839  34.980  1.00  0.00    +0.000 C 
ATOM     50  F5  UNL A   1       6.026  13.014  34.994  1.00  0.00    +0.000 F 
ENDBRANCH   39   40
BRANCH   56   57
ATOM     65  F9  UNL A   1       4.370  16.450  44.735  1.00  0.00    +0.000 F 
ATOM     66  C49 UNL A   1       4.578  15.433  42.614  1.00  0.00    +0.000 C 
ATOM     67  F10 UNL A   1       4.756  16.647  42.071  1.00  0.00    +0.000 F 
ATOM     57  C44 UNL A   1       4.647  14.289  41.806  1.00  0.00    +0.000 C 
ATOM     58  C45 UNL A   1       4.502  13.042  42.439  1.00  0.00    +0.000 C 
ATOM     59  F6  UNL A   1       4.641  11.902  41.751  1.00  0.00    +0.000 F 
ATOM     60  C46 UNL A   1       4.260  12.952  43.810  1.00  0.00    +0.000 C 
ATOM     61  F7  UNL A   1       4.108  11.752  44.390  1.00  0.00    +0.000 F 
ATOM     62  C47 UNL A   1       4.206  14.100  44.584  1.00  0.00    +0.000 C 
ATOM     63  F8  UNL A   1       4.013  14.014  45.907  1.00  0.00    +0.000 F 
ATOM     64  C48 UNL A   1       4.376  15.339  43.986  1.00  0.00    +0.000 C 
ENDBRANCH   56   57
BRANCH   71   72
ATOM     72  C53 UNL A   1      -0.177  12.870  38.025  1.00  0.00    +0.000 C 
ATOM     73  C54 UNL A   1      -1.130  13.766  38.537  1.00  0.00    +0.000 C 
ATOM     74  F11 UNL A   1      -0.938  14.343  39.733  1.00  0.00    +0.000 F 
ATOM     75  C55 UNL A   1      -2.254  14.146  37.795  1.00  0.00    +0.000 C 
ATOM     76  F12 UNL A   1      -3.105  15.057  38.288  1.00  0.00    +0.000 F 
ATOM     77  C56 UNL A   1      -2.459  13.634  36.525  1.00  0.00    +0.000 C 
ATOM     78  F13 UNL A   1      -3.497  14.051  35.785  1.00  0.00    +0.000 F 
ATOM     79  C57 UNL A   1      -1.558  12.722  36.007  1.00  0.00    +0.000 C 
ATOM     80  F14 UNL A   1      -1.726  12.249  34.763  1.00  0.00    +0.000 F 
ATOM     81  C58 UNL A   1      -0.435  12.344  36.745  1.00  0.00    +0.000 C 
ATOM     82  F15 UNL A   1       0.449  11.532  36.147  1.00  0.00    +0.000 F 
ENDBRANCH   71   72
TORSDOF 18
ENDMDL
MODEL 3
REMARK VINA RESULT:      -9.3     40.238     44.407
ROOT
ATOM    129  H36 UNL A   1       2.304  14.186  36.370  1.00  0.00    +0.000 H 
ATOM    130  H37 UNL A   1       4.518  15.029  37.384  1.00  0.00    +0.000 H 
ATOM    131  H38 UNL A   1       7.962  10.521  35.651  1.00  0.00    +0.000 H 
ATOM    132  H39 UNL A   1       5.853   9.117  36.143  1.00  0.00    +0.000 H 
ATOM     35  C29 UNL A   1       4.804   9.618  38.778  1.00  0.00    +0.000 C 
ATOM     36  C30 UNL A   1       5.878  10.345  38.053  1.00  0.00    +0.000 C 
ATOM     37  N5  UNL A   1       6.634  11.287  38.511  1.00  0.00    +0.000 N 
ATOM     38  C31 UNL A   1       7.439  11.679  37.444  1.00  0.00    +0.000 C 
ATOM     39  C32 UNL A   1       7.891  12.960  37.359  1.00  0.00    +0.000 C 
ATOM     51  C39 UNL A   1       7.744  13.635  38.626  1.00  0.00    +0.000 C 
ATOM     52  C40 UNL A   1       8.259  13.479  39.896  1.00  0.00    +0.000 C 
ATOM     53  C41 UNL A   1       7.195  13.838  40.780  1.00  0.00    +0.000 C 
ATOM     54  C42 UNL A   1       6.110  14.263  40.012  1.00  0.00    +0.000 C 
ATOM     55  N6  UNL A   1       6.629  14.422  38.758  1.00  0.00    +0.000 N 
ATOM     56  C43 UNL A   1       4.701  14.409  40.306  1.00  0.00    +0.000 C 
ATOM     68  C50 UNL A   1       3.709  14.521  39.374  1.00  0.00    +0.000 C 
ATOM     69  N7  UNL A   1       2.412  14.145  39.686  1.00  0.00    +0.000 N 
ATOM     70  C51 UNL A   1       1.903  13.750  38.552  1.00  0.00    +0.000 C 
ATOM     71  C52 UNL A   1       0.987  12.592  38.428  1.00  0.00    +0.000 C 
ATOM     83  C59 UNL A   1       1.714  11.492  38.747  1.00  0.00    +0.000 C 
ATOM     84  C60 UNL A   1       1.271  10.184  39.170  1.00  0.00    +0.000 C 
ATOM     85  C61 UNL A   1       2.360   9.430  39.412  1.00  0.00    +0.000 C 
ATOM     86  C62 UNL A   1       3.570  10.138  38.975  1.00  0.00    +0.000 C 
ATOM     87  N8  UNL A   1       3.123  11.410  38.697  1.00  0.00    +0.000 N 
ATOM     88  C63 UNL A   1       2.596  14.201  37.359  1.00  0.00    +0.000 C 
ATOM     89  C64 UNL A   1       3.725  14.644  37.919  1.00  0.00    +0.000 C 
ATOM     90  C65 UNL A   1       7.324  10.644  36.453  1.00  0.00    +0.000 C 
ATOM     91  C66 UNL A   1       6.274   9.862  36.719  1.00  0.00    +0.000 C 
ATOM    123  H30 UNL A   1       9.209  13.167  40.153  1.00  0.00    +0.000 H 
ATOM    124  H31 UNL A   1       7.226  13.791  41.811  1.00  0.00    +0.000 H 
ATOM    125  H32 UNL A   1       6.260  15.009  38.059  1.00  0.00    +0.000 H 
ATOM    126  H33 UNL A   1       0.290   9.880  39.268  1.00  0.00    +0.000 H 
ATOM    127  H34 UNL A   1       2.346   8.491  39.842  1.00  0.00    +0.000 H 
ATOM    128  H35 UNL A   1       3.713  12.170  38.488  1.00  0.00    +0.000 H 
ENDROOT
BRANCH   35   34
ATOM     33  C27 UNL A   1       4.107   7.289  39.376  1.00  0.00    +0.000 C 
ATOM     34  C28 UNL A   1       5.108   8.214  39.035  1.00  0.00    +0.000 C 
ATOM    133  H40 UNL A   1       7.182   8.556  38.904  1.00  0.00    +0.000 H 
ATOM    134  H41 UNL A   1       7.729   6.201  38.995  1.00  0.00    +0.000 H 
ATOM    121  H28 UNL A   1       3.762   5.320  40.065  1.00  0.00    +0.000 H 
ATOM    122  H29 UNL A   1       3.112   7.562  39.345  1.00  0.00    +0.000 H 
ATOM     92  C67 UNL A   1       6.446   7.845  39.037  1.00  0.00    +0.000 C 
ATOM     93  C68 UNL A   1       6.777   6.532  39.220  1.00  0.00    +0.000 C 
ATOM     31  C25 UNL A   1       5.826   5.644  39.710  1.00  0.00    +0.000 C 
ATOM     32  C26 UNL A   1       4.474   5.999  39.756  1.00  0.00    +0.000 C 
BRANCH   31   29
ATOM     29  C24 UNL A   1       6.314   4.352  40.220  1.00  0.00    +0.000 C 
ATOM     30  O2  UNL A   1       5.555   3.389  40.298  1.00  0.00    +0.000 O 
BRANCH   29   28
ATOM     28  N4  UNL A   1       7.640   4.249  40.604  1.00  0.00    +0.000 N 
ATOM    120  H27 UNL A   1       7.916   4.761  41.398  1.00  0.00    +0.000 H 
BRANCH   28   27
ATOM     27  C23 UNL A   1       8.675   3.449  39.940  1.00  0.00    +0.000 C 
ATOM    118  H25 UNL A   1       8.254   3.014  39.058  1.00  0.00    +0.000 H 
ATOM    119  H26 UNL A   1       9.489   4.104  39.715  1.00  0.00    +0.000 H 
BRANCH   27   26
ATOM     26  C22 UNL A   1       9.221   2.332  40.817  1.00  0.00    +0.000 C 
ATOM    116  H23 UNL A   1       9.381   1.473  40.201  1.00  0.00    +0.000 H 
ATOM    117  H24 UNL A   1      10.120   2.707  41.259  1.00  0.00    +0.000 H 
BRANCH   26   25
ATOM     25  C21 UNL A   1       8.304   1.924  41.979  1.00  0.00    +0.000 C 
ATOM    114  H21 UNL A   1       8.739   2.301  42.881  1.00  0.00    +0.000 H 
ATOM    115  H22 UNL A   1       7.347   2.334  41.735  1.00  0.00    +0.000 H 
BRANCH   25   24
ATOM    113  H20 UNL A   1       8.094  -0.005  41.195  1.00  0.00    +0.000 H 
ATOM    112  H19 UNL A   1       7.114   0.309  42.672  1.00  0.00    +0.000 H 
ATOM     24  C20 UNL A   1       8.056   0.421  42.176  1.00  0.00    +0.000 C 
BRANCH   24   23
ATOM    111  H18 UNL A   1       8.724  -0.410  43.988  1.00  0.00    +0.000 H 
ATOM    110  H17 UNL A   1      10.031   0.193  42.929  1.00  0.00    +0.000 H 
ATOM     23  C19 UNL A   1       9.106  -0.343  42.991  1.00  0.00    +0.000 C 
BRANCH   23   22
ATOM    108  H15 UNL A   1       9.968  -1.746  41.650  1.00  0.00    +0.000 H 
ATOM    109  H16 UNL A   1       9.834  -2.293  43.329  1.00  0.00    +0.000 H 
ATOM     22  C18 UNL A   1       9.355  -1.772  42.527  1.00  0.00    +0.000 C 
BRANCH   22   21
ATOM    107  H14 UNL A   1       7.314  -2.285  42.735  1.00  0.00    +0.000 H 
ATOM     21  N3  UNL A   1       8.127  -2.482  42.214  1.00  0.00    +0.000 N 
BRANCH   21    2
ATOM      1  O1  UNL A   1       7.514  -4.513  41.352  1.00  0.00    +0.000 O 
ATOM      2  C1  UNL A   1       8.069  -3.425  41.206  1.00  0.00    +0.000 C 
BRANCH    2    3
ATOM      3  C2  UNL A   1       8.808  -3.091  39.928  1.00  0.00    +0.000 C 
ATOM     94  H1  UNL A   1       9.560  -2.365  40.160  1.00  0.00    +0.000 H 
ATOM     95  H2  UNL A   1       8.069  -2.736  39.241  1.00  0.00    +0.000 H 
BRANCH    3    4
ATOM      4  N1  UNL A   1       9.456  -4.217  39.272  1.00  0.00    +0.000 N 
ATOM      5  C3  UNL A   1       8.972  -4.813  38.136  1.00  0.00    +0.000 C 
ATOM      6  N2  UNL A   1       9.788  -5.732  37.680  1.00  0.00    +0.000 N 
ATOM      7  C4  UNL A   1      10.847  -5.735  38.552  1.00  0.00    +0.000 C 
ATOM     14  C11 UNL A   1      10.680  -4.793  39.560  1.00  0.00    +0.000 C 
ATOM     96  H3  UNL A   1       8.074  -4.566  37.693  1.00  0.00    +0.000 H 
BRANCH    7    8
ATOM     97  H4  UNL A   1      11.145  -8.237  39.419  1.00  0.00    +0.000 H 
ATOM     98  H5  UNL A   1      13.015  -9.734  39.025  1.00  0.00    +0.000 H 
ATOM     99  H6  UNL A   1      14.962  -8.953  37.806  1.00  0.00    +0.000 H 
ATOM    100  H7  UNL A   1      15.054  -6.667  36.999  1.00  0.00    +0.000 H 
ATOM    101  H8  UNL A   1      13.180  -5.175  37.375  1.00  0.00    +0.000 H 
ATOM      8  C5  UNL A   1      12.003  -6.597  38.402  1.00  0.00    +0.000 C 
ATOM      9  C6  UNL A   1      11.968  -7.906  38.893  1.00  0.00    +0.000 C 
ATOM     10  C7  UNL A   1      13.047  -8.765  38.672  1.00  0.00    +0.000 C 
ATOM     11  C8  UNL A   1      14.169  -8.315  37.975  1.00  0.00    +0.000 C 
ATOM     12  C9  UNL A   1      14.219  -7.003  37.505  1.00  0.00    +0.000 C 
ATOM     13  C10 UNL A   1      13.140  -6.146  37.720  1.00  0.00    +0.000 C 
ENDBRANCH    7    8
BRANCH   14   15
ATOM    102  H9  UNL A   1      10.536  -5.501  42.136  1.00  0.00    +0.000 H 
ATOM    103  H10 UNL A   1      11.936  -4.762  43.974  1.00  0.00    +0.000 H 
ATOM    104  H11 UNL A   1      13.825  -3.299  43.554  1.00  0.00    +0.000 H 
ATOM    105  H12 UNL A   1      14.270  -2.516  41.302  1.00  0.00    +0.000 H 
ATOM    106  H13 UNL A   1      12.811  -3.171  39.485  1.00  0.00    +0.000 H 
ATOM     15  C12 UNL A   1      11.582  -4.425  40.650  1.00  0.00    +0.000 C 
ATOM     16  C13 UNL A   1      11.327  -4.864  41.955  1.00  0.00    +0.000 C 
ATOM     17  C14 UNL A   1      12.137  -4.443  43.013  1.00  0.00    +0.000 C 
ATOM     18  C15 UNL A   1      13.216  -3.593  42.775  1.00  0.00    +0.000 C 
ATOM     19  C16 UNL A   1      13.470  -3.142  41.483  1.00  0.00    +0.000 C 
ATOM     20  C17 UNL A   1      12.641  -3.538  40.434  1.00  0.00    +0.000 C 
ENDBRANCH   14   15
ENDBRANCH    3    4
ENDBRANCH    2    3
ENDBRANCH   21    2
ENDBRANCH   22   21
ENDBRANCH   23   22
ENDBRANCH   24   23
ENDBRANCH   25   24
ENDBRANCH   26   25
ENDBRANCH   27   26
ENDBRANCH   28   27
ENDBRANCH   29   28
ENDBRANCH   31   29
ENDBRANCH   35   34
BRANCH   39   40
ATOM     40  C33 UNL A   1       8.024  13.744  36.065  1.00  0.00    +0.000 C 
ATOM     41  C34 UNL A   1       9.037  14.724  35.970  1.00  0.00    +0.000 C 
ATOM     42  F1  UNL A   1      10.030  14.770  36.870  1.00  0.00    +0.000 F 
ATOM     43  C35 UNL A   1       8.997  15.741  35.012  1.00  0.00    +0.000 C 
ATOM     44  F2  UNL A   1       9.905  16.727  35.049  1.00  0.00    +0.000 F 
ATOM     45  C36 UNL A   1       7.985  15.782  34.073  1.00  0.00    +0.000 C 
ATOM     46  F3  UNL A   1       7.907  16.791  33.195  1.00  0.00    +0.000 F 
ATOM     47  C37 UNL A   1       7.023  14.797  34.080  1.00  0.00    +0.000 C 
ATOM     48  F4  UNL A   1       6.021  14.829  33.189  1.00  0.00    +0.000 F 
ATOM     49  C38 UNL A   1       7.029  13.810  35.066  1.00  0.00    +0.000 C 
ATOM     50  F5  UNL A   1       5.962  13.006  35.058  1.00  0.00    +0.000 F 
ENDBRANCH   39   40
BRANCH   56   57
ATOM     65  F9  UNL A   1       3.566  11.387  43.920  1.00  0.00    +0.000 F 
ATOM     66  C49 UNL A   1       4.186  12.917  42.229  1.00  0.00    +0.000 C 
ATOM     67  F10 UNL A   1       4.520  11.881  41.443  1.00  0.00    +0.000 F 
ATOM     57  C44 UNL A   1       4.286  14.227  41.741  1.00  0.00    +0.000 C 
ATOM     58  C45 UNL A   1       3.877  15.267  42.593  1.00  0.00    +0.000 C 
ATOM     59  F6  UNL A   1       3.861  16.537  42.169  1.00  0.00    +0.000 F 
ATOM     60  C46 UNL A   1       3.426  15.005  43.887  1.00  0.00    +0.000 C 
ATOM     61  F7  UNL A   1       3.055  16.015  44.689  1.00  0.00    +0.000 F 
ATOM     62  C47 UNL A   1       3.330  13.698  44.339  1.00  0.00    +0.000 C 
ATOM     63  F8  UNL A   1       2.859  13.442  45.567  1.00  0.00    +0.000 F 
ATOM     64  C48 UNL A   1       3.700  12.655  43.506  1.00  0.00    +0.000 C 
ENDBRANCH   56   57
BRANCH   71   72
ATOM     72  C53 UNL A   1      -0.323  12.687  37.745  1.00  0.00    +0.000 C 
ATOM     73  C54 UNL A   1      -1.323  13.556  38.213  1.00  0.00    +0.000 C 
ATOM     74  F11 UNL A   1      -1.204  14.130  39.420  1.00  0.00    +0.000 F 
ATOM     75  C55 UNL A   1      -2.418  13.912  37.419  1.00  0.00    +0.000 C 
ATOM     76  F12 UNL A   1      -3.315  14.798  37.873  1.00  0.00    +0.000 F 
ATOM     77  C56 UNL A   1      -2.547  13.402  36.138  1.00  0.00    +0.000 C 
ATOM     78  F13 UNL A   1      -3.558  13.796  35.350  1.00  0.00    +0.000 F 
ATOM     79  C57 UNL A   1      -1.599  12.516  35.660  1.00  0.00    +0.000 C 
ATOM     80  F14 UNL A   1      -1.694  12.046  34.408  1.00  0.00    +0.000 F 
ATOM     81  C58 UNL A   1      -0.505  12.161  36.451  1.00  0.00    +0.000 C 
ATOM     82  F15 UNL A   1       0.428  11.376  35.894  1.00  0.00    +0.000 F 
ENDBRANCH   71   72
TORSDOF 18
ENDMDL
MODEL 4
REMARK VINA RESULT:      -9.2     40.923     45.053
ROOT
ATOM    129  H36 UNL A   1       1.598  14.746  36.630  1.00  0.00    +0.000 H 
ATOM    130  H37 UNL A   1       3.784  15.369  37.844  1.00  0.00    +0.000 H 
ATOM    131  H38 UNL A   1       6.188   9.948  38.000  1.00  0.00    +0.000 H 
ATOM    132  H39 UNL A   1       3.744   9.205  38.372  1.00  0.00    +0.000 H 
ATOM     35  C29 UNL A   1       2.490  10.636  40.533  1.00  0.00    +0.000 C 
ATOM     36  C30 UNL A   1       3.805  10.892  39.891  1.00  0.00    +0.000 C 
ATOM     37  N5  UNL A   1       4.701  11.749  40.254  1.00  0.00    +0.000 N 
ATOM     38  C31 UNL A   1       5.723  11.648  39.313  1.00  0.00    +0.000 C 
ATOM     39  C32 UNL A   1       6.492  12.732  39.015  1.00  0.00    +0.000 C 
ATOM     51  C39 UNL A   1       6.340  13.753  40.024  1.00  0.00    +0.000 C 
ATOM     52  C40 UNL A   1       6.611  13.861  41.371  1.00  0.00    +0.000 C 
ATOM     53  C41 UNL A   1       5.558  14.667  41.904  1.00  0.00    +0.000 C 
ATOM     54  C42 UNL A   1       4.737  15.070  40.850  1.00  0.00    +0.000 C 
ATOM     55  N6  UNL A   1       5.454  14.756  39.729  1.00  0.00    +0.000 N 
ATOM     56  C43 UNL A   1       3.384  15.579  40.803  1.00  0.00    +0.000 C 
ATOM     68  C50 UNL A   1       2.597  15.623  39.687  1.00  0.00    +0.000 C 
ATOM     69  N7  UNL A   1       1.216  15.625  39.807  1.00  0.00    +0.000 N 
ATOM     70  C51 UNL A   1       0.791  15.038  38.722  1.00  0.00    +0.000 C 
ATOM     71  C52 UNL A   1      -0.361  14.107  38.697  1.00  0.00    +0.000 C 
ATOM     83  C59 UNL A   1       0.011  13.018  39.415  1.00  0.00    +0.000 C 
ATOM     84  C60 UNL A   1      -0.804  12.003  40.041  1.00  0.00    +0.000 C 
ATOM     85  C61 UNL A   1       0.012  11.141  40.677  1.00  0.00    +0.000 C 
ATOM     86  C62 UNL A   1       1.412  11.432  40.341  1.00  0.00    +0.000 C 
ATOM     87  N8  UNL A   1       1.346  12.637  39.677  1.00  0.00    +0.000 N 
ATOM     88  C63 UNL A   1       1.739  14.981  37.625  1.00  0.00    +0.000 C 
ATOM     89  C64 UNL A   1       2.851  15.323  38.281  1.00  0.00    +0.000 C 
ATOM     90  C65 UNL A   1       5.493  10.421  38.600  1.00  0.00    +0.000 C 
ATOM     91  C66 UNL A   1       4.253   9.980  38.825  1.00  0.00    +0.000 C 
ATOM    123  H30 UNL A   1       7.405  13.447  41.886  1.00  0.00    +0.000 H 
ATOM    124  H31 UNL A   1       5.427  14.908  42.899  1.00  0.00    +0.000 H 
ATOM    125  H32 UNL A   1       5.349  15.185  38.848  1.00  0.00    +0.000 H 
ATOM    126  H33 UNL A   1      -1.834  11.947  40.005  1.00  0.00    +0.000 H 
ATOM    127  H34 UNL A   1      -0.300  10.387  41.309  1.00  0.00    +0.000 H 
ATOM    128  H35 UNL A   1       2.133  13.168  39.417  1.00  0.00    +0.000 H 
ENDROOT
BRANCH   35   34
ATOM     33  C27 UNL A   1       2.585   8.136  40.471  1.00  0.00    +0.000 C 
ATOM     34  C28 UNL A   1       2.388   9.332  41.179  1.00  0.00    +0.000 C 
ATOM    133  H40 UNL A   1       1.723  10.190  42.985  1.00  0.00    +0.000 H 
ATOM    134  H41 UNL A   1       1.853   8.102  44.201  1.00  0.00    +0.000 H 
ATOM    121  H28 UNL A   1       2.411   6.031  40.587  1.00  0.00    +0.000 H 
ATOM    122  H29 UNL A   1       2.915   8.156  39.493  1.00  0.00    +0.000 H 
ATOM     92  C67 UNL A   1       1.981   9.313  42.506  1.00  0.00    +0.000 C 
ATOM     93  C68 UNL A   1       1.923   8.120  43.170  1.00  0.00    +0.000 C 
ATOM     31  C25 UNL A   1       1.958   6.930  42.452  1.00  0.00    +0.000 C 
ATOM     32  C26 UNL A   1       2.329   6.920  41.103  1.00  0.00    +0.000 C 
BRANCH   31   29
ATOM     29  C24 UNL A   1       1.540   5.706  43.158  1.00  0.00    +0.000 C 
ATOM     30  O2  UNL A   1       1.946   5.476  44.294  1.00  0.00    +0.000 O 
BRANCH   29   28
ATOM     28  N4  UNL A   1       0.682   4.831  42.515  1.00  0.00    +0.000 N 
ATOM    120  H27 UNL A   1       1.084   4.031  42.106  1.00  0.00    +0.000 H 
BRANCH   28   27
ATOM     27  C23 UNL A   1      -0.771   4.983  42.383  1.00  0.00    +0.000 C 
ATOM    118  H25 UNL A   1      -1.182   4.049  42.060  1.00  0.00    +0.000 H 
ATOM    119  H26 UNL A   1      -1.149   5.277  43.340  1.00  0.00    +0.000 H 
BRANCH   27   26
ATOM     26  C22 UNL A   1      -1.172   6.060  41.386  1.00  0.00    +0.000 C 
ATOM    116  H23 UNL A   1      -1.980   6.619  41.807  1.00  0.00    +0.000 H 
ATOM    117  H24 UNL A   1      -0.297   6.650  41.211  1.00  0.00    +0.000 H 
BRANCH   26   25
ATOM     25  C21 UNL A   1      -1.619   5.530  40.017  1.00  0.00    +0.000 C 
ATOM    114  H21 UNL A   1      -0.737   5.293  39.459  1.00  0.00    +0.000 H 
ATOM    115  H22 UNL A   1      -2.252   4.696  40.234  1.00  0.00    +0.000 H 
BRANCH   25   24
ATOM    113  H20 UNL A   1      -1.799   7.201  38.771  1.00  0.00    +0.000 H 
ATOM    112  H19 UNL A   1      -3.253   6.862  39.776  1.00  0.00    +0.000 H 
ATOM     24  C20 UNL A   1      -2.477   6.467  39.154  1.00  0.00    +0.000 C 
BRANCH   24   23
ATOM    111  H18 UNL A   1      -4.158   6.169  37.927  1.00  0.00    +0.000 H 
ATOM    110  H17 UNL A   1      -3.037   4.779  37.990  1.00  0.00    +0.000 H 
ATOM     23  C19 UNL A   1      -3.139   5.843  37.920  1.00  0.00    +0.000 C 
BRANCH   23   22
ATOM    108  H15 UNL A   1      -3.286   6.865  36.064  1.00  0.00    +0.000 H 
ATOM    109  H16 UNL A   1      -1.675   6.867  36.799  1.00  0.00    +0.000 H 
ATOM     22  C18 UNL A   1      -2.551   6.290  36.588  1.00  0.00    +0.000 C 
BRANCH   22   21
ATOM    107  H14 UNL A   1      -2.765   4.856  35.050  1.00  0.00    +0.000 H 
ATOM     21  N3  UNL A   1      -2.150   5.174  35.750  1.00  0.00    +0.000 N 
BRANCH   21    2
ATOM      1  O1  UNL A   1      -0.744   3.663  36.742  1.00  0.00    +0.000 O 
ATOM      2  C1  UNL A   1      -0.929   4.548  35.908  1.00  0.00    +0.000 C 
BRANCH    2    3
ATOM      3  C2  UNL A   1       0.212   5.071  35.061  1.00  0.00    +0.000 C 
ATOM     94  H1  UNL A   1       0.022   6.104  34.852  1.00  0.00    +0.000 H 
ATOM     95  H2  UNL A   1       0.238   4.456  34.186  1.00  0.00    +0.000 H 
BRANCH    3    4
ATOM      4  N1  UNL A   1       1.532   4.968  35.664  1.00  0.00    +0.000 N 
ATOM      5  C3  UNL A   1       2.355   3.883  35.503  1.00  0.00    +0.000 C 
ATOM      6  N2  UNL A   1       3.530   4.074  36.053  1.00  0.00    +0.000 N 
ATOM      7  C4  UNL A   1       3.471   5.334  36.592  1.00  0.00    +0.000 C 
ATOM     14  C11 UNL A   1       2.238   5.931  36.361  1.00  0.00    +0.000 C 
ATOM     96  H3  UNL A   1       2.081   3.019  35.008  1.00  0.00    +0.000 H 
BRANCH    7    8
ATOM     97  H4  UNL A   1       4.017   5.283  39.200  1.00  0.00    +0.000 H 
ATOM     98  H5  UNL A   1       5.964   6.192  40.329  1.00  0.00    +0.000 H 
ATOM     99  H6  UNL A   1       7.640   7.415  39.070  1.00  0.00    +0.000 H 
ATOM    100  H7  UNL A   1       7.360   7.752  36.684  1.00  0.00    +0.000 H 
ATOM    101  H8  UNL A   1       5.426   6.831  35.550  1.00  0.00    +0.000 H 
ATOM      8  C5  UNL A   1       4.583   5.960  37.281  1.00  0.00    +0.000 C 
ATOM      9  C6  UNL A   1       4.733   5.795  38.661  1.00  0.00    +0.000 C 
ATOM     10  C7  UNL A   1       5.850   6.324  39.312  1.00  0.00    +0.000 C 
ATOM     11  C8  UNL A   1       6.811   7.031  38.589  1.00  0.00    +0.000 C 
ATOM     12  C9  UNL A   1       6.654   7.220  37.217  1.00  0.00    +0.000 C 
ATOM     13  C10 UNL A   1       5.542   6.687  36.565  1.00  0.00    +0.000 C 
ENDBRANCH    7    8
BRANCH   14   15
ATOM    102  H9  UNL A   1       0.304   6.624  38.075  1.00  0.00    +0.000 H 
ATOM    103  H10 UNL A   1      -0.576   8.839  38.525  1.00  0.00    +0.000 H 
ATOM    104  H11 UNL A   1       0.412  10.781  37.460  1.00  0.00    +0.000 H 
ATOM    105  H12 UNL A   1       2.235  10.501  35.886  1.00  0.00    +0.000 H 
ATOM    106  H13 UNL A   1       3.044   8.280  35.358  1.00  0.00    +0.000 H 
ATOM     15  C12 UNL A   1       1.775   7.274  36.705  1.00  0.00    +0.000 C 
ATOM     16  C13 UNL A   1       0.716   7.445  37.605  1.00  0.00    +0.000 C 
ATOM     17  C14 UNL A   1       0.212   8.722  37.869  1.00  0.00    +0.000 C 
ATOM     18  C15 UNL A   1       0.771   9.838  37.249  1.00  0.00    +0.000 C 
ATOM     19  C16 UNL A   1       1.816   9.676  36.344  1.00  0.00    +0.000 C 
ATOM     20  C17 UNL A   1       2.295   8.398  36.058  1.00  0.00    +0.000 C 
ENDBRANCH   14   15
ENDBRANCH    3    4
ENDBRANCH    2    3
ENDBRANCH   21    2
ENDBRANCH   22   21
ENDBRANCH   23   22
ENDBRANCH   24   23
ENDBRANCH   25   24
ENDBRANCH   26   25
ENDBRANCH   27   26
ENDBRANCH   28   27
ENDBRANCH   29   28
ENDBRANCH   31   29
ENDBRANCH   35   34
BRANCH   39   40
ATOM     40  C33 UNL A   1       7.003  13.072  37.627  1.00  0.00    +0.000 C 
ATOM     41  C34 UNL A   1       8.316  13.574  37.494  1.00  0.00    +0.000 C 
ATOM     42  F1  UNL A   1       9.187  13.487  38.510  1.00  0.00    +0.000 F 
ATOM     43  C35 UNL A   1       8.734  14.269  36.355  1.00  0.00    +0.000 C 
ATOM     44  F2  UNL A   1       9.943  14.845  36.332  1.00  0.00    +0.000 F 
ATOM     45  C36 UNL A   1       7.881  14.431  35.281  1.00  0.00    +0.000 C 
ATOM     46  F3  UNL A   1       8.254  15.152  34.215  1.00  0.00    +0.000 F 
ATOM     47  C37 UNL A   1       6.618  13.885  35.337  1.00  0.00    +0.000 C 
ATOM     48  F4  UNL A   1       5.768  14.049  34.312  1.00  0.00    +0.000 F 
ATOM     49  C38 UNL A   1       6.179  13.237  36.492  1.00  0.00    +0.000 C 
ATOM     50  F5  UNL A   1       4.890  12.887  36.480  1.00  0.00    +0.000 F 
ENDBRANCH   39   40
BRANCH   56   57
ATOM     65  F9  UNL A   1       2.522  18.826  44.294  1.00  0.00    +0.000 F 
ATOM     66  C49 UNL A   1       2.833  17.216  42.594  1.00  0.00    +0.000 C 
ATOM     67  F10 UNL A   1       3.432  18.154  41.843  1.00  0.00    +0.000 F 
ATOM     57  C44 UNL A   1       2.735  15.900  42.122  1.00  0.00    +0.000 C 
ATOM     58  C45 UNL A   1       2.141  14.951  42.973  1.00  0.00    +0.000 C 
ATOM     59  F6  UNL A   1       2.089  13.658  42.629  1.00  0.00    +0.000 F 
ATOM     60  C46 UNL A   1       1.635  15.317  44.220  1.00  0.00    +0.000 C 
ATOM     61  F7  UNL A   1       1.057  14.398  45.009  1.00  0.00    +0.000 F 
ATOM     62  C47 UNL A   1       1.754  16.625  44.663  1.00  0.00    +0.000 C 
ATOM     63  F8  UNL A   1       1.304  16.969  45.877  1.00  0.00    +0.000 F 
ATOM     64  C48 UNL A   1       2.362  17.571  43.853  1.00  0.00    +0.000 C 
ENDBRANCH   56   57
BRANCH   71   72
ATOM     72  C53 UNL A   1      -1.492  14.270  37.756  1.00  0.00    +0.000 C 
ATOM     73  C54 UNL A   1      -1.598  13.471  36.605  1.00  0.00    +0.000 C 
ATOM     74  F11 UNL A   1      -0.559  12.722  36.208  1.00  0.00    +0.000 F 
ATOM     75  C55 UNL A   1      -2.797  13.368  35.890  1.00  0.00    +0.000 C 
ATOM     76  F12 UNL A   1      -2.880  12.542  34.838  1.00  0.00    +0.000 F 
ATOM     77  C56 UNL A   1      -3.919  14.067  36.303  1.00  0.00    +0.000 C 
ATOM     78  F13 UNL A   1      -5.086  13.915  35.661  1.00  0.00    +0.000 F 
ATOM     79  C57 UNL A   1      -3.837  14.890  37.412  1.00  0.00    +0.000 C 
ATOM     80  F14 UNL A   1      -4.927  15.542  37.842  1.00  0.00    +0.000 F 
ATOM     81  C58 UNL A   1      -2.643  14.993  38.127  1.00  0.00    +0.000 C 
ATOM     82  F15 UNL A   1      -2.658  15.730  39.246  1.00  0.00    +0.000 F 
ENDBRANCH   71   72
TORSDOF 18
ENDMDL
MODEL 5
REMARK VINA RESULT:      -9.1     18.222     24.740
ROOT
ATOM    129  H36 UNL A   1      44.669   9.554  46.727  1.00  0.00    +0.000 H 
ATOM    130  H37 UNL A   1      46.320   9.247  48.683  1.00  0.00    +0.000 H 
ATOM    131  H38 UNL A   1      42.336   9.067  53.074  1.00  0.00    +0.000 H 
ATOM    132  H39 UNL A   1      41.121  10.834  51.637  1.00  0.00    +0.000 H 
ATOM     35  C29 UNL A   1      42.848  13.023  50.917  1.00  0.00    +0.000 C 
ATOM     36  C30 UNL A   1      43.204  11.737  51.569  1.00  0.00    +0.000 C 
ATOM     37  N5  UNL A   1      44.354  11.390  52.044  1.00  0.00    +0.000 N 
ATOM     38  C31 UNL A   1      44.198  10.083  52.498  1.00  0.00    +0.000 C 
ATOM     39  C32 UNL A   1      45.253   9.222  52.493  1.00  0.00    +0.000 C 
ATOM     51  C39 UNL A   1      46.494   9.944  52.340  1.00  0.00    +0.000 C 
ATOM     52  C40 UNL A   1      47.190  10.882  53.074  1.00  0.00    +0.000 C 
ATOM     53  C41 UNL A   1      47.796  11.741  52.106  1.00  0.00    +0.000 C 
ATOM     54  C42 UNL A   1      47.501  11.249  50.835  1.00  0.00    +0.000 C 
ATOM     55  N6  UNL A   1      47.000   9.999  51.068  1.00  0.00    +0.000 N 
ATOM     56  C43 UNL A   1      47.536  11.851  49.520  1.00  0.00    +0.000 C 
ATOM     68  C50 UNL A   1      46.913  11.356  48.409  1.00  0.00    +0.000 C 
ATOM     69  N7  UNL A   1      46.561  12.204  47.370  1.00  0.00    +0.000 N 
ATOM     70  C51 UNL A   1      45.503  11.652  46.842  1.00  0.00    +0.000 C 
ATOM     71  C52 UNL A   1      44.344  12.427  46.341  1.00  0.00    +0.000 C 
ATOM     83  C59 UNL A   1      43.778  13.014  47.424  1.00  0.00    +0.000 C 
ATOM     84  C60 UNL A   1      42.897  14.156  47.500  1.00  0.00    +0.000 C 
ATOM     85  C61 UNL A   1      42.627  14.393  48.799  1.00  0.00    +0.000 C 
ATOM     86  C62 UNL A   1      43.157  13.304  49.630  1.00  0.00    +0.000 C 
ATOM     87  N8  UNL A   1      43.934  12.575  48.758  1.00  0.00    +0.000 N 
ATOM     88  C63 UNL A   1      45.302  10.249  47.153  1.00  0.00    +0.000 C 
ATOM     89  C64 UNL A   1      46.179  10.121  48.152  1.00  0.00    +0.000 C 
ATOM     90  C65 UNL A   1      42.781   9.848  52.567  1.00  0.00    +0.000 C 
ATOM     91  C66 UNL A   1      42.122  10.787  51.882  1.00  0.00    +0.000 C 
ATOM    123  H30 UNL A   1      47.258  10.949  54.102  1.00  0.00    +0.000 H 
ATOM    124  H31 UNL A   1      48.355  12.583  52.314  1.00  0.00    +0.000 H 
ATOM    125  H32 UNL A   1      47.002   9.255  50.422  1.00  0.00    +0.000 H 
ATOM    126  H33 UNL A   1      42.535  14.696  46.699  1.00  0.00    +0.000 H 
ATOM    127  H34 UNL A   1      42.122  15.219  49.157  1.00  0.00    +0.000 H 
ATOM    128  H35 UNL A   1      44.526  11.837  49.030  1.00  0.00    +0.000 H 
ENDROOT
BRANCH   35   34
ATOM     33  C27 UNL A   1      40.537  13.776  51.517  1.00  0.00    +0.000 C 
ATOM     34  C28 UNL A   1      41.928  13.848  51.694  1.00  0.00    +0.000 C 
ATOM    133  H40 UNL A   1      43.511  14.917  52.582  1.00  0.00    +0.000 H 
ATOM    134  H41 UNL A   1      42.059  16.077  54.131  1.00  0.00    +0.000 H 
ATOM    121  H28 UNL A   1      38.700  14.695  52.019  1.00  0.00    +0.000 H 
ATOM    122  H29 UNL A   1      40.126  13.055  50.904  1.00  0.00    +0.000 H 
ATOM     92  C67 UNL A   1      42.488  14.790  52.546  1.00  0.00    +0.000 C 
ATOM     93  C68 UNL A   1      41.669  15.548  53.335  1.00  0.00    +0.000 C 
ATOM     31  C25 UNL A   1      40.307  15.603  53.060  1.00  0.00    +0.000 C 
ATOM     32  C26 UNL A   1      39.719  14.691  52.178  1.00  0.00    +0.000 C 
BRANCH   31   29
ATOM     29  C24 UNL A   1      39.537  16.687  53.694  1.00  0.00    +0.000 C 
ATOM     30  O2  UNL A   1      39.443  16.747  54.917  1.00  0.00    +0.000 O 
BRANCH   29   28
ATOM     28  N4  UNL A   1      38.930  17.630  52.883  1.00  0.00    +0.000 N 
ATOM    120  H27 UNL A   1      37.946  17.653  52.885  1.00  0.00    +0.000 H 
BRANCH   28   27
ATOM     27  C23 UNL A   1      39.613  18.598  52.019  1.00  0.00    +0.000 C 
ATOM    118  H25 UNL A   1      39.240  19.576  52.244  1.00  0.00    +0.000 H 
ATOM    119  H26 UNL A   1      40.662  18.514  52.213  1.00  0.00    +0.000 H 
BRANCH   27   26
ATOM     26  C22 UNL A   1      39.403  18.329  50.536  1.00  0.00    +0.000 C 
ATOM    116  H23 UNL A   1      38.488  17.788  50.422  1.00  0.00    +0.000 H 
ATOM    117  H24 UNL A   1      39.391  19.284  50.054  1.00  0.00    +0.000 H 
BRANCH   26   25
ATOM     25  C21 UNL A   1      40.523  17.520  49.867  1.00  0.00    +0.000 C 
ATOM    114  H21 UNL A   1      40.267  16.484  49.950  1.00  0.00    +0.000 H 
ATOM    115  H22 UNL A   1      40.576  17.893  48.866  1.00  0.00    +0.000 H 
BRANCH   25   24
ATOM    113  H20 UNL A   1      42.216  16.733  50.811  1.00  0.00    +0.000 H 
ATOM    112  H19 UNL A   1      41.902  18.468  51.172  1.00  0.00    +0.000 H 
ATOM     24  C20 UNL A   1      41.940  17.695  50.433  1.00  0.00    +0.000 C 
BRANCH   24   23
ATOM    111  H18 UNL A   1      42.739  18.994  48.986  1.00  0.00    +0.000 H 
ATOM    110  H17 UNL A   1      43.118  17.269  48.716  1.00  0.00    +0.000 H 
ATOM     23  C19 UNL A   1      43.035  18.065  49.427  1.00  0.00    +0.000 C 
BRANCH   23   22
ATOM    108  H15 UNL A   1      44.310  18.322  51.105  1.00  0.00    +0.000 H 
ATOM    109  H16 UNL A   1      45.046  17.500  49.720  1.00  0.00    +0.000 H 
ATOM     22  C18 UNL A   1      44.410  18.299  50.040  1.00  0.00    +0.000 C 
BRANCH   22   21
ATOM    107  H14 UNL A   1      44.894  20.354  50.149  1.00  0.00    +0.000 H 
ATOM     21  N3  UNL A   1      45.015  19.544  49.602  1.00  0.00    +0.000 N 
BRANCH   21    2
ATOM      1  O1  UNL A   1      45.922  20.678  47.832  1.00  0.00    +0.000 O 
ATOM      2  C1  UNL A   1      45.757  19.621  48.440  1.00  0.00    +0.000 C 
BRANCH    2    3
ATOM      3  C2  UNL A   1      46.290  18.314  47.891  1.00  0.00    +0.000 C 
ATOM     94  H1  UNL A   1      45.920  17.522  48.508  1.00  0.00    +0.000 H 
ATOM     95  H2  UNL A   1      47.356  18.401  47.900  1.00  0.00    +0.000 H 
BRANCH    3    4
ATOM      4  N1  UNL A   1      45.921  18.023  46.513  1.00  0.00    +0.000 N 
ATOM      5  C3  UNL A   1      44.625  17.981  46.069  1.00  0.00    +0.000 C 
ATOM      6  N2  UNL A   1      44.558  17.806  44.771  1.00  0.00    +0.000 N 
ATOM      7  C4  UNL A   1      45.862  17.733  44.353  1.00  0.00    +0.000 C 
ATOM     14  C11 UNL A   1      46.747  17.872  45.415  1.00  0.00    +0.000 C 
ATOM     96  H3  UNL A   1      43.801  18.077  46.683  1.00  0.00    +0.000 H 
BRANCH    7    8
ATOM     97  H4  UNL A   1      46.308  19.633  42.538  1.00  0.00    +0.000 H 
ATOM     98  H5  UNL A   1      47.110  19.358  40.264  1.00  0.00    +0.000 H 
ATOM     99  H6  UNL A   1      47.488  17.135  39.368  1.00  0.00    +0.000 H 
ATOM    100  H7  UNL A   1      47.041  15.181  40.736  1.00  0.00    +0.000 H 
ATOM    101  H8  UNL A   1      46.257  15.453  43.014  1.00  0.00    +0.000 H 
ATOM      8  C5  UNL A   1      46.247  17.565  42.965  1.00  0.00    +0.000 C 
ATOM      9  C6  UNL A   1      46.476  18.687  42.162  1.00  0.00    +0.000 C 
ATOM     10  C7  UNL A   1      46.931  18.529  40.851  1.00  0.00    +0.000 C 
ATOM     11  C8  UNL A   1      47.144  17.250  40.334  1.00  0.00    +0.000 C 
ATOM     12  C9  UNL A   1      46.894  16.128  41.122  1.00  0.00    +0.000 C 
ATOM     13  C10 UNL A   1      46.444  16.285  42.434  1.00  0.00    +0.000 C 
ENDBRANCH    7    8
BRANCH   14   15
ATOM    102  H9  UNL A   1      48.458  15.979  46.219  1.00  0.00    +0.000 H 
ATOM    103  H10 UNL A   1      50.876  16.108  46.363  1.00  0.00    +0.000 H 
ATOM    104  H11 UNL A   1      52.038  18.093  45.594  1.00  0.00    +0.000 H 
ATOM    105  H12 UNL A   1      50.774  19.981  44.745  1.00  0.00    +0.000 H 
ATOM    106  H13 UNL A   1      48.355  19.891  44.698  1.00  0.00    +0.000 H 
ATOM     15  C12 UNL A   1      48.208  17.914  45.410  1.00  0.00    +0.000 C 
ATOM     16  C13 UNL A   1      48.946  16.833  45.907  1.00  0.00    +0.000 C 
ATOM     17  C14 UNL A   1      50.340  16.905  45.985  1.00  0.00    +0.000 C 
ATOM     18  C15 UNL A   1      51.008  18.049  45.554  1.00  0.00    +0.000 C 
ATOM     19  C16 UNL A   1      50.282  19.133  45.069  1.00  0.00    +0.000 C 
ATOM     20  C17 UNL A   1      48.890  19.071  45.023  1.00  0.00    +0.000 C 
ENDBRANCH   14   15
ENDBRANCH    3    4
ENDBRANCH    2    3
ENDBRANCH   21    2
ENDBRANCH   22   21
ENDBRANCH   23   22
ENDBRANCH   24   23
ENDBRANCH   25   24
ENDBRANCH   26   25
ENDBRANCH   27   26
ENDBRANCH   28   27
ENDBRANCH   29   28
ENDBRANCH   31   29
ENDBRANCH   35   34
BRANCH   39   40
ATOM     40  C33 UNL A   1      45.160   7.745  52.158  1.00  0.00    +0.000 C 
ATOM     41  C34 UNL A   1      45.594   6.805  53.119  1.00  0.00    +0.000 C 
ATOM     42  F1  UNL A   1      45.811   7.177  54.389  1.00  0.00    +0.000 F 
ATOM     43  C35 UNL A   1      45.914   5.488  52.778  1.00  0.00    +0.000 C 
ATOM     44  F2  UNL A   1      46.452   4.674  53.696  1.00  0.00    +0.000 F 
ATOM     45  C36 UNL A   1      45.751   5.040  51.481  1.00  0.00    +0.000 C 
ATOM     46  F3  UNL A   1      46.119   3.799  51.136  1.00  0.00    +0.000 F 
ATOM     47  C37 UNL A   1      45.253   5.902  50.530  1.00  0.00    +0.000 C 
ATOM     48  F4  UNL A   1      45.106   5.493  49.262  1.00  0.00    +0.000 F 
ATOM     49  C38 UNL A   1      44.982   7.232  50.855  1.00  0.00    +0.000 C 
ATOM     50  F5  UNL A   1      44.650   8.003  49.816  1.00  0.00    +0.000 F 
ENDBRANCH   39   40
BRANCH   56   57
ATOM     65  F9  UNL A   1      51.387  14.598  48.470  1.00  0.00    +0.000 F 
ATOM     66  C49 UNL A   1      49.446  13.329  48.921  1.00  0.00    +0.000 C 
ATOM     67  F10 UNL A   1      50.088  12.232  48.491  1.00  0.00    +0.000 F 
ATOM     57  C44 UNL A   1      48.140  13.226  49.420  1.00  0.00    +0.000 C 
ATOM     58  C45 UNL A   1      47.537  14.401  49.901  1.00  0.00    +0.000 C 
ATOM     59  F6  UNL A   1      46.327  14.368  50.472  1.00  0.00    +0.000 F 
ATOM     60  C46 UNL A   1      48.201  15.627  49.847  1.00  0.00    +0.000 C 
ATOM     61  F7  UNL A   1      47.599  16.739  50.297  1.00  0.00    +0.000 F 
ATOM     62  C47 UNL A   1      49.495  15.697  49.356  1.00  0.00    +0.000 C 
ATOM     63  F8  UNL A   1      50.148  16.866  49.340  1.00  0.00    +0.000 F 
ATOM     64  C48 UNL A   1      50.120  14.546  48.904  1.00  0.00    +0.000 C 
ENDBRANCH   56   57
BRANCH   71   72
ATOM     72  C53 UNL A   1      43.794  12.240  44.979  1.00  0.00    +0.000 C 
ATOM     73  C54 UNL A   1      43.100  11.069  44.633  1.00  0.00    +0.000 C 
ATOM     74  F11 UNL A   1      43.135  10.001  45.445  1.00  0.00    +0.000 F 
ATOM     75  C55 UNL A   1      42.296  11.001  43.490  1.00  0.00    +0.000 C 
ATOM     76  F12 UNL A   1      41.594   9.889  43.230  1.00  0.00    +0.000 F 
ATOM     77  C56 UNL A   1      42.170  12.101  42.658  1.00  0.00    +0.000 C 
ATOM     78  F13 UNL A   1      41.346  12.062  41.602  1.00  0.00    +0.000 F 
ATOM     79  C57 UNL A   1      42.869  13.258  42.951  1.00  0.00    +0.000 C 
ATOM     80  F14 UNL A   1      42.725  14.341  42.174  1.00  0.00    +0.000 F 
ATOM     81  C58 UNL A   1      43.670  13.327  44.093  1.00  0.00    +0.000 C 
ATOM     82  F15 UNL A   1      44.242  14.507  44.372  1.00  0.00    +0.000 F 
ENDBRANCH   71   72
TORSDOF 18
ENDMDL
MODEL 6
REMARK VINA RESULT:      -9.1      1.287      2.433
ROOT
ATOM    129  H36 UNL A   1      43.894  24.759  29.644  1.00  0.00    +0.000 H 
ATOM    130  H37 UNL A   1      44.836  26.626  31.151  1.00  0.00    +0.000 H 
ATOM    131  H38 UNL A   1      39.788  28.039  33.928  1.00  0.00    +0.000 H 
ATOM    132  H39 UNL A   1      38.738  27.565  31.617  1.00  0.00    +0.000 H 
ATOM     35  C29 UNL A   1      40.052  29.019  29.508  1.00  0.00    +0.000 C 
ATOM     36  C30 UNL A   1      40.461  28.874  30.928  1.00  0.00    +0.000 C 
ATOM     37  N5  UNL A   1      41.440  29.468  31.527  1.00  0.00    +0.000 N 
ATOM     38  C31 UNL A   1      41.449  28.966  32.826  1.00  0.00    +0.000 C 
ATOM     39  C32 UNL A   1      42.615  28.884  33.524  1.00  0.00    +0.000 C 
ATOM     51  C39 UNL A   1      43.636  29.691  32.899  1.00  0.00    +0.000 C 
ATOM     52  C40 UNL A   1      43.818  31.035  32.646  1.00  0.00    +0.000 C 
ATOM     53  C41 UNL A   1      44.492  31.092  31.387  1.00  0.00    +0.000 C 
ATOM     54  C42 UNL A   1      44.752  29.787  30.968  1.00  0.00    +0.000 C 
ATOM     55  N6  UNL A   1      44.504  29.024  32.075  1.00  0.00    +0.000 N 
ATOM     56  C43 UNL A   1      45.076  29.220  29.677  1.00  0.00    +0.000 C 
ATOM     68  C50 UNL A   1      44.983  27.896  29.352  1.00  0.00    +0.000 C 
ATOM     69  N7  UNL A   1      44.806  27.513  28.031  1.00  0.00    +0.000 N 
ATOM     70  C51 UNL A   1      44.136  26.395  28.102  1.00  0.00    +0.000 C 
ATOM     71  C52 UNL A   1      43.060  26.028  27.152  1.00  0.00    +0.000 C 
ATOM     83  C59 UNL A   1      42.051  26.911  27.356  1.00  0.00    +0.000 C 
ATOM     84  C60 UNL A   1      40.956  27.277  26.489  1.00  0.00    +0.000 C 
ATOM     85  C61 UNL A   1      40.228  28.227  27.109  1.00  0.00    +0.000 C 
ATOM     86  C62 UNL A   1      40.693  28.394  28.492  1.00  0.00    +0.000 C 
ATOM     87  N8  UNL A   1      41.858  27.662  28.537  1.00  0.00    +0.000 N 
ATOM     88  C63 UNL A   1      44.174  25.718  29.385  1.00  0.00    +0.000 C 
ATOM     89  C64 UNL A   1      44.679  26.702  30.134  1.00  0.00    +0.000 C 
ATOM     90  C65 UNL A   1      40.182  28.312  33.014  1.00  0.00    +0.000 C 
ATOM     91  C66 UNL A   1      39.587  28.110  31.835  1.00  0.00    +0.000 C 
ATOM    123  H30 UNL A   1      43.527  31.829  33.238  1.00  0.00    +0.000 H 
ATOM    124  H31 UNL A   1      44.742  31.953  30.876  1.00  0.00    +0.000 H 
ATOM    125  H32 UNL A   1      44.889  28.135  32.251  1.00  0.00    +0.000 H 
ATOM    126  H33 UNL A   1      40.763  26.879  25.557  1.00  0.00    +0.000 H 
ATOM    127  H34 UNL A   1      39.458  28.759  26.675  1.00  0.00    +0.000 H 
ATOM    128  H35 UNL A   1      42.482  27.662  29.299  1.00  0.00    +0.000 H 
ENDROOT
BRANCH   35   34
ATOM     33  C27 UNL A   1      37.577  28.956  29.142  1.00  0.00    +0.000 C 
ATOM     34  C28 UNL A   1      38.765  29.681  29.325  1.00  0.00    +0.000 C 
ATOM    133  H40 UNL A   1      39.666  31.584  29.247  1.00  0.00    +0.000 H 
ATOM    134  H41 UNL A   1      37.548  32.754  29.277  1.00  0.00    +0.000 H 
ATOM    121  H28 UNL A   1      35.532  29.125  28.630  1.00  0.00    +0.000 H 
ATOM    122  H29 UNL A   1      37.572  27.929  29.242  1.00  0.00    +0.000 H 
ATOM     92  C67 UNL A   1      38.773  31.066  29.231  1.00  0.00    +0.000 C 
ATOM     93  C68 UNL A   1      37.588  31.735  29.114  1.00  0.00    +0.000 C 
ATOM     31  C25 UNL A   1      36.434  31.037  28.776  1.00  0.00    +0.000 C 
ATOM     32  C26 UNL A   1      36.404  29.639  28.825  1.00  0.00    +0.000 C 
BRANCH   31   29
ATOM     29  C24 UNL A   1      35.279  31.829  28.318  1.00  0.00    +0.000 C 
ATOM     30  O2  UNL A   1      34.566  31.416  27.408  1.00  0.00    +0.000 O 
BRANCH   29   28
ATOM     28  N4  UNL A   1      35.018  33.039  28.938  1.00  0.00    +0.000 N 
ATOM    120  H27 UNL A   1      35.114  33.851  28.389  1.00  0.00    +0.000 H 
BRANCH   28   27
ATOM     27  C23 UNL A   1      34.613  33.228  30.335  1.00  0.00    +0.000 C 
ATOM    118  H25 UNL A   1      33.762  32.608  30.528  1.00  0.00    +0.000 H 
ATOM    119  H26 UNL A   1      35.449  32.963  30.948  1.00  0.00    +0.000 H 
BRANCH   27   26
ATOM     26  C22 UNL A   1      34.248  34.668  30.662  1.00  0.00    +0.000 C 
ATOM    116  H23 UNL A   1      34.903  35.310  30.115  1.00  0.00    +0.000 H 
ATOM    117  H24 UNL A   1      33.219  34.787  30.393  1.00  0.00    +0.000 H 
BRANCH   26   25
ATOM     25  C21 UNL A   1      34.352  35.032  32.149  1.00  0.00    +0.000 C 
ATOM    114  H21 UNL A   1      34.265  36.096  32.228  1.00  0.00    +0.000 H 
ATOM    115  H22 UNL A   1      33.570  34.480  32.627  1.00  0.00    +0.000 H 
BRANCH   25   24
ATOM    113  H20 UNL A   1      35.984  35.500  33.372  1.00  0.00    +0.000 H 
ATOM    112  H19 UNL A   1      36.313  34.221  32.149  1.00  0.00    +0.000 H 
ATOM     24  C20 UNL A   1      35.638  34.616  32.880  1.00  0.00    +0.000 C 
BRANCH   24   23
ATOM    111  H18 UNL A   1      35.493  32.613  33.504  1.00  0.00    +0.000 H 
ATOM    110  H17 UNL A   1      34.570  33.766  34.509  1.00  0.00    +0.000 H 
ATOM     23  C19 UNL A   1      35.484  33.568  33.987  1.00  0.00    +0.000 C 
BRANCH   23   22
ATOM    108  H15 UNL A   1      37.347  34.276  34.720  1.00  0.00    +0.000 H 
ATOM    109  H16 UNL A   1      36.195  33.765  35.963  1.00  0.00    +0.000 H 
ATOM     22  C18 UNL A   1      36.617  33.547  35.005  1.00  0.00    +0.000 C 
BRANCH   22   21
ATOM    107  H14 UNL A   1      37.173  31.616  34.349  1.00  0.00    +0.000 H 
ATOM     21  N3  UNL A   1      37.266  32.251  35.096  1.00  0.00    +0.000 N 
BRANCH   21    2
ATOM      1  O1  UNL A   1      38.152  30.714  36.543  1.00  0.00    +0.000 O 
ATOM      2  C1  UNL A   1      38.010  31.887  36.201  1.00  0.00    +0.000 C 
BRANCH    2    3
ATOM      3  C2  UNL A   1      38.576  33.017  37.035  1.00  0.00    +0.000 C 
ATOM     94  H1  UNL A   1      38.243  32.882  38.043  1.00  0.00    +0.000 H 
ATOM     95  H2  UNL A   1      38.223  33.922  36.587  1.00  0.00    +0.000 H 
BRANCH    3    4
ATOM      4  N1  UNL A   1      40.028  33.114  37.049  1.00  0.00    +0.000 N 
ATOM      5  C3  UNL A   1      40.787  32.948  38.179  1.00  0.00    +0.000 C 
ATOM      6  N2  UNL A   1      42.070  32.975  37.914  1.00  0.00    +0.000 N 
ATOM      7  C4  UNL A   1      42.152  33.163  36.558  1.00  0.00    +0.000 C 
ATOM     14  C11 UNL A   1      40.891  33.247  35.978  1.00  0.00    +0.000 C 
ATOM     96  H3  UNL A   1      40.394  32.817  39.124  1.00  0.00    +0.000 H 
BRANCH    7    8
ATOM     97  H4  UNL A   1      42.886  34.941  34.713  1.00  0.00    +0.000 H 
ATOM     98  H5  UNL A   1      45.045  35.147  33.623  1.00  0.00    +0.000 H 
ATOM     99  H6  UNL A   1      46.803  33.541  34.093  1.00  0.00    +0.000 H 
ATOM    100  H7  UNL A   1      46.398  31.713  35.635  1.00  0.00    +0.000 H 
ATOM    101  H8  UNL A   1      44.248  31.515  36.739  1.00  0.00    +0.000 H 
ATOM      8  C5  UNL A   1      43.406  33.229  35.834  1.00  0.00    +0.000 C 
ATOM      9  C6  UNL A   1      43.634  34.262  34.920  1.00  0.00    +0.000 C 
ATOM     10  C7  UNL A   1      44.875  34.377  34.288  1.00  0.00    +0.000 C 
ATOM     11  C8  UNL A   1      45.884  33.451  34.555  1.00  0.00    +0.000 C 
ATOM     12  C9  UNL A   1      45.654  32.404  35.446  1.00  0.00    +0.000 C 
ATOM     13  C10 UNL A   1      44.417  32.292  36.082  1.00  0.00    +0.000 C 
ENDBRANCH    7    8
BRANCH   14   15
ATOM    102  H9  UNL A   1      39.904  35.398  34.731  1.00  0.00    +0.000 H 
ATOM    103  H10 UNL A   1      39.138  35.580  32.437  1.00  0.00    +0.000 H 
ATOM    104  H11 UNL A   1      39.354  33.694  30.927  1.00  0.00    +0.000 H 
ATOM    105  H12 UNL A   1      40.272  31.599  31.734  1.00  0.00    +0.000 H 
ATOM    106  H13 UNL A   1      40.940  31.387  34.051  1.00  0.00    +0.000 H 
ATOM     15  C12 UNL A   1      40.522  33.385  34.570  1.00  0.00    +0.000 C 
ATOM     16  C13 UNL A   1      39.981  34.587  34.098  1.00  0.00    +0.000 C 
ATOM     17  C14 UNL A   1      39.545  34.694  32.774  1.00  0.00    +0.000 C 
ATOM     18  C15 UNL A   1      39.658  33.607  31.909  1.00  0.00    +0.000 C 
ATOM     19  C16 UNL A   1      40.182  32.405  32.373  1.00  0.00    +0.000 C 
ATOM     20  C17 UNL A   1      40.587  32.291  33.703  1.00  0.00    +0.000 C 
ENDBRANCH   14   15
ENDBRANCH    3    4
ENDBRANCH    2    3
ENDBRANCH   21    2
ENDBRANCH   22   21
ENDBRANCH   23   22
ENDBRANCH   24   23
ENDBRANCH   25   24
ENDBRANCH   26   25
ENDBRANCH   27   26
ENDBRANCH   28   27
ENDBRANCH   29   28
ENDBRANCH   31   29
ENDBRANCH   35   34
BRANCH   39   40
ATOM     40  C33 UNL A   1      42.981  27.749  34.464  1.00  0.00    +0.000 C 
ATOM     41  C34 UNL A   1      43.245  28.053  35.818  1.00  0.00    +0.000 C 
ATOM     42  F1  UNL A   1      42.910  29.246  36.329  1.00  0.00    +0.000 F 
ATOM     43  C35 UNL A   1      43.952  27.179  36.649  1.00  0.00    +0.000 C 
ATOM     44  F2  UNL A   1      44.298  27.568  37.884  1.00  0.00    +0.000 F 
ATOM     45  C36 UNL A   1      44.362  25.945  36.183  1.00  0.00    +0.000 C 
ATOM     46  F3  UNL A   1      45.096  25.132  36.956  1.00  0.00    +0.000 F 
ATOM     47  C37 UNL A   1      44.052  25.577  34.893  1.00  0.00    +0.000 C 
ATOM     48  F4  UNL A   1      44.459  24.392  34.416  1.00  0.00    +0.000 F 
ATOM     49  C38 UNL A   1      43.394  26.466  34.044  1.00  0.00    +0.000 C 
ATOM     50  F5  UNL A   1      43.286  26.053  32.778  1.00  0.00    +0.000 F 
ENDBRANCH   39   40
BRANCH   56   57
ATOM     65  F9  UNL A   1      48.268  31.962  27.275  1.00  0.00    +0.000 F 
ATOM     66  C49 UNL A   1      46.673  30.589  28.347  1.00  0.00    +0.000 C 
ATOM     67  F10 UNL A   1      47.658  30.055  29.086  1.00  0.00    +0.000 F 
ATOM     57  C44 UNL A   1      45.345  30.191  28.560  1.00  0.00    +0.000 C 
ATOM     58  C45 UNL A   1      44.352  30.820  27.789  1.00  0.00    +0.000 C 
ATOM     59  F6  UNL A   1      43.055  30.557  27.994  1.00  0.00    +0.000 F 
ATOM     60  C46 UNL A   1      44.681  31.773  26.826  1.00  0.00    +0.000 C 
ATOM     61  F7  UNL A   1      43.717  32.349  26.091  1.00  0.00    +0.000 F 
ATOM     62  C47 UNL A   1      46.001  32.153  26.645  1.00  0.00    +0.000 C 
ATOM     63  F8  UNL A   1      46.315  33.097  25.748  1.00  0.00    +0.000 F 
ATOM     64  C48 UNL A   1      46.995  31.567  27.413  1.00  0.00    +0.000 C 
ENDBRANCH   56   57
BRANCH   71   72
ATOM     72  C53 UNL A   1      43.045  24.735  26.431  1.00  0.00    +0.000 C 
ATOM     73  C54 UNL A   1      43.824  24.540  25.278  1.00  0.00    +0.000 C 
ATOM     74  F11 UNL A   1      44.401  25.588  24.671  1.00  0.00    +0.000 F 
ATOM     75  C55 UNL A   1      44.089  23.261  24.778  1.00  0.00    +0.000 C 
ATOM     76  F12 UNL A   1      44.893  23.110  23.716  1.00  0.00    +0.000 F 
ATOM     77  C56 UNL A   1      43.575  22.142  25.412  1.00  0.00    +0.000 C 
ATOM     78  F13 UNL A   1      43.885  20.913  24.976  1.00  0.00    +0.000 F 
ATOM     79  C57 UNL A   1      42.775  22.302  26.529  1.00  0.00    +0.000 C 
ATOM     80  F14 UNL A   1      42.304  21.225  27.174  1.00  0.00    +0.000 F 
ATOM     81  C58 UNL A   1      42.512  23.578  27.031  1.00  0.00    +0.000 C 
ATOM     82  F15 UNL A   1      41.811  23.658  28.170  1.00  0.00    +0.000 F 
ENDBRANCH   71   72
TORSDOF 18
ENDMDL
MODEL 7
REMARK VINA RESULT:      -9.1     37.726     43.312
ROOT
ATOM    129  H36 UNL A   1       8.203  30.331   0.305  1.00  0.00    +0.000 H 
ATOM    130  H37 UNL A   1       9.367  32.121  -1.139  1.00  0.00    +0.000 H 
ATOM    131  H38 UNL A   1      10.325  28.775  -5.942  1.00  0.00    +0.000 H 
ATOM    132  H39 UNL A   1      10.741  26.920  -4.195  1.00  0.00    +0.000 H 
ATOM     35  C29 UNL A   1      12.655  27.719  -2.198  1.00  0.00    +0.000 C 
ATOM     36  C30 UNL A   1      12.014  28.547  -3.251  1.00  0.00    +0.000 C 
ATOM     37  N5  UNL A   1      12.274  29.777  -3.549  1.00  0.00    +0.000 N 
ATOM     38  C31 UNL A   1      11.379  30.119  -4.560  1.00  0.00    +0.000 C 
ATOM     39  C32 UNL A   1      10.952  31.405  -4.694  1.00  0.00    +0.000 C 
ATOM     51  C39 UNL A   1      11.806  32.302  -3.952  1.00  0.00    +0.000 C 
ATOM     52  C40 UNL A   1      13.131  32.678  -4.008  1.00  0.00    +0.000 C 
ATOM     53  C41 UNL A   1      13.523  32.875  -2.648  1.00  0.00    +0.000 C 
ATOM     54  C42 UNL A   1      12.405  32.680  -1.835  1.00  0.00    +0.000 C 
ATOM     55  N6  UNL A   1      11.355  32.665  -2.709  1.00  0.00    +0.000 N 
ATOM     56  C43 UNL A   1      12.258  32.409  -0.422  1.00  0.00    +0.000 C 
ATOM     68  C50 UNL A   1      11.130  31.920   0.174  1.00  0.00    +0.000 C 
ATOM     69  N7  UNL A   1      11.218  31.221   1.367  1.00  0.00    +0.000 N 
ATOM     70  C51 UNL A   1      10.215  30.387   1.334  1.00  0.00    +0.000 C 
ATOM     71  C52 UNL A   1      10.293  28.998   1.843  1.00  0.00    +0.000 C 
ATOM     83  C59 UNL A   1      11.163  28.342   1.035  1.00  0.00    +0.000 C 
ATOM     84  C60 UNL A   1      11.905  27.126   1.273  1.00  0.00    +0.000 C 
ATOM     85  C61 UNL A   1      12.672  26.884   0.192  1.00  0.00    +0.000 C 
ATOM     86  C62 UNL A   1      12.331  27.818  -0.887  1.00  0.00    +0.000 C 
ATOM     87  N8  UNL A   1      11.505  28.736  -0.277  1.00  0.00    +0.000 N 
ATOM     88  C63 UNL A   1       9.158  30.711   0.394  1.00  0.00    +0.000 C 
ATOM     89  C64 UNL A   1       9.785  31.646  -0.325  1.00  0.00    +0.000 C 
ATOM     90  C65 UNL A   1      10.838  28.882  -5.053  1.00  0.00    +0.000 C 
ATOM     91  C66 UNL A   1      11.094  27.890  -4.196  1.00  0.00    +0.000 C 
ATOM    123  H30 UNL A   1      13.716  32.791  -4.851  1.00  0.00    +0.000 H 
ATOM    124  H31 UNL A   1      14.472  33.119  -2.323  1.00  0.00    +0.000 H 
ATOM    125  H32 UNL A   1      10.421  32.880  -2.481  1.00  0.00    +0.000 H 
ATOM    126  H33 UNL A   1      11.854  26.542   2.122  1.00  0.00    +0.000 H 
ATOM    127  H34 UNL A   1      13.395  26.149   0.133  1.00  0.00    +0.000 H 
ATOM    128  H35 UNL A   1      11.192  29.566  -0.704  1.00  0.00    +0.000 H 
ENDROOT
BRANCH   35   34
ATOM     33  C27 UNL A   1      12.901  25.471  -3.271  1.00  0.00    +0.000 C 
ATOM     34  C28 UNL A   1      13.473  26.628  -2.717  1.00  0.00    +0.000 C 
ATOM    133  H40 UNL A   1      15.250  27.527  -2.029  1.00  0.00    +0.000 H 
ATOM    134  H41 UNL A   1      16.673  25.924  -3.151  1.00  0.00    +0.000 H 
ATOM    121  H28 UNL A   1      13.325  23.520  -3.967  1.00  0.00    +0.000 H 
ATOM    122  H29 UNL A   1      11.882  25.414  -3.423  1.00  0.00    +0.000 H 
ATOM     92  C67 UNL A   1      14.847  26.729  -2.544  1.00  0.00    +0.000 C 
ATOM     93  C68 UNL A   1      15.658  25.758  -3.060  1.00  0.00    +0.000 C 
ATOM     31  C25 UNL A   1      15.110  24.546  -3.464  1.00  0.00    +0.000 C 
ATOM     32  C26 UNL A   1      13.727  24.401  -3.612  1.00  0.00    +0.000 C 
BRANCH   31   29
ATOM     29  C24 UNL A   1      16.041  23.424  -3.672  1.00  0.00    +0.000 C 
ATOM     30  O2  UNL A   1      17.241  23.564  -3.450  1.00  0.00    +0.000 O 
BRANCH   29   28
ATOM     28  N4  UNL A   1      15.533  22.215  -4.118  1.00  0.00    +0.000 N 
ATOM    120  H27 UNL A   1      15.432  22.106  -5.091  1.00  0.00    +0.000 H 
BRANCH   28   27
ATOM     27  C23 UNL A   1      15.131  21.082  -3.278  1.00  0.00    +0.000 C 
ATOM    118  H25 UNL A   1      14.075  20.943  -3.378  1.00  0.00    +0.000 H 
ATOM    119  H26 UNL A   1      15.681  20.227  -3.612  1.00  0.00    +0.000 H 
BRANCH   27   26
ATOM     26  C22 UNL A   1      15.457  21.284  -1.806  1.00  0.00    +0.000 C 
ATOM    116  H23 UNL A   1      15.875  20.375  -1.429  1.00  0.00    +0.000 H 
ATOM    117  H24 UNL A   1      16.133  22.112  -1.757  1.00  0.00    +0.000 H 
BRANCH   26   25
ATOM     25  C21 UNL A   1      14.253  21.656  -0.929  1.00  0.00    +0.000 C 
ATOM    114  H21 UNL A   1      13.399  21.733  -1.570  1.00  0.00    +0.000 H 
ATOM    115  H22 UNL A   1      14.195  20.882  -0.193  1.00  0.00    +0.000 H 
BRANCH   25   24
ATOM    113  H20 UNL A   1      14.126  22.694   0.883  1.00  0.00    +0.000 H 
ATOM    112  H19 UNL A   1      13.671  23.664  -0.564  1.00  0.00    +0.000 H 
ATOM     24  C20 UNL A   1      14.352  22.963  -0.128  1.00  0.00    +0.000 C 
BRANCH   24   23
ATOM    111  H18 UNL A   1      15.620  24.510   0.518  1.00  0.00    +0.000 H 
ATOM    110  H17 UNL A   1      16.045  23.828  -1.078  1.00  0.00    +0.000 H 
ATOM     23  C19 UNL A   1      15.733  23.626  -0.074  1.00  0.00    +0.000 C 
BRANCH   23   22
ATOM    108  H15 UNL A   1      16.583  22.708   1.642  1.00  0.00    +0.000 H 
ATOM    109  H16 UNL A   1      16.828  21.834   0.122  1.00  0.00    +0.000 H 
ATOM     22  C18 UNL A   1      16.814  22.791   0.600  1.00  0.00    +0.000 C 
BRANCH   22   21
ATOM    107  H14 UNL A   1      18.224  24.345   0.348  1.00  0.00    +0.000 H 
ATOM     21  N3  UNL A   1      18.138  23.370   0.462  1.00  0.00    +0.000 N 
BRANCH   21    2
ATOM      1  O1  UNL A   1      19.369  21.577   1.177  1.00  0.00    +0.000 O 
ATOM      2  C1  UNL A   1      19.278  22.592   0.487  1.00  0.00    +0.000 C 
BRANCH    2    3
ATOM      3  C2  UNL A   1      20.460  23.099  -0.313  1.00  0.00    +0.000 C 
ATOM     94  H1  UNL A   1      20.092  23.466  -1.248  1.00  0.00    +0.000 H 
ATOM     95  H2  UNL A   1      21.128  22.270  -0.413  1.00  0.00    +0.000 H 
BRANCH    3    4
ATOM      4  N1  UNL A   1      21.228  24.161   0.318  1.00  0.00    +0.000 N 
ATOM      5  C3  UNL A   1      22.098  23.951   1.357  1.00  0.00    +0.000 C 
ATOM      6  N2  UNL A   1      22.748  25.044   1.679  1.00  0.00    +0.000 N 
ATOM      7  C4  UNL A   1      22.284  26.003   0.815  1.00  0.00    +0.000 C 
ATOM     14  C11 UNL A   1      21.336  25.487  -0.060  1.00  0.00    +0.000 C 
ATOM     96  H3  UNL A   1      22.226  23.042   1.828  1.00  0.00    +0.000 H 
BRANCH    7    8
ATOM     97  H4  UNL A   1      21.465  28.031   2.338  1.00  0.00    +0.000 H 
ATOM     98  H5  UNL A   1      22.381  30.277   2.441  1.00  0.00    +0.000 H 
ATOM     99  H6  UNL A   1      24.188  30.923   0.957  1.00  0.00    +0.000 H 
ATOM    100  H7  UNL A   1      25.068  29.333  -0.650  1.00  0.00    +0.000 H 
ATOM    101  H8  UNL A   1      24.168  27.083  -0.744  1.00  0.00    +0.000 H 
ATOM      8  C5  UNL A   1      22.764  27.371   0.809  1.00  0.00    +0.000 C 
ATOM      9  C6  UNL A   1      22.239  28.301   1.712  1.00  0.00    +0.000 C 
ATOM     10  C7  UNL A   1      22.762  29.595   1.767  1.00  0.00    +0.000 C 
ATOM     11  C8  UNL A   1      23.798  29.968   0.910  1.00  0.00    +0.000 C 
ATOM     12  C9  UNL A   1      24.308  29.053  -0.009  1.00  0.00    +0.000 C 
ATOM     13  C10 UNL A   1      23.791  27.758  -0.061  1.00  0.00    +0.000 C 
ENDBRANCH    7    8
BRANCH   14   15
ATOM    102  H9  UNL A   1      22.194  25.862  -2.565  1.00  0.00    +0.000 H 
ATOM    103  H10 UNL A   1      21.105  27.084  -4.355  1.00  0.00    +0.000 H 
ATOM    104  H11 UNL A   1      18.897  28.029  -4.017  1.00  0.00    +0.000 H 
ATOM    105  H12 UNL A   1      17.807  27.813  -1.861  1.00  0.00    +0.000 H 
ATOM    106  H13 UNL A   1      18.939  26.681  -0.044  1.00  0.00    +0.000 H 
ATOM     15  C12 UNL A   1      20.637  26.138  -1.166  1.00  0.00    +0.000 C 
ATOM     16  C13 UNL A   1      21.263  26.277  -2.410  1.00  0.00    +0.000 C 
ATOM     17  C14 UNL A   1      20.633  26.977  -3.444  1.00  0.00    +0.000 C 
ATOM     18  C15 UNL A   1      19.369  27.530  -3.247  1.00  0.00    +0.000 C 
ATOM     19  C16 UNL A   1      18.745  27.408  -2.009  1.00  0.00    +0.000 C 
ATOM     20  C17 UNL A   1      19.389  26.737  -0.970  1.00  0.00    +0.000 C 
ENDBRANCH   14   15
ENDBRANCH    3    4
ENDBRANCH    2    3
ENDBRANCH   21    2
ENDBRANCH   22   21
ENDBRANCH   23   22
ENDBRANCH   24   23
ENDBRANCH   25   24
ENDBRANCH   26   25
ENDBRANCH   27   26
ENDBRANCH   28   27
ENDBRANCH   29   28
ENDBRANCH   31   29
ENDBRANCH   35   34
BRANCH   39   40
ATOM     40  C33 UNL A   1       9.541  31.809  -5.083  1.00  0.00    +0.000 C 
ATOM     41  C34 UNL A   1       9.370  32.729  -6.141  1.00  0.00    +0.000 C 
ATOM     42  F1  UNL A   1      10.386  33.018  -6.966  1.00  0.00    +0.000 F 
ATOM     43  C35 UNL A   1       8.184  33.448  -6.315  1.00  0.00    +0.000 C 
ATOM     44  F2  UNL A   1       8.117  34.408  -7.247  1.00  0.00    +0.000 F 
ATOM     45  C36 UNL A   1       7.103  33.231  -5.481  1.00  0.00    +0.000 C 
ATOM     46  F3  UNL A   1       5.989  33.965  -5.602  1.00  0.00    +0.000 F 
ATOM     47  C37 UNL A   1       7.202  32.283  -4.487  1.00  0.00    +0.000 C 
ATOM     48  F4  UNL A   1       6.171  32.071  -3.656  1.00  0.00    +0.000 F 
ATOM     49  C38 UNL A   1       8.400  31.601  -4.278  1.00  0.00    +0.000 C 
ATOM     50  F5  UNL A   1       8.417  30.822  -3.192  1.00  0.00    +0.000 F 
ENDBRANCH   39   40
BRANCH   56   57
ATOM     65  F9  UNL A   1      14.876  34.824   2.863  1.00  0.00    +0.000 F 
ATOM     66  C49 UNL A   1      13.618  33.553   1.320  1.00  0.00    +0.000 C 
ATOM     67  F10 UNL A   1      12.604  34.420   1.462  1.00  0.00    +0.000 F 
ATOM     57  C44 UNL A   1      13.506  32.487   0.416  1.00  0.00    +0.000 C 
ATOM     58  C45 UNL A   1      14.618  31.640   0.275  1.00  0.00    +0.000 C 
ATOM     59  F6  UNL A   1      14.620  30.653  -0.630  1.00  0.00    +0.000 F 
ATOM     60  C46 UNL A   1      15.772  31.831   1.035  1.00  0.00    +0.000 C 
ATOM     61  F7  UNL A   1      16.817  31.000   0.895  1.00  0.00    +0.000 F 
ATOM     62  C47 UNL A   1      15.857  32.898   1.915  1.00  0.00    +0.000 C 
ATOM     63  F8  UNL A   1      16.980  33.107   2.616  1.00  0.00    +0.000 F 
ATOM     64  C48 UNL A   1      14.784  33.764   2.049  1.00  0.00    +0.000 C 
ENDBRANCH   56   57
BRANCH   71   72
ATOM     72  C53 UNL A   1       9.314  28.452   2.810  1.00  0.00    +0.000 C 
ATOM     73  C54 UNL A   1       8.031  28.056   2.395  1.00  0.00    +0.000 C 
ATOM     74  F11 UNL A   1       7.584  28.392   1.176  1.00  0.00    +0.000 F 
ATOM     75  C55 UNL A   1       7.218  27.245   3.194  1.00  0.00    +0.000 C 
ATOM     76  F12 UNL A   1       6.029  26.830   2.736  1.00  0.00    +0.000 F 
ATOM     77  C56 UNL A   1       7.664  26.812   4.432  1.00  0.00    +0.000 C 
ATOM     78  F13 UNL A   1       6.917  25.977   5.168  1.00  0.00    +0.000 F 
ATOM     79  C57 UNL A   1       8.909  27.213   4.884  1.00  0.00    +0.000 C 
ATOM     80  F14 UNL A   1       9.366  26.770   6.064  1.00  0.00    +0.000 F 
ATOM     81  C58 UNL A   1       9.721  28.022   4.087  1.00  0.00    +0.000 C 
ATOM     82  F15 UNL A   1      10.952  28.294   4.541  1.00  0.00    +0.000 F 
ENDBRANCH   71   72
TORSDOF 18
ENDMDL
MODEL 8
REMARK VINA RESULT:      -9.0     29.375     34.566
ROOT
ATOM    129  H36 UNL A   1      26.397  15.070   5.470  1.00  0.00    +0.000 H 
ATOM    130  H37 UNL A   1      24.487  13.665   6.482  1.00  0.00    +0.000 H 
ATOM    131  H38 UNL A   1      20.290  15.054   2.527  1.00  0.00    +0.000 H 
ATOM    132  H39 UNL A   1      21.423  17.373   2.591  1.00  0.00    +0.000 H 
ATOM     35  C29 UNL A   1      21.708  18.370   5.277  1.00  0.00    +0.000 C 
ATOM     36  C30 UNL A   1      21.283  17.018   4.829  1.00  0.00    +0.000 C 
ATOM     37  N5  UNL A   1      20.850  16.049   5.565  1.00  0.00    +0.000 N 
ATOM     38  C31 UNL A   1      20.635  14.982   4.697  1.00  0.00    +0.000 C 
ATOM     39  C32 UNL A   1      20.766  13.700   5.137  1.00  0.00    +0.000 C 
ATOM     51  C39 UNL A   1      20.761  13.657   6.580  1.00  0.00    +0.000 C 
ATOM     52  C40 UNL A   1      19.859  13.967   7.576  1.00  0.00    +0.000 C 
ATOM     53  C41 UNL A   1      20.647  14.490   8.647  1.00  0.00    +0.000 C 
ATOM     54  C42 UNL A   1      21.991  14.409   8.284  1.00  0.00    +0.000 C 
ATOM     55  N6  UNL A   1      21.993  13.604   7.179  1.00  0.00    +0.000 N 
ATOM     56  C43 UNL A   1      23.180  15.071   8.778  1.00  0.00    +0.000 C 
ATOM     68  C50 UNL A   1      24.374  15.142   8.118  1.00  0.00    +0.000 C 
ATOM     69  N7  UNL A   1      25.256  16.178   8.383  1.00  0.00    +0.000 N 
ATOM     70  C51 UNL A   1      25.898  16.357   7.261  1.00  0.00    +0.000 C 
ATOM     71  C52 UNL A   1      26.282  17.692   6.745  1.00  0.00    +0.000 C 
ATOM     83  C59 UNL A   1      25.126  18.337   6.452  1.00  0.00    +0.000 C 
ATOM     84  C60 UNL A   1      24.872  19.750   6.298  1.00  0.00    +0.000 C 
ATOM     85  C61 UNL A   1      23.558  19.917   6.048  1.00  0.00    +0.000 C 
ATOM     86  C62 UNL A   1      22.919  18.613   5.831  1.00  0.00    +0.000 C 
ATOM     87  N8  UNL A   1      23.887  17.707   6.203  1.00  0.00    +0.000 N 
ATOM     88  C63 UNL A   1      25.842  15.253   6.321  1.00  0.00    +0.000 C 
ATOM     89  C64 UNL A   1      24.860  14.541   6.880  1.00  0.00    +0.000 C 
ATOM     90  C65 UNL A   1      20.641  15.536   3.370  1.00  0.00    +0.000 C 
ATOM     91  C66 UNL A   1      21.167  16.764   3.383  1.00  0.00    +0.000 C 
ATOM    123  H30 UNL A   1      18.834  13.847   7.552  1.00  0.00    +0.000 H 
ATOM    124  H31 UNL A   1      20.282  14.864   9.537  1.00  0.00    +0.000 H 
ATOM    125  H32 UNL A   1      22.758  13.071   6.865  1.00  0.00    +0.000 H 
ATOM    126  H33 UNL A   1      25.575  20.502   6.367  1.00  0.00    +0.000 H 
ATOM    127  H34 UNL A   1      23.073  20.827   6.014  1.00  0.00    +0.000 H 
ATOM    128  H35 UNL A   1      23.734  16.738   6.285  1.00  0.00    +0.000 H 
ENDROOT
BRANCH   35   34
ATOM     33  C27 UNL A   1      19.483  19.517   5.268  1.00  0.00    +0.000 C 
ATOM     34  C28 UNL A   1      20.820  19.444   4.845  1.00  0.00    +0.000 C 
ATOM    133  H40 UNL A   1      22.262  20.208   3.512  1.00  0.00    +0.000 H 
ATOM    134  H41 UNL A   1      20.967  22.188   3.008  1.00  0.00    +0.000 H 
ATOM    121  H28 UNL A   1      17.644  20.514   4.959  1.00  0.00    +0.000 H 
ATOM    122  H29 UNL A   1      19.127  18.867   5.986  1.00  0.00    +0.000 H 
ATOM     92  C67 UNL A   1      21.318  20.339   3.908  1.00  0.00    +0.000 C 
ATOM     93  C68 UNL A   1      20.544  21.393   3.513  1.00  0.00    +0.000 C 
ATOM     31  C25 UNL A   1      19.182  21.391   3.795  1.00  0.00    +0.000 C 
ATOM     32  C26 UNL A   1      18.643  20.478   4.707  1.00  0.00    +0.000 C 
BRANCH   31   29
ATOM     29  C24 UNL A   1      18.341  22.348   3.056  1.00  0.00    +0.000 C 
ATOM     30  O2  UNL A   1      18.623  22.658   1.901  1.00  0.00    +0.000 O 
BRANCH   29   28
ATOM     28  N4  UNL A   1      17.232  22.882   3.690  1.00  0.00    +0.000 N 
ATOM    120  H27 UNL A   1      16.351  22.553   3.398  1.00  0.00    +0.000 H 
BRANCH   28   27
ATOM     27  C23 UNL A   1      17.244  23.890   4.754  1.00  0.00    +0.000 C 
ATOM    118  H25 UNL A   1      18.191  24.389   4.739  1.00  0.00    +0.000 H 
ATOM    119  H26 UNL A   1      16.434  24.563   4.565  1.00  0.00    +0.000 H 
BRANCH   27   26
ATOM     26  C22 UNL A   1      17.029  23.299   6.140  1.00  0.00    +0.000 C 
ATOM    116  H23 UNL A   1      17.714  22.488   6.265  1.00  0.00    +0.000 H 
ATOM    117  H24 UNL A   1      17.188  24.097   6.836  1.00  0.00    +0.000 H 
BRANCH   26   25
ATOM     25  C21 UNL A   1      15.611  22.774   6.399  1.00  0.00    +0.000 C 
ATOM    114  H21 UNL A   1      15.361  23.004   7.414  1.00  0.00    +0.000 H 
ATOM    115  H22 UNL A   1      14.998  23.253   5.665  1.00  0.00    +0.000 H 
BRANCH   25   24
ATOM    113  H20 UNL A   1      15.128  20.885   7.160  1.00  0.00    +0.000 H 
ATOM    112  H19 UNL A   1      16.269  20.858   5.769  1.00  0.00    +0.000 H 
ATOM     24  C20 UNL A   1      15.377  21.270   6.193  1.00  0.00    +0.000 C 
BRANCH   24   23
ATOM    111  H18 UNL A   1      14.049  21.704   4.623  1.00  0.00    +0.000 H 
ATOM    110  H17 UNL A   1      13.359  20.670   5.906  1.00  0.00    +0.000 H 
ATOM     23  C19 UNL A   1      14.206  20.879   5.285  1.00  0.00    +0.000 C 
BRANCH   23   22
ATOM    108  H15 UNL A   1      13.639  19.549   3.730  1.00  0.00    +0.000 H 
ATOM    109  H16 UNL A   1      15.381  19.827   3.884  1.00  0.00    +0.000 H 
ATOM     22  C18 UNL A   1      14.462  19.662   4.405  1.00  0.00    +0.000 C 
BRANCH   22   21
ATOM    107  H14 UNL A   1      13.865  18.146   5.753  1.00  0.00    +0.000 H 
ATOM     21  N3  UNL A   1      14.605  18.437   5.172  1.00  0.00    +0.000 N 
BRANCH   21    2
ATOM      1  O1  UNL A   1      16.083  17.066   4.086  1.00  0.00    +0.000 O 
ATOM      2  C1  UNL A   1      15.751  17.669   5.105  1.00  0.00    +0.000 C 
BRANCH    2    3
ATOM      3  C2  UNL A   1      16.543  17.527   6.388  1.00  0.00    +0.000 C 
ATOM     94  H1  UNL A   1      16.893  18.498   6.669  1.00  0.00    +0.000 H 
ATOM     95  H2  UNL A   1      17.330  16.833   6.176  1.00  0.00    +0.000 H 
BRANCH    3    4
ATOM      4  N1  UNL A   1      15.808  16.969   7.514  1.00  0.00    +0.000 N 
ATOM      5  C3  UNL A   1      15.317  15.689   7.538  1.00  0.00    +0.000 C 
ATOM      6  N2  UNL A   1      14.790  15.389   8.700  1.00  0.00    +0.000 N 
ATOM      7  C4  UNL A   1      14.944  16.517   9.464  1.00  0.00    +0.000 C 
ATOM     14  C11 UNL A   1      15.586  17.528   8.759  1.00  0.00    +0.000 C 
ATOM     96  H3  UNL A   1      15.359  15.040   6.736  1.00  0.00    +0.000 H 
BRANCH    7    8
ATOM     97  H4  UNL A   1      16.384  16.053  11.658  1.00  0.00    +0.000 H 
ATOM     98  H5  UNL A   1      15.714  16.367  13.970  1.00  0.00    +0.000 H 
ATOM     99  H6  UNL A   1      13.455  17.079  14.496  1.00  0.00    +0.000 H 
ATOM    100  H7  UNL A   1      11.854  17.455  12.712  1.00  0.00    +0.000 H 
ATOM    101  H8  UNL A   1      12.525  17.159  10.401  1.00  0.00    +0.000 H 
ATOM      8  C5  UNL A   1      14.516  16.610  10.846  1.00  0.00    +0.000 C 
ATOM      9  C6  UNL A   1      15.426  16.364  11.879  1.00  0.00    +0.000 C 
ATOM     10  C7  UNL A   1      15.038  16.539  13.210  1.00  0.00    +0.000 C 
ATOM     11  C8  UNL A   1      13.738  16.943  13.512  1.00  0.00    +0.000 C 
ATOM     12  C9  UNL A   1      12.819  17.165  12.488  1.00  0.00    +0.000 C 
ATOM     13  C10 UNL A   1      13.207  16.997  11.158  1.00  0.00    +0.000 C 
ENDBRANCH    7    8
BRANCH   14   15
ATOM    102  H9  UNL A   1      18.027  18.342   9.492  1.00  0.00    +0.000 H 
ATOM    103  H10 UNL A   1      18.680  20.500  10.387  1.00  0.00    +0.000 H 
ATOM    104  H11 UNL A   1      17.050  22.285  10.573  1.00  0.00    +0.000 H 
ATOM    105  H12 UNL A   1      14.744  21.889   9.932  1.00  0.00    +0.000 H 
ATOM    106  H13 UNL A   1      14.071  19.704   9.137  1.00  0.00    +0.000 H 
ATOM     15  C12 UNL A   1      15.999  18.857   9.205  1.00  0.00    +0.000 C 
ATOM     16  C13 UNL A   1      17.325  19.092   9.587  1.00  0.00    +0.000 C 
ATOM     17  C14 UNL A   1      17.703  20.338  10.097  1.00  0.00    +0.000 C 
ATOM     18  C15 UNL A   1      16.765  21.361  10.216  1.00  0.00    +0.000 C 
ATOM     19  C16 UNL A   1      15.441  21.132   9.850  1.00  0.00    +0.000 C 
ATOM     20  C17 UNL A   1      15.060  19.879   9.372  1.00  0.00    +0.000 C 
ENDBRANCH   14   15
ENDBRANCH    3    4
ENDBRANCH    2    3
ENDBRANCH   21    2
ENDBRANCH   22   21
ENDBRANCH   23   22
ENDBRANCH   24   23
ENDBRANCH   25   24
ENDBRANCH   26   25
ENDBRANCH   27   26
ENDBRANCH   28   27
ENDBRANCH   29   28
ENDBRANCH   31   29
ENDBRANCH   35   34
BRANCH   39   40
ATOM     40  C33 UNL A   1      21.357  12.563   4.322  1.00  0.00    +0.000 C 
ATOM     41  C34 UNL A   1      22.673  12.699   3.829  1.00  0.00    +0.000 C 
ATOM     42  F1  UNL A   1      23.482  13.661   4.297  1.00  0.00    +0.000 F 
ATOM     43  C35 UNL A   1      23.155  11.918   2.774  1.00  0.00    +0.000 C 
ATOM     44  F2  UNL A   1      24.361  12.177   2.251  1.00  0.00    +0.000 F 
ATOM     45  C36 UNL A   1      22.367  10.931   2.216  1.00  0.00    +0.000 C 
ATOM     46  F3  UNL A   1      22.800  10.225   1.162  1.00  0.00    +0.000 F 
ATOM     47  C37 UNL A   1      21.105  10.711   2.722  1.00  0.00    +0.000 C 
ATOM     48  F4  UNL A   1      20.318   9.770   2.181  1.00  0.00    +0.000 F 
ATOM     49  C38 UNL A   1      20.601  11.522   3.739  1.00  0.00    +0.000 C 
ATOM     50  F5  UNL A   1      19.317  11.309   4.038  1.00  0.00    +0.000 F 
ENDBRANCH   39   40
BRANCH   56   57
ATOM     65  F9  UNL A   1      21.851  19.280  10.778  1.00  0.00    +0.000 F 
ATOM     66  C49 UNL A   1      22.441  17.175   9.883  1.00  0.00    +0.000 C 
ATOM     67  F10 UNL A   1      21.987  17.578   8.687  1.00  0.00    +0.000 F 
ATOM     57  C44 UNL A   1      23.023  15.906  10.019  1.00  0.00    +0.000 C 
ATOM     58  C45 UNL A   1      23.524  15.558  11.286  1.00  0.00    +0.000 C 
ATOM     59  F6  UNL A   1      24.170  14.400  11.474  1.00  0.00    +0.000 F 
ATOM     60  C46 UNL A   1      23.410  16.427  12.371  1.00  0.00    +0.000 C 
ATOM     61  F7  UNL A   1      23.882  16.067  13.575  1.00  0.00    +0.000 F 
ATOM     62  C47 UNL A   1      22.838  17.678  12.204  1.00  0.00    +0.000 C 
ATOM     63  F8  UNL A   1      22.764  18.530  13.236  1.00  0.00    +0.000 F 
ATOM     64  C48 UNL A   1      22.364  18.055  10.957  1.00  0.00    +0.000 C 
ENDBRANCH   56   57
BRANCH   71   72
ATOM     72  C53 UNL A   1      27.668  18.015   6.337  1.00  0.00    +0.000 C 
ATOM     73  C54 UNL A   1      28.707  18.069   7.281  1.00  0.00    +0.000 C 
ATOM     74  F11 UNL A   1      28.425  18.072   8.593  1.00  0.00    +0.000 F 
ATOM     75  C55 UNL A   1      30.052  18.039   6.897  1.00  0.00    +0.000 C 
ATOM     76  F12 UNL A   1      31.015  18.021   7.829  1.00  0.00    +0.000 F 
ATOM     77  C56 UNL A   1      30.394  17.963   5.557  1.00  0.00    +0.000 C 
ATOM     78  F13 UNL A   1      31.680  17.863   5.190  1.00  0.00    +0.000 F 
ATOM     79  C57 UNL A   1      29.395  17.945   4.600  1.00  0.00    +0.000 C 
ATOM     80  F14 UNL A   1      29.714  17.833   3.303  1.00  0.00    +0.000 F 
ATOM     81  C58 UNL A   1      28.053  17.972   4.983  1.00  0.00    +0.000 C 
ATOM     82  F15 UNL A   1      27.134  17.853   4.014  1.00  0.00    +0.000 F 
ENDBRANCH   71   72
TORSDOF 18
ENDMDL
MODEL 9
REMARK VINA RESULT:      -8.9     41.882     47.630
ROOT
ATOM    129  H36 UNL A   1      11.943  34.053  -1.582  1.00  0.00    +0.000 H 
ATOM    130  H37 UNL A   1      10.506  33.174  -3.533  1.00  0.00    +0.000 H 
ATOM    131  H38 UNL A   1       5.291  33.076  -0.709  1.00  0.00    +0.000 H 
ATOM    132  H39 UNL A   1       6.736  32.345   1.302  1.00  0.00    +0.000 H 
ATOM     35  C29 UNL A   1       8.434  30.109   0.664  1.00  0.00    +0.000 C 
ATOM     36  C30 UNL A   1       7.602  30.932  -0.251  1.00  0.00    +0.000 C 
ATOM     37  N5  UNL A   1       7.391  30.734  -1.510  1.00  0.00    +0.000 N 
ATOM     38  C31 UNL A   1       6.595  31.797  -1.931  1.00  0.00    +0.000 C 
ATOM     39  C32 UNL A   1       6.672  32.247  -3.214  1.00  0.00    +0.000 C 
ATOM     51  C39 UNL A   1       7.339  31.279  -4.051  1.00  0.00    +0.000 C 
ATOM     52  C40 UNL A   1       7.088  29.986  -4.461  1.00  0.00    +0.000 C 
ATOM     53  C41 UNL A   1       8.370  29.358  -4.529  1.00  0.00    +0.000 C 
ATOM     54  C42 UNL A   1       9.343  30.312  -4.229  1.00  0.00    +0.000 C 
ATOM     55  N6  UNL A   1       8.672  31.501  -4.277  1.00  0.00    +0.000 N 
ATOM     56  C43 UNL A   1      10.725  30.202  -3.813  1.00  0.00    +0.000 C 
ATOM     68  C50 UNL A   1      11.457  31.203  -3.242  1.00  0.00    +0.000 C 
ATOM     69  N7  UNL A   1      12.539  30.900  -2.429  1.00  0.00    +0.000 N 
ATOM     70  C51 UNL A   1      12.598  31.889  -1.580  1.00  0.00    +0.000 C 
ATOM     71  C52 UNL A   1      12.939  31.716  -0.149  1.00  0.00    +0.000 C 
ATOM     83  C59 UNL A   1      11.927  31.002   0.403  1.00  0.00    +0.000 C 
ATOM     84  C60 UNL A   1      11.903  30.224   1.620  1.00  0.00    +0.000 C 
ATOM     85  C61 UNL A   1      10.685  29.660   1.735  1.00  0.00    +0.000 C 
ATOM     86  C62 UNL A   1       9.785  30.194   0.705  1.00  0.00    +0.000 C 
ATOM     87  N8  UNL A   1      10.622  30.901  -0.129  1.00  0.00    +0.000 N 
ATOM     88  C63 UNL A   1      11.898  33.099  -1.972  1.00  0.00    +0.000 C 
ATOM     89  C64 UNL A   1      11.180  32.615  -2.989  1.00  0.00    +0.000 C 
ATOM     90  C65 UNL A   1       6.082  32.413  -0.737  1.00  0.00    +0.000 C 
ATOM     91  C66 UNL A   1       6.773  32.003   0.329  1.00  0.00    +0.000 C 
ATOM    123  H30 UNL A   1       6.171  29.562  -4.671  1.00  0.00    +0.000 H 
ATOM    124  H31 UNL A   1       8.544  28.368  -4.761  1.00  0.00    +0.000 H 
ATOM    125  H32 UNL A   1       9.083  32.380  -4.447  1.00  0.00    +0.000 H 
ATOM    126  H33 UNL A   1      12.684  30.119   2.286  1.00  0.00    +0.000 H 
ATOM    127  H34 UNL A   1      10.423  28.957   2.443  1.00  0.00    +0.000 H 
ATOM    128  H35 UNL A   1      10.346  31.290  -0.990  1.00  0.00    +0.000 H 
ENDROOT
BRANCH   35   34
ATOM     33  C27 UNL A   1       7.405  28.016   1.574  1.00  0.00    +0.000 C 
ATOM     34  C28 UNL A   1       7.669  29.392   1.679  1.00  0.00    +0.000 C 
ATOM    133  H40 UNL A   1       7.215  31.172   2.709  1.00  0.00    +0.000 H 
ATOM    134  H41 UNL A   1       6.224  30.012   4.586  1.00  0.00    +0.000 H 
ATOM    121  H28 UNL A   1       6.291  26.422   2.404  1.00  0.00    +0.000 H 
ATOM    122  H29 UNL A   1       7.842  27.457   0.826  1.00  0.00    +0.000 H 
ATOM     92  C67 UNL A   1       7.116  30.145   2.705  1.00  0.00    +0.000 C 
ATOM     93  C68 UNL A   1       6.437  29.512   3.708  1.00  0.00    +0.000 C 
ATOM     31  C25 UNL A   1       6.034  28.192   3.540  1.00  0.00    +0.000 C 
ATOM     32  C26 UNL A   1       6.545  27.417   2.494  1.00  0.00    +0.000 C 
BRANCH   31   29
ATOM     29  C24 UNL A   1       5.018  27.676   4.473  1.00  0.00    +0.000 C 
ATOM     30  O2  UNL A   1       4.847  28.214   5.564  1.00  0.00    +0.000 O 
BRANCH   29   28
ATOM     28  N4  UNL A   1       4.264  26.580   4.090  1.00  0.00    +0.000 N 
ATOM    120  H27 UNL A   1       4.718  25.707   4.082  1.00  0.00    +0.000 H 
BRANCH   28   27
ATOM     27  C23 UNL A   1       2.851  26.596   3.695  1.00  0.00    +0.000 C 
ATOM    118  H25 UNL A   1       2.684  25.798   3.002  1.00  0.00    +0.000 H 
ATOM    119  H26 UNL A   1       2.270  26.481   4.586  1.00  0.00    +0.000 H 
BRANCH   27   26
ATOM     26  C22 UNL A   1       2.428  27.903   3.042  1.00  0.00    +0.000 C 
ATOM    116  H23 UNL A   1       1.363  27.975   3.102  1.00  0.00    +0.000 H 
ATOM    117  H24 UNL A   1       2.934  28.683   3.571  1.00  0.00    +0.000 H 
BRANCH   26   25
ATOM     25  C21 UNL A   1       2.835  28.043   1.568  1.00  0.00    +0.000 C 
ATOM    114  H21 UNL A   1       3.475  27.219   1.330  1.00  0.00    +0.000 H 
ATOM    115  H22 UNL A   1       1.913  28.069   1.026  1.00  0.00    +0.000 H 
BRANCH   25   24
ATOM    113  H20 UNL A   1       4.337  29.461   1.901  1.00  0.00    +0.000 H 
ATOM    112  H19 UNL A   1       2.846  30.121   1.140  1.00  0.00    +0.000 H 
ATOM     24  C20 UNL A   1       3.568  29.332   1.168  1.00  0.00    +0.000 C 
BRANCH   24   23
ATOM    111  H18 UNL A   1       5.155  28.693  -0.054  1.00  0.00    +0.000 H 
ATOM    110  H17 UNL A   1       4.536  30.323  -0.444  1.00  0.00    +0.000 H 
ATOM     23  C19 UNL A   1       4.293  29.313  -0.182  1.00  0.00    +0.000 C 
BRANCH   23   22
ATOM    108  H15 UNL A   1       3.383  27.656  -1.151  1.00  0.00    +0.000 H 
ATOM    109  H16 UNL A   1       2.542  29.201  -1.353  1.00  0.00    +0.000 H 
ATOM     22  C18 UNL A   1       3.490  28.707  -1.326  1.00  0.00    +0.000 C 
BRANCH   22   21
ATOM    107  H14 UNL A   1       5.076  29.144  -2.654  1.00  0.00    +0.000 H 
ATOM     21  N3  UNL A   1       4.122  28.900  -2.619  1.00  0.00    +0.000 N 
BRANCH   21    2
ATOM      1  O1  UNL A   1       3.951  28.344  -4.833  1.00  0.00    +0.000 O 
ATOM      2  C1  UNL A   1       3.422  28.750  -3.800  1.00  0.00    +0.000 C 
BRANCH    2    3
ATOM      3  C2  UNL A   1       1.976  29.201  -3.789  1.00  0.00    +0.000 C 
ATOM     94  H1  UNL A   1       1.622  29.148  -2.781  1.00  0.00    +0.000 H 
ATOM     95  H2  UNL A   1       1.457  28.548  -4.459  1.00  0.00    +0.000 H 
BRANCH    3    4
ATOM      4  N1  UNL A   1       1.742  30.551  -4.279  1.00  0.00    +0.000 N 
ATOM      5  C3  UNL A   1       1.537  30.850  -5.602  1.00  0.00    +0.000 C 
ATOM      6  N2  UNL A   1       1.242  32.116  -5.776  1.00  0.00    +0.000 N 
ATOM      7  C4  UNL A   1       1.254  32.662  -4.518  1.00  0.00    +0.000 C 
ATOM     14  C11 UNL A   1       1.556  31.711  -3.551  1.00  0.00    +0.000 C 
ATOM     96  H3  UNL A   1       1.605  30.162  -6.367  1.00  0.00    +0.000 H 
BRANCH    7    8
ATOM     97  H4  UNL A   1       2.753  34.797  -5.066  1.00  0.00    +0.000 H 
ATOM     98  H5  UNL A   1       2.175  37.136  -4.766  1.00  0.00    +0.000 H 
ATOM     99  H6  UNL A   1       0.056  37.745  -3.753  1.00  0.00    +0.000 H 
ATOM    100  H7  UNL A   1      -1.480  36.017  -3.017  1.00  0.00    +0.000 H 
ATOM    101  H8  UNL A   1      -0.914  33.680  -3.332  1.00  0.00    +0.000 H 
ATOM      8  C5  UNL A   1       0.952  34.055  -4.249  1.00  0.00    +0.000 C 
ATOM      9  C6  UNL A   1       1.848  35.054  -4.643  1.00  0.00    +0.000 C 
ATOM     10  C7  UNL A   1       1.518  36.400  -4.464  1.00  0.00    +0.000 C 
ATOM     11  C8  UNL A   1       0.301  36.750  -3.878  1.00  0.00    +0.000 C 
ATOM     12  C9  UNL A   1      -0.584  35.757  -3.460  1.00  0.00    +0.000 C 
ATOM     13  C10 UNL A   1      -0.259  34.414  -3.644  1.00  0.00    +0.000 C 
ENDBRANCH    7    8
BRANCH   14   15
ATOM    102  H9  UNL A   1      -0.192  30.817  -1.733  1.00  0.00    +0.000 H 
ATOM    103  H10 UNL A   1      -0.179  31.183   0.664  1.00  0.00    +0.000 H 
ATOM    104  H11 UNL A   1       1.656  32.381   1.703  1.00  0.00    +0.000 H 
ATOM    105  H12 UNL A   1       3.445  33.277   0.333  1.00  0.00    +0.000 H 
ATOM    106  H13 UNL A   1       3.378  33.000  -2.071  1.00  0.00    +0.000 H 
ATOM     15  C12 UNL A   1       1.615  31.848  -2.097  1.00  0.00    +0.000 C 
ATOM     16  C13 UNL A   1       0.582  31.343  -1.299  1.00  0.00    +0.000 C 
ATOM     17  C14 UNL A   1       0.592  31.549   0.084  1.00  0.00    +0.000 C 
ATOM     18  C15 UNL A   1       1.640  32.247   0.681  1.00  0.00    +0.000 C 
ATOM     19  C16 UNL A   1       2.665  32.763  -0.106  1.00  0.00    +0.000 C 
ATOM     20  C17 UNL A   1       2.636  32.584  -1.489  1.00  0.00    +0.000 C 
ENDBRANCH   14   15
ENDBRANCH    3    4
ENDBRANCH    2    3
ENDBRANCH   21    2
ENDBRANCH   22   21
ENDBRANCH   23   22
ENDBRANCH   24   23
ENDBRANCH   25   24
ENDBRANCH   26   25
ENDBRANCH   27   26
ENDBRANCH   28   27
ENDBRANCH   29   28
ENDBRANCH   31   29
ENDBRANCH   35   34
BRANCH   39   40
ATOM     40  C33 UNL A   1       6.583  33.706  -3.623  1.00  0.00    +0.000 C 
ATOM     41  C34 UNL A   1       5.575  34.093  -4.533  1.00  0.00    +0.000 C 
ATOM     42  F1  UNL A   1       4.552  33.270  -4.809  1.00  0.00    +0.000 F 
ATOM     43  C35 UNL A   1       5.646  35.286  -5.258  1.00  0.00    +0.000 C 
ATOM     44  F2  UNL A   1       4.738  35.543  -6.209  1.00  0.00    +0.000 F 
ATOM     45  C36 UNL A   1       6.690  36.168  -5.056  1.00  0.00    +0.000 C 
ATOM     46  F3  UNL A   1       6.797  37.280  -5.795  1.00  0.00    +0.000 F 
ATOM     47  C37 UNL A   1       7.651  35.867  -4.117  1.00  0.00    +0.000 C 
ATOM     48  F4  UNL A   1       8.683  36.701  -3.919  1.00  0.00    +0.000 F 
ATOM     49  C38 UNL A   1       7.612  34.654  -3.429  1.00  0.00    +0.000 C 
ATOM     50  F5  UNL A   1       8.678  34.413  -2.661  1.00  0.00    +0.000 F 
ENDBRANCH   39   40
BRANCH   56   57
ATOM     65  F9  UNL A   1      13.186  26.818  -6.257  1.00  0.00    +0.000 F 
ATOM     66  C49 UNL A   1      12.053  28.449  -4.977  1.00  0.00    +0.000 C 
ATOM     67  F10 UNL A   1      12.238  29.330  -5.973  1.00  0.00    +0.000 F 
ATOM     57  C44 UNL A   1      11.332  28.826  -3.836  1.00  0.00    +0.000 C 
ATOM     58  C45 UNL A   1      11.129  27.846  -2.848  1.00  0.00    +0.000 C 
ATOM     59  F6  UNL A   1      10.377  28.103  -1.770  1.00  0.00    +0.000 F 
ATOM     60  C46 UNL A   1      11.659  26.563  -2.984  1.00  0.00    +0.000 C 
ATOM     61  F7  UNL A   1      11.466  25.649  -2.021  1.00  0.00    +0.000 F 
ATOM     62  C47 UNL A   1      12.361  26.218  -4.128  1.00  0.00    +0.000 C 
ATOM     63  F8  UNL A   1      12.837  24.974  -4.278  1.00  0.00    +0.000 F 
ATOM     64  C48 UNL A   1      12.548  27.158  -5.128  1.00  0.00    +0.000 C 
ENDBRANCH   56   57
BRANCH   71   72
ATOM     72  C53 UNL A   1      14.003  32.504   0.514  1.00  0.00    +0.000 C 
ATOM     73  C54 UNL A   1      13.686  33.538   1.410  1.00  0.00    +0.000 C 
ATOM     74  F11 UNL A   1      12.427  33.992   1.496  1.00  0.00    +0.000 F 
ATOM     75  C55 UNL A   1      14.638  34.066   2.289  1.00  0.00    +0.000 C 
ATOM     76  F12 UNL A   1      14.282  35.004   3.178  1.00  0.00    +0.000 F 
ATOM     77  C56 UNL A   1      15.935  33.580   2.289  1.00  0.00    +0.000 C 
ATOM     78  F13 UNL A   1      16.830  34.035   3.178  1.00  0.00    +0.000 F 
ATOM     79  C57 UNL A   1      16.288  32.586   1.394  1.00  0.00    +0.000 C 
ATOM     80  F14 UNL A   1      17.530  32.082   1.412  1.00  0.00    +0.000 F 
ATOM     81  C58 UNL A   1      15.339  32.057   0.518  1.00  0.00    +0.000 C 
ATOM     82  F15 UNL A   1      15.720  31.031  -0.255  1.00  0.00    +0.000 F 
ENDBRANCH   71   72
TORSDOF 18
ENDMDL
MODEL 10
REMARK VINA RESULT:      -8.9      1.744      3.527
ROOT
ATOM    129  H36 UNL A   1      43.493  24.138  30.024  1.00  0.00    +0.000 H 
ATOM    130  H37 UNL A   1      44.671  25.900  31.490  1.00  0.00    +0.000 H 
ATOM    131  H38 UNL A   1      39.869  27.922  34.326  1.00  0.00    +0.000 H 
ATOM    132  H39 UNL A   1      38.732  27.545  32.040  1.00  0.00    +0.000 H 
ATOM     35  C29 UNL A   1      40.168  28.812  29.889  1.00  0.00    +0.000 C 
ATOM     36  C30 UNL A   1      40.582  28.637  31.305  1.00  0.00    +0.000 C 
ATOM     37  N5  UNL A   1      41.633  29.121  31.881  1.00  0.00    +0.000 N 
ATOM     38  C31 UNL A   1      41.607  28.638  33.186  1.00  0.00    +0.000 C 
ATOM     39  C32 UNL A   1      42.768  28.429  33.866  1.00  0.00    +0.000 C 
ATOM     51  C39 UNL A   1      43.864  29.105  33.215  1.00  0.00    +0.000 C 
ATOM     52  C40 UNL A   1      44.195  30.415  32.940  1.00  0.00    +0.000 C 
ATOM     53  C41 UNL A   1      44.850  30.379  31.670  1.00  0.00    +0.000 C 
ATOM     54  C42 UNL A   1      44.950  29.047  31.265  1.00  0.00    +0.000 C 
ATOM     55  N6  UNL A   1      44.635  28.332  32.386  1.00  0.00    +0.000 N 
ATOM     56  C43 UNL A   1      45.184  28.431  29.977  1.00  0.00    +0.000 C 
ATOM     68  C50 UNL A   1      44.933  27.124  29.672  1.00  0.00    +0.000 C 
ATOM     69  N7  UNL A   1      44.690  26.748  28.360  1.00  0.00    +0.000 N 
ATOM     70  C51 UNL A   1      43.897  25.716  28.456  1.00  0.00    +0.000 C 
ATOM     71  C52 UNL A   1      42.770  25.465  27.529  1.00  0.00    +0.000 C 
ATOM     83  C59 UNL A   1      41.873  26.461  27.737  1.00  0.00    +0.000 C 
ATOM     84  C60 UNL A   1      40.813  26.941  26.882  1.00  0.00    +0.000 C 
ATOM     85  C61 UNL A   1      40.211  27.976  27.499  1.00  0.00    +0.000 C 
ATOM     86  C62 UNL A   1      40.715  28.104  28.873  1.00  0.00    +0.000 C 
ATOM     87  N8  UNL A   1      41.789  27.243  28.910  1.00  0.00    +0.000 N 
ATOM     88  C63 UNL A   1      43.878  25.055  29.748  1.00  0.00    +0.000 C 
ATOM     89  C64 UNL A   1      44.506  25.982  30.475  1.00  0.00    +0.000 C 
ATOM     90  C65 UNL A   1      40.276  28.137  33.402  1.00  0.00    +0.000 C 
ATOM     91  C66 UNL A   1      39.641  27.991  32.236  1.00  0.00    +0.000 C 
ATOM    123  H30 UNL A   1      44.009  31.245  33.525  1.00  0.00    +0.000 H 
ATOM    124  H31 UNL A   1      45.189  31.199  31.143  1.00  0.00    +0.000 H 
ATOM    125  H32 UNL A   1      44.917  27.406  32.568  1.00  0.00    +0.000 H 
ATOM    126  H33 UNL A   1      40.559  26.557  25.958  1.00  0.00    +0.000 H 
ATOM    127  H34 UNL A   1      39.499  28.589  27.070  1.00  0.00    +0.000 H 
ATOM    128  H35 UNL A   1      42.421  27.181  29.662  1.00  0.00    +0.000 H 
ENDROOT
BRANCH   35   34
ATOM     33  C27 UNL A   1      37.680  29.049  29.765  1.00  0.00    +0.000 C 
ATOM     34  C28 UNL A   1      38.964  29.616  29.718  1.00  0.00    +0.000 C 
ATOM    133  H40 UNL A   1      40.084  31.338  29.248  1.00  0.00    +0.000 H 
ATOM    134  H41 UNL A   1      38.150  32.790  29.277  1.00  0.00    +0.000 H 
ATOM    121  H28 UNL A   1      35.629  29.431  29.418  1.00  0.00    +0.000 H 
ATOM    122  H29 UNL A   1      37.556  28.060  30.031  1.00  0.00    +0.000 H 
ATOM     92  C67 UNL A   1      39.137  30.956  29.398  1.00  0.00    +0.000 C 
ATOM     93  C68 UNL A   1      38.041  31.763  29.281  1.00  0.00    +0.000 C 
ATOM     31  C25 UNL A   1      36.777  31.194  29.167  1.00  0.00    +0.000 C 
ATOM     32  C26 UNL A   1      36.576  29.838  29.447  1.00  0.00    +0.000 C 
BRANCH   31   29
ATOM     29  C24 UNL A   1      35.688  32.065  28.692  1.00  0.00    +0.000 C 
ATOM     30  O2  UNL A   1      34.973  31.711  27.758  1.00  0.00    +0.000 O 
BRANCH   29   28
ATOM     28  N4  UNL A   1      35.491  33.282  29.322  1.00  0.00    +0.000 N 
ATOM    120  H27 UNL A   1      35.968  34.059  28.952  1.00  0.00    +0.000 H 
BRANCH   28   27
ATOM     27  C23 UNL A   1      34.638  33.524  30.491  1.00  0.00    +0.000 C 
ATOM    118  H25 UNL A   1      34.911  34.465  30.922  1.00  0.00    +0.000 H 
ATOM    119  H26 UNL A   1      33.623  33.518  30.152  1.00  0.00    +0.000 H 
BRANCH   27   26
ATOM     26  C22 UNL A   1      34.766  32.446  31.558  1.00  0.00    +0.000 C 
ATOM    116  H23 UNL A   1      33.801  32.290  31.991  1.00  0.00    +0.000 H 
ATOM    117  H24 UNL A   1      35.153  31.578  31.065  1.00  0.00    +0.000 H 
BRANCH   26   25
ATOM     25  C21 UNL A   1      35.750  32.779  32.687  1.00  0.00    +0.000 C 
ATOM    114  H21 UNL A   1      36.025  33.808  32.584  1.00  0.00    +0.000 H 
ATOM    115  H22 UNL A   1      35.228  32.540  33.590  1.00  0.00    +0.000 H 
BRANCH   25   24
ATOM    113  H20 UNL A   1      37.009  31.305  31.898  1.00  0.00    +0.000 H 
ATOM    112  H19 UNL A   1      37.067  31.452  33.691  1.00  0.00    +0.000 H 
ATOM     24  C20 UNL A   1      37.045  31.956  32.747  1.00  0.00    +0.000 C 
BRANCH   24   23
ATOM    111  H18 UNL A   1      38.300  33.551  33.295  1.00  0.00    +0.000 H 
ATOM    110  H17 UNL A   1      38.447  33.053  31.586  1.00  0.00    +0.000 H 
ATOM     23  C19 UNL A   1      38.357  32.736  32.605  1.00  0.00    +0.000 C 
BRANCH   23   22
ATOM    108  H15 UNL A   1      39.663  31.865  34.035  1.00  0.00    +0.000 H 
ATOM    109  H16 UNL A   1      39.534  30.989  32.502  1.00  0.00    +0.000 H 
ATOM     22  C18 UNL A   1      39.609  31.948  32.970  1.00  0.00    +0.000 C 
BRANCH   22   21
ATOM    107  H14 UNL A   1      41.124  32.404  31.567  1.00  0.00    +0.000 H 
ATOM     21  N3  UNL A   1      40.826  32.578  32.490  1.00  0.00    +0.000 N 
BRANCH   21    2
ATOM      1  O1  UNL A   1      42.571  33.023  33.905  1.00  0.00    +0.000 O 
ATOM      2  C1  UNL A   1      41.577  33.413  33.294  1.00  0.00    +0.000 C 
BRANCH    2    3
ATOM      3  C2  UNL A   1      41.062  34.827  33.463  1.00  0.00    +0.000 C 
ATOM     94  H1  UNL A   1      40.009  34.820  33.274  1.00  0.00    +0.000 H 
ATOM     95  H2  UNL A   1      41.617  35.429  32.774  1.00  0.00    +0.000 H 
BRANCH    3    4
ATOM      4  N1  UNL A   1      41.281  35.415  34.776  1.00  0.00    +0.000 N 
ATOM      5  C3  UNL A   1      42.102  36.491  34.996  1.00  0.00    +0.000 C 
ATOM      6  N2  UNL A   1      42.048  36.901  36.241  1.00  0.00    +0.000 N 
ATOM      7  C4  UNL A   1      41.156  36.059  36.856  1.00  0.00    +0.000 C 
ATOM     14  C11 UNL A   1      40.646  35.119  35.968  1.00  0.00    +0.000 C 
ATOM     96  H3  UNL A   1      42.690  36.927  34.269  1.00  0.00    +0.000 H 
BRANCH    7    8
ATOM     97  H4  UNL A   1      39.122  37.437  37.890  1.00  0.00    +0.000 H 
ATOM     98  H5  UNL A   1      38.395  37.501  40.204  1.00  0.00    +0.000 H 
ATOM     99  H6  UNL A   1      39.642  36.302  41.905  1.00  0.00    +0.000 H 
ATOM    100  H7  UNL A   1      41.634  35.056  41.299  1.00  0.00    +0.000 H 
ATOM    101  H8  UNL A   1      42.353  34.976  38.985  1.00  0.00    +0.000 H 
ATOM      8  C5  UNL A   1      40.779  36.177  38.250  1.00  0.00    +0.000 C 
ATOM      9  C6  UNL A   1      39.649  36.920  38.610  1.00  0.00    +0.000 C 
ATOM     10  C7  UNL A   1      39.234  36.962  39.943  1.00  0.00    +0.000 C 
ATOM     11  C8  UNL A   1      39.954  36.276  40.922  1.00  0.00    +0.000 C 
ATOM     12  C9  UNL A   1      41.095  35.555  40.573  1.00  0.00    +0.000 C 
ATOM     13  C10 UNL A   1      41.507  35.507  39.241  1.00  0.00    +0.000 C 
ENDBRANCH    7    8
BRANCH   14   15
ATOM    102  H9  UNL A   1      41.021  32.568  36.682  1.00  0.00    +0.000 H 
ATOM    103  H10 UNL A   1      39.363  30.810  36.885  1.00  0.00    +0.000 H 
ATOM    104  H11 UNL A   1      37.013  31.309  36.558  1.00  0.00    +0.000 H 
ATOM    105  H12 UNL A   1      36.326  33.556  35.956  1.00  0.00    +0.000 H 
ATOM    106  H13 UNL A   1      37.992  35.287  35.652  1.00  0.00    +0.000 H 
ATOM     15  C12 UNL A   1      39.637  34.084  36.186  1.00  0.00    +0.000 C 
ATOM     16  C13 UNL A   1      40.025  32.782  36.523  1.00  0.00    +0.000 C 
ATOM     17  C14 UNL A   1      39.069  31.770  36.646  1.00  0.00    +0.000 C 
ATOM     18  C15 UNL A   1      37.719  32.053  36.447  1.00  0.00    +0.000 C 
ATOM     19  C16 UNL A   1      37.326  33.342  36.099  1.00  0.00    +0.000 C 
ATOM     20  C17 UNL A   1      38.285  34.342  35.946  1.00  0.00    +0.000 C 
ENDBRANCH   14   15
ENDBRANCH    3    4
ENDBRANCH    2    3
ENDBRANCH   21    2
ENDBRANCH   22   21
ENDBRANCH   23   22
ENDBRANCH   24   23
ENDBRANCH   25   24
ENDBRANCH   26   25
ENDBRANCH   27   26
ENDBRANCH   28   27
ENDBRANCH   29   28
ENDBRANCH   31   29
ENDBRANCH   35   34
BRANCH   39   40
ATOM     40  C33 UNL A   1      43.015  27.271  34.816  1.00  0.00    +0.000 C 
ATOM     41  C34 UNL A   1      43.277  27.556  36.175  1.00  0.00    +0.000 C 
ATOM     42  F1  UNL A   1      43.035  28.776  36.676  1.00  0.00    +0.000 F 
ATOM     43  C35 UNL A   1      43.889  26.628  37.023  1.00  0.00    +0.000 C 
ATOM     44  F2  UNL A   1      44.242  26.992  38.263  1.00  0.00    +0.000 F 
ATOM     45  C36 UNL A   1      44.203  25.362  36.568  1.00  0.00    +0.000 C 
ATOM     46  F3  UNL A   1      44.848  24.493  37.357  1.00  0.00    +0.000 F 
ATOM     47  C37 UNL A   1      43.889  25.017  35.272  1.00  0.00    +0.000 C 
ATOM     48  F4  UNL A   1      44.202  23.799  34.806  1.00  0.00    +0.000 F 
ATOM     49  C38 UNL A   1      43.326  25.956  34.407  1.00  0.00    +0.000 C 
ATOM     50  F5  UNL A   1      43.210  25.548  33.140  1.00  0.00    +0.000 F 
ENDBRANCH   39   40
BRANCH   56   57
ATOM     65  F9  UNL A   1      48.635  30.702  27.445  1.00  0.00    +0.000 F 
ATOM     66  C49 UNL A   1      46.906  29.563  28.582  1.00  0.00    +0.000 C 
ATOM     67  F10 UNL A   1      47.834  28.904  29.293  1.00  0.00    +0.000 F 
ATOM     57  C44 UNL A   1      45.545  29.351  28.842  1.00  0.00    +0.000 C 
ATOM     58  C45 UNL A   1      44.620  30.106  28.099  1.00  0.00    +0.000 C 
ATOM     59  F6  UNL A   1      43.307  30.023  28.350  1.00  0.00    +0.000 F 
ATOM     60  C46 UNL A   1      45.043  31.001  27.117  1.00  0.00    +0.000 C 
ATOM     61  F7  UNL A   1      44.141  31.699  26.409  1.00  0.00    +0.000 F 
ATOM     62  C47 UNL A   1      46.395  31.196  26.888  1.00  0.00    +0.000 C 
ATOM     63  F8  UNL A   1      46.804  32.085  25.973  1.00  0.00    +0.000 F 
ATOM     64  C48 UNL A   1      47.326  30.484  27.629  1.00  0.00    +0.000 C 
ENDBRANCH   56   57
BRANCH   71   72
ATOM     72  C53 UNL A   1      42.593  24.174  26.826  1.00  0.00    +0.000 C 
ATOM     73  C54 UNL A   1      43.303  23.887  25.648  1.00  0.00    +0.000 C 
ATOM     74  F11 UNL A   1      43.963  24.863  25.006  1.00  0.00    +0.000 F 
ATOM     75  C55 UNL A   1      43.414  22.582  25.155  1.00  0.00    +0.000 C 
ATOM     76  F12 UNL A   1      44.158  22.338  24.068  1.00  0.00    +0.000 F 
ATOM     77  C56 UNL A   1      42.811  21.530  25.823  1.00  0.00    +0.000 C 
ATOM     78  F13 UNL A   1      42.974  20.270  25.393  1.00  0.00    +0.000 F 
ATOM     79  C57 UNL A   1      42.074  21.783  26.967  1.00  0.00    +0.000 C 
ATOM     80  F14 UNL A   1      41.518  20.767  27.642  1.00  0.00    +0.000 F 
ATOM     81  C58 UNL A   1      41.965  23.084  27.460  1.00  0.00    +0.000 C 
ATOM     82  F15 UNL A   1      41.320  23.248  28.624  1.00  0.00    +0.000 F 
ENDBRANCH   71   72
TORSDOF 18
ENDMDL
