MODEL 1
REMARK VINA RESULT:     -11.6      0.000      0.000
ROOT
ATOM    129  H31 UNL A   1      43.628  30.052  28.429  1.00  0.00    +0.000 H 
ATOM    130  H32 UNL A   1      48.025  32.086  27.108  1.00  0.00    +0.000 H 
ATOM    131  H33 UNL A   1      48.421  29.987  25.699  1.00  0.00    +0.000 H 
ATOM    132  H34 UNL A   1      39.863  25.974  29.096  1.00  0.00    +0.000 H 
ATOM    133  H35 UNL A   1      39.199  28.240  30.089  1.00  0.00    +0.000 H 
ATOM     36  C27 UNL A   1      41.233  30.230  29.866  1.00  0.00    +0.000 C 
ATOM     37  C28 UNL A   1      41.241  28.837  29.300  1.00  0.00    +0.000 C 
ATOM     38  N4  UNL A   1      42.164  28.238  28.590  1.00  0.00    +0.000 N 
ATOM     39  C29 UNL A   1      41.682  26.959  28.345  1.00  0.00    +0.000 C 
ATOM     40  C30 UNL A   1      42.231  25.982  27.585  1.00  0.00    +0.000 C 
ATOM     52  C37 UNL A   1      43.485  26.106  26.889  1.00  0.00    +0.000 C 
ATOM     53  C38 UNL A   1      44.113  25.183  26.071  1.00  0.00    +0.000 C 
ATOM     54  C39 UNL A   1      45.334  25.724  25.655  1.00  0.00    +0.000 C 
ATOM     55  C40 UNL A   1      45.439  27.008  26.165  1.00  0.00    +0.000 C 
ATOM     56  N5  UNL A   1      44.303  27.226  26.929  1.00  0.00    +0.000 N 
ATOM     57  C41 UNL A   1      46.497  27.966  25.969  1.00  0.00    +0.000 C 
ATOM     69  C48 UNL A   1      46.527  29.210  26.506  1.00  0.00    +0.000 C 
ATOM     70  N6  UNL A   1      45.595  29.832  27.327  1.00  0.00    +0.000 N 
ATOM     71  C49 UNL A   1      46.089  31.016  27.600  1.00  0.00    +0.000 C 
ATOM     72  C50 UNL A   1      45.492  32.131  28.417  1.00  0.00    +0.000 C 
ATOM     84  C57 UNL A   1      44.272  31.960  28.961  1.00  0.00    +0.000 C 
ATOM     85  C58 UNL A   1      43.558  32.947  29.763  1.00  0.00    +0.000 C 
ATOM     86  C59 UNL A   1      42.402  32.413  30.186  1.00  0.00    +0.000 C 
ATOM     87  C60 UNL A   1      42.273  31.057  29.649  1.00  0.00    +0.000 C 
ATOM     88  N7  UNL A   1      43.426  30.878  28.926  1.00  0.00    +0.000 N 
ATOM     89  C61 UNL A   1      47.410  31.264  27.006  1.00  0.00    +0.000 C 
ATOM     90  C62 UNL A   1      47.605  30.156  26.308  1.00  0.00    +0.000 C 
ATOM     91  C63 UNL A   1      40.418  26.842  29.039  1.00  0.00    +0.000 C 
ATOM     92  C64 UNL A   1      40.069  27.995  29.588  1.00  0.00    +0.000 C 
ATOM    124  H26 UNL A   1      43.743  24.255  25.810  1.00  0.00    +0.000 H 
ATOM    125  H27 UNL A   1      46.037  25.249  25.069  1.00  0.00    +0.000 H 
ATOM    126  H28 UNL A   1      44.106  28.051  27.428  1.00  0.00    +0.000 H 
ATOM    127  H29 UNL A   1      43.888  33.903  29.971  1.00  0.00    +0.000 H 
ATOM    128  H30 UNL A   1      41.713  32.883  30.795  1.00  0.00    +0.000 H 
ENDROOT
BRANCH   36   35
ATOM     33  C24 UNL A   1      39.014  30.896  32.870  1.00  0.00    +0.000 C 
ATOM     34  C25 UNL A   1      40.115  30.523  32.098  1.00  0.00    +0.000 C 
ATOM     35  C26 UNL A   1      40.097  30.692  30.704  1.00  0.00    +0.000 C 
ATOM    134  H36 UNL A   1      38.961  31.422  29.077  1.00  0.00    +0.000 H 
ATOM    135  H37 UNL A   1      37.150  32.270  30.445  1.00  0.00    +0.000 H 
ATOM    122  H24 UNL A   1      39.018  30.738  33.890  1.00  0.00    +0.000 H 
ATOM    123  H25 UNL A   1      40.949  30.121  32.555  1.00  0.00    +0.000 H 
ATOM     93  C65 UNL A   1      38.989  31.303  30.102  1.00  0.00    +0.000 C 
ATOM     94  C66 UNL A   1      37.925  31.747  30.880  1.00  0.00    +0.000 C 
ATOM     32  C23 UNL A   1      37.908  31.485  32.254  1.00  0.00    +0.000 C 
BRANCH   32   30
ATOM     30  C22 UNL A   1      36.738  31.849  33.082  1.00  0.00    +0.000 C 
ATOM     31  O4  UNL A   1      36.867  32.001  34.292  1.00  0.00    +0.000 O 
BRANCH   30   29
ATOM    121  H23 UNL A   1      35.296  31.390  31.768  1.00  0.00    +0.000 H 
ATOM     29  N3  UNL A   1      35.513  32.021  32.492  1.00  0.00    +0.000 N 
BRANCH   29   28
ATOM     28  C21 UNL A   1      34.490  33.011  32.795  1.00  0.00    +0.000 C 
ATOM    119  H21 UNL A   1      33.579  32.504  33.041  1.00  0.00    +0.000 H 
ATOM    120  H22 UNL A   1      34.832  33.604  33.616  1.00  0.00    +0.000 H 
BRANCH   28   27
ATOM     27  C20 UNL A   1      34.235  33.938  31.611  1.00  0.00    +0.000 C 
ATOM    117  H19 UNL A   1      33.584  33.436  30.925  1.00  0.00    +0.000 H 
ATOM    118  H20 UNL A   1      33.806  34.834  32.007  1.00  0.00    +0.000 H 
BRANCH   27   26
ATOM     26  C19 UNL A   1      35.502  34.349  30.857  1.00  0.00    +0.000 C 
ATOM    115  H17 UNL A   1      35.634  35.404  30.975  1.00  0.00    +0.000 H 
ATOM    116  H18 UNL A   1      36.303  33.774  31.275  1.00  0.00    +0.000 H 
BRANCH   26   25
ATOM     25  C18 UNL A   1      35.487  34.036  29.353  1.00  0.00    +0.000 C 
ATOM    114  H16 UNL A   1      36.423  33.567  29.133  1.00  0.00    +0.000 H 
ATOM    113  H15 UNL A   1      35.340  34.953  28.823  1.00  0.00    +0.000 H 
BRANCH   25   24
ATOM    112  H14 UNL A   1      33.620  33.617  28.444  1.00  0.00    +0.000 H 
ATOM    111  H13 UNL A   1      34.040  32.528  29.778  1.00  0.00    +0.000 H 
ATOM     24  C17 UNL A   1      34.395  33.049  28.915  1.00  0.00    +0.000 C 
BRANCH   24   23
ATOM    109  H11 UNL A   1      34.809  32.430  26.910  1.00  0.00    +0.000 H 
ATOM    110  H12 UNL A   1      35.910  31.780  28.108  1.00  0.00    +0.000 H 
ATOM     23  C16 UNL A   1      34.890  32.020  27.894  1.00  0.00    +0.000 C 
BRANCH   23   22
ATOM    108  H10 UNL A   1      34.351  30.235  28.730  1.00  0.00    +0.000 H 
ATOM     22  N2  UNL A   1      34.094  30.813  27.976  1.00  0.00    +0.000 N 
BRANCH   22   20
ATOM     20  C15 UNL A   1      33.058  30.295  27.233  1.00  0.00    +0.000 C 
ATOM     21  O3  UNL A   1      32.128  31.074  27.005  1.00  0.00    +0.000 O 
BRANCH   20   19
ATOM    136  H38 UNL A   1      34.562  27.087  24.522  1.00  0.00    +0.000 H 
ATOM    106  H8  UNL A   1      31.277  26.007  26.839  1.00  0.00    +0.000 H 
ATOM    107  H9  UNL A   1      31.448  28.138  27.996  1.00  0.00    +0.000 H 
ATOM     16  C11 UNL A   1      32.865  26.388  25.506  1.00  0.00    +0.000 C 
ATOM     17  C12 UNL A   1      31.987  26.696  26.547  1.00  0.00    +0.000 C 
ATOM     18  C13 UNL A   1      32.063  27.929  27.195  1.00  0.00    +0.000 C 
ATOM     19  C14 UNL A   1      32.977  28.870  26.746  1.00  0.00    +0.000 C 
ATOM     95  N8  UNL A   1      33.892  28.561  25.784  1.00  0.00    +0.000 N 
ATOM     96  C67 UNL A   1      33.836  27.332  25.214  1.00  0.00    +0.000 C 
BRANCH   16   15
ATOM    104  H6  UNL A   1      30.764  23.559  22.518  1.00  0.00    +0.000 H 
ATOM      9  C6  UNL A   1      31.672  25.004  23.771  1.00  0.00    +0.000 C 
ATOM     10  C7  UNL A   1      31.513  23.729  23.206  1.00  0.00    +0.000 C 
ATOM     11  C8  UNL A   1      32.367  22.694  23.575  1.00  0.00    +0.000 C 
ATOM     12 Cl1  UNL A   1      32.156  21.118  22.928  1.00  0.00    +0.000 Cl
ATOM     13  C9  UNL A   1      33.377  22.958  24.483  1.00  0.00    +0.000 C 
ATOM     14  N1  UNL A   1      33.570  24.166  25.063  1.00  0.00    +0.000 N 
ATOM     15  C10 UNL A   1      32.708  25.160  24.724  1.00  0.00    +0.000 C 
ATOM    105  H7  UNL A   1      34.021  22.191  24.732  1.00  0.00    +0.000 H 
BRANCH    9    8
ATOM     97  C68 UNL A   1      29.446  26.154  23.885  1.00  0.00    +0.000 C 
ATOM     98  C69 UNL A   1      28.622  27.256  23.635  1.00  0.00    +0.000 C 
ATOM      5  C2  UNL A   1      29.112  28.326  22.885  1.00  0.00    +0.000 C 
ATOM    102  H4  UNL A   1      30.768  29.097  21.824  1.00  0.00    +0.000 H 
ATOM      6  C3  UNL A   1      30.409  28.301  22.375  1.00  0.00    +0.000 C 
ATOM      7  C4  UNL A   1      31.220  27.189  22.616  1.00  0.00    +0.000 C 
ATOM    103  H5  UNL A   1      32.168  27.157  22.212  1.00  0.00    +0.000 H 
ATOM    138  H40 UNL A   1      27.658  27.277  24.001  1.00  0.00    +0.000 H 
ATOM      8  C5  UNL A   1      30.765  26.110  23.400  1.00  0.00    +0.000 C 
ATOM    137  H39 UNL A   1      29.081  25.361  24.436  1.00  0.00    +0.000 H 
BRANCH    5    2
ATOM      2  S1  UNL A   1      28.106  29.768  22.626  1.00  0.00    +0.000 S 
ATOM      3  O1  UNL A   1      26.838  29.524  23.291  1.00  0.00    +0.000 O 
ATOM      4  O2  UNL A   1      28.152  30.087  21.214  1.00  0.00    +0.000 O 
BRANCH    2    1
ATOM      1  C1  UNL A   1      28.971  31.043  23.505  1.00  0.00    +0.000 C 
ATOM     99  H1  UNL A   1      29.018  31.924  22.901  1.00  0.00    +0.000 H 
ATOM    100  H2  UNL A   1      29.962  30.711  23.732  1.00  0.00    +0.000 H 
ATOM    101  H3  UNL A   1      28.452  31.263  24.416  1.00  0.00    +0.000 H 
ENDBRANCH    2    1
ENDBRANCH    5    2
ENDBRANCH    9    8
ENDBRANCH   16   15
ENDBRANCH   20   19
ENDBRANCH   22   20
ENDBRANCH   23   22
ENDBRANCH   24   23
ENDBRANCH   25   24
ENDBRANCH   26   25
ENDBRANCH   27   26
ENDBRANCH   28   27
ENDBRANCH   29   28
ENDBRANCH   30   29
ENDBRANCH   32   30
ENDBRANCH   36   35
BRANCH   40   41
ATOM     41  C31 UNL A   1      41.471  24.693  27.446  1.00  0.00    +0.000 C 
ATOM     42  C32 UNL A   1      40.317  24.607  26.651  1.00  0.00    +0.000 C 
ATOM     43  F1  UNL A   1      39.827  25.702  26.052  1.00  0.00    +0.000 F 
ATOM     44  C33 UNL A   1      39.645  23.398  26.492  1.00  0.00    +0.000 C 
ATOM     45  F2  UNL A   1      38.524  23.349  25.759  1.00  0.00    +0.000 F 
ATOM     46  C34 UNL A   1      40.131  22.247  27.093  1.00  0.00    +0.000 C 
ATOM     47  F3  UNL A   1      39.493  21.081  26.924  1.00  0.00    +0.000 F 
ATOM     48  C35 UNL A   1      41.276  22.305  27.872  1.00  0.00    +0.000 C 
ATOM     49  F4  UNL A   1      41.756  21.191  28.441  1.00  0.00    +0.000 F 
ATOM     50  C36 UNL A   1      41.933  23.520  28.060  1.00  0.00    +0.000 C 
ATOM     51  F5  UNL A   1      43.034  23.544  28.827  1.00  0.00    +0.000 F 
ENDBRANCH   40   41
BRANCH   57   58
ATOM     65  C46 UNL A   1      48.612  27.400  22.856  1.00  0.00    +0.000 C 
ATOM     66  F9  UNL A   1      48.511  27.591  21.533  1.00  0.00    +0.000 F 
ATOM     67  C47 UNL A   1      47.572  27.786  23.696  1.00  0.00    +0.000 C 
ATOM     68  F10 UNL A   1      46.487  28.360  23.154  1.00  0.00    +0.000 F 
ATOM     58  C42 UNL A   1      47.643  27.572  25.081  1.00  0.00    +0.000 C 
ATOM     59  C43 UNL A   1      48.797  26.960  25.592  1.00  0.00    +0.000 C 
ATOM     60  F6  UNL A   1      48.922  26.747  26.911  1.00  0.00    +0.000 F 
ATOM     61  C44 UNL A   1      49.852  26.609  24.754  1.00  0.00    +0.000 C 
ATOM     62  F7  UNL A   1      50.969  26.081  25.272  1.00  0.00    +0.000 F 
ATOM     63  C45 UNL A   1      49.755  26.822  23.387  1.00  0.00    +0.000 C 
ATOM     64  F8  UNL A   1      50.770  26.478  22.580  1.00  0.00    +0.000 F 
ENDBRANCH   57   58
BRANCH   72   73
ATOM     73  C51 UNL A   1      46.234  33.405  28.620  1.00  0.00    +0.000 C 
ATOM     74  C52 UNL A   1      47.090  33.578  29.717  1.00  0.00    +0.000 C 
ATOM     75  F11 UNL A   1      47.266  32.579  30.594  1.00  0.00    +0.000 F 
ATOM     76  C53 UNL A   1      47.721  34.798  29.953  1.00  0.00    +0.000 C 
ATOM     77  F12 UNL A   1      48.475  34.957  31.049  1.00  0.00    +0.000 F 
ATOM     78  C54 UNL A   1      47.545  35.855  29.074  1.00  0.00    +0.000 C 
ATOM     79  F13 UNL A   1      48.146  37.030  29.305  1.00  0.00    +0.000 F 
ATOM     80  C55 UNL A   1      46.732  35.695  27.961  1.00  0.00    +0.000 C 
ATOM     81  F14 UNL A   1      46.572  36.709  27.099  1.00  0.00    +0.000 F 
ATOM     82  C56 UNL A   1      46.072  34.489  27.745  1.00  0.00    +0.000 C 
ATOM     83  F15 UNL A   1      45.271  34.376  26.675  1.00  0.00    +0.000 F 
ENDBRANCH   72   73
TORSDOF 19
ENDMDL
MODEL 2
REMARK VINA RESULT:     -11.4     37.253     41.885
ROOT
ATOM    129  H31 UNL A   1      14.371  51.556   3.114  1.00  0.00    +0.000 H 
ATOM    130  H32 UNL A   1      13.269  46.762   2.106  1.00  0.00    +0.000 H 
ATOM    131  H33 UNL A   1      15.086  46.862   0.308  1.00  0.00    +0.000 H 
ATOM    132  H34 UNL A   1      16.534  56.624   2.172  1.00  0.00    +0.000 H 
ATOM    133  H35 UNL A   1      15.114  56.425   4.294  1.00  0.00    +0.000 H 
ATOM     36  C27 UNL A   1      13.901  53.863   4.627  1.00  0.00    +0.000 C 
ATOM     37  C28 UNL A   1      14.876  54.290   3.564  1.00  0.00    +0.000 C 
ATOM     38  N4  UNL A   1      15.378  53.595   2.575  1.00  0.00    +0.000 N 
ATOM     39  C29 UNL A   1      16.206  54.468   1.881  1.00  0.00    +0.000 C 
ATOM     40  C30 UNL A   1      17.015  54.205   0.828  1.00  0.00    +0.000 C 
ATOM     52  C37 UNL A   1      17.137  52.914   0.203  1.00  0.00    +0.000 C 
ATOM     53  C38 UNL A   1      17.950  52.539  -0.852  1.00  0.00    +0.000 C 
ATOM     54  C39 UNL A   1      17.694  51.196  -1.148  1.00  0.00    +0.000 C 
ATOM     55  C40 UNL A   1      16.766  50.717  -0.237  1.00  0.00    +0.000 C 
ATOM     56  N5  UNL A   1      16.424  51.784   0.579  1.00  0.00    +0.000 N 
ATOM     57  C41 UNL A   1      16.232  49.385  -0.120  1.00  0.00    +0.000 C 
ATOM     69  C48 UNL A   1      15.320  48.993   0.804  1.00  0.00    +0.000 C 
ATOM     70  N6  UNL A   1      14.717  49.737   1.809  1.00  0.00    +0.000 N 
ATOM     71  C49 UNL A   1      13.893  48.918   2.419  1.00  0.00    +0.000 C 
ATOM     72  C50 UNL A   1      13.004  49.172   3.607  1.00  0.00    +0.000 C 
ATOM     84  C57 UNL A   1      13.019  50.389   4.184  1.00  0.00    +0.000 C 
ATOM     85  C58 UNL A   1      12.227  50.784   5.344  1.00  0.00    +0.000 C 
ATOM     86  C59 UNL A   1      12.451  52.081   5.604  1.00  0.00    +0.000 C 
ATOM     87  C60 UNL A   1      13.436  52.600   4.654  1.00  0.00    +0.000 C 
ATOM     88  N7  UNL A   1      13.722  51.521   3.854  1.00  0.00    +0.000 N 
ATOM     89  C61 UNL A   1      13.860  47.566   1.844  1.00  0.00    +0.000 C 
ATOM     90  C62 UNL A   1      14.785  47.651   0.900  1.00  0.00    +0.000 C 
ATOM     91  C63 UNL A   1      16.087  55.761   2.518  1.00  0.00    +0.000 C 
ATOM     92  C64 UNL A   1      15.330  55.689   3.602  1.00  0.00    +0.000 C 
ATOM    124  H26 UNL A   1      18.629  53.146  -1.338  1.00  0.00    +0.000 H 
ATOM    125  H27 UNL A   1      18.123  50.654  -1.913  1.00  0.00    +0.000 H 
ATOM    126  H28 UNL A   1      15.772  51.747   1.316  1.00  0.00    +0.000 H 
ATOM    127  H29 UNL A   1      11.598  50.166   5.879  1.00  0.00    +0.000 H 
ATOM    128  H30 UNL A   1      12.000  52.627   6.356  1.00  0.00    +0.000 H 
ENDROOT
BRANCH   36   35
ATOM     33  C24 UNL A   1      13.492  55.808   7.858  1.00  0.00    +0.000 C 
ATOM     34  C25 UNL A   1      14.005  54.935   6.898  1.00  0.00    +0.000 C 
ATOM     35  C26 UNL A   1      13.410  54.842   5.630  1.00  0.00    +0.000 C 
ATOM    134  H36 UNL A   1      11.884  55.618   4.387  1.00  0.00    +0.000 H 
ATOM    135  H37 UNL A   1      11.141  57.287   5.979  1.00  0.00    +0.000 H 
ATOM    122  H24 UNL A   1      13.911  55.848   8.801  1.00  0.00    +0.000 H 
ATOM    123  H25 UNL A   1      14.829  54.354   7.122  1.00  0.00    +0.000 H 
ATOM     93  C65 UNL A   1      12.336  55.685   5.313  1.00  0.00    +0.000 C 
ATOM     94  C66 UNL A   1      11.875  56.613   6.243  1.00  0.00    +0.000 C 
ATOM     32  C23 UNL A   1      12.409  56.628   7.536  1.00  0.00    +0.000 C 
BRANCH   32   30
ATOM     30  C22 UNL A   1      11.859  57.527   8.573  1.00  0.00    +0.000 C 
ATOM     31  O4  UNL A   1      12.549  58.434   9.027  1.00  0.00    +0.000 O 
BRANCH   30   29
ATOM    121  H23 UNL A   1       9.866  57.675   8.420  1.00  0.00    +0.000 H 
ATOM     29  N3  UNL A   1      10.575  57.348   9.019  1.00  0.00    +0.000 N 
BRANCH   29   28
ATOM     28  C21 UNL A   1      10.122  56.739  10.261  1.00  0.00    +0.000 C 
ATOM    119  H21 UNL A   1       9.955  57.510  10.985  1.00  0.00    +0.000 H 
ATOM    120  H22 UNL A   1       9.219  56.202  10.059  1.00  0.00    +0.000 H 
BRANCH   28   27
ATOM     27  C20 UNL A   1      11.147  55.755  10.814  1.00  0.00    +0.000 C 
ATOM    117  H19 UNL A   1      11.170  54.898  10.174  1.00  0.00    +0.000 H 
ATOM    118  H20 UNL A   1      12.084  56.271  10.847  1.00  0.00    +0.000 H 
BRANCH   27   26
ATOM     26  C19 UNL A   1      10.852  55.283  12.240  1.00  0.00    +0.000 C 
ATOM    115  H17 UNL A   1      10.020  55.843  12.612  1.00  0.00    +0.000 H 
ATOM    116  H18 UNL A   1      10.659  54.232  12.176  1.00  0.00    +0.000 H 
BRANCH   26   25
ATOM     25  C18 UNL A   1      12.017  55.447  13.227  1.00  0.00    +0.000 C 
ATOM    114  H16 UNL A   1      11.684  56.137  13.974  1.00  0.00    +0.000 H 
ATOM    113  H15 UNL A   1      12.869  55.794  12.682  1.00  0.00    +0.000 H 
BRANCH   25   24
ATOM    112  H14 UNL A   1      11.858  54.134  14.883  1.00  0.00    +0.000 H 
ATOM    111  H13 UNL A   1      13.469  54.183  14.145  1.00  0.00    +0.000 H 
ATOM     24  C17 UNL A   1      12.415  54.162  13.970  1.00  0.00    +0.000 C 
BRANCH   24   23
ATOM    109  H11 UNL A   1      11.291  52.364  13.691  1.00  0.00    +0.000 H 
ATOM    110  H12 UNL A   1      11.762  53.158  12.202  1.00  0.00    +0.000 H 
ATOM     23  C16 UNL A   1      12.076  52.889  13.189  1.00  0.00    +0.000 C 
BRANCH   23   22
ATOM    108  H10 UNL A   1      13.064  51.112  13.390  1.00  0.00    +0.000 H 
ATOM     22  N2  UNL A   1      13.241  52.035  13.097  1.00  0.00    +0.000 N 
BRANCH   22   20
ATOM     20  C15 UNL A   1      14.542  52.228  12.692  1.00  0.00    +0.000 C 
ATOM     21  O3  UNL A   1      15.278  52.778  13.516  1.00  0.00    +0.000 O 
BRANCH   20   19
ATOM    136  H38 UNL A   1      13.978  52.065   8.270  1.00  0.00    +0.000 H 
ATOM    106  H8  UNL A   1      17.511  50.340   9.637  1.00  0.00    +0.000 H 
ATOM    107  H9  UNL A   1      16.985  51.141  11.871  1.00  0.00    +0.000 H 
ATOM     16  C11 UNL A   1      15.737  51.063   8.755  1.00  0.00    +0.000 C 
ATOM     17  C12 UNL A   1      16.621  50.833   9.811  1.00  0.00    +0.000 C 
ATOM     18  C13 UNL A   1      16.311  51.265  11.101  1.00  0.00    +0.000 C 
ATOM     19  C14 UNL A   1      15.083  51.865  11.332  1.00  0.00    +0.000 C 
ATOM     95  N8  UNL A   1      14.240  52.166  10.303  1.00  0.00    +0.000 N 
ATOM     96  C67 UNL A   1      14.595  51.791   9.050  1.00  0.00    +0.000 C 
BRANCH   16   15
ATOM    104  H6  UNL A   1      15.613  47.771   5.516  1.00  0.00    +0.000 H 
ATOM      9  C6  UNL A   1      15.492  49.219   7.056  1.00  0.00    +0.000 C 
ATOM     10  C7  UNL A   1      15.929  48.703   5.826  1.00  0.00    +0.000 C 
ATOM     11  C8  UNL A   1      16.789  49.448   5.026  1.00  0.00    +0.000 C 
ATOM     12 Cl1  UNL A   1      17.369  48.811   3.541  1.00  0.00    +0.000 Cl
ATOM     13  C9  UNL A   1      17.177  50.704   5.458  1.00  0.00    +0.000 C 
ATOM     14  N1  UNL A   1      16.792  51.245   6.637  1.00  0.00    +0.000 N 
ATOM     15  C10 UNL A   1      15.982  50.494   7.428  1.00  0.00    +0.000 C 
ATOM    105  H7  UNL A   1      17.795  51.260   4.847  1.00  0.00    +0.000 H 
BRANCH    9    8
ATOM     97  C68 UNL A   1      15.104  47.509   8.849  1.00  0.00    +0.000 C 
ATOM     98  C69 UNL A   1      14.264  46.851   9.754  1.00  0.00    +0.000 C 
ATOM      5  C2  UNL A   1      12.894  47.109   9.734  1.00  0.00    +0.000 C 
ATOM    102  H4  UNL A   1      11.338  48.198   8.807  1.00  0.00    +0.000 H 
ATOM      6  C3  UNL A   1      12.352  48.007   8.815  1.00  0.00    +0.000 C 
ATOM      7  C4  UNL A   1      13.197  48.647   7.904  1.00  0.00    +0.000 C 
ATOM    103  H5  UNL A   1      12.792  49.288   7.203  1.00  0.00    +0.000 H 
ATOM    138  H40 UNL A   1      14.656  46.177  10.431  1.00  0.00    +0.000 H 
ATOM      8  C5  UNL A   1      14.589  48.434   7.924  1.00  0.00    +0.000 C 
ATOM    137  H39 UNL A   1      16.117  47.313   8.862  1.00  0.00    +0.000 H 
BRANCH    5    2
ATOM      2  S1  UNL A   1      11.823  46.343  10.929  1.00  0.00    +0.000 S 
ATOM      3  O1  UNL A   1      12.266  44.967  11.071  1.00  0.00    +0.000 O 
ATOM      4  O2  UNL A   1      10.458  46.647  10.554  1.00  0.00    +0.000 O 
BRANCH    2    1
ATOM      1  C1  UNL A   1      12.186  47.212  12.432  1.00  0.00    +0.000 C 
ATOM     99  H1  UNL A   1      13.213  47.061  12.692  1.00  0.00    +0.000 H 
ATOM    100  H2  UNL A   1      11.561  46.844  13.217  1.00  0.00    +0.000 H 
ATOM    101  H3  UNL A   1      12.005  48.258  12.292  1.00  0.00    +0.000 H 
ENDBRANCH    2    1
ENDBRANCH    5    2
ENDBRANCH    9    8
ENDBRANCH   16   15
ENDBRANCH   20   19
ENDBRANCH   22   20
ENDBRANCH   23   22
ENDBRANCH   24   23
ENDBRANCH   25   24
ENDBRANCH   26   25
ENDBRANCH   27   26
ENDBRANCH   28   27
ENDBRANCH   29   28
ENDBRANCH   30   29
ENDBRANCH   32   30
ENDBRANCH   36   35
BRANCH   40   41
ATOM     41  C31 UNL A   1      17.851  55.332   0.290  1.00  0.00    +0.000 C 
ATOM     42  C32 UNL A   1      17.434  56.089  -0.816  1.00  0.00    +0.000 C 
ATOM     43  F1  UNL A   1      16.303  55.771  -1.464  1.00  0.00    +0.000 F 
ATOM     44  C33 UNL A   1      18.192  57.160  -1.279  1.00  0.00    +0.000 C 
ATOM     45  F2  UNL A   1      17.793  57.843  -2.361  1.00  0.00    +0.000 F 
ATOM     46  C34 UNL A   1      19.362  57.518  -0.626  1.00  0.00    +0.000 C 
ATOM     47  F3  UNL A   1      20.082  58.561  -1.063  1.00  0.00    +0.000 F 
ATOM     48  C35 UNL A   1      19.788  56.793   0.476  1.00  0.00    +0.000 C 
ATOM     49  F4  UNL A   1      20.910  57.147   1.117  1.00  0.00    +0.000 F 
ATOM     50  C36 UNL A   1      19.048  55.700   0.922  1.00  0.00    +0.000 C 
ATOM     51  F5  UNL A   1      19.491  55.014   1.987  1.00  0.00    +0.000 F 
ENDBRANCH   40   41
BRANCH   57   58
ATOM     65  C46 UNL A   1      16.428  47.001  -3.080  1.00  0.00    +0.000 C 
ATOM     66  F9  UNL A   1      15.681  46.663  -4.140  1.00  0.00    +0.000 F 
ATOM     67  C47 UNL A   1      15.987  47.988  -2.204  1.00  0.00    +0.000 C 
ATOM     68  F10 UNL A   1      14.817  48.594  -2.455  1.00  0.00    +0.000 F 
ATOM     58  C42 UNL A   1      16.739  48.340  -1.072  1.00  0.00    +0.000 C 
ATOM     59  C43 UNL A   1      17.950  47.667  -0.855  1.00  0.00    +0.000 C 
ATOM     60  F6  UNL A   1      18.714  47.976   0.204  1.00  0.00    +0.000 F 
ATOM     61  C44 UNL A   1      18.407  46.706  -1.753  1.00  0.00    +0.000 C 
ATOM     62  F7  UNL A   1      19.596  46.120  -1.556  1.00  0.00    +0.000 F 
ATOM     63  C45 UNL A   1      17.643  46.369  -2.860  1.00  0.00    +0.000 C 
ATOM     64  F8  UNL A   1      18.081  45.439  -3.720  1.00  0.00    +0.000 F 
ENDBRANCH   57   58
BRANCH   72   73
ATOM     73  C51 UNL A   1      12.122  48.098   4.139  1.00  0.00    +0.000 C 
ATOM     74  C52 UNL A   1      10.733  48.143   3.957  1.00  0.00    +0.000 C 
ATOM     75  F11 UNL A   1      10.179  49.157   3.276  1.00  0.00    +0.000 F 
ATOM     76  C53 UNL A   1       9.900  47.181   4.525  1.00  0.00    +0.000 C 
ATOM     77  F12 UNL A   1       8.571  47.289   4.396  1.00  0.00    +0.000 F 
ATOM     78  C54 UNL A   1      10.442  46.130   5.249  1.00  0.00    +0.000 C 
ATOM     79  F13 UNL A   1       9.641  45.210   5.802  1.00  0.00    +0.000 F 
ATOM     80  C55 UNL A   1      11.817  46.044   5.412  1.00  0.00    +0.000 C 
ATOM     81  F14 UNL A   1      12.348  45.021   6.097  1.00  0.00    +0.000 F 
ATOM     82  C56 UNL A   1      12.647  47.025   4.876  1.00  0.00    +0.000 C 
ATOM     83  F15 UNL A   1      13.970  46.929   5.074  1.00  0.00    +0.000 F 
ENDBRANCH   72   73
TORSDOF 19
ENDMDL
MODEL 3
REMARK VINA RESULT:     -11.3     20.390     27.236
ROOT
ATOM    129  H31 UNL A   1      26.851  36.252  47.109  1.00  0.00    +0.000 H 
ATOM    130  H32 UNL A   1      26.920  32.357  43.941  1.00  0.00    +0.000 H 
ATOM    131  H33 UNL A   1      29.265  33.122  43.261  1.00  0.00    +0.000 H 
ATOM    132  H34 UNL A   1      28.474  41.165  49.225  1.00  0.00    +0.000 H 
ATOM    133  H35 UNL A   1      26.377  40.159  50.297  1.00  0.00    +0.000 H 
ATOM     36  C27 UNL A   1      25.504  37.740  49.060  1.00  0.00    +0.000 C 
ATOM     37  C28 UNL A   1      26.748  38.531  48.761  1.00  0.00    +0.000 C 
ATOM     38  N4  UNL A   1      27.691  38.290  47.885  1.00  0.00    +0.000 N 
ATOM     39  C29 UNL A   1      28.593  39.339  48.003  1.00  0.00    +0.000 C 
ATOM     40  C30 UNL A   1      29.780  39.506  47.372  1.00  0.00    +0.000 C 
ATOM     52  C37 UNL A   1      30.318  38.587  46.404  1.00  0.00    +0.000 C 
ATOM     53  C38 UNL A   1      31.525  38.653  45.729  1.00  0.00    +0.000 C 
ATOM     54  C39 UNL A   1      31.597  37.564  44.853  1.00  0.00    +0.000 C 
ATOM     55  C40 UNL A   1      30.464  36.788  45.026  1.00  0.00    +0.000 C 
ATOM     56  N5  UNL A   1      29.682  37.432  45.973  1.00  0.00    +0.000 N 
ATOM     57  C41 UNL A   1      30.119  35.549  44.377  1.00  0.00    +0.000 C 
ATOM     69  C48 UNL A   1      28.983  34.845  44.602  1.00  0.00    +0.000 C 
ATOM     70  N6  UNL A   1      27.935  35.127  45.468  1.00  0.00    +0.000 N 
ATOM     71  C49 UNL A   1      27.061  34.162  45.304  1.00  0.00    +0.000 C 
ATOM     72  C50 UNL A   1      25.750  33.934  46.008  1.00  0.00    +0.000 C 
ATOM     84  C57 UNL A   1      25.365  34.800  46.966  1.00  0.00    +0.000 C 
ATOM     85  C58 UNL A   1      24.135  34.708  47.743  1.00  0.00    +0.000 C 
ATOM     86  C59 UNL A   1      24.053  35.771  48.559  1.00  0.00    +0.000 C 
ATOM     87  C60 UNL A   1      25.249  36.598  48.392  1.00  0.00    +0.000 C 
ATOM     88  N7  UNL A   1      25.975  35.939  47.432  1.00  0.00    +0.000 N 
ATOM     89  C61 UNL A   1      27.447  33.173  44.288  1.00  0.00    +0.000 C 
ATOM     90  C62 UNL A   1      28.647  33.606  43.931  1.00  0.00    +0.000 C 
ATOM     91  C63 UNL A   1      28.053  40.255  48.984  1.00  0.00    +0.000 C 
ATOM     92  C64 UNL A   1      26.949  39.769  49.530  1.00  0.00    +0.000 C 
ATOM    124  H26 UNL A   1      32.248  39.379  45.852  1.00  0.00    +0.000 H 
ATOM    125  H27 UNL A   1      32.364  37.373  44.191  1.00  0.00    +0.000 H 
ATOM    126  H28 UNL A   1      28.805  37.118  46.291  1.00  0.00    +0.000 H 
ATOM    127  H29 UNL A   1      23.439  33.949  47.677  1.00  0.00    +0.000 H 
ATOM    128  H30 UNL A   1      23.271  35.972  49.202  1.00  0.00    +0.000 H 
ENDROOT
BRANCH   36   35
ATOM     33  C24 UNL A   1      23.659  38.266  52.333  1.00  0.00    +0.000 C 
ATOM     34  C25 UNL A   1      24.624  37.855  51.412  1.00  0.00    +0.000 C 
ATOM     35  C26 UNL A   1      24.526  38.232  50.062  1.00  0.00    +0.000 C 
ATOM    134  H36 UNL A   1      23.399  39.359  48.671  1.00  0.00    +0.000 H 
ATOM    135  H37 UNL A   1      21.858  40.248  50.316  1.00  0.00    +0.000 H 
ATOM    122  H24 UNL A   1      23.716  37.957  53.316  1.00  0.00    +0.000 H 
ATOM    123  H25 UNL A   1      25.415  37.271  51.724  1.00  0.00    +0.000 H 
ATOM     93  C65 UNL A   1      23.486  39.083  49.662  1.00  0.00    +0.000 C 
ATOM     94  C66 UNL A   1      22.570  39.558  50.596  1.00  0.00    +0.000 C 
ATOM     32  C23 UNL A   1      22.618  39.097  51.917  1.00  0.00    +0.000 C 
BRANCH   32   30
ATOM     30  C22 UNL A   1      21.589  39.500  52.898  1.00  0.00    +0.000 C 
ATOM     31  O4  UNL A   1      21.906  40.159  53.883  1.00  0.00    +0.000 O 
BRANCH   30   29
ATOM    121  H23 UNL A   1      19.621  39.867  52.790  1.00  0.00    +0.000 H 
ATOM     29  N3  UNL A   1      20.280  39.141  52.701  1.00  0.00    +0.000 N 
BRANCH   29   28
ATOM     28  C21 UNL A   1      19.737  37.831  52.377  1.00  0.00    +0.000 C 
ATOM    119  H21 UNL A   1      19.857  37.655  51.327  1.00  0.00    +0.000 H 
ATOM    120  H22 UNL A   1      20.264  37.099  52.951  1.00  0.00    +0.000 H 
BRANCH   28   27
ATOM     27  C20 UNL A   1      18.255  37.733  52.726  1.00  0.00    +0.000 C 
ATOM    117  H19 UNL A   1      18.037  36.718  52.984  1.00  0.00    +0.000 H 
ATOM    118  H20 UNL A   1      18.083  38.412  53.535  1.00  0.00    +0.000 H 
BRANCH   27   26
ATOM     26  C19 UNL A   1      17.318  38.152  51.590  1.00  0.00    +0.000 C 
ATOM    115  H17 UNL A   1      17.516  39.176  51.354  1.00  0.00    +0.000 H 
ATOM    116  H18 UNL A   1      17.514  37.485  50.776  1.00  0.00    +0.000 H 
BRANCH   26   25
ATOM     25  C18 UNL A   1      15.821  38.016  51.907  1.00  0.00    +0.000 C 
ATOM    114  H16 UNL A   1      15.652  38.566  52.808  1.00  0.00    +0.000 H 
ATOM    113  H15 UNL A   1      15.593  36.974  51.998  1.00  0.00    +0.000 H 
BRANCH   25   24
ATOM    112  H14 UNL A   1      15.465  38.791  49.967  1.00  0.00    +0.000 H 
ATOM    111  H13 UNL A   1      14.470  39.525  51.238  1.00  0.00    +0.000 H 
ATOM     24  C17 UNL A   1      14.884  38.619  50.849  1.00  0.00    +0.000 C 
BRANCH   24   23
ATOM    109  H11 UNL A   1      13.203  37.393  51.345  1.00  0.00    +0.000 H 
ATOM    110  H12 UNL A   1      13.076  38.199  49.794  1.00  0.00    +0.000 H 
ATOM     23  C16 UNL A   1      13.734  37.684  50.463  1.00  0.00    +0.000 C 
BRANCH   23   22
ATOM    108  H10 UNL A   1      14.254  35.710  50.384  1.00  0.00    +0.000 H 
ATOM     22  N2  UNL A   1      14.250  36.504  49.803  1.00  0.00    +0.000 N 
BRANCH   22   20
ATOM     20  C15 UNL A   1      14.738  36.247  48.542  1.00  0.00    +0.000 C 
ATOM     21  O3  UNL A   1      13.928  35.762  47.747  1.00  0.00    +0.000 O 
BRANCH   20   19
ATOM    136  H38 UNL A   1      17.623  37.892  45.562  1.00  0.00    +0.000 H 
ATOM    106  H8  UNL A   1      19.372  35.773  48.688  1.00  0.00    +0.000 H 
ATOM    107  H9  UNL A   1      17.184  35.595  49.733  1.00  0.00    +0.000 H 
ATOM     16  C11 UNL A   1      18.680  36.786  46.973  1.00  0.00    +0.000 C 
ATOM     17  C12 UNL A   1      18.540  36.150  48.208  1.00  0.00    +0.000 C 
ATOM     18  C13 UNL A   1      17.283  36.020  48.799  1.00  0.00    +0.000 C 
ATOM     19  C14 UNL A   1      16.166  36.470  48.110  1.00  0.00    +0.000 C 
ATOM     95  N8  UNL A   1      16.290  37.160  46.941  1.00  0.00    +0.000 N 
ATOM     96  C67 UNL A   1      17.530  37.327  46.421  1.00  0.00    +0.000 C 
BRANCH   16   15
ATOM    104  H6  UNL A   1      22.132  34.980  44.489  1.00  0.00    +0.000 H 
ATOM      9  C6  UNL A   1      20.427  35.702  45.516  1.00  0.00    +0.000 C 
ATOM     10  C7  UNL A   1      21.744  35.765  45.035  1.00  0.00    +0.000 C 
ATOM     11  C8  UNL A   1      22.527  36.885  45.295  1.00  0.00    +0.000 C 
ATOM     12 Cl1  UNL A   1      24.154  36.956  44.753  1.00  0.00    +0.000 Cl
ATOM     13  C9  UNL A   1      21.971  37.932  46.010  1.00  0.00    +0.000 C 
ATOM     14  N1  UNL A   1      20.711  37.919  46.503  1.00  0.00    +0.000 N 
ATOM     15  C10 UNL A   1      19.968  36.805  46.276  1.00  0.00    +0.000 C 
ATOM    105  H7  UNL A   1      22.550  38.769  46.177  1.00  0.00    +0.000 H 
BRANCH    9    8
ATOM     97  C68 UNL A   1      18.519  34.568  44.348  1.00  0.00    +0.000 C 
ATOM     98  C69 UNL A   1      17.797  33.418  44.013  1.00  0.00    +0.000 C 
ATOM      5  C2  UNL A   1      18.136  32.197  44.598  1.00  0.00    +0.000 C 
ATOM    102  H4  UNL A   1      19.428  31.210  45.947  1.00  0.00    +0.000 H 
ATOM      6  C3  UNL A   1      19.178  32.116  45.520  1.00  0.00    +0.000 C 
ATOM      7  C4  UNL A   1      19.884  33.273  45.862  1.00  0.00    +0.000 C 
ATOM    103  H5  UNL A   1      20.634  33.219  46.567  1.00  0.00    +0.000 H 
ATOM    138  H40 UNL A   1      17.018  33.472  43.339  1.00  0.00    +0.000 H 
ATOM      8  C5  UNL A   1      19.587  34.512  45.260  1.00  0.00    +0.000 C 
ATOM    137  H39 UNL A   1      18.264  35.471  43.919  1.00  0.00    +0.000 H 
BRANCH    5    2
ATOM      2  S1  UNL A   1      17.282  30.713  44.124  1.00  0.00    +0.000 S 
ATOM      3  O1  UNL A   1      16.075  30.643  44.930  1.00  0.00    +0.000 O 
ATOM      4  O2  UNL A   1      18.244  29.630  44.136  1.00  0.00    +0.000 O 
BRANCH    2    1
ATOM      1  C1  UNL A   1      16.820  31.018  42.438  1.00  0.00    +0.000 C 
ATOM     99  H1  UNL A   1      17.390  30.384  41.792  1.00  0.00    +0.000 H 
ATOM    100  H2  UNL A   1      17.013  32.041  42.195  1.00  0.00    +0.000 H 
ATOM    101  H3  UNL A   1      15.778  30.811  42.311  1.00  0.00    +0.000 H 
ENDBRANCH    2    1
ENDBRANCH    5    2
ENDBRANCH    9    8
ENDBRANCH   16   15
ENDBRANCH   20   19
ENDBRANCH   22   20
ENDBRANCH   23   22
ENDBRANCH   24   23
ENDBRANCH   25   24
ENDBRANCH   26   25
ENDBRANCH   27   26
ENDBRANCH   28   27
ENDBRANCH   29   28
ENDBRANCH   30   29
ENDBRANCH   32   30
ENDBRANCH   36   35
BRANCH   40   41
ATOM     41  C31 UNL A   1      30.593  40.720  47.722  1.00  0.00    +0.000 C 
ATOM     42  C32 UNL A   1      31.503  40.708  48.790  1.00  0.00    +0.000 C 
ATOM     43  F1  UNL A   1      31.613  39.624  49.571  1.00  0.00    +0.000 F 
ATOM     44  C33 UNL A   1      32.286  41.823  49.078  1.00  0.00    +0.000 C 
ATOM     45  F2  UNL A   1      33.120  41.801  50.127  1.00  0.00    +0.000 F 
ATOM     46  C34 UNL A   1      32.201  42.956  48.284  1.00  0.00    +0.000 C 
ATOM     47  F3  UNL A   1      32.968  44.023  48.552  1.00  0.00    +0.000 F 
ATOM     48  C35 UNL A   1      31.318  42.987  47.216  1.00  0.00    +0.000 C 
ATOM     49  F4  UNL A   1      31.246  44.076  46.439  1.00  0.00    +0.000 F 
ATOM     50  C36 UNL A   1      30.510  41.885  46.945  1.00  0.00    +0.000 C 
ATOM     51  F5  UNL A   1      29.660  41.949  45.908  1.00  0.00    +0.000 F 
ENDBRANCH   40   41
BRANCH   57   58
ATOM     65  C46 UNL A   1      32.887  33.402  42.891  1.00  0.00    +0.000 C 
ATOM     66  F9  UNL A   1      33.707  32.417  43.286  1.00  0.00    +0.000 F 
ATOM     67  C47 UNL A   1      31.952  33.925  43.778  1.00  0.00    +0.000 C 
ATOM     68  F10 UNL A   1      31.882  33.413  45.016  1.00  0.00    +0.000 F 
ATOM     58  C42 UNL A   1      31.101  34.975  43.397  1.00  0.00    +0.000 C 
ATOM     59  C43 UNL A   1      31.224  35.477  42.093  1.00  0.00    +0.000 C 
ATOM     60  F6  UNL A   1      30.424  36.470  41.673  1.00  0.00    +0.000 F 
ATOM     61  C44 UNL A   1      32.135  34.926  41.196  1.00  0.00    +0.000 C 
ATOM     62  F7  UNL A   1      32.192  35.383  39.937  1.00  0.00    +0.000 F 
ATOM     63  C45 UNL A   1      32.971  33.895  41.598  1.00  0.00    +0.000 C 
ATOM     64  F8  UNL A   1      33.853  33.371  40.735  1.00  0.00    +0.000 F 
ENDBRANCH   57   58
BRANCH   72   73
ATOM     73  C51 UNL A   1      24.891  32.771  45.656  1.00  0.00    +0.000 C 
ATOM     74  C52 UNL A   1      23.916  32.867  44.654  1.00  0.00    +0.000 C 
ATOM     75  F11 UNL A   1      23.759  34.015  43.980  1.00  0.00    +0.000 F 
ATOM     76  C53 UNL A   1      23.057  31.805  44.381  1.00  0.00    +0.000 C 
ATOM     77  F12 UNL A   1      22.087  31.949  43.468  1.00  0.00    +0.000 F 
ATOM     78  C54 UNL A   1      23.183  30.611  45.073  1.00  0.00    +0.000 C 
ATOM     79  F13 UNL A   1      22.351  29.592  44.816  1.00  0.00    +0.000 F 
ATOM     80  C55 UNL A   1      24.165  30.479  46.044  1.00  0.00    +0.000 C 
ATOM     81  F14 UNL A   1      24.303  29.321  46.705  1.00  0.00    +0.000 F 
ATOM     82  C56 UNL A   1      25.000  31.553  46.343  1.00  0.00    +0.000 C 
ATOM     83  F15 UNL A   1      25.921  31.404  47.307  1.00  0.00    +0.000 F 
ENDBRANCH   72   73
TORSDOF 19
ENDMDL
MODEL 4
REMARK VINA RESULT:     -10.3     38.032     42.164
ROOT
ATOM    129  H31 UNL A   1      14.480  51.767   2.884  1.00  0.00    +0.000 H 
ATOM    130  H32 UNL A   1      13.272  46.987   1.932  1.00  0.00    +0.000 H 
ATOM    131  H33 UNL A   1      15.174  46.987   0.219  1.00  0.00    +0.000 H 
ATOM    132  H34 UNL A   1      16.845  56.742   1.932  1.00  0.00    +0.000 H 
ATOM    133  H35 UNL A   1      15.322  56.637   3.989  1.00  0.00    +0.000 H 
ATOM     36  C27 UNL A   1      14.014  54.123   4.321  1.00  0.00    +0.000 C 
ATOM     37  C28 UNL A   1      15.050  54.494   3.296  1.00  0.00    +0.000 C 
ATOM     38  N4  UNL A   1      15.575  53.760   2.347  1.00  0.00    +0.000 N 
ATOM     39  C29 UNL A   1      16.461  54.591   1.674  1.00  0.00    +0.000 C 
ATOM     40  C30 UNL A   1      17.310  54.278   0.666  1.00  0.00    +0.000 C 
ATOM     52  C37 UNL A   1      17.419  52.969   0.077  1.00  0.00    +0.000 C 
ATOM     53  C38 UNL A   1      18.268  52.545  -0.931  1.00  0.00    +0.000 C 
ATOM     54  C39 UNL A   1      17.983  51.203  -1.208  1.00  0.00    +0.000 C 
ATOM     55  C40 UNL A   1      16.999  50.775  -0.332  1.00  0.00    +0.000 C 
ATOM     56  N5  UNL A   1      16.654  51.871   0.444  1.00  0.00    +0.000 N 
ATOM     57  C41 UNL A   1      16.418  49.464  -0.210  1.00  0.00    +0.000 C 
ATOM     69  C48 UNL A   1      15.452  49.122   0.678  1.00  0.00    +0.000 C 
ATOM     70  N6  UNL A   1      14.827  49.907   1.637  1.00  0.00    +0.000 N 
ATOM     71  C49 UNL A   1      13.950  49.129   2.226  1.00  0.00    +0.000 C 
ATOM     72  C50 UNL A   1      13.015  49.439   3.365  1.00  0.00    +0.000 C 
ATOM     84  C57 UNL A   1      13.042  50.668   3.915  1.00  0.00    +0.000 C 
ATOM     85  C58 UNL A   1      12.211  51.114   5.027  1.00  0.00    +0.000 C 
ATOM     86  C59 UNL A   1      12.464  52.410   5.268  1.00  0.00    +0.000 C 
ATOM     87  C60 UNL A   1      13.508  52.875   4.354  1.00  0.00    +0.000 C 
ATOM     88  N7  UNL A   1      13.796  51.770   3.593  1.00  0.00    +0.000 N 
ATOM     89  C61 UNL A   1      13.900  47.766   1.680  1.00  0.00    +0.000 C 
ATOM     90  C62 UNL A   1      14.870  47.800   0.779  1.00  0.00    +0.000 C 
ATOM     91  C63 UNL A   1      16.355  55.902   2.276  1.00  0.00    +0.000 C 
ATOM     92  C64 UNL A   1      15.546  55.879   3.324  1.00  0.00    +0.000 C 
ATOM    124  H26 UNL A   1      18.988  53.118  -1.397  1.00  0.00    +0.000 H 
ATOM    125  H27 UNL A   1      18.429  50.631  -1.940  1.00  0.00    +0.000 H 
ATOM    126  H28 UNL A   1      15.968  51.872   1.149  1.00  0.00    +0.000 H 
ATOM    127  H29 UNL A   1      11.538  50.529   5.545  1.00  0.00    +0.000 H 
ATOM    128  H30 UNL A   1      11.996  52.987   5.985  1.00  0.00    +0.000 H 
ENDROOT
BRANCH   36   35
ATOM     33  C24 UNL A   1      13.597  56.231   7.447  1.00  0.00    +0.000 C 
ATOM     34  C25 UNL A   1      14.122  55.323   6.527  1.00  0.00    +0.000 C 
ATOM     35  C26 UNL A   1      13.508  55.140   5.278  1.00  0.00    +0.000 C 
ATOM    134  H36 UNL A   1      11.936  55.796   4.024  1.00  0.00    +0.000 H 
ATOM    135  H37 UNL A   1      11.166  57.527   5.535  1.00  0.00    +0.000 H 
ATOM    122  H24 UNL A   1      14.030  56.337   8.378  1.00  0.00    +0.000 H 
ATOM    123  H25 UNL A   1      14.968  54.782   6.767  1.00  0.00    +0.000 H 
ATOM     93  C65 UNL A   1      12.401  55.930   4.936  1.00  0.00    +0.000 C 
ATOM     94  C66 UNL A   1      11.926  56.892   5.822  1.00  0.00    +0.000 C 
ATOM     32  C23 UNL A   1      12.482  56.997   7.102  1.00  0.00    +0.000 C 
BRANCH   32   30
ATOM     30  C22 UNL A   1      11.921  57.934   8.097  1.00  0.00    +0.000 C 
ATOM     31  O4  UNL A   1      12.230  59.121   8.064  1.00  0.00    +0.000 O 
BRANCH   30   29
ATOM    121  H23 UNL A   1      10.097  57.503   8.809  1.00  0.00    +0.000 H 
ATOM     29  N3  UNL A   1      11.051  57.474   9.052  1.00  0.00    +0.000 N 
BRANCH   29   28
ATOM     28  C21 UNL A   1      11.349  56.949  10.376  1.00  0.00    +0.000 C 
ATOM    119  H21 UNL A   1      12.412  56.881  10.490  1.00  0.00    +0.000 H 
ATOM    120  H22 UNL A   1      10.928  57.612  11.101  1.00  0.00    +0.000 H 
BRANCH   28   27
ATOM     27  C20 UNL A   1      10.741  55.566  10.584  1.00  0.00    +0.000 C 
ATOM    117  H19 UNL A   1       9.770  55.555  10.134  1.00  0.00    +0.000 H 
ATOM    118  H20 UNL A   1      11.412  54.862  10.138  1.00  0.00    +0.000 H 
BRANCH   27   26
ATOM     26  C19 UNL A   1      10.592  55.166  12.055  1.00  0.00    +0.000 C 
ATOM    115  H17 UNL A   1       9.841  55.788  12.496  1.00  0.00    +0.000 H 
ATOM    116  H18 UNL A   1      10.337  54.126  12.060  1.00  0.00    +0.000 H 
BRANCH   26   25
ATOM     25  C18 UNL A   1      11.874  55.299  12.891  1.00  0.00    +0.000 C 
ATOM    114  H16 UNL A   1      11.937  56.325  13.185  1.00  0.00    +0.000 H 
ATOM    113  H15 UNL A   1      12.699  54.980  12.288  1.00  0.00    +0.000 H 
BRANCH   25   24
ATOM    112  H14 UNL A   1      11.881  55.164  15.005  1.00  0.00    +0.000 H 
ATOM    111  H13 UNL A   1      12.752  53.852  14.189  1.00  0.00    +0.000 H 
ATOM     24  C17 UNL A   1      11.882  54.475  14.187  1.00  0.00    +0.000 C 
BRANCH   24   23
ATOM    109  H11 UNL A   1      10.138  53.835  15.247  1.00  0.00    +0.000 H 
ATOM    110  H12 UNL A   1       9.998  53.741  13.502  1.00  0.00    +0.000 H 
ATOM     23  C16 UNL A   1      10.646  53.584  14.339  1.00  0.00    +0.000 C 
BRANCH   23   22
ATOM    108  H10 UNL A   1      10.327  51.602  14.723  1.00  0.00    +0.000 H 
ATOM     22  N2  UNL A   1      11.037  52.190  14.379  1.00  0.00    +0.000 N 
BRANCH   22   20
ATOM     20  C15 UNL A   1      12.182  51.506  14.041  1.00  0.00    +0.000 C 
ATOM     21  O3  UNL A   1      12.889  51.154  14.990  1.00  0.00    +0.000 O 
BRANCH   20   19
ATOM    136  H38 UNL A   1      14.839  49.257  11.251  1.00  0.00    +0.000 H 
ATOM    106  H8  UNL A   1      12.413  52.104   9.426  1.00  0.00    +0.000 H 
ATOM    107  H9  UNL A   1      11.320  52.479  11.564  1.00  0.00    +0.000 H 
ATOM     16  C11 UNL A   1      13.795  50.693  10.165  1.00  0.00    +0.000 C 
ATOM     17  C12 UNL A   1      12.742  51.604  10.266  1.00  0.00    +0.000 C 
ATOM     18  C13 UNL A   1      12.130  51.845  11.497  1.00  0.00    +0.000 C 
ATOM     19  C14 UNL A   1      12.627  51.217  12.629  1.00  0.00    +0.000 C 
ATOM     95  N8  UNL A   1      13.603  50.270  12.539  1.00  0.00    +0.000 N 
ATOM     96  C67 UNL A   1      14.137  50.010  11.321  1.00  0.00    +0.000 C 
BRANCH   16   15
ATOM    104  H6  UNL A   1      14.753  48.783   6.069  1.00  0.00    +0.000 H 
ATOM      9  C6  UNL A   1      14.124  49.634   7.902  1.00  0.00    +0.000 C 
ATOM     10  C7  UNL A   1      15.002  49.440   6.824  1.00  0.00    +0.000 C 
ATOM     11  C8  UNL A   1      16.207  50.133   6.775  1.00  0.00    +0.000 C 
ATOM     12 Cl1  UNL A   1      17.310  49.871   5.486  1.00  0.00    +0.000 Cl
ATOM     13  C9  UNL A   1      16.501  51.026   7.791  1.00  0.00    +0.000 C 
ATOM     14  N1  UNL A   1      15.696  51.244   8.856  1.00  0.00    +0.000 N 
ATOM     15  C10 UNL A   1      14.539  50.535   8.913  1.00  0.00    +0.000 C 
ATOM    105  H7  UNL A   1      17.386  51.554   7.734  1.00  0.00    +0.000 H 
BRANCH    9    8
ATOM     97  C68 UNL A   1      12.785  47.621   8.568  1.00  0.00    +0.000 C 
ATOM     98  C69 UNL A   1      11.561  46.968   8.747  1.00  0.00    +0.000 C 
ATOM      5  C2  UNL A   1      10.383  47.585   8.326  1.00  0.00    +0.000 C 
ATOM    102  H4  UNL A   1       9.541  49.294   7.412  1.00  0.00    +0.000 H 
ATOM      6  C3  UNL A   1      10.415  48.840   7.718  1.00  0.00    +0.000 C 
ATOM      7  C4  UNL A   1      11.645  49.478   7.528  1.00  0.00    +0.000 C 
ATOM    103  H5  UNL A   1      11.672  50.392   7.051  1.00  0.00    +0.000 H 
ATOM    138  H40 UNL A   1      11.530  46.035   9.187  1.00  0.00    +0.000 H 
ATOM      8  C5  UNL A   1      12.846  48.895   7.976  1.00  0.00    +0.000 C 
ATOM    137  H39 UNL A   1      13.656  47.161   8.876  1.00  0.00    +0.000 H 
BRANCH    5    2
ATOM      2  S1  UNL A   1       8.813  46.806   8.619  1.00  0.00    +0.000 S 
ATOM      3  O1  UNL A   1       8.484  47.028  10.016  1.00  0.00    +0.000 O 
ATOM      4  O2  UNL A   1       8.882  45.463   8.079  1.00  0.00    +0.000 O 
BRANCH    2    1
ATOM      1  C1  UNL A   1       7.689  47.743   7.617  1.00  0.00    +0.000 C 
ATOM     99  H1  UNL A   1       7.452  47.189   6.733  1.00  0.00    +0.000 H 
ATOM    100  H2  UNL A   1       8.143  48.673   7.345  1.00  0.00    +0.000 H 
ATOM    101  H3  UNL A   1       6.791  47.933   8.169  1.00  0.00    +0.000 H 
ENDBRANCH    2    1
ENDBRANCH    5    2
ENDBRANCH    9    8
ENDBRANCH   16   15
ENDBRANCH   20   19
ENDBRANCH   22   20
ENDBRANCH   23   22
ENDBRANCH   24   23
ENDBRANCH   25   24
ENDBRANCH   26   25
ENDBRANCH   27   26
ENDBRANCH   28   27
ENDBRANCH   29   28
ENDBRANCH   30   29
ENDBRANCH   32   30
ENDBRANCH   36   35
BRANCH   40   41
ATOM     41  C31 UNL A   1      18.206  55.365   0.143  1.00  0.00    +0.000 C 
ATOM     42  C32 UNL A   1      17.911  56.045  -1.049  1.00  0.00    +0.000 C 
ATOM     43  F1  UNL A   1      16.852  55.683  -1.788  1.00  0.00    +0.000 F 
ATOM     44  C33 UNL A   1      18.722  57.082  -1.502  1.00  0.00    +0.000 C 
ATOM     45  F2  UNL A   1      18.442  57.690  -2.664  1.00  0.00    +0.000 F 
ATOM     46  C34 UNL A   1      19.819  57.484  -0.757  1.00  0.00    +0.000 C 
ATOM     47  F3  UNL A   1      20.589  58.494  -1.185  1.00  0.00    +0.000 F 
ATOM     48  C35 UNL A   1      20.122  56.836   0.431  1.00  0.00    +0.000 C 
ATOM     49  F4  UNL A   1      21.174  57.233   1.160  1.00  0.00    +0.000 F 
ATOM     50  C36 UNL A   1      19.332  55.776   0.871  1.00  0.00    +0.000 C 
ATOM     51  F5  UNL A   1      19.657  55.165   2.020  1.00  0.00    +0.000 F 
ENDBRANCH   40   41
BRANCH   57   58
ATOM     65  C46 UNL A   1      18.635  46.724  -1.646  1.00  0.00    +0.000 C 
ATOM     66  F9  UNL A   1      19.789  46.114  -1.343  1.00  0.00    +0.000 F 
ATOM     67  C47 UNL A   1      18.127  47.708  -0.804  1.00  0.00    +0.000 C 
ATOM     68  F10 UNL A   1      18.807  48.015   0.311  1.00  0.00    +0.000 F 
ATOM     58  C42 UNL A   1      16.935  48.381  -1.114  1.00  0.00    +0.000 C 
ATOM     59  C43 UNL A   1      16.271  48.026  -2.297  1.00  0.00    +0.000 C 
ATOM     60  F6  UNL A   1      15.119  48.628  -2.632  1.00  0.00    +0.000 F 
ATOM     61  C44 UNL A   1      16.762  47.015  -3.119  1.00  0.00    +0.000 C 
ATOM     62  F7  UNL A   1      16.078  46.653  -4.213  1.00  0.00    +0.000 F 
ATOM     63  C45 UNL A   1      17.947  46.371  -2.797  1.00  0.00    +0.000 C 
ATOM     64  F8  UNL A   1      18.421  45.402  -3.592  1.00  0.00    +0.000 F 
ENDBRANCH   57   58
BRANCH   72   73
ATOM     73  C51 UNL A   1      12.076  48.405   3.878  1.00  0.00    +0.000 C 
ATOM     74  C52 UNL A   1      12.525  47.360   4.698  1.00  0.00    +0.000 C 
ATOM     75  F11 UNL A   1      13.817  47.292   5.048  1.00  0.00    +0.000 F 
ATOM     76  C53 UNL A   1      11.662  46.347   5.112  1.00  0.00    +0.000 C 
ATOM     77  F12 UNL A   1      12.134  45.323   5.834  1.00  0.00    +0.000 F 
ATOM     78  C54 UNL A   1      10.324  46.382   4.751  1.00  0.00    +0.000 C 
ATOM     79  F13 UNL A   1       9.496  45.403   5.142  1.00  0.00    +0.000 F 
ATOM     80  C55 UNL A   1       9.849  47.425   3.971  1.00  0.00    +0.000 C 
ATOM     81  F14 UNL A   1       8.552  47.473   3.633  1.00  0.00    +0.000 F 
ATOM     82  C56 UNL A   1      10.718  48.418   3.527  1.00  0.00    +0.000 C 
ATOM     83  F15 UNL A   1      10.233  49.399   2.751  1.00  0.00    +0.000 F 
ENDBRANCH   72   73
TORSDOF 19
ENDMDL
MODEL 5
REMARK VINA RESULT:     -10.2     37.589     43.866
ROOT
ATOM    129  H31 UNL A   1      15.517  53.335   2.865  1.00  0.00    +0.000 H 
ATOM    130  H32 UNL A   1      13.853  53.857   7.574  1.00  0.00    +0.000 H 
ATOM    131  H33 UNL A   1      14.151  51.327   7.817  1.00  0.00    +0.000 H 
ATOM    132  H34 UNL A   1      16.798  50.609  -1.845  1.00  0.00    +0.000 H 
ATOM    133  H35 UNL A   1      17.010  53.159  -1.972  1.00  0.00    +0.000 H 
ATOM     36  C27 UNL A   1      16.179  54.499   0.407  1.00  0.00    +0.000 C 
ATOM     37  C28 UNL A   1      16.290  53.017   0.175  1.00  0.00    +0.000 C 
ATOM     38  N4  UNL A   1      16.038  52.030   0.998  1.00  0.00    +0.000 N 
ATOM     39  C29 UNL A   1      16.282  50.867   0.279  1.00  0.00    +0.000 C 
ATOM     40  C30 UNL A   1      16.245  49.585   0.712  1.00  0.00    +0.000 C 
ATOM     52  C37 UNL A   1      15.903  49.193   2.054  1.00  0.00    +0.000 C 
ATOM     53  C38 UNL A   1      15.864  47.921   2.598  1.00  0.00    +0.000 C 
ATOM     54  C39 UNL A   1      15.432  48.024   3.924  1.00  0.00    +0.000 C 
ATOM     55  C40 UNL A   1      15.260  49.366   4.224  1.00  0.00    +0.000 C 
ATOM     56  N5  UNL A   1      15.542  50.071   3.065  1.00  0.00    +0.000 N 
ATOM     57  C41 UNL A   1      14.868  49.960   5.476  1.00  0.00    +0.000 C 
ATOM     69  C48 UNL A   1      14.720  51.290   5.692  1.00  0.00    +0.000 C 
ATOM     70  N6  UNL A   1      14.905  52.346   4.809  1.00  0.00    +0.000 N 
ATOM     71  C49 UNL A   1      14.614  53.434   5.481  1.00  0.00    +0.000 C 
ATOM     72  C50 UNL A   1      14.672  54.872   5.038  1.00  0.00    +0.000 C 
ATOM     84  C57 UNL A   1      15.088  55.152   3.788  1.00  0.00    +0.000 C 
ATOM     85  C58 UNL A   1      15.210  56.489   3.218  1.00  0.00    +0.000 C 
ATOM     86  C59 UNL A   1      15.594  56.384   1.936  1.00  0.00    +0.000 C 
ATOM     87  C60 UNL A   1      15.787  54.971   1.606  1.00  0.00    +0.000 C 
ATOM     88  N7  UNL A   1      15.472  54.314   2.769  1.00  0.00    +0.000 N 
ATOM     89  C61 UNL A   1      14.179  53.184   6.863  1.00  0.00    +0.000 C 
ATOM     90  C62 UNL A   1      14.314  51.870   6.955  1.00  0.00    +0.000 C 
ATOM     91  C63 UNL A   1      16.634  51.266  -1.066  1.00  0.00    +0.000 C 
ATOM     92  C64 UNL A   1      16.719  52.584  -1.164  1.00  0.00    +0.000 C 
ATOM    124  H26 UNL A   1      16.113  47.046   2.110  1.00  0.00    +0.000 H 
ATOM    125  H27 UNL A   1      15.268  47.236   4.569  1.00  0.00    +0.000 H 
ATOM    126  H28 UNL A   1      15.492  51.050   2.972  1.00  0.00    +0.000 H 
ATOM    127  H29 UNL A   1      15.031  57.373   3.719  1.00  0.00    +0.000 H 
ATOM    128  H30 UNL A   1      15.732  57.174   1.287  1.00  0.00    +0.000 H 
ENDROOT
BRANCH   36   35
ATOM     33  C24 UNL A   1      15.710  56.745  -2.615  1.00  0.00    +0.000 C 
ATOM     34  C25 UNL A   1      15.427  55.903  -1.538  1.00  0.00    +0.000 C 
ATOM     35  C26 UNL A   1      16.458  55.453  -0.696  1.00  0.00    +0.000 C 
ATOM    134  H36 UNL A   1      18.531  55.580  -0.301  1.00  0.00    +0.000 H 
ATOM    135  H37 UNL A   1      18.979  57.214  -2.033  1.00  0.00    +0.000 H 
ATOM    122  H24 UNL A   1      14.955  57.045  -3.251  1.00  0.00    +0.000 H 
ATOM    123  H25 UNL A   1      14.454  55.611  -1.358  1.00  0.00    +0.000 H 
ATOM     93  C65 UNL A   1      17.765  55.913  -0.907  1.00  0.00    +0.000 C 
ATOM     94  C66 UNL A   1      18.034  56.815  -1.932  1.00  0.00    +0.000 C 
ATOM     32  C23 UNL A   1      17.020  57.179  -2.825  1.00  0.00    +0.000 C 
BRANCH   32   30
ATOM     30  C22 UNL A   1      17.308  58.046  -3.986  1.00  0.00    +0.000 C 
ATOM     31  O4  UNL A   1      17.301  59.267  -3.856  1.00  0.00    +0.000 O 
BRANCH   30   29
ATOM    121  H23 UNL A   1      17.659  58.113  -5.959  1.00  0.00    +0.000 H 
ATOM     29  N3  UNL A   1      17.590  57.485  -5.205  1.00  0.00    +0.000 N 
BRANCH   29   28
ATOM     28  C21 UNL A   1      17.799  56.082  -5.531  1.00  0.00    +0.000 C 
ATOM    119  H21 UNL A   1      18.738  55.980  -6.037  1.00  0.00    +0.000 H 
ATOM    120  H22 UNL A   1      17.793  55.522  -4.620  1.00  0.00    +0.000 H 
BRANCH   28   27
ATOM     27  C20 UNL A   1      16.693  55.541  -6.431  1.00  0.00    +0.000 C 
ATOM    117  H19 UNL A   1      16.388  56.322  -7.095  1.00  0.00    +0.000 H 
ATOM    118  H20 UNL A   1      17.099  54.696  -6.946  1.00  0.00    +0.000 H 
BRANCH   27   26
ATOM     26  C19 UNL A   1      15.459  55.046  -5.672  1.00  0.00    +0.000 C 
ATOM    115  H17 UNL A   1      15.202  55.781  -4.938  1.00  0.00    +0.000 H 
ATOM    116  H18 UNL A   1      14.693  54.896  -6.405  1.00  0.00    +0.000 H 
BRANCH   26   25
ATOM     25  C18 UNL A   1      15.640  53.699  -4.956  1.00  0.00    +0.000 C 
ATOM    114  H16 UNL A   1      15.873  53.928  -3.937  1.00  0.00    +0.000 H 
ATOM    113  H15 UNL A   1      16.416  53.159  -5.456  1.00  0.00    +0.000 H 
BRANCH   25   24
ATOM    112  H14 UNL A   1      13.915  52.891  -5.885  1.00  0.00    +0.000 H 
ATOM    111  H13 UNL A   1      13.745  53.157  -4.140  1.00  0.00    +0.000 H 
ATOM     24  C17 UNL A   1      14.384  52.815  -4.926  1.00  0.00    +0.000 C 
BRANCH   24   23
ATOM    109  H11 UNL A   1      15.333  50.977  -5.471  1.00  0.00    +0.000 H 
ATOM    110  H12 UNL A   1      15.188  51.230  -3.742  1.00  0.00    +0.000 H 
ATOM     23  C16 UNL A   1      14.698  51.335  -4.688  1.00  0.00    +0.000 C 
BRANCH   23   22
ATOM    108  H10 UNL A   1      13.397  49.951  -5.442  1.00  0.00    +0.000 H 
ATOM     22  N2  UNL A   1      13.474  50.561  -4.674  1.00  0.00    +0.000 N 
BRANCH   22   20
ATOM     20  C15 UNL A   1      12.395  50.491  -3.823  1.00  0.00    +0.000 C 
ATOM     21  O3  UNL A   1      11.481  49.744  -4.186  1.00  0.00    +0.000 O 
BRANCH   20   19
ATOM    136  H38 UNL A   1      10.424  53.807  -1.581  1.00  0.00    +0.000 H 
ATOM    106  H8  UNL A   1      13.466  51.870   0.497  1.00  0.00    +0.000 H 
ATOM    107  H9  UNL A   1      13.627  50.265  -1.322  1.00  0.00    +0.000 H 
ATOM     16  C11 UNL A   1      11.974  53.046  -0.419  1.00  0.00    +0.000 C 
ATOM     17  C12 UNL A   1      12.879  51.985  -0.344  1.00  0.00    +0.000 C 
ATOM     18  C13 UNL A   1      12.996  51.078  -1.397  1.00  0.00    +0.000 C 
ATOM     19  C14 UNL A   1      12.251  51.284  -2.548  1.00  0.00    +0.000 C 
ATOM     95  N8  UNL A   1      11.309  52.268  -2.611  1.00  0.00    +0.000 N 
ATOM     96  C67 UNL A   1      11.172  53.096  -1.548  1.00  0.00    +0.000 C 
BRANCH   16   15
ATOM    104  H6  UNL A   1      10.987  54.790   3.743  1.00  0.00    +0.000 H 
ATOM      9  C6  UNL A   1      11.482  53.822   1.927  1.00  0.00    +0.000 C 
ATOM     10  C7  UNL A   1      11.333  54.926   2.781  1.00  0.00    +0.000 C 
ATOM     11  C8  UNL A   1      11.650  56.203   2.329  1.00  0.00    +0.000 C 
ATOM     12 Cl1  UNL A   1      11.429  57.567   3.346  1.00  0.00    +0.000 Cl
ATOM     13  C9  UNL A   1      12.133  56.350   1.040  1.00  0.00    +0.000 C 
ATOM     14  N1  UNL A   1      12.288  55.321   0.174  1.00  0.00    +0.000 N 
ATOM     15  C10 UNL A   1      11.941  54.084   0.613  1.00  0.00    +0.000 C 
ATOM    105  H7  UNL A   1      12.389  57.297   0.721  1.00  0.00    +0.000 H 
BRANCH    9    8
ATOM     97  C68 UNL A   1       9.844  51.942   2.195  1.00  0.00    +0.000 C 
ATOM     98  C69 UNL A   1       9.543  50.615   2.521  1.00  0.00    +0.000 C 
ATOM      5  C2  UNL A   1      10.539  49.795   3.053  1.00  0.00    +0.000 C 
ATOM    102  H4  UNL A   1      12.558  49.676   3.662  1.00  0.00    +0.000 H 
ATOM      6  C3  UNL A   1      11.824  50.288   3.273  1.00  0.00    +0.000 C 
ATOM      7  C4  UNL A   1      12.111  51.620   2.960  1.00  0.00    +0.000 C 
ATOM    103  H5  UNL A   1      13.053  51.993   3.151  1.00  0.00    +0.000 H 
ATOM    138  H40 UNL A   1       8.592  50.246   2.371  1.00  0.00    +0.000 H 
ATOM      8  C5  UNL A   1      11.136  52.460   2.388  1.00  0.00    +0.000 C 
ATOM    137  H39 UNL A   1       9.105  52.549   1.806  1.00  0.00    +0.000 H 
BRANCH    5    2
ATOM      2  S1  UNL A   1      10.196  48.085   3.398  1.00  0.00    +0.000 S 
ATOM      3  O1  UNL A   1       9.433  47.572   2.274  1.00  0.00    +0.000 O 
ATOM      4  O2  UNL A   1       9.673  48.005   4.746  1.00  0.00    +0.000 O 
BRANCH    2    1
ATOM      1  C1  UNL A   1      11.800  47.328   3.386  1.00  0.00    +0.000 C 
ATOM     99  H1  UNL A   1      11.702  46.288   3.159  1.00  0.00    +0.000 H 
ATOM    100  H2  UNL A   1      12.256  47.443   4.346  1.00  0.00    +0.000 H 
ATOM    101  H3  UNL A   1      12.411  47.798   2.643  1.00  0.00    +0.000 H 
ENDBRANCH    2    1
ENDBRANCH    5    2
ENDBRANCH    9    8
ENDBRANCH   16   15
ENDBRANCH   20   19
ENDBRANCH   22   20
ENDBRANCH   23   22
ENDBRANCH   24   23
ENDBRANCH   25   24
ENDBRANCH   26   25
ENDBRANCH   27   26
ENDBRANCH   28   27
ENDBRANCH   29   28
ENDBRANCH   30   29
ENDBRANCH   32   30
ENDBRANCH   36   35
BRANCH   40   41
ATOM     41  C31 UNL A   1      16.602  48.505  -0.270  1.00  0.00    +0.000 C 
ATOM     42  C32 UNL A   1      15.624  47.885  -1.063  1.00  0.00    +0.000 C 
ATOM     43  F1  UNL A   1      14.329  48.199  -0.906  1.00  0.00    +0.000 F 
ATOM     44  C33 UNL A   1      15.969  46.918  -2.003  1.00  0.00    +0.000 C 
ATOM     45  F2  UNL A   1      15.013  46.313  -2.722  1.00  0.00    +0.000 F 
ATOM     46  C34 UNL A   1      17.299  46.578  -2.194  1.00  0.00    +0.000 C 
ATOM     47  F3  UNL A   1      17.632  45.659  -3.112  1.00  0.00    +0.000 F 
ATOM     48  C35 UNL A   1      18.285  47.185  -1.432  1.00  0.00    +0.000 C 
ATOM     49  F4  UNL A   1      19.572  46.868  -1.626  1.00  0.00    +0.000 F 
ATOM     50  C36 UNL A   1      17.939  48.130  -0.468  1.00  0.00    +0.000 C 
ATOM     51  F5  UNL A   1      18.916  48.694   0.260  1.00  0.00    +0.000 F 
ENDBRANCH   40   41
BRANCH   57   58
ATOM     65  C46 UNL A   1      15.498  47.793   8.541  1.00  0.00    +0.000 C 
ATOM     66  F9  UNL A   1      16.536  47.424   9.305  1.00  0.00    +0.000 F 
ATOM     67  C47 UNL A   1      15.696  48.664   7.475  1.00  0.00    +0.000 C 
ATOM     68  F10 UNL A   1      16.933  49.129   7.244  1.00  0.00    +0.000 F 
ATOM     58  C42 UNL A   1      14.630  49.044   6.643  1.00  0.00    +0.000 C 
ATOM     59  C43 UNL A   1      13.360  48.520   6.925  1.00  0.00    +0.000 C 
ATOM     60  F6  UNL A   1      12.305  48.864   6.170  1.00  0.00    +0.000 F 
ATOM     61  C44 UNL A   1      13.158  47.678   8.015  1.00  0.00    +0.000 C 
ATOM     62  F7  UNL A   1      11.925  47.238   8.300  1.00  0.00    +0.000 F 
ATOM     63  C45 UNL A   1      14.228  47.310   8.817  1.00  0.00    +0.000 C 
ATOM     64  F8  UNL A   1      14.033  46.494   9.863  1.00  0.00    +0.000 F 
ENDBRANCH   57   58
BRANCH   72   73
ATOM     73  C51 UNL A   1      14.278  55.968   5.963  1.00  0.00    +0.000 C 
ATOM     74  C52 UNL A   1      12.931  56.218   6.261  1.00  0.00    +0.000 C 
ATOM     75  F11 UNL A   1      11.973  55.448   5.724  1.00  0.00    +0.000 F 
ATOM     76  C53 UNL A   1      12.558  57.295   7.062  1.00  0.00    +0.000 C 
ATOM     77  F12 UNL A   1      11.259  57.552   7.270  1.00  0.00    +0.000 F 
ATOM     78  C54 UNL A   1      13.525  58.118   7.617  1.00  0.00    +0.000 C 
ATOM     79  F13 UNL A   1      13.165  59.159   8.381  1.00  0.00    +0.000 F 
ATOM     80  C55 UNL A   1      14.866  57.869   7.367  1.00  0.00    +0.000 C 
ATOM     81  F14 UNL A   1      15.806  58.652   7.915  1.00  0.00    +0.000 F 
ATOM     82  C56 UNL A   1      15.238  56.815   6.537  1.00  0.00    +0.000 C 
ATOM     83  F15 UNL A   1      16.542  56.618   6.292  1.00  0.00    +0.000 F 
ENDBRANCH   72   73
TORSDOF 19
ENDMDL
MODEL 6
REMARK VINA RESULT:     -10.2     22.724     30.719
ROOT
ATOM    129  H31 UNL A   1      22.199  37.929  47.501  1.00  0.00    +0.000 H 
ATOM    130  H32 UNL A   1      19.318  33.823  47.259  1.00  0.00    +0.000 H 
ATOM    131  H33 UNL A   1      17.459  35.229  48.315  1.00  0.00    +0.000 H 
ATOM    132  H34 UNL A   1      23.733  43.018  49.233  1.00  0.00    +0.000 H 
ATOM    133  H35 UNL A   1      25.427  41.825  47.728  1.00  0.00    +0.000 H 
ATOM     36  C27 UNL A   1      24.662  39.168  47.020  1.00  0.00    +0.000 C 
ATOM     37  C28 UNL A   1      23.863  40.183  47.791  1.00  0.00    +0.000 C 
ATOM     38  N4  UNL A   1      22.660  40.077  48.297  1.00  0.00    +0.000 N 
ATOM     39  C29 UNL A   1      22.406  41.289  48.925  1.00  0.00    +0.000 C 
ATOM     40  C30 UNL A   1      21.266  41.706  49.525  1.00  0.00    +0.000 C 
ATOM     52  C37 UNL A   1      20.074  40.907  49.641  1.00  0.00    +0.000 C 
ATOM     53  C38 UNL A   1      18.858  41.249  50.207  1.00  0.00    +0.000 C 
ATOM     54  C39 UNL A   1      18.013  40.137  50.134  1.00  0.00    +0.000 C 
ATOM     55  C40 UNL A   1      18.681  39.123  49.468  1.00  0.00    +0.000 C 
ATOM     56  N5  UNL A   1      19.949  39.604  49.181  1.00  0.00    +0.000 N 
ATOM     57  C41 UNL A   1      18.199  37.811  49.118  1.00  0.00    +0.000 C 
ATOM     69  C48 UNL A   1      18.919  36.869  48.462  1.00  0.00    +0.000 C 
ATOM     70  N6  UNL A   1      20.223  36.935  47.989  1.00  0.00    +0.000 N 
ATOM     71  C49 UNL A   1      20.472  35.764  47.453  1.00  0.00    +0.000 C 
ATOM     72  C50 UNL A   1      21.716  35.282  46.755  1.00  0.00    +0.000 C 
ATOM     84  C57 UNL A   1      22.754  36.128  46.614  1.00  0.00    +0.000 C 
ATOM     85  C58 UNL A   1      24.016  35.815  45.954  1.00  0.00    +0.000 C 
ATOM     86  C59 UNL A   1      24.837  36.872  46.055  1.00  0.00    +0.000 C 
ATOM     87  C60 UNL A   1      24.141  37.956  46.751  1.00  0.00    +0.000 C 
ATOM     88  N7  UNL A   1      22.907  37.426  47.037  1.00  0.00    +0.000 N 
ATOM     89  C61 UNL A   1      19.358  34.811  47.555  1.00  0.00    +0.000 C 
ATOM     90  C62 UNL A   1      18.421  35.550  48.129  1.00  0.00    +0.000 C 
ATOM     91  C63 UNL A   1      23.603  42.092  48.797  1.00  0.00    +0.000 C 
ATOM     92  C64 UNL A   1      24.508  41.480  48.048  1.00  0.00    +0.000 C 
ATOM    124  H26 UNL A   1      18.616  42.166  50.612  1.00  0.00    +0.000 H 
ATOM    125  H27 UNL A   1      17.055  40.081  50.511  1.00  0.00    +0.000 H 
ATOM    126  H28 UNL A   1      20.656  39.098  48.720  1.00  0.00    +0.000 H 
ATOM    127  H29 UNL A   1      24.243  34.924  45.485  1.00  0.00    +0.000 H 
ATOM    128  H30 UNL A   1      25.804  36.914  45.698  1.00  0.00    +0.000 H 
ENDROOT
BRANCH   36   35
ATOM     33  C24 UNL A   1      28.451  39.347  46.930  1.00  0.00    +0.000 C 
ATOM     34  C25 UNL A   1      27.154  38.992  47.304  1.00  0.00    +0.000 C 
ATOM     35  C26 UNL A   1      26.048  39.478  46.587  1.00  0.00    +0.000 C 
ATOM    134  H36 UNL A   1      25.457  40.637  44.919  1.00  0.00    +0.000 H 
ATOM    135  H37 UNL A   1      27.714  41.064  44.146  1.00  0.00    +0.000 H 
ATOM    122  H24 UNL A   1      29.258  39.016  47.481  1.00  0.00    +0.000 H 
ATOM    123  H25 UNL A   1      27.006  38.368  48.113  1.00  0.00    +0.000 H 
ATOM     93  C65 UNL A   1      26.263  40.267  45.448  1.00  0.00    +0.000 C 
ATOM     94  C66 UNL A   1      27.558  40.554  45.029  1.00  0.00    +0.000 C 
ATOM     32  C23 UNL A   1      28.649  40.150  45.806  1.00  0.00    +0.000 C 
BRANCH   32   30
ATOM     30  C22 UNL A   1      30.027  40.539  45.440  1.00  0.00    +0.000 C 
ATOM     31  O4  UNL A   1      30.602  41.423  46.068  1.00  0.00    +0.000 O 
BRANCH   30   29
ATOM    121  H23 UNL A   1      30.457  40.251  43.503  1.00  0.00    +0.000 H 
ATOM     29  N3  UNL A   1      30.662  39.907  44.402  1.00  0.00    +0.000 N 
BRANCH   29   28
ATOM     28  C21 UNL A   1      31.598  38.794  44.453  1.00  0.00    +0.000 C 
ATOM    119  H21 UNL A   1      32.463  39.041  43.872  1.00  0.00    +0.000 H 
ATOM    120  H22 UNL A   1      31.861  38.625  45.476  1.00  0.00    +0.000 H 
BRANCH   28   27
ATOM     27  C20 UNL A   1      30.982  37.513  43.902  1.00  0.00    +0.000 C 
ATOM    117  H19 UNL A   1      30.479  37.748  42.987  1.00  0.00    +0.000 H 
ATOM    118  H20 UNL A   1      31.784  36.818  43.765  1.00  0.00    +0.000 H 
BRANCH   27   26
ATOM     26  C19 UNL A   1      29.976  36.848  44.846  1.00  0.00    +0.000 C 
ATOM    115  H17 UNL A   1      30.324  35.859  45.061  1.00  0.00    +0.000 H 
ATOM    116  H18 UNL A   1      29.918  37.473  45.713  1.00  0.00    +0.000 H 
BRANCH   26   25
ATOM     25  C18 UNL A   1      28.547  36.743  44.294  1.00  0.00    +0.000 C 
ATOM    114  H16 UNL A   1      28.632  36.776  43.228  1.00  0.00    +0.000 H 
ATOM    113  H15 UNL A   1      27.974  37.551  44.698  1.00  0.00    +0.000 H 
BRANCH   25   24
ATOM    112  H14 UNL A   1      26.880  35.445  44.129  1.00  0.00    +0.000 H 
ATOM    111  H13 UNL A   1      27.713  35.364  45.692  1.00  0.00    +0.000 H 
ATOM     24  C17 UNL A   1      27.825  35.429  44.630  1.00  0.00    +0.000 C 
BRANCH   24   23
ATOM    109  H11 UNL A   1      28.119  33.822  43.249  1.00  0.00    +0.000 H 
ATOM    110  H12 UNL A   1      29.598  34.454  43.948  1.00  0.00    +0.000 H 
ATOM     23  C16 UNL A   1      28.579  34.188  44.143  1.00  0.00    +0.000 C 
BRANCH   23   22
ATOM    108  H10 UNL A   1      27.977  32.392  44.907  1.00  0.00    +0.000 H 
ATOM     22  N2  UNL A   1      28.546  33.155  45.156  1.00  0.00    +0.000 N 
BRANCH   22   20
ATOM     20  C15 UNL A   1      29.135  33.004  46.391  1.00  0.00    +0.000 C 
ATOM     21  O3  UNL A   1      30.137  33.696  46.589  1.00  0.00    +0.000 O 
BRANCH   20   19
ATOM    136  H38 UNL A   1      29.517  31.405  50.539  1.00  0.00    +0.000 H 
ATOM    106  H8  UNL A   1      26.754  29.406  48.153  1.00  0.00    +0.000 H 
ATOM    107  H9  UNL A   1      27.110  31.074  46.420  1.00  0.00    +0.000 H 
ATOM     16  C11 UNL A   1      28.176  30.211  49.485  1.00  0.00    +0.000 C 
ATOM     17  C12 UNL A   1      27.455  30.150  48.291  1.00  0.00    +0.000 C 
ATOM     18  C13 UNL A   1      27.677  31.088  47.281  1.00  0.00    +0.000 C 
ATOM     19  C14 UNL A   1      28.670  32.039  47.454  1.00  0.00    +0.000 C 
ATOM     95  N8  UNL A   1      29.330  32.163  48.640  1.00  0.00    +0.000 N 
ATOM     96  C67 UNL A   1      29.051  31.277  49.627  1.00  0.00    +0.000 C 
BRANCH   16   15
ATOM    104  H6  UNL A   1      28.925  26.018  51.274  1.00  0.00    +0.000 H 
ATOM      9  C6  UNL A   1      28.767  27.935  50.388  1.00  0.00    +0.000 C 
ATOM     10  C7  UNL A   1      28.448  26.932  51.317  1.00  0.00    +0.000 C 
ATOM     11  C8  UNL A   1      27.487  27.170  52.295  1.00  0.00    +0.000 C 
ATOM     12 Cl1  UNL A   1      27.054  25.938  53.408  1.00  0.00    +0.000 Cl
ATOM     13  C9  UNL A   1      26.881  28.413  52.342  1.00  0.00    +0.000 C 
ATOM     14  N1  UNL A   1      27.146  29.411  51.467  1.00  0.00    +0.000 N 
ATOM     15  C10 UNL A   1      28.058  29.156  50.493  1.00  0.00    +0.000 C 
ATOM    105  H7  UNL A   1      26.188  28.590  53.085  1.00  0.00    +0.000 H 
BRANCH    9    8
ATOM     97  C68 UNL A   1      29.391  27.226  48.065  1.00  0.00    +0.000 C 
ATOM     98  C69 UNL A   1      30.324  27.108  47.028  1.00  0.00    +0.000 C 
ATOM      5  C2  UNL A   1      31.656  27.450  47.259  1.00  0.00    +0.000 C 
ATOM    102  H4  UNL A   1      33.055  28.154  48.678  1.00  0.00    +0.000 H 
ATOM      6  C3  UNL A   1      32.069  27.897  48.514  1.00  0.00    +0.000 C 
ATOM      7  C4  UNL A   1      31.134  27.996  49.548  1.00  0.00    +0.000 C 
ATOM    103  H5  UNL A   1      31.445  28.297  50.484  1.00  0.00    +0.000 H 
ATOM    138  H40 UNL A   1      30.028  26.768  46.100  1.00  0.00    +0.000 H 
ATOM      8  C5  UNL A   1      29.775  27.692  49.334  1.00  0.00    +0.000 C 
ATOM    137  H39 UNL A   1      28.407  26.968  47.894  1.00  0.00    +0.000 H 
BRANCH    5    2
ATOM      2  S1  UNL A   1      32.837  27.383  45.932  1.00  0.00    +0.000 S 
ATOM      3  O1  UNL A   1      32.091  27.532  44.695  1.00  0.00    +0.000 O 
ATOM      4  O2  UNL A   1      33.681  26.227  46.154  1.00  0.00    +0.000 O 
BRANCH    2    1
ATOM      1  C1  UNL A   1      33.823  28.837  46.178  1.00  0.00    +0.000 C 
ATOM     99  H1  UNL A   1      34.537  28.657  46.954  1.00  0.00    +0.000 H 
ATOM    100  H2  UNL A   1      33.191  29.654  46.456  1.00  0.00    +0.000 H 
ATOM    101  H3  UNL A   1      34.337  29.077  45.270  1.00  0.00    +0.000 H 
ENDBRANCH    2    1
ENDBRANCH    5    2
ENDBRANCH    9    8
ENDBRANCH   16   15
ENDBRANCH   20   19
ENDBRANCH   22   20
ENDBRANCH   23   22
ENDBRANCH   24   23
ENDBRANCH   25   24
ENDBRANCH   26   25
ENDBRANCH   27   26
ENDBRANCH   28   27
ENDBRANCH   29   28
ENDBRANCH   30   29
ENDBRANCH   32   30
ENDBRANCH   36   35
BRANCH   40   41
ATOM     41  C31 UNL A   1      21.241  43.098  50.089  1.00  0.00    +0.000 C 
ATOM     42  C32 UNL A   1      21.624  43.357  51.415  1.00  0.00    +0.000 C 
ATOM     43  F1  UNL A   1      21.955  42.346  52.231  1.00  0.00    +0.000 F 
ATOM     44  C33 UNL A   1      21.642  44.655  51.916  1.00  0.00    +0.000 C 
ATOM     45  F2  UNL A   1      21.974  44.873  53.196  1.00  0.00    +0.000 F 
ATOM     46  C34 UNL A   1      21.313  45.722  51.094  1.00  0.00    +0.000 C 
ATOM     47  F3  UNL A   1      21.348  46.974  51.573  1.00  0.00    +0.000 F 
ATOM     48  C35 UNL A   1      20.944  45.493  49.778  1.00  0.00    +0.000 C 
ATOM     49  F4  UNL A   1      20.641  46.524  48.978  1.00  0.00    +0.000 F 
ATOM     50  C36 UNL A   1      20.894  44.192  49.283  1.00  0.00    +0.000 C 
ATOM     51  F5  UNL A   1      20.525  44.002  48.006  1.00  0.00    +0.000 F 
ENDBRANCH   40   41
BRANCH   57   58
ATOM     65  C46 UNL A   1      14.495  36.995  48.797  1.00  0.00    +0.000 C 
ATOM     66  F9  UNL A   1      13.586  36.855  47.823  1.00  0.00    +0.000 F 
ATOM     67  C47 UNL A   1      15.817  37.287  48.477  1.00  0.00    +0.000 C 
ATOM     68  F10 UNL A   1      16.155  37.405  47.185  1.00  0.00    +0.000 F 
ATOM     58  C42 UNL A   1      16.782  37.466  49.481  1.00  0.00    +0.000 C 
ATOM     59  C43 UNL A   1      16.371  37.339  50.816  1.00  0.00    +0.000 C 
ATOM     60  F6  UNL A   1      17.257  37.485  51.813  1.00  0.00    +0.000 F 
ATOM     61  C44 UNL A   1      15.056  37.011  51.132  1.00  0.00    +0.000 C 
ATOM     62  F7  UNL A   1      14.700  36.836  52.412  1.00  0.00    +0.000 F 
ATOM     63  C45 UNL A   1      14.118  36.847  50.123  1.00  0.00    +0.000 C 
ATOM     64  F8  UNL A   1      12.850  36.538  50.430  1.00  0.00    +0.000 F 
ENDBRANCH   57   58
BRANCH   72   73
ATOM     73  C51 UNL A   1      21.800  33.893  46.226  1.00  0.00    +0.000 C 
ATOM     74  C52 UNL A   1      22.454  32.882  46.945  1.00  0.00    +0.000 C 
ATOM     75  F11 UNL A   1      22.999  33.155  48.139  1.00  0.00    +0.000 F 
ATOM     76  C53 UNL A   1      22.604  31.603  46.413  1.00  0.00    +0.000 C 
ATOM     77  F12 UNL A   1      23.296  30.677  47.090  1.00  0.00    +0.000 F 
ATOM     78  C54 UNL A   1      22.066  31.296  45.173  1.00  0.00    +0.000 C 
ATOM     79  F13 UNL A   1      22.218  30.068  44.659  1.00  0.00    +0.000 F 
ATOM     80  C55 UNL A   1      21.383  32.270  44.460  1.00  0.00    +0.000 C 
ATOM     81  F14 UNL A   1      20.846  31.974  43.268  1.00  0.00    +0.000 F 
ATOM     82  C56 UNL A   1      21.264  33.558  44.974  1.00  0.00    +0.000 C 
ATOM     83  F15 UNL A   1      20.622  34.485  44.247  1.00  0.00    +0.000 F 
ENDBRANCH   72   73
TORSDOF 19
ENDMDL
MODEL 7
REMARK VINA RESULT:     -10.1      1.086      2.290
ROOT
ATOM    129  H31 UNL A   1      44.408  29.710  29.176  1.00  0.00    +0.000 H 
ATOM    130  H32 UNL A   1      48.912  31.479  27.837  1.00  0.00    +0.000 H 
ATOM    131  H33 UNL A   1      48.935  29.673  26.026  1.00  0.00    +0.000 H 
ATOM    132  H34 UNL A   1      40.223  26.012  29.428  1.00  0.00    +0.000 H 
ATOM    133  H35 UNL A   1      39.924  28.094  30.890  1.00  0.00    +0.000 H 
ATOM     36  C27 UNL A   1      42.168  29.857  30.848  1.00  0.00    +0.000 C 
ATOM     37  C28 UNL A   1      41.960  28.611  30.031  1.00  0.00    +0.000 C 
ATOM     38  N4  UNL A   1      42.744  28.069  29.134  1.00  0.00    +0.000 N 
ATOM     39  C29 UNL A   1      42.089  26.924  28.701  1.00  0.00    +0.000 C 
ATOM     40  C30 UNL A   1      42.453  26.065  27.720  1.00  0.00    +0.000 C 
ATOM     52  C37 UNL A   1      43.656  26.189  26.940  1.00  0.00    +0.000 C 
ATOM     53  C38 UNL A   1      44.100  25.385  25.905  1.00  0.00    +0.000 C 
ATOM     54  C39 UNL A   1      45.345  25.863  25.481  1.00  0.00    +0.000 C 
ATOM     55  C40 UNL A   1      45.648  27.000  26.211  1.00  0.00    +0.000 C 
ATOM     56  N5  UNL A   1      44.609  27.183  27.111  1.00  0.00    +0.000 N 
ATOM     57  C41 UNL A   1      46.799  27.858  26.097  1.00  0.00    +0.000 C 
ATOM     69  C48 UNL A   1      47.025  28.959  26.853  1.00  0.00    +0.000 C 
ATOM     70  N6  UNL A   1      46.243  29.503  27.864  1.00  0.00    +0.000 N 
ATOM     71  C49 UNL A   1      46.900  30.548  28.306  1.00  0.00    +0.000 C 
ATOM     72  C50 UNL A   1      46.511  31.537  29.373  1.00  0.00    +0.000 C 
ATOM     84  C57 UNL A   1      45.323  31.394  29.992  1.00  0.00    +0.000 C 
ATOM     85  C58 UNL A   1      44.801  32.273  31.033  1.00  0.00    +0.000 C 
ATOM     86  C59 UNL A   1      43.622  31.792  31.459  1.00  0.00    +0.000 C 
ATOM     87  C60 UNL A   1      43.285  30.593  30.691  1.00  0.00    +0.000 C 
ATOM     88  N7  UNL A   1      44.349  30.438  29.837  1.00  0.00    +0.000 N 
ATOM     89  C61 UNL A   1      48.193  30.765  27.643  1.00  0.00    +0.000 C 
ATOM     90  C62 UNL A   1      48.195  29.804  26.733  1.00  0.00    +0.000 C 
ATOM     91  C63 UNL A   1      40.876  26.809  29.480  1.00  0.00    +0.000 C 
ATOM     92  C64 UNL A   1      40.716  27.861  30.269  1.00  0.00    +0.000 C 
ATOM    124  H26 UNL A   1      43.599  24.573  25.511  1.00  0.00    +0.000 H 
ATOM    125  H27 UNL A   1      45.936  25.441  24.750  1.00  0.00    +0.000 H 
ATOM    126  H28 UNL A   1      44.554  27.909  27.773  1.00  0.00    +0.000 H 
ATOM    127  H29 UNL A   1      45.262  33.126  31.384  1.00  0.00    +0.000 H 
ATOM    128  H30 UNL A   1      43.045  32.204  32.210  1.00  0.00    +0.000 H 
ENDROOT
BRANCH   36   35
ATOM     33  C24 UNL A   1      40.390  30.310  34.169  1.00  0.00    +0.000 C 
ATOM     34  C25 UNL A   1      41.370  29.988  33.228  1.00  0.00    +0.000 C 
ATOM     35  C26 UNL A   1      41.166  30.262  31.866  1.00  0.00    +0.000 C 
ATOM    134  H36 UNL A   1      39.833  31.124  30.468  1.00  0.00    +0.000 H 
ATOM    135  H37 UNL A   1      38.240  31.879  32.131  1.00  0.00    +0.000 H 
ATOM    122  H24 UNL A   1      40.530  30.075  35.164  1.00  0.00    +0.000 H 
ATOM    123  H25 UNL A   1      42.250  29.546  33.536  1.00  0.00    +0.000 H 
ATOM     93  C65 UNL A   1      39.997  30.926  31.468  1.00  0.00    +0.000 C 
ATOM     94  C66 UNL A   1      39.057  31.319  32.416  1.00  0.00    +0.000 C 
ATOM     32  C23 UNL A   1      39.222  30.953  33.756  1.00  0.00    +0.000 C 
BRANCH   32   30
ATOM     30  C22 UNL A   1      38.183  31.261  34.760  1.00  0.00    +0.000 C 
ATOM     31  O4  UNL A   1      38.123  30.613  35.800  1.00  0.00    +0.000 O 
BRANCH   30   29
ATOM    121  H23 UNL A   1      36.444  32.223  35.028  1.00  0.00    +0.000 H 
ATOM     29  N3  UNL A   1      37.291  32.277  34.529  1.00  0.00    +0.000 N 
BRANCH   29   28
ATOM     28  C21 UNL A   1      37.429  33.423  33.644  1.00  0.00    +0.000 C 
ATOM    119  H21 UNL A   1      37.669  34.287  34.229  1.00  0.00    +0.000 H 
ATOM    120  H22 UNL A   1      38.206  33.210  32.940  1.00  0.00    +0.000 H 
BRANCH   28   27
ATOM     27  C20 UNL A   1      36.145  33.695  32.867  1.00  0.00    +0.000 C 
ATOM    117  H19 UNL A   1      35.508  32.841  32.962  1.00  0.00    +0.000 H 
ATOM    118  H20 UNL A   1      35.713  34.580  33.284  1.00  0.00    +0.000 H 
BRANCH   27   26
ATOM     26  C19 UNL A   1      36.364  33.968  31.376  1.00  0.00    +0.000 C 
ATOM    115  H17 UNL A   1      36.806  34.937  31.276  1.00  0.00    +0.000 H 
ATOM    116  H18 UNL A   1      36.989  33.178  31.014  1.00  0.00    +0.000 H 
BRANCH   26   25
ATOM     25  C18 UNL A   1      35.088  33.934  30.521  1.00  0.00    +0.000 C 
ATOM    114  H16 UNL A   1      35.289  34.529  29.656  1.00  0.00    +0.000 H 
ATOM    113  H15 UNL A   1      34.280  34.309  31.114  1.00  0.00    +0.000 H 
BRANCH   25   24
ATOM    112  H14 UNL A   1      33.631  32.510  29.940  1.00  0.00    +0.000 H 
ATOM    111  H13 UNL A   1      35.076  31.807  30.689  1.00  0.00    +0.000 H 
ATOM     24  C17 UNL A   1      34.698  32.540  30.008  1.00  0.00    +0.000 C 
BRANCH   24   23
ATOM    109  H11 UNL A   1      34.955  33.013  27.938  1.00  0.00    +0.000 H 
ATOM    110  H12 UNL A   1      36.320  32.188  28.665  1.00  0.00    +0.000 H 
ATOM     23  C16 UNL A   1      35.252  32.238  28.612  1.00  0.00    +0.000 C 
BRANCH   23   22
ATOM    108  H10 UNL A   1      35.323  30.210  28.374  1.00  0.00    +0.000 H 
ATOM     22  N2  UNL A   1      34.743  30.968  28.137  1.00  0.00    +0.000 N 
BRANCH   22   20
ATOM     20  C15 UNL A   1      33.628  30.588  27.427  1.00  0.00    +0.000 C 
ATOM     21  O3  UNL A   1      32.758  31.455  27.300  1.00  0.00    +0.000 O 
BRANCH   20   19
ATOM    136  H38 UNL A   1      34.780  27.394  24.532  1.00  0.00    +0.000 H 
ATOM    106  H8  UNL A   1      31.403  26.540  26.810  1.00  0.00    +0.000 H 
ATOM    107  H9  UNL A   1      31.800  28.573  28.082  1.00  0.00    +0.000 H 
ATOM     16  C11 UNL A   1      33.021  26.824  25.488  1.00  0.00    +0.000 C 
ATOM     17  C12 UNL A   1      32.182  27.165  26.551  1.00  0.00    +0.000 C 
ATOM     18  C13 UNL A   1      32.388  28.345  27.266  1.00  0.00    +0.000 C 
ATOM     19  C14 UNL A   1      33.396  29.208  26.863  1.00  0.00    +0.000 C 
ATOM     95  N8  UNL A   1      34.271  28.858  25.878  1.00  0.00    +0.000 N 
ATOM     96  C67 UNL A   1      34.086  27.676  25.242  1.00  0.00    +0.000 C 
BRANCH   16   15
ATOM    104  H6  UNL A   1      30.575  24.362  22.439  1.00  0.00    +0.000 H 
ATOM      9  C6  UNL A   1      31.648  25.650  23.733  1.00  0.00    +0.000 C 
ATOM     10  C7  UNL A   1      31.365  24.430  23.099  1.00  0.00    +0.000 C 
ATOM     11  C8  UNL A   1      32.150  23.311  23.361  1.00  0.00    +0.000 C 
ATOM     12 Cl1  UNL A   1      31.788  21.802  22.630  1.00  0.00    +0.000 Cl
ATOM     13  C9  UNL A   1      33.217  23.440  24.233  1.00  0.00    +0.000 C 
ATOM     14  N1  UNL A   1      33.529  24.589  24.876  1.00  0.00    +0.000 N 
ATOM     15  C10 UNL A   1      32.734  25.665  24.641  1.00  0.00    +0.000 C 
ATOM    105  H7  UNL A   1      33.809  22.612  24.403  1.00  0.00    +0.000 H 
BRANCH    9    8
ATOM     97  C68 UNL A   1      31.365  27.991  22.878  1.00  0.00    +0.000 C 
ATOM     98  C69 UNL A   1      30.557  29.077  22.524  1.00  0.00    +0.000 C 
ATOM      5  C2  UNL A   1      29.186  29.025  22.773  1.00  0.00    +0.000 C 
ATOM    102  H4  UNL A   1      27.599  27.872  23.559  1.00  0.00    +0.000 H 
ATOM      6  C3  UNL A   1      28.615  27.908  23.381  1.00  0.00    +0.000 C 
ATOM      7  C4  UNL A   1      29.432  26.834  23.747  1.00  0.00    +0.000 C 
ATOM    103  H5  UNL A   1      29.015  26.021  24.224  1.00  0.00    +0.000 H 
ATOM    138  H40 UNL A   1      30.974  29.911  22.082  1.00  0.00    +0.000 H 
ATOM      8  C5  UNL A   1      30.814  26.843  23.475  1.00  0.00    +0.000 C 
ATOM    137  H39 UNL A   1      32.380  28.032  22.698  1.00  0.00    +0.000 H 
BRANCH    5    2
ATOM      2  S1  UNL A   1      28.134  30.362  22.256  1.00  0.00    +0.000 S 
ATOM      3  O1  UNL A   1      27.128  30.531  23.290  1.00  0.00    +0.000 O 
ATOM      4  O2  UNL A   1      27.749  30.111  20.882  1.00  0.00    +0.000 O 
BRANCH    2    1
ATOM      1  C1  UNL A   1      29.211  31.771  22.276  1.00  0.00    +0.000 C 
ATOM     99  H1  UNL A   1      30.175  31.488  21.911  1.00  0.00    +0.000 H 
ATOM    100  H2  UNL A   1      29.301  32.137  23.277  1.00  0.00    +0.000 H 
ATOM    101  H3  UNL A   1      28.805  32.539  21.651  1.00  0.00    +0.000 H 
ENDBRANCH    2    1
ENDBRANCH    5    2
ENDBRANCH    9    8
ENDBRANCH   16   15
ENDBRANCH   20   19
ENDBRANCH   22   20
ENDBRANCH   23   22
ENDBRANCH   24   23
ENDBRANCH   25   24
ENDBRANCH   26   25
ENDBRANCH   27   26
ENDBRANCH   28   27
ENDBRANCH   29   28
ENDBRANCH   30   29
ENDBRANCH   32   30
ENDBRANCH   36   35
BRANCH   40   41
ATOM     41  C31 UNL A   1      41.529  24.919  27.416  1.00  0.00    +0.000 C 
ATOM     42  C32 UNL A   1      41.744  23.643  27.958  1.00  0.00    +0.000 C 
ATOM     43  F1  UNL A   1      42.830  23.402  28.708  1.00  0.00    +0.000 F 
ATOM     44  C33 UNL A   1      40.858  22.598  27.709  1.00  0.00    +0.000 C 
ATOM     45  F2  UNL A   1      41.106  21.379  28.206  1.00  0.00    +0.000 F 
ATOM     46  C34 UNL A   1      39.723  22.818  26.944  1.00  0.00    +0.000 C 
ATOM     47  F3  UNL A   1      38.861  21.815  26.719  1.00  0.00    +0.000 F 
ATOM     48  C35 UNL A   1      39.482  24.073  26.409  1.00  0.00    +0.000 C 
ATOM     49  F4  UNL A   1      38.377  24.290  25.682  1.00  0.00    +0.000 F 
ATOM     50  C36 UNL A   1      40.384  25.112  26.630  1.00  0.00    +0.000 C 
ATOM     51  F5  UNL A   1      40.126  26.314  26.091  1.00  0.00    +0.000 F 
ENDBRANCH   40   41
BRANCH   57   58
ATOM     65  C46 UNL A   1      50.001  26.642  24.436  1.00  0.00    +0.000 C 
ATOM     66  F9  UNL A   1      51.167  26.093  24.802  1.00  0.00    +0.000 F 
ATOM     67  C47 UNL A   1      49.036  26.927  25.396  1.00  0.00    +0.000 C 
ATOM     68  F10 UNL A   1      49.295  26.628  26.678  1.00  0.00    +0.000 F 
ATOM     58  C42 UNL A   1      47.817  27.527  25.042  1.00  0.00    +0.000 C 
ATOM     59  C43 UNL A   1      47.603  27.827  23.689  1.00  0.00    +0.000 C 
ATOM     60  F6  UNL A   1      46.449  28.387  23.295  1.00  0.00    +0.000 F 
ATOM     61  C44 UNL A   1      48.555  27.506  22.725  1.00  0.00    +0.000 C 
ATOM     62  F7  UNL A   1      48.303  27.748  21.431  1.00  0.00    +0.000 F 
ATOM     63  C45 UNL A   1      49.756  26.922  23.100  1.00  0.00    +0.000 C 
ATOM     64  F8  UNL A   1      50.674  26.620  22.171  1.00  0.00    +0.000 F 
ENDBRANCH   57   58
BRANCH   72   73
ATOM     73  C51 UNL A   1      47.420  32.656  29.740  1.00  0.00    +0.000 C 
ATOM     74  C52 UNL A   1      47.385  33.876  29.049  1.00  0.00    +0.000 C 
ATOM     75  F11 UNL A   1      46.507  34.055  28.051  1.00  0.00    +0.000 F 
ATOM     76  C53 UNL A   1      48.291  34.894  29.338  1.00  0.00    +0.000 C 
ATOM     77  F12 UNL A   1      48.281  36.020  28.613  1.00  0.00    +0.000 F 
ATOM     78  C54 UNL A   1      49.221  34.731  30.352  1.00  0.00    +0.000 C 
ATOM     79  F13 UNL A   1      50.098  35.707  30.624  1.00  0.00    +0.000 F 
ATOM     80  C55 UNL A   1      49.251  33.547  31.075  1.00  0.00    +0.000 C 
ATOM     81  F14 UNL A   1      50.138  33.391  32.068  1.00  0.00    +0.000 F 
ATOM     82  C56 UNL A   1      48.370  32.515  30.762  1.00  0.00    +0.000 C 
ATOM     83  F15 UNL A   1      48.443  31.372  31.460  1.00  0.00    +0.000 F 
ENDBRANCH   72   73
TORSDOF 19
ENDMDL
MODEL 8
REMARK VINA RESULT:     -10.1     20.822     29.310
ROOT
ATOM    129  H31 UNL A   1      23.558  38.160  46.996  1.00  0.00    +0.000 H 
ATOM    130  H32 UNL A   1      20.862  33.933  46.720  1.00  0.00    +0.000 H 
ATOM    131  H33 UNL A   1      18.878  35.300  47.579  1.00  0.00    +0.000 H 
ATOM    132  H34 UNL A   1      24.763  43.372  48.618  1.00  0.00    +0.000 H 
ATOM    133  H35 UNL A   1      26.609  42.192  47.290  1.00  0.00    +0.000 H 
ATOM     36  C27 UNL A   1      26.000  39.480  46.641  1.00  0.00    +0.000 C 
ATOM     37  C28 UNL A   1      25.108  40.490  47.309  1.00  0.00    +0.000 C 
ATOM     38  N4  UNL A   1      23.877  40.355  47.732  1.00  0.00    +0.000 N 
ATOM     39  C29 UNL A   1      23.531  41.579  48.288  1.00  0.00    +0.000 C 
ATOM     40  C30 UNL A   1      22.334  41.971  48.786  1.00  0.00    +0.000 C 
ATOM     52  C37 UNL A   1      21.168  41.129  48.850  1.00  0.00    +0.000 C 
ATOM     53  C38 UNL A   1      19.902  41.442  49.312  1.00  0.00    +0.000 C 
ATOM     54  C39 UNL A   1      19.108  40.294  49.225  1.00  0.00    +0.000 C 
ATOM     55  C40 UNL A   1      19.861  39.283  48.652  1.00  0.00    +0.000 C 
ATOM     56  N5  UNL A   1      21.128  39.805  48.437  1.00  0.00    +0.000 N 
ATOM     57  C41 UNL A   1      19.457  37.941  48.324  1.00  0.00    +0.000 C 
ATOM     69  C48 UNL A   1      20.259  37.004  47.762  1.00  0.00    +0.000 C 
ATOM     70  N6  UNL A   1      21.590  37.105  47.381  1.00  0.00    +0.000 N 
ATOM     71  C49 UNL A   1      21.923  35.926  46.914  1.00  0.00    +0.000 C 
ATOM     72  C50 UNL A   1      23.233  35.468  46.328  1.00  0.00    +0.000 C 
ATOM     84  C57 UNL A   1      24.245  36.351  46.227  1.00  0.00    +0.000 C 
ATOM     85  C58 UNL A   1      25.564  36.064  45.673  1.00  0.00    +0.000 C 
ATOM     86  C59 UNL A   1      26.333  37.158  45.788  1.00  0.00    +0.000 C 
ATOM     87  C60 UNL A   1      25.547  38.238  46.386  1.00  0.00    +0.000 C 
ATOM     88  N7  UNL A   1      24.317  37.669  46.605  1.00  0.00    +0.000 N 
ATOM     89  C61 UNL A   1      20.843  34.932  46.976  1.00  0.00    +0.000 C 
ATOM     90  C62 UNL A   1      19.838  35.654  47.450  1.00  0.00    +0.000 C 
ATOM     91  C63 UNL A   1      24.702  42.425  48.213  1.00  0.00    +0.000 C 
ATOM     92  C64 UNL A   1      25.682  41.823  47.557  1.00  0.00    +0.000 C 
ATOM    124  H26 UNL A   1      19.596  42.364  49.660  1.00  0.00    +0.000 H 
ATOM    125  H27 UNL A   1      18.127  40.214  49.535  1.00  0.00    +0.000 H 
ATOM    126  H28 UNL A   1      21.885  39.311  48.050  1.00  0.00    +0.000 H 
ATOM    127  H29 UNL A   1      25.858  35.166  45.259  1.00  0.00    +0.000 H 
ATOM    128  H30 UNL A   1      27.322  37.226  45.500  1.00  0.00    +0.000 H 
ENDROOT
BRANCH   36   35
ATOM     33  C24 UNL A   1      29.045  40.657  44.708  1.00  0.00    +0.000 C 
ATOM     34  C25 UNL A   1      27.717  40.397  45.050  1.00  0.00    +0.000 C 
ATOM     35  C26 UNL A   1      27.401  39.830  46.296  1.00  0.00    +0.000 C 
ATOM    134  H36 UNL A   1      28.208  39.167  48.135  1.00  0.00    +0.000 H 
ATOM    135  H37 UNL A   1      30.482  39.827  47.621  1.00  0.00    +0.000 H 
ATOM    122  H24 UNL A   1      29.275  41.040  43.778  1.00  0.00    +0.000 H 
ATOM    123  H25 UNL A   1      26.962  40.623  44.384  1.00  0.00    +0.000 H 
ATOM     93  C65 UNL A   1      28.428  39.592  47.220  1.00  0.00    +0.000 C 
ATOM     94  C66 UNL A   1      29.743  39.926  46.910  1.00  0.00    +0.000 C 
ATOM     32  C23 UNL A   1      30.059  40.396  45.630  1.00  0.00    +0.000 C 
BRANCH   32   30
ATOM     30  C22 UNL A   1      31.463  40.650  45.242  1.00  0.00    +0.000 C 
ATOM     31  O4  UNL A   1      32.062  41.615  45.706  1.00  0.00    +0.000 O 
BRANCH   30   29
ATOM    121  H23 UNL A   1      32.061  40.066  43.421  1.00  0.00    +0.000 H 
ATOM     29  N3  UNL A   1      32.093  39.802  44.368  1.00  0.00    +0.000 N 
BRANCH   29   28
ATOM     28  C21 UNL A   1      32.803  38.565  44.656  1.00  0.00    +0.000 C 
ATOM    119  H21 UNL A   1      33.615  38.462  43.965  1.00  0.00    +0.000 H 
ATOM    120  H22 UNL A   1      33.160  38.611  45.663  1.00  0.00    +0.000 H 
BRANCH   28   27
ATOM     27  C20 UNL A   1      31.890  37.349  44.530  1.00  0.00    +0.000 C 
ATOM    117  H19 UNL A   1      32.494  36.500  44.286  1.00  0.00    +0.000 H 
ATOM    118  H20 UNL A   1      31.386  37.242  45.468  1.00  0.00    +0.000 H 
BRANCH   27   26
ATOM     26  C19 UNL A   1      30.806  37.492  43.458  1.00  0.00    +0.000 C 
ATOM    115  H17 UNL A   1      30.776  38.516  43.148  1.00  0.00    +0.000 H 
ATOM    116  H18 UNL A   1      31.071  36.819  42.669  1.00  0.00    +0.000 H 
BRANCH   26   25
ATOM     25  C18 UNL A   1      29.395  37.090  43.912  1.00  0.00    +0.000 C 
ATOM    114  H16 UNL A   1      28.783  37.093  43.035  1.00  0.00    +0.000 H 
ATOM    113  H15 UNL A   1      29.072  37.789  44.655  1.00  0.00    +0.000 H 
BRANCH   25   24
ATOM    112  H14 UNL A   1      28.419  35.653  45.127  1.00  0.00    +0.000 H 
ATOM    111  H13 UNL A   1      30.183  35.476  45.064  1.00  0.00    +0.000 H 
ATOM     24  C17 UNL A   1      29.291  35.678  44.508  1.00  0.00    +0.000 C 
BRANCH   24   23
ATOM    109  H11 UNL A   1      28.282  33.979  43.690  1.00  0.00    +0.000 H 
ATOM    110  H12 UNL A   1      28.978  35.052  42.491  1.00  0.00    +0.000 H 
ATOM     23  C16 UNL A   1      29.126  34.588  43.444  1.00  0.00    +0.000 C 
BRANCH   23   22
ATOM    108  H10 UNL A   1      30.201  32.897  43.842  1.00  0.00    +0.000 H 
ATOM     22  N2  UNL A   1      30.314  33.762  43.387  1.00  0.00    +0.000 N 
BRANCH   22   20
ATOM     20  C15 UNL A   1      31.565  33.919  42.837  1.00  0.00    +0.000 C 
ATOM     21  O3  UNL A   1      31.595  34.465  41.731  1.00  0.00    +0.000 O 
BRANCH   20   19
ATOM    136  H38 UNL A   1      35.364  31.607  42.483  1.00  0.00    +0.000 H 
ATOM    106  H8  UNL A   1      34.634  33.183  46.266  1.00  0.00    +0.000 H 
ATOM    107  H9  UNL A   1      32.696  34.338  45.362  1.00  0.00    +0.000 H 
ATOM     16  C11 UNL A   1      35.135  32.213  44.461  1.00  0.00    +0.000 C 
ATOM     17  C12 UNL A   1      34.366  33.043  45.279  1.00  0.00    +0.000 C 
ATOM     18  C13 UNL A   1      33.235  33.685  44.773  1.00  0.00    +0.000 C 
ATOM     19  C14 UNL A   1      32.848  33.434  43.466  1.00  0.00    +0.000 C 
ATOM     95  N8  UNL A   1      33.627  32.689  42.631  1.00  0.00    +0.000 N 
ATOM     96  C67 UNL A   1      34.754  32.128  43.132  1.00  0.00    +0.000 C 
BRANCH   16   15
ATOM    104  H6  UNL A   1      37.053  29.034  47.211  1.00  0.00    +0.000 H 
ATOM      9  C6  UNL A   1      36.021  30.370  45.932  1.00  0.00    +0.000 C 
ATOM     10  C7  UNL A   1      37.158  29.796  46.522  1.00  0.00    +0.000 C 
ATOM     11  C8  UNL A   1      38.426  30.253  46.179  1.00  0.00    +0.000 C 
ATOM     12 Cl1  UNL A   1      39.822  29.593  46.927  1.00  0.00    +0.000 Cl
ATOM     13  C9  UNL A   1      38.535  31.259  45.235  1.00  0.00    +0.000 C 
ATOM     14  N1  UNL A   1      37.473  31.852  44.642  1.00  0.00    +0.000 N 
ATOM     15  C10 UNL A   1      36.238  31.423  45.012  1.00  0.00    +0.000 C 
ATOM    105  H7  UNL A   1      39.480  31.576  44.968  1.00  0.00    +0.000 H 
BRANCH    9    8
ATOM     97  C68 UNL A   1      33.915  29.112  45.412  1.00  0.00    +0.000 C 
ATOM     98  C69 UNL A   1      32.684  28.570  45.797  1.00  0.00    +0.000 C 
ATOM      5  C2  UNL A   1      32.190  28.824  47.076  1.00  0.00    +0.000 C 
ATOM    102  H4  UNL A   1      32.537  29.804  48.916  1.00  0.00    +0.000 H 
ATOM      6  C3  UNL A   1      32.904  29.622  47.969  1.00  0.00    +0.000 C 
ATOM      7  C4  UNL A   1      34.125  30.173  47.569  1.00  0.00    +0.000 C 
ATOM    103  H5  UNL A   1      34.639  30.789  48.219  1.00  0.00    +0.000 H 
ATOM    138  H40 UNL A   1      32.145  27.987  45.138  1.00  0.00    +0.000 H 
ATOM      8  C5  UNL A   1      34.666  29.904  46.297  1.00  0.00    +0.000 C 
ATOM    137  H39 UNL A   1      34.277  28.926  44.463  1.00  0.00    +0.000 H 
BRANCH    5    2
ATOM      2  S1  UNL A   1      30.667  28.078  47.610  1.00  0.00    +0.000 S 
ATOM      3  O1  UNL A   1      30.264  27.150  46.568  1.00  0.00    +0.000 O 
ATOM      4  O2  UNL A   1      29.782  29.143  48.036  1.00  0.00    +0.000 O 
BRANCH    2    1
ATOM      1  C1  UNL A   1      31.139  27.149  49.045  1.00  0.00    +0.000 C 
ATOM     99  H1  UNL A   1      30.343  26.490  49.320  1.00  0.00    +0.000 H 
ATOM    100  H2  UNL A   1      31.343  27.820  49.853  1.00  0.00    +0.000 H 
ATOM    101  H3  UNL A   1      32.017  26.576  48.827  1.00  0.00    +0.000 H 
ENDBRANCH    2    1
ENDBRANCH    5    2
ENDBRANCH    9    8
ENDBRANCH   16   15
ENDBRANCH   20   19
ENDBRANCH   22   20
ENDBRANCH   23   22
ENDBRANCH   24   23
ENDBRANCH   25   24
ENDBRANCH   26   25
ENDBRANCH   27   26
ENDBRANCH   28   27
ENDBRANCH   29   28
ENDBRANCH   30   29
ENDBRANCH   32   30
ENDBRANCH   36   35
BRANCH   40   41
ATOM     41  C31 UNL A   1      22.215  43.383  49.289  1.00  0.00    +0.000 C 
ATOM     42  C32 UNL A   1      22.500  43.710  50.624  1.00  0.00    +0.000 C 
ATOM     43  F1  UNL A   1      22.818  42.748  51.502  1.00  0.00    +0.000 F 
ATOM     44  C33 UNL A   1      22.431  45.027  51.069  1.00  0.00    +0.000 C 
ATOM     45  F2  UNL A   1      22.669  45.310  52.357  1.00  0.00    +0.000 F 
ATOM     46  C34 UNL A   1      22.112  46.045  50.184  1.00  0.00    +0.000 C 
ATOM     47  F3  UNL A   1      22.063  47.315  50.611  1.00  0.00    +0.000 F 
ATOM     48  C35 UNL A   1      21.839  45.748  48.858  1.00  0.00    +0.000 C 
ATOM     49  F4  UNL A   1      21.545  46.732  47.998  1.00  0.00    +0.000 F 
ATOM     50  C36 UNL A   1      21.875  44.427  48.416  1.00  0.00    +0.000 C 
ATOM     51  F5  UNL A   1      21.598  44.171  47.128  1.00  0.00    +0.000 F 
ENDBRANCH   40   41
BRANCH   57   58
ATOM     65  C46 UNL A   1      16.264  37.041  50.190  1.00  0.00    +0.000 C 
ATOM     66  F9  UNL A   1      15.854  36.907  51.459  1.00  0.00    +0.000 F 
ATOM     67  C47 UNL A   1      17.572  37.430  49.919  1.00  0.00    +0.000 C 
ATOM     68  F10 UNL A   1      18.396  37.677  50.948  1.00  0.00    +0.000 F 
ATOM     58  C42 UNL A   1      18.032  37.551  48.598  1.00  0.00    +0.000 C 
ATOM     59  C43 UNL A   1      17.130  37.272  47.561  1.00  0.00    +0.000 C 
ATOM     60  F6  UNL A   1      17.515  37.388  46.281  1.00  0.00    +0.000 F 
ATOM     61  C44 UNL A   1      15.811  36.919  47.835  1.00  0.00    +0.000 C 
ATOM     62  F7  UNL A   1      14.951  36.715  46.827  1.00  0.00    +0.000 F 
ATOM     63  C45 UNL A   1      15.382  36.797  49.148  1.00  0.00    +0.000 C 
ATOM     64  F8  UNL A   1      14.113  36.451  49.410  1.00  0.00    +0.000 F 
ENDBRANCH   57   58
BRANCH   72   73
ATOM     73  C51 UNL A   1      23.409  34.065  45.866  1.00  0.00    +0.000 C 
ATOM     74  C52 UNL A   1      22.837  33.619  44.666  1.00  0.00    +0.000 C 
ATOM     75  F11 UNL A   1      22.132  34.468  43.904  1.00  0.00    +0.000 F 
ATOM     76  C53 UNL A   1      22.932  32.285  44.274  1.00  0.00    +0.000 C 
ATOM     77  F12 UNL A   1      22.314  31.872  43.160  1.00  0.00    +0.000 F 
ATOM     78  C54 UNL A   1      23.639  31.380  45.051  1.00  0.00    +0.000 C 
ATOM     79  F13 UNL A   1      23.724  30.096  44.678  1.00  0.00    +0.000 F 
ATOM     80  C55 UNL A   1      24.245  31.806  46.223  1.00  0.00    +0.000 C 
ATOM     81  F14 UNL A   1      24.944  30.939  46.969  1.00  0.00    +0.000 F 
ATOM     82  C56 UNL A   1      24.119  33.130  46.634  1.00  0.00    +0.000 C 
ATOM     83  F15 UNL A   1      24.693  33.505  47.787  1.00  0.00    +0.000 F 
ENDBRANCH   72   73
TORSDOF 19
ENDMDL
MODEL 9
REMARK VINA RESULT:     -10.1     37.054     41.877
ROOT
ATOM    129  H31 UNL A   1      14.401  51.659   3.590  1.00  0.00    +0.000 H 
ATOM    130  H32 UNL A   1      13.533  46.795   2.691  1.00  0.00    +0.000 H 
ATOM    131  H33 UNL A   1      15.243  46.978   0.797  1.00  0.00    +0.000 H 
ATOM    132  H34 UNL A   1      16.204  56.833   2.482  1.00  0.00    +0.000 H 
ATOM    133  H35 UNL A   1      14.914  56.578   4.680  1.00  0.00    +0.000 H 
ATOM     36  C27 UNL A   1      13.875  53.954   5.103  1.00  0.00    +0.000 C 
ATOM     37  C28 UNL A   1      14.765  54.423   3.985  1.00  0.00    +0.000 C 
ATOM     38  N4  UNL A   1      15.254  53.746   2.977  1.00  0.00    +0.000 N 
ATOM     39  C29 UNL A   1      15.990  54.657   2.231  1.00  0.00    +0.000 C 
ATOM     40  C30 UNL A   1      16.756  54.428   1.138  1.00  0.00    +0.000 C 
ATOM     52  C37 UNL A   1      16.921  53.138   0.521  1.00  0.00    +0.000 C 
ATOM     53  C38 UNL A   1      17.697  52.798  -0.573  1.00  0.00    +0.000 C 
ATOM     54  C39 UNL A   1      17.507  51.439  -0.841  1.00  0.00    +0.000 C 
ATOM     55  C40 UNL A   1      16.659  50.918   0.123  1.00  0.00    +0.000 C 
ATOM     56  N5  UNL A   1      16.298  51.974   0.946  1.00  0.00    +0.000 N 
ATOM     57  C41 UNL A   1      16.212  49.559   0.282  1.00  0.00    +0.000 C 
ATOM     69  C48 UNL A   1      15.376  49.126   1.258  1.00  0.00    +0.000 C 
ATOM     70  N6  UNL A   1      14.784  49.846   2.287  1.00  0.00    +0.000 N 
ATOM     71  C49 UNL A   1      14.044  48.988   2.948  1.00  0.00    +0.000 C 
ATOM     72  C50 UNL A   1      13.206  49.205   4.180  1.00  0.00    +0.000 C 
ATOM     84  C57 UNL A   1      13.178  50.428   4.744  1.00  0.00    +0.000 C 
ATOM     85  C58 UNL A   1      12.428  50.791   5.941  1.00  0.00    +0.000 C 
ATOM     86  C59 UNL A   1      12.588  52.103   6.175  1.00  0.00    +0.000 C 
ATOM     87  C60 UNL A   1      13.488  52.666   5.168  1.00  0.00    +0.000 C 
ATOM     88  N7  UNL A   1      13.795  51.595   4.364  1.00  0.00    +0.000 N 
ATOM     89  C61 UNL A   1      14.060  47.629   2.389  1.00  0.00    +0.000 C 
ATOM     90  C62 UNL A   1      14.927  47.756   1.396  1.00  0.00    +0.000 C 
ATOM     91  C63 UNL A   1      15.829  55.949   2.860  1.00  0.00    +0.000 C 
ATOM     92  C64 UNL A   1      15.136  55.847   3.985  1.00  0.00    +0.000 C 
ATOM    124  H26 UNL A   1      18.313  53.438  -1.101  1.00  0.00    +0.000 H 
ATOM    125  H27 UNL A   1      17.926  50.913  -1.623  1.00  0.00    +0.000 H 
ATOM    126  H28 UNL A   1      15.690  51.908   1.717  1.00  0.00    +0.000 H 
ATOM    127  H29 UNL A   1      11.866  50.144   6.515  1.00  0.00    +0.000 H 
ATOM    128  H30 UNL A   1      12.146  52.630   6.944  1.00  0.00    +0.000 H 
ENDROOT
BRANCH   36   35
ATOM     33  C24 UNL A   1      13.548  55.942   8.318  1.00  0.00    +0.000 C 
ATOM     34  C25 UNL A   1      14.059  55.089   7.339  1.00  0.00    +0.000 C 
ATOM     35  C26 UNL A   1      13.380  54.915   6.121  1.00  0.00    +0.000 C 
ATOM    134  H36 UNL A   1      11.708  55.533   4.984  1.00  0.00    +0.000 H 
ATOM    135  H37 UNL A   1      10.950  57.177   6.595  1.00  0.00    +0.000 H 
ATOM    122  H24 UNL A   1      14.031  56.040   9.224  1.00  0.00    +0.000 H 
ATOM    123  H25 UNL A   1      14.942  54.583   7.510  1.00  0.00    +0.000 H 
ATOM     93  C65 UNL A   1      12.220  55.660   5.871  1.00  0.00    +0.000 C 
ATOM     94  C66 UNL A   1      11.754  56.571   6.815  1.00  0.00    +0.000 C 
ATOM     32  C23 UNL A   1      12.380  56.663   8.063  1.00  0.00    +0.000 C 
BRANCH   32   30
ATOM     30  C22 UNL A   1      11.836  57.540   9.121  1.00  0.00    +0.000 C 
ATOM     31  O4  UNL A   1      12.266  58.682   9.251  1.00  0.00    +0.000 O 
BRANCH   30   29
ATOM    121  H23 UNL A   1       9.931  57.141   9.599  1.00  0.00    +0.000 H 
ATOM     29  N3  UNL A   1      10.848  57.077   9.950  1.00  0.00    +0.000 N 
BRANCH   29   28
ATOM     28  C21 UNL A   1      10.974  56.503  11.282  1.00  0.00    +0.000 C 
ATOM    119  H21 UNL A   1      11.833  55.864  11.304  1.00  0.00    +0.000 H 
ATOM    120  H22 UNL A   1      11.075  57.305  11.983  1.00  0.00    +0.000 H 
BRANCH   28   27
ATOM     27  C20 UNL A   1       9.743  55.688  11.664  1.00  0.00    +0.000 C 
ATOM    117  H19 UNL A   1       8.936  55.979  11.024  1.00  0.00    +0.000 H 
ATOM    118  H20 UNL A   1      10.007  54.658  11.552  1.00  0.00    +0.000 H 
BRANCH   27   26
ATOM     26  C19 UNL A   1       9.297  55.876  13.116  1.00  0.00    +0.000 C 
ATOM    115  H17 UNL A   1       8.657  56.733  13.161  1.00  0.00    +0.000 H 
ATOM    116  H18 UNL A   1       8.807  54.968  13.402  1.00  0.00    +0.000 H 
BRANCH   26   25
ATOM     25  C18 UNL A   1      10.442  56.083  14.120  1.00  0.00    +0.000 C 
ATOM    114  H16 UNL A   1      10.504  57.136  14.294  1.00  0.00    +0.000 H 
ATOM    113  H15 UNL A   1      11.333  55.671  13.696  1.00  0.00    +0.000 H 
BRANCH   25   24
ATOM    112  H14 UNL A   1       9.923  56.201  16.171  1.00  0.00    +0.000 H 
ATOM    111  H13 UNL A   1      11.126  54.954  15.796  1.00  0.00    +0.000 H 
ATOM     24  C17 UNL A   1      10.217  55.429  15.492  1.00  0.00    +0.000 C 
BRANCH   24   23
ATOM    109  H11 UNL A   1       8.310  54.699  16.128  1.00  0.00    +0.000 H 
ATOM    110  H12 UNL A   1       8.734  54.272  14.482  1.00  0.00    +0.000 H 
ATOM     23  C16 UNL A   1       9.100  54.381  15.481  1.00  0.00    +0.000 C 
BRANCH   23   22
ATOM    108  H10 UNL A   1       8.901  52.501  16.256  1.00  0.00    +0.000 H 
ATOM     22  N2  UNL A   1       9.610  53.105  15.939  1.00  0.00    +0.000 N 
BRANCH   22   20
ATOM     20  C15 UNL A   1      10.866  52.551  16.029  1.00  0.00    +0.000 C 
ATOM     21  O3  UNL A   1      11.309  52.422  17.174  1.00  0.00    +0.000 O 
BRANCH   20   19
ATOM    136  H38 UNL A   1      13.987  49.879  14.289  1.00  0.00    +0.000 H 
ATOM    106  H8  UNL A   1      12.712  52.935  11.768  1.00  0.00    +0.000 H 
ATOM    107  H9  UNL A   1      11.022  53.527  13.412  1.00  0.00    +0.000 H 
ATOM     16  C11 UNL A   1      13.567  51.392  12.922  1.00  0.00    +0.000 C 
ATOM     17  C12 UNL A   1      12.670  52.431  12.667  1.00  0.00    +0.000 C 
ATOM     18  C13 UNL A   1      11.717  52.794  13.619  1.00  0.00    +0.000 C 
ATOM     19  C14 UNL A   1      11.718  52.154  14.849  1.00  0.00    +0.000 C 
ATOM     95  N8  UNL A   1      12.534  51.088  15.089  1.00  0.00    +0.000 N 
ATOM     96  C67 UNL A   1      13.407  50.716  14.122  1.00  0.00    +0.000 C 
BRANCH   16   15
ATOM    104  H6  UNL A   1      15.614  49.165   9.430  1.00  0.00    +0.000 H 
ATOM      9  C6  UNL A   1      14.509  50.176  10.927  1.00  0.00    +0.000 C 
ATOM     10  C7  UNL A   1      15.667  49.840  10.209  1.00  0.00    +0.000 C 
ATOM     11  C8  UNL A   1      16.888  50.416  10.547  1.00  0.00    +0.000 C 
ATOM     12 Cl1  UNL A   1      18.320  49.979   9.708  1.00  0.00    +0.000 Cl
ATOM     13  C9  UNL A   1      16.923  51.336  11.580  1.00  0.00    +0.000 C 
ATOM     14  N1  UNL A   1      15.840  51.689  12.309  1.00  0.00    +0.000 N 
ATOM     15  C10 UNL A   1      14.660  51.093  11.995  1.00  0.00    +0.000 C 
ATOM    105  H7  UNL A   1      17.828  51.776  11.809  1.00  0.00    +0.000 H 
BRANCH    9    8
ATOM     97  C68 UNL A   1      12.335  50.182   9.678  1.00  0.00    +0.000 C 
ATOM     98  C69 UNL A   1      11.157  49.549   9.263  1.00  0.00    +0.000 C 
ATOM      5  C2  UNL A   1      10.841  48.288   9.767  1.00  0.00    +0.000 C 
ATOM    102  H4  UNL A   1      11.442  46.722  11.052  1.00  0.00    +0.000 H 
ATOM      6  C3  UNL A   1      11.678  47.658  10.686  1.00  0.00    +0.000 C 
ATOM      7  C4  UNL A   1      12.844  48.304  11.107  1.00  0.00    +0.000 C 
ATOM    103  H5  UNL A   1      13.447  47.852  11.810  1.00  0.00    +0.000 H 
ATOM    138  H40 UNL A   1      10.528  50.014   8.591  1.00  0.00    +0.000 H 
ATOM      8  C5  UNL A   1      13.208  49.562  10.588  1.00  0.00    +0.000 C 
ATOM    137  H39 UNL A   1      12.566  51.117   9.308  1.00  0.00    +0.000 H 
BRANCH    5    2
ATOM      2  S1  UNL A   1       9.391  47.435   9.190  1.00  0.00    +0.000 S 
ATOM      3  O1  UNL A   1       9.761  46.041   9.018  1.00  0.00    +0.000 O 
ATOM      4  O2  UNL A   1       8.843  48.198   8.087  1.00  0.00    +0.000 O 
BRANCH    2    1
ATOM      1  C1  UNL A   1       8.265  47.559  10.555  1.00  0.00    +0.000 C 
ATOM     99  H1  UNL A   1       8.189  46.610  11.042  1.00  0.00    +0.000 H 
ATOM    100  H2  UNL A   1       7.301  47.854  10.197  1.00  0.00    +0.000 H 
ATOM    101  H3  UNL A   1       8.626  48.288  11.251  1.00  0.00    +0.000 H 
ENDBRANCH    2    1
ENDBRANCH    5    2
ENDBRANCH    9    8
ENDBRANCH   16   15
ENDBRANCH   20   19
ENDBRANCH   22   20
ENDBRANCH   23   22
ENDBRANCH   24   23
ENDBRANCH   25   24
ENDBRANCH   26   25
ENDBRANCH   27   26
ENDBRANCH   28   27
ENDBRANCH   29   28
ENDBRANCH   30   29
ENDBRANCH   32   30
ENDBRANCH   36   35
BRANCH   40   41
ATOM     41  C31 UNL A   1      17.494  55.595   0.545  1.00  0.00    +0.000 C 
ATOM     42  C32 UNL A   1      16.894  56.429  -0.411  1.00  0.00    +0.000 C 
ATOM     43  F1  UNL A   1      15.664  56.155  -0.870  1.00  0.00    +0.000 F 
ATOM     44  C33 UNL A   1      17.568  57.535  -0.922  1.00  0.00    +0.000 C 
ATOM     45  F2  UNL A   1      16.990  58.295  -1.863  1.00  0.00    +0.000 F 
ATOM     46  C34 UNL A   1      18.838  57.849  -0.462  1.00  0.00    +0.000 C 
ATOM     47  F3  UNL A   1      19.479  58.925  -0.941  1.00  0.00    +0.000 F 
ATOM     48  C35 UNL A   1      19.445  57.048   0.492  1.00  0.00    +0.000 C 
ATOM     49  F4  UNL A   1      20.666  57.358   0.949  1.00  0.00    +0.000 F 
ATOM     50  C36 UNL A   1      18.786  55.922   0.981  1.00  0.00    +0.000 C 
ATOM     51  F5  UNL A   1      19.405  55.161   1.898  1.00  0.00    +0.000 F 
ENDBRANCH   40   41
BRANCH   57   58
ATOM     65  C46 UNL A   1      16.421  47.204  -2.701  1.00  0.00    +0.000 C 
ATOM     66  F9  UNL A   1      15.667  46.860  -3.754  1.00  0.00    +0.000 F 
ATOM     67  C47 UNL A   1      15.970  48.174  -1.811  1.00  0.00    +0.000 C 
ATOM     68  F10 UNL A   1      14.784  48.757  -2.041  1.00  0.00    +0.000 F 
ATOM     58  C42 UNL A   1      16.729  48.533  -0.686  1.00  0.00    +0.000 C 
ATOM     59  C43 UNL A   1      17.957  47.884  -0.490  1.00  0.00    +0.000 C 
ATOM     60  F6  UNL A   1      18.728  48.201   0.562  1.00  0.00    +0.000 F 
ATOM     61  C44 UNL A   1      18.423  46.941  -1.402  1.00  0.00    +0.000 C 
ATOM     62  F7  UNL A   1      19.626  46.379  -1.225  1.00  0.00    +0.000 F 
ATOM     63  C45 UNL A   1      17.651  46.597  -2.502  1.00  0.00    +0.000 C 
ATOM     64  F8  UNL A   1      18.098  45.684  -3.375  1.00  0.00    +0.000 F 
ENDBRANCH   57   58
BRANCH   72   73
ATOM     73  C51 UNL A   1      12.419  48.088   4.770  1.00  0.00    +0.000 C 
ATOM     74  C52 UNL A   1      12.874  47.399   5.903  1.00  0.00    +0.000 C 
ATOM     75  F11 UNL A   1      14.027  47.757   6.486  1.00  0.00    +0.000 F 
ATOM     76  C53 UNL A   1      12.179  46.301   6.406  1.00  0.00    +0.000 C 
ATOM     77  F12 UNL A   1      12.676  45.617   7.445  1.00  0.00    +0.000 F 
ATOM     78  C54 UNL A   1      10.993  45.896   5.813  1.00  0.00    +0.000 C 
ATOM     79  F13 UNL A   1      10.330  44.835   6.292  1.00  0.00    +0.000 F 
ATOM     80  C55 UNL A   1      10.504  46.585   4.714  1.00  0.00    +0.000 C 
ATOM     81  F14 UNL A   1       9.349  46.208   4.147  1.00  0.00    +0.000 F 
ATOM     82  C56 UNL A   1      11.216  47.659   4.188  1.00  0.00    +0.000 C 
ATOM     83  F15 UNL A   1      10.731  48.287   3.107  1.00  0.00    +0.000 F 
ENDBRANCH   72   73
TORSDOF 19
ENDMDL
MODEL 10
REMARK VINA RESULT:     -10.0      6.889     13.638
ROOT
ATOM    129  H31 UNL A   1      40.919  29.444  32.812  1.00  0.00    +0.000 H 
ATOM    130  H32 UNL A   1      37.420  32.849  33.986  1.00  0.00    +0.000 H 
ATOM    131  H33 UNL A   1      36.489  32.509  31.627  1.00  0.00    +0.000 H 
ATOM    132  H34 UNL A   1      44.033  26.248  29.444  1.00  0.00    +0.000 H 
ATOM    133  H35 UNL A   1      44.677  26.168  31.922  1.00  0.00    +0.000 H 
ATOM     36  C27 UNL A   1      43.163  27.948  33.559  1.00  0.00    +0.000 C 
ATOM     37  C28 UNL A   1      42.977  27.660  32.095  1.00  0.00    +0.000 C 
ATOM     38  N4  UNL A   1      42.095  28.150  31.261  1.00  0.00    +0.000 N 
ATOM     39  C29 UNL A   1      42.375  27.570  30.031  1.00  0.00    +0.000 C 
ATOM     40  C30 UNL A   1      41.693  27.691  28.867  1.00  0.00    +0.000 C 
ATOM     52  C37 UNL A   1      40.518  28.506  28.698  1.00  0.00    +0.000 C 
ATOM     53  C38 UNL A   1      39.740  28.674  27.566  1.00  0.00    +0.000 C 
ATOM     54  C39 UNL A   1      38.731  29.597  27.860  1.00  0.00    +0.000 C 
ATOM     55  C40 UNL A   1      38.844  29.958  29.192  1.00  0.00    +0.000 C 
ATOM     56  N5  UNL A   1      39.951  29.290  29.692  1.00  0.00    +0.000 N 
ATOM     57  C41 UNL A   1      38.004  30.846  29.953  1.00  0.00    +0.000 C 
ATOM     69  C48 UNL A   1      38.182  31.151  31.262  1.00  0.00    +0.000 C 
ATOM     70  N6  UNL A   1      39.160  30.704  32.140  1.00  0.00    +0.000 N 
ATOM     71  C49 UNL A   1      38.922  31.304  33.282  1.00  0.00    +0.000 C 
ATOM     72  C50 UNL A   1      39.642  31.169  34.598  1.00  0.00    +0.000 C 
ATOM     84  C57 UNL A   1      40.680  30.316  34.688  1.00  0.00    +0.000 C 
ATOM     85  C58 UNL A   1      41.466  30.066  35.891  1.00  0.00    +0.000 C 
ATOM     86  C59 UNL A   1      42.453  29.205  35.597  1.00  0.00    +0.000 C 
ATOM     87  C60 UNL A   1      42.342  28.808  34.192  1.00  0.00    +0.000 C 
ATOM     88  N7  UNL A   1      41.255  29.511  33.735  1.00  0.00    +0.000 N 
ATOM     89  C61 UNL A   1      37.780  32.228  33.244  1.00  0.00    +0.000 C 
ATOM     90  C62 UNL A   1      37.334  32.057  32.009  1.00  0.00    +0.000 C 
ATOM     91  C63 UNL A   1      43.550  26.746  30.208  1.00  0.00    +0.000 C 
ATOM     92  C64 UNL A   1      43.921  26.714  31.479  1.00  0.00    +0.000 C 
ATOM    124  H26 UNL A   1      39.879  28.198  26.660  1.00  0.00    +0.000 H 
ATOM    125  H27 UNL A   1      38.024  29.949  27.197  1.00  0.00    +0.000 H 
ATOM    126  H28 UNL A   1      40.287  29.362  30.615  1.00  0.00    +0.000 H 
ATOM    127  H29 UNL A   1      41.293  30.484  36.818  1.00  0.00    +0.000 H 
ATOM    128  H30 UNL A   1      43.175  28.875  36.256  1.00  0.00    +0.000 H 
ENDROOT
BRANCH   36   35
ATOM     33  C24 UNL A   1      45.188  25.469  35.597  1.00  0.00    +0.000 C 
ATOM     34  C25 UNL A   1      44.159  26.023  34.832  1.00  0.00    +0.000 C 
ATOM     35  C26 UNL A   1      44.280  27.322  34.311  1.00  0.00    +0.000 C 
ATOM    134  H36 UNL A   1      45.569  28.990  34.137  1.00  0.00    +0.000 H 
ATOM    135  H37 UNL A   1      47.433  27.938  35.273  1.00  0.00    +0.000 H 
ATOM    122  H24 UNL A   1      45.080  24.529  36.007  1.00  0.00    +0.000 H 
ATOM    123  H25 UNL A   1      43.305  25.474  34.648  1.00  0.00    +0.000 H 
ATOM     93  C65 UNL A   1      45.473  28.031  34.507  1.00  0.00    +0.000 C 
ATOM     94  C66 UNL A   1      46.529  27.448  35.202  1.00  0.00    +0.000 C 
ATOM     32  C23 UNL A   1      46.362  26.195  35.802  1.00  0.00    +0.000 C 
BRANCH   32   30
ATOM     30  C22 UNL A   1      47.430  25.606  36.637  1.00  0.00    +0.000 C 
ATOM     31  O4  UNL A   1      47.641  26.047  37.762  1.00  0.00    +0.000 O 
BRANCH   30   29
ATOM    121  H23 UNL A   1      47.805  23.665  36.305  1.00  0.00    +0.000 H 
ATOM     29  N3  UNL A   1      48.177  24.563  36.154  1.00  0.00    +0.000 N 
BRANCH   29   28
ATOM     28  C21 UNL A   1      49.448  24.608  35.446  1.00  0.00    +0.000 C 
ATOM    119  H21 UNL A   1      49.812  25.615  35.450  1.00  0.00    +0.000 H 
ATOM    120  H22 UNL A   1      50.131  23.953  35.945  1.00  0.00    +0.000 H 
BRANCH   28   27
ATOM     27  C20 UNL A   1      49.307  24.139  34.002  1.00  0.00    +0.000 C 
ATOM    117  H19 UNL A   1      50.195  23.607  33.733  1.00  0.00    +0.000 H 
ATOM    118  H20 UNL A   1      48.430  23.528  33.960  1.00  0.00    +0.000 H 
BRANCH   27   26
ATOM     26  C19 UNL A   1      49.104  25.275  32.995  1.00  0.00    +0.000 C 
ATOM    115  H17 UNL A   1      49.431  26.187  33.450  1.00  0.00    +0.000 H 
ATOM    116  H18 UNL A   1      49.667  25.011  32.124  1.00  0.00    +0.000 H 
BRANCH   26   25
ATOM     25  C18 UNL A   1      47.653  25.469  32.527  1.00  0.00    +0.000 C 
ATOM    114  H16 UNL A   1      47.098  25.779  33.387  1.00  0.00    +0.000 H 
ATOM    113  H15 UNL A   1      47.311  24.544  32.114  1.00  0.00    +0.000 H 
BRANCH   25   24
ATOM    112  H14 UNL A   1      48.050  27.408  31.771  1.00  0.00    +0.000 H 
ATOM    111  H13 UNL A   1      46.422  26.805  31.410  1.00  0.00    +0.000 H 
ATOM     24  C17 UNL A   1      47.463  26.566  31.469  1.00  0.00    +0.000 C 
BRANCH   24   23
ATOM    109  H11 UNL A   1      48.841  26.682  29.838  1.00  0.00    +0.000 H 
ATOM    110  H12 UNL A   1      48.137  25.095  30.077  1.00  0.00    +0.000 H 
ATOM     23  C16 UNL A   1      47.946  26.148  30.078  1.00  0.00    +0.000 C 
BRANCH   23   22
ATOM    108  H10 UNL A   1      46.371  27.215  29.332  1.00  0.00    +0.000 H 
ATOM     22  N2  UNL A   1      46.931  26.445  29.087  1.00  0.00    +0.000 N 
BRANCH   22   20
ATOM     20  C15 UNL A   1      46.578  25.887  27.880  1.00  0.00    +0.000 C 
ATOM     21  O3  UNL A   1      45.769  24.956  27.942  1.00  0.00    +0.000 O 
BRANCH   20   19
ATOM    136  H38 UNL A   1      48.281  24.727  23.923  1.00  0.00    +0.000 H 
ATOM    106  H8  UNL A   1      48.213  28.824  24.653  1.00  0.00    +0.000 H 
ATOM    107  H9  UNL A   1      46.984  28.393  26.706  1.00  0.00    +0.000 H 
ATOM     16  C11 UNL A   1      48.435  26.792  24.135  1.00  0.00    +0.000 C 
ATOM     17  C12 UNL A   1      48.017  27.853  24.942  1.00  0.00    +0.000 C 
ATOM     18  C13 UNL A   1      47.337  27.610  26.135  1.00  0.00    +0.000 C 
ATOM     19  C14 UNL A   1      47.142  26.299  26.544  1.00  0.00    +0.000 C 
ATOM     95  N8  UNL A   1      47.474  25.252  25.736  1.00  0.00    +0.000 N 
ATOM     96  C67 UNL A   1      48.077  25.519  24.552  1.00  0.00    +0.000 C 
BRANCH   16   15
ATOM    104  H6  UNL A   1      52.321  27.918  21.905  1.00  0.00    +0.000 H 
ATOM      9  C6  UNL A   1      50.653  27.312  23.060  1.00  0.00    +0.000 C 
ATOM     10  C7  UNL A   1      51.316  27.684  21.880  1.00  0.00    +0.000 C 
ATOM     11  C8  UNL A   1      50.619  27.736  20.677  1.00  0.00    +0.000 C 
ATOM     12 Cl1  UNL A   1      51.406  28.233  19.235  1.00  0.00    +0.000 Cl
ATOM     13  C9  UNL A   1      49.278  27.392  20.672  1.00  0.00    +0.000 C 
ATOM     14  N1  UNL A   1      48.590  27.035  21.781  1.00  0.00    +0.000 N 
ATOM     15  C10 UNL A   1      49.271  27.023  22.956  1.00  0.00    +0.000 C 
ATOM    105  H7  UNL A   1      48.775  27.410  19.772  1.00  0.00    +0.000 H 
BRANCH    9    8
ATOM     97  C68 UNL A   1      51.595  28.436  25.094  1.00  0.00    +0.000 C 
ATOM     98  C69 UNL A   1      52.173  28.383  26.367  1.00  0.00    +0.000 C 
ATOM      5  C2  UNL A   1      52.546  27.150  26.902  1.00  0.00    +0.000 C 
ATOM    102  H4  UNL A   1      52.634  25.064  26.579  1.00  0.00    +0.000 H 
ATOM      6  C3  UNL A   1      52.360  25.974  26.177  1.00  0.00    +0.000 C 
ATOM      7  C4  UNL A   1      51.797  26.039  24.899  1.00  0.00    +0.000 C 
ATOM    103  H5  UNL A   1      51.688  25.172  24.350  1.00  0.00    +0.000 H 
ATOM    138  H40 UNL A   1      52.323  29.250  26.906  1.00  0.00    +0.000 H 
ATOM      8  C5  UNL A   1      51.377  27.265  24.348  1.00  0.00    +0.000 C 
ATOM    137  H39 UNL A   1      51.323  29.349  24.698  1.00  0.00    +0.000 H 
BRANCH    5    2
ATOM      2  S1  UNL A   1      53.208  27.056  28.550  1.00  0.00    +0.000 S 
ATOM      3  O1  UNL A   1      53.562  28.409  28.941  1.00  0.00    +0.000 O 
ATOM      4  O2  UNL A   1      54.197  25.998  28.566  1.00  0.00    +0.000 O 
BRANCH    2    1
ATOM      1  C1  UNL A   1      51.824  26.528  29.525  1.00  0.00    +0.000 C 
ATOM     99  H1  UNL A   1      51.270  27.383  29.851  1.00  0.00    +0.000 H 
ATOM    100  H2  UNL A   1      52.174  25.983  30.376  1.00  0.00    +0.000 H 
ATOM    101  H3  UNL A   1      51.191  25.898  28.935  1.00  0.00    +0.000 H 
ENDBRANCH    2    1
ENDBRANCH    5    2
ENDBRANCH    9    8
ENDBRANCH   16   15
ENDBRANCH   20   19
ENDBRANCH   22   20
ENDBRANCH   23   22
ENDBRANCH   24   23
ENDBRANCH   25   24
ENDBRANCH   26   25
ENDBRANCH   27   26
ENDBRANCH   28   27
ENDBRANCH   29   28
ENDBRANCH   30   29
ENDBRANCH   32   30
ENDBRANCH   36   35
BRANCH   40   41
ATOM     41  C31 UNL A   1      42.187  26.910  27.683  1.00  0.00    +0.000 C 
ATOM     42  C32 UNL A   1      43.101  27.462  26.772  1.00  0.00    +0.000 C 
ATOM     43  F1  UNL A   1      43.499  28.736  26.904  1.00  0.00    +0.000 F 
ATOM     44  C33 UNL A   1      43.589  26.716  25.703  1.00  0.00    +0.000 C 
ATOM     45  F2  UNL A   1      44.431  27.278  24.825  1.00  0.00    +0.000 F 
ATOM     46  C34 UNL A   1      43.203  25.394  25.544  1.00  0.00    +0.000 C 
ATOM     47  F3  UNL A   1      43.687  24.670  24.525  1.00  0.00    +0.000 F 
ATOM     48  C35 UNL A   1      42.311  24.822  26.439  1.00  0.00    +0.000 C 
ATOM     49  F4  UNL A   1      41.948  23.541  26.295  1.00  0.00    +0.000 F 
ATOM     50  C36 UNL A   1      41.796  25.577  27.491  1.00  0.00    +0.000 C 
ATOM     51  F5  UNL A   1      40.928  24.997  28.334  1.00  0.00    +0.000 F 
ENDBRANCH   40   41
BRANCH   57   58
ATOM     65  C46 UNL A   1      35.723  33.423  28.328  1.00  0.00    +0.000 C 
ATOM     66  F9  UNL A   1      35.733  34.737  28.062  1.00  0.00    +0.000 F 
ATOM     67  C47 UNL A   1      36.821  32.831  28.945  1.00  0.00    +0.000 C 
ATOM     68  F10 UNL A   1      37.879  33.597  29.249  1.00  0.00    +0.000 F 
ATOM     58  C42 UNL A   1      36.824  31.463  29.258  1.00  0.00    +0.000 C 
ATOM     59  C43 UNL A   1      35.687  30.712  28.925  1.00  0.00    +0.000 C 
ATOM     60  F6  UNL A   1      35.645  29.396  29.189  1.00  0.00    +0.000 F 
ATOM     61  C44 UNL A   1      34.606  31.299  28.274  1.00  0.00    +0.000 C 
ATOM     62  F7  UNL A   1      33.555  30.549  27.913  1.00  0.00    +0.000 F 
ATOM     63  C45 UNL A   1      34.622  32.655  27.983  1.00  0.00    +0.000 C 
ATOM     64  F8  UNL A   1      33.577  33.221  27.362  1.00  0.00    +0.000 F 
ENDBRANCH   57   58
BRANCH   72   73
ATOM     73  C51 UNL A   1      39.216  31.964  35.782  1.00  0.00    +0.000 C 
ATOM     74  C52 UNL A   1      38.305  31.446  36.714  1.00  0.00    +0.000 C 
ATOM     75  F11 UNL A   1      37.818  30.207  36.556  1.00  0.00    +0.000 F 
ATOM     76  C53 UNL A   1      37.844  32.220  37.776  1.00  0.00    +0.000 C 
ATOM     77  F12 UNL A   1      36.919  31.725  38.609  1.00  0.00    +0.000 F 
ATOM     78  C54 UNL A   1      38.317  33.511  37.955  1.00  0.00    +0.000 C 
ATOM     79  F13 UNL A   1      37.866  34.257  38.973  1.00  0.00    +0.000 F 
ATOM     80  C55 UNL A   1      39.246  34.032  37.067  1.00  0.00    +0.000 C 
ATOM     81  F14 UNL A   1      39.719  35.273  37.245  1.00  0.00    +0.000 F 
ATOM     82  C56 UNL A   1      39.680  33.272  35.984  1.00  0.00    +0.000 C 
ATOM     83  F15 UNL A   1      40.558  33.815  35.127  1.00  0.00    +0.000 F 
ENDBRANCH   72   73
TORSDOF 19
ENDMDL
