MODEL 1
REMARK VINA RESULT:     -10.7      0.000      0.000
ROOT
ATOM     19  C15 UNL A   1      40.067  28.911  29.197  1.00  0.00    +0.000 C 
ATOM     20  C16 UNL A   1      40.944  29.840  29.989  1.00  0.00    +0.000 C 
ATOM     21  N3  UNL A   1      42.201  29.700  30.327  1.00  0.00    +0.000 N 
ATOM     22  C17 UNL A   1      42.536  30.853  31.026  1.00  0.00    +0.000 C 
ATOM     23  C18 UNL A   1      43.704  31.163  31.638  1.00  0.00    +0.000 C 
ATOM     35  C25 UNL A   1      44.861  30.305  31.663  1.00  0.00    +0.000 C 
ATOM     36  C26 UNL A   1      46.074  30.510  32.298  1.00  0.00    +0.000 C 
ATOM     37  C27 UNL A   1      46.907  29.423  32.014  1.00  0.00    +0.000 C 
ATOM     38  C28 UNL A   1      46.199  28.521  31.237  1.00  0.00    +0.000 C 
ATOM     39  N4  UNL A   1      44.948  29.077  31.025  1.00  0.00    +0.000 N 
ATOM     40  C29 UNL A   1      46.630  27.246  30.726  1.00  0.00    +0.000 C 
ATOM     52  C36 UNL A   1      45.867  26.413  29.976  1.00  0.00    +0.000 C 
ATOM     53  N5  UNL A   1      44.559  26.579  29.543  1.00  0.00    +0.000 N 
ATOM     54  C37 UNL A   1      44.278  25.515  28.832  1.00  0.00    +0.000 C 
ATOM     55  C38 UNL A   1      42.994  25.146  28.141  1.00  0.00    +0.000 C 
ATOM     67  C45 UNL A   1      41.935  25.973  28.235  1.00  0.00    +0.000 C 
ATOM     68  C46 UNL A   1      40.625  25.741  27.635  1.00  0.00    +0.000 C 
ATOM     69  C47 UNL A   1      39.828  26.786  27.907  1.00  0.00    +0.000 C 
ATOM     70  C48 UNL A   1      40.562  27.748  28.730  1.00  0.00    +0.000 C 
ATOM     71  N6  UNL A   1      41.805  27.182  28.873  1.00  0.00    +0.000 N 
ATOM     72  C49 UNL A   1      45.390  24.561  28.714  1.00  0.00    +0.000 C 
ATOM     73  C50 UNL A   1      46.318  25.135  29.466  1.00  0.00    +0.000 C 
ATOM     74  C51 UNL A   1      41.365  31.705  31.020  1.00  0.00    +0.000 C 
ATOM     75  C52 UNL A   1      40.336  31.100  30.442  1.00  0.00    +0.000 C 
ATOM    114  H21 UNL A   1      46.320  31.325  32.882  1.00  0.00    +0.000 H 
ATOM    115  H22 UNL A   1      47.884  29.313  32.329  1.00  0.00    +0.000 H 
ATOM    116  H23 UNL A   1      44.226  28.662  30.498  1.00  0.00    +0.000 H 
ATOM    117  H24 UNL A   1      40.355  24.908  27.089  1.00  0.00    +0.000 H 
ATOM    118  H25 UNL A   1      38.852  26.894  27.589  1.00  0.00    +0.000 H 
ATOM    119  H26 UNL A   1      42.532  27.602  29.385  1.00  0.00    +0.000 H 
ATOM    120  H27 UNL A   1      45.437  23.676  28.185  1.00  0.00    +0.000 H 
ATOM    121  H28 UNL A   1      47.243  24.724  29.662  1.00  0.00    +0.000 H 
ATOM    122  H29 UNL A   1      41.336  32.659  31.414  1.00  0.00    +0.000 H 
ATOM    123  H30 UNL A   1      39.364  31.428  30.338  1.00  0.00    +0.000 H 
ENDROOT
BRANCH   19   18
ATOM     76  C53 UNL A   1      38.343  29.770  27.600  1.00  0.00    +0.000 C 
ATOM     77  C54 UNL A   1      37.027  30.106  27.285  1.00  0.00    +0.000 C 
ATOM     15  C11 UNL A   1      36.006  29.874  28.212  1.00  0.00    +0.000 C 
ATOM    112  H19 UNL A   1      35.572  29.298  30.198  1.00  0.00    +0.000 H 
ATOM     16  C12 UNL A   1      36.319  29.426  29.498  1.00  0.00    +0.000 C 
ATOM     17  C13 UNL A   1      37.647  29.149  29.834  1.00  0.00    +0.000 C 
ATOM    113  H20 UNL A   1      37.881  28.843  30.791  1.00  0.00    +0.000 H 
ATOM     18  C14 UNL A   1      38.665  29.286  28.876  1.00  0.00    +0.000 C 
ATOM    124  H31 UNL A   1      39.084  29.878  26.889  1.00  0.00    +0.000 H 
ATOM    125  H32 UNL A   1      36.806  30.526  26.369  1.00  0.00    +0.000 H 
BRANCH   15   13
ATOM     13  C10 UNL A   1      34.586  30.116  27.871  1.00  0.00    +0.000 C 
ATOM     14  O2  UNL A   1      34.066  31.189  28.163  1.00  0.00    +0.000 O 
BRANCH   13   12
ATOM     12  N2  UNL A   1      33.846  29.140  27.252  1.00  0.00    +0.000 N 
ATOM    111  H18 UNL A   1      33.735  28.306  27.765  1.00  0.00    +0.000 H 
BRANCH   12   11
ATOM     11  C9  UNL A   1      33.205  29.156  25.948  1.00  0.00    +0.000 C 
ATOM    109  H16 UNL A   1      32.144  29.119  26.087  1.00  0.00    +0.000 H 
ATOM    110  H17 UNL A   1      33.503  30.055  25.449  1.00  0.00    +0.000 H 
BRANCH   11   10
ATOM     10  C8  UNL A   1      33.627  27.978  25.075  1.00  0.00    +0.000 C 
ATOM    107  H14 UNL A   1      32.881  27.841  24.321  1.00  0.00    +0.000 H 
ATOM    108  H15 UNL A   1      34.590  28.229  24.682  1.00  0.00    +0.000 H 
BRANCH   10    9
ATOM      9  C7  UNL A   1      33.801  26.652  25.816  1.00  0.00    +0.000 C 
ATOM    106  H13 UNL A   1      32.815  26.318  26.063  1.00  0.00    +0.000 H 
ATOM    105  H12 UNL A   1      34.420  26.828  26.672  1.00  0.00    +0.000 H 
BRANCH    9    8
ATOM    104  H11 UNL A   1      35.406  25.879  24.716  1.00  0.00    +0.000 H 
ATOM    103  H10 UNL A   1      33.795  25.317  24.168  1.00  0.00    +0.000 H 
ATOM      8  C6  UNL A   1      34.437  25.525  24.998  1.00  0.00    +0.000 C 
BRANCH    8    7
ATOM    101  H8  UNL A   1      35.236  24.430  26.635  1.00  0.00    +0.000 H 
ATOM    102  H9  UNL A   1      33.702  23.806  25.958  1.00  0.00    +0.000 H 
ATOM      7  C5  UNL A   1      34.672  24.210  25.753  1.00  0.00    +0.000 C 
BRANCH    7    6
ATOM     99  H6  UNL A   1      36.161  23.606  24.347  1.00  0.00    +0.000 H 
ATOM    100  H7  UNL A   1      35.886  22.467  25.663  1.00  0.00    +0.000 H 
ATOM      6  C4  UNL A   1      35.426  23.134  24.964  1.00  0.00    +0.000 C 
BRANCH    6    5
ATOM     98  H5  UNL A   1      34.734  22.341  23.161  1.00  0.00    +0.000 H 
ATOM      5  N1  UNL A   1      34.529  22.365  24.124  1.00  0.00    +0.000 N 
BRANCH    5    3
ATOM      3  C3  UNL A   1      33.425  21.670  24.539  1.00  0.00    +0.000 C 
ATOM      4  O1  UNL A   1      33.610  20.832  25.422  1.00  0.00    +0.000 O 
BRANCH    3    2
ATOM     97  H4  UNL A   1      31.322  21.471  24.510  1.00  0.00    +0.000 H 
ATOM      2  C2  UNL A   1      32.048  21.999  23.928  1.00  0.00    +0.000 C 
BRANCH    2    1
ATOM      1  C1  UNL A   1      32.087  21.546  22.462  1.00  0.00    +0.000 C 
ATOM     94  H1  UNL A   1      31.091  21.522  22.070  1.00  0.00    +0.000 H 
ATOM     95  H2  UNL A   1      32.517  20.568  22.402  1.00  0.00    +0.000 H 
ATOM     96  H3  UNL A   1      32.678  22.231  21.892  1.00  0.00    +0.000 H 
ENDBRANCH    2    1
BRANCH    2   78
ATOM    137  H44 UNL A   1      29.991  25.598  26.155  1.00  0.00    +0.000 H 
ATOM     78  C55 UNL A   1      31.558  23.453  24.045  1.00  0.00    +0.000 C 
ATOM     79  C56 UNL A   1      31.643  24.347  22.964  1.00  0.00    +0.000 C 
ATOM     80  C57 UNL A   1      31.113  25.640  23.020  1.00  0.00    +0.000 C 
ATOM     81  C58 UNL A   1      30.501  26.116  24.178  1.00  0.00    +0.000 C 
ATOM     89  C65 UNL A   1      30.433  25.265  25.283  1.00  0.00    +0.000 C 
ATOM     90  C66 UNL A   1      30.959  23.957  25.228  1.00  0.00    +0.000 C 
ATOM    126  H33 UNL A   1      32.113  24.039  22.098  1.00  0.00    +0.000 H 
ATOM    127  H34 UNL A   1      31.176  26.252  22.191  1.00  0.00    +0.000 H 
BRANCH   81   82
ATOM    129  H36 UNL A   1      29.067  27.428  24.876  1.00  0.00    +0.000 H 
ATOM     82  C59 UNL A   1      29.915  27.505  24.227  1.00  0.00    +0.000 C 
ATOM    128  H35 UNL A   1      30.682  28.169  24.568  1.00  0.00    +0.000 H 
BRANCH   82   83
ATOM    130  H37 UNL A   1      29.488  27.221  22.274  1.00  0.00    +0.000 H 
ATOM    131  H38 UNL A   1      27.376  28.066  23.735  1.00  0.00    +0.000 H 
ATOM    132  H39 UNL A   1      27.402  28.293  22.027  1.00  0.00    +0.000 H 
ATOM    133  H40 UNL A   1      28.027  30.274  24.199  1.00  0.00    +0.000 H 
ATOM    134  H41 UNL A   1      27.067  30.530  22.795  1.00  0.00    +0.000 H 
ATOM    135  H42 UNL A   1      29.646  31.358  22.919  1.00  0.00    +0.000 H 
ATOM    136  H43 UNL A   1      28.995  30.872  21.425  1.00  0.00    +0.000 H 
ATOM     83  C60 UNL A   1      29.364  28.071  22.913  1.00  0.00    +0.000 C 
ATOM     84  C61 UNL A   1      27.907  28.541  22.937  1.00  0.00    +0.000 C 
ATOM     85  C62 UNL A   1      27.953  30.049  23.155  1.00  0.00    +0.000 C 
ATOM     86  C63 UNL A   1      29.195  30.527  22.418  1.00  0.00    +0.000 C 
ATOM     87  C64 UNL A   1      30.091  29.316  22.460  1.00  0.00    +0.000 C 
ATOM     88  O3  UNL A   1      31.274  29.338  22.143  1.00  0.00    +0.000 O 
ENDBRANCH   82   83
ENDBRANCH   81   82
BRANCH   90   91
ATOM     91  N7  UNL A   1      30.838  23.172  26.439  1.00  0.00    +0.000 N 
ATOM     92  O4  UNL A   1      31.730  23.166  27.263  1.00  0.00    +0.000 O 
ATOM     93  O5  UNL A   1      29.757  22.357  26.669  1.00  0.00    +0.000 O 
ENDBRANCH   90   91
ENDBRANCH    2   78
ENDBRANCH    3    2
ENDBRANCH    5    3
ENDBRANCH    6    5
ENDBRANCH    7    6
ENDBRANCH    8    7
ENDBRANCH    9    8
ENDBRANCH   10    9
ENDBRANCH   11   10
ENDBRANCH   12   11
ENDBRANCH   13   12
ENDBRANCH   15   13
ENDBRANCH   19   18
BRANCH   23   24
ATOM     33  C24 UNL A   1      44.279  33.619  31.686  1.00  0.00    +0.000 C 
ATOM     34  F5  UNL A   1      44.628  33.551  30.393  1.00  0.00    +0.000 F 
ATOM     24  C19 UNL A   1      43.791  32.482  32.347  1.00  0.00    +0.000 C 
ATOM     25  C20 UNL A   1      43.445  32.607  33.702  1.00  0.00    +0.000 C 
ATOM     26  F1  UNL A   1      42.963  31.552  34.375  1.00  0.00    +0.000 F 
ATOM     27  C21 UNL A   1      43.567  33.827  34.362  1.00  0.00    +0.000 C 
ATOM     28  F2  UNL A   1      43.196  33.930  35.646  1.00  0.00    +0.000 F 
ATOM     29  C22 UNL A   1      44.065  34.934  33.692  1.00  0.00    +0.000 C 
ATOM     30  F3  UNL A   1      44.193  36.104  34.334  1.00  0.00    +0.000 F 
ATOM     31  C23 UNL A   1      44.425  34.830  32.358  1.00  0.00    +0.000 C 
ATOM     32  F4  UNL A   1      44.917  35.897  31.713  1.00  0.00    +0.000 F 
ENDBRANCH   23   24
BRANCH   40   41
ATOM     41  C30 UNL A   1      48.019  26.787  31.059  1.00  0.00    +0.000 C 
ATOM     42  C31 UNL A   1      49.123  27.166  30.282  1.00  0.00    +0.000 C 
ATOM     43  F6  UNL A   1      48.950  27.925  29.189  1.00  0.00    +0.000 F 
ATOM     44  C32 UNL A   1      50.405  26.726  30.599  1.00  0.00    +0.000 C 
ATOM     45  F7  UNL A   1      51.438  27.058  29.812  1.00  0.00    +0.000 F 
ATOM     46  C33 UNL A   1      50.612  25.931  31.716  1.00  0.00    +0.000 C 
ATOM     47  F8  UNL A   1      51.848  25.510  32.021  1.00  0.00    +0.000 F 
ATOM     48  C34 UNL A   1      49.537  25.564  32.512  1.00  0.00    +0.000 C 
ATOM     49  F9  UNL A   1      49.738  24.804  33.598  1.00  0.00    +0.000 F 
ATOM     50  C35 UNL A   1      48.251  25.978  32.181  1.00  0.00    +0.000 C 
ATOM     51  F10 UNL A   1      47.228  25.593  32.961  1.00  0.00    +0.000 F 
ENDBRANCH   40   41
BRANCH   55   56
ATOM     65  C44 UNL A   1      43.240  23.802  26.025  1.00  0.00    +0.000 C 
ATOM     66  F15 UNL A   1      43.668  24.899  25.384  1.00  0.00    +0.000 F 
ATOM     56  C39 UNL A   1      42.882  23.875  27.379  1.00  0.00    +0.000 C 
ATOM     57  C40 UNL A   1      42.436  22.701  28.000  1.00  0.00    +0.000 C 
ATOM     58  F11 UNL A   1      42.103  22.715  29.299  1.00  0.00    +0.000 F 
ATOM     59  C41 UNL A   1      42.376  21.496  27.303  1.00  0.00    +0.000 C 
ATOM     60  F12 UNL A   1      41.996  20.377  27.934  1.00  0.00    +0.000 F 
ATOM     61  C42 UNL A   1      42.731  21.449  25.963  1.00  0.00    +0.000 C 
ATOM     62  F13 UNL A   1      42.675  20.290  25.292  1.00  0.00    +0.000 F 
ATOM     63  C43 UNL A   1      43.152  22.603  25.321  1.00  0.00    +0.000 C 
ATOM     64  F14 UNL A   1      43.484  22.566  24.023  1.00  0.00    +0.000 F 
ENDBRANCH   55   56
TORSDOF 20
ENDMDL
MODEL 2
REMARK VINA RESULT:     -10.6      2.744      7.490
ROOT
ATOM     19  C15 UNL A   1      38.115  29.842  29.687  1.00  0.00    +0.000 C 
ATOM     20  C16 UNL A   1      39.196  28.930  29.177  1.00  0.00    +0.000 C 
ATOM     21  N3  UNL A   1      40.306  28.557  29.761  1.00  0.00    +0.000 N 
ATOM     22  C17 UNL A   1      40.928  27.689  28.874  1.00  0.00    +0.000 C 
ATOM     23  C18 UNL A   1      42.134  27.083  28.988  1.00  0.00    +0.000 C 
ATOM     35  C25 UNL A   1      43.019  27.240  30.113  1.00  0.00    +0.000 C 
ATOM     36  C26 UNL A   1      44.283  26.705  30.299  1.00  0.00    +0.000 C 
ATOM     37  C27 UNL A   1      44.746  27.101  31.558  1.00  0.00    +0.000 C 
ATOM     38  C28 UNL A   1      43.789  27.916  32.140  1.00  0.00    +0.000 C 
ATOM     39  N4  UNL A   1      42.733  27.988  31.245  1.00  0.00    +0.000 N 
ATOM     40  C29 UNL A   1      43.833  28.581  33.416  1.00  0.00    +0.000 C 
ATOM     52  C36 UNL A   1      42.852  29.375  33.911  1.00  0.00    +0.000 C 
ATOM     53  N5  UNL A   1      41.635  29.719  33.339  1.00  0.00    +0.000 N 
ATOM     54  C37 UNL A   1      41.031  30.484  34.214  1.00  0.00    +0.000 C 
ATOM     55  C38 UNL A   1      39.694  31.168  34.116  1.00  0.00    +0.000 C 
ATOM     67  C45 UNL A   1      38.965  31.029  32.992  1.00  0.00    +0.000 C 
ATOM     68  C46 UNL A   1      37.664  31.643  32.746  1.00  0.00    +0.000 C 
ATOM     69  C47 UNL A   1      37.221  31.261  31.537  1.00  0.00    +0.000 C 
ATOM     70  C48 UNL A   1      38.224  30.399  30.909  1.00  0.00    +0.000 C 
ATOM     71  N6  UNL A   1      39.224  30.317  31.846  1.00  0.00    +0.000 N 
ATOM     72  C49 UNL A   1      41.790  30.693  35.455  1.00  0.00    +0.000 C 
ATOM     73  C50 UNL A   1      42.910  30.032  35.200  1.00  0.00    +0.000 C 
ATOM     74  C51 UNL A   1      40.049  27.550  27.732  1.00  0.00    +0.000 C 
ATOM     75  C52 UNL A   1      38.991  28.342  27.844  1.00  0.00    +0.000 C 
ATOM    114  H21 UNL A   1      44.796  26.117  29.623  1.00  0.00    +0.000 H 
ATOM    115  H22 UNL A   1      45.647  26.829  31.982  1.00  0.00    +0.000 H 
ATOM    116  H23 UNL A   1      41.902  28.495  31.391  1.00  0.00    +0.000 H 
ATOM    117  H24 UNL A   1      37.165  32.270  33.396  1.00  0.00    +0.000 H 
ATOM    118  H25 UNL A   1      36.318  31.532  31.118  1.00  0.00    +0.000 H 
ATOM    119  H26 UNL A   1      40.049  29.798  31.709  1.00  0.00    +0.000 H 
ATOM    120  H27 UNL A   1      41.522  31.217  36.303  1.00  0.00    +0.000 H 
ATOM    121  H28 UNL A   1      43.719  29.991  35.837  1.00  0.00    +0.000 H 
ATOM    122  H29 UNL A   1      40.222  26.917  26.935  1.00  0.00    +0.000 H 
ATOM    123  H30 UNL A   1      38.225  28.502  27.172  1.00  0.00    +0.000 H 
ENDROOT
BRANCH   19   18
ATOM     76  C53 UNL A   1      36.058  29.032  28.516  1.00  0.00    +0.000 C 
ATOM     77  C54 UNL A   1      34.902  29.266  27.772  1.00  0.00    +0.000 C 
ATOM     15  C11 UNL A   1      34.525  30.576  27.461  1.00  0.00    +0.000 C 
ATOM    112  H19 UNL A   1      35.114  32.604  27.514  1.00  0.00    +0.000 H 
ATOM     16  C12 UNL A   1      35.369  31.641  27.784  1.00  0.00    +0.000 C 
ATOM     17  C13 UNL A   1      36.560  31.400  28.475  1.00  0.00    +0.000 C 
ATOM    113  H20 UNL A   1      37.195  32.184  28.690  1.00  0.00    +0.000 H 
ATOM     18  C14 UNL A   1      36.897  30.097  28.876  1.00  0.00    +0.000 C 
ATOM    124  H31 UNL A   1      36.297  28.070  28.803  1.00  0.00    +0.000 H 
ATOM    125  H32 UNL A   1      34.326  28.473  27.450  1.00  0.00    +0.000 H 
BRANCH   15   13
ATOM     13  C10 UNL A   1      33.249  30.867  26.769  1.00  0.00    +0.000 C 
ATOM     14  O2  UNL A   1      32.502  31.734  27.212  1.00  0.00    +0.000 O 
BRANCH   13   12
ATOM     12  N2  UNL A   1      32.890  30.157  25.650  1.00  0.00    +0.000 N 
ATOM    111  H18 UNL A   1      32.717  30.699  24.846  1.00  0.00    +0.000 H 
BRANCH   12   11
ATOM     11  C9  UNL A   1      32.727  28.723  25.479  1.00  0.00    +0.000 C 
ATOM    109  H16 UNL A   1      33.167  28.226  26.319  1.00  0.00    +0.000 H 
ATOM    110  H17 UNL A   1      31.679  28.521  25.408  1.00  0.00    +0.000 H 
BRANCH   11   10
ATOM     10  C8  UNL A   1      33.388  28.209  24.204  1.00  0.00    +0.000 C 
ATOM    107  H14 UNL A   1      32.639  28.150  23.443  1.00  0.00    +0.000 H 
ATOM    108  H15 UNL A   1      34.174  28.899  23.977  1.00  0.00    +0.000 H 
BRANCH   10    9
ATOM      9  C7  UNL A   1      34.049  26.835  24.324  1.00  0.00    +0.000 C 
ATOM    106  H13 UNL A   1      35.099  26.999  24.197  1.00  0.00    +0.000 H 
ATOM    105  H12 UNL A   1      33.622  26.195  23.580  1.00  0.00    +0.000 H 
BRANCH    9    8
ATOM    104  H11 UNL A   1      32.838  26.127  25.879  1.00  0.00    +0.000 H 
ATOM    103  H10 UNL A   1      34.450  26.709  26.403  1.00  0.00    +0.000 H 
ATOM      8  C6  UNL A   1      33.890  26.150  25.684  1.00  0.00    +0.000 C 
BRANCH    8    7
ATOM    101  H8  UNL A   1      34.960  24.574  26.628  1.00  0.00    +0.000 H 
ATOM    102  H9  UNL A   1      33.474  24.091  25.755  1.00  0.00    +0.000 H 
ATOM      7  C5  UNL A   1      34.361  24.691  25.749  1.00  0.00    +0.000 C 
BRANCH    7    6
ATOM     99  H6  UNL A   1      35.377  25.057  23.907  1.00  0.00    +0.000 H 
ATOM    100  H7  UNL A   1      36.103  23.804  24.911  1.00  0.00    +0.000 H 
ATOM      6  C4  UNL A   1      35.187  24.221  24.546  1.00  0.00    +0.000 C 
BRANCH    6    5
ATOM     98  H5  UNL A   1      34.665  23.166  22.822  1.00  0.00    +0.000 H 
ATOM      5  N1  UNL A   1      34.490  23.198  23.790  1.00  0.00    +0.000 N 
BRANCH    5    3
ATOM      3  C3  UNL A   1      33.614  22.274  24.293  1.00  0.00    +0.000 C 
ATOM      4  O1  UNL A   1      34.095  21.416  25.034  1.00  0.00    +0.000 O 
BRANCH    3    2
ATOM     97  H4  UNL A   1      31.589  21.830  24.697  1.00  0.00    +0.000 H 
ATOM      2  C2  UNL A   1      32.115  22.384  23.948  1.00  0.00    +0.000 C 
BRANCH    2    1
ATOM      1  C1  UNL A   1      31.935  21.808  22.537  1.00  0.00    +0.000 C 
ATOM     94  H1  UNL A   1      31.665  20.774  22.606  1.00  0.00    +0.000 H 
ATOM     95  H2  UNL A   1      32.851  21.901  21.994  1.00  0.00    +0.000 H 
ATOM     96  H3  UNL A   1      31.162  22.345  22.028  1.00  0.00    +0.000 H 
ENDBRANCH    2    1
BRANCH    2   78
ATOM    137  H44 UNL A   1      29.693  25.745  26.181  1.00  0.00    +0.000 H 
ATOM     78  C55 UNL A   1      31.470  23.776  24.065  1.00  0.00    +0.000 C 
ATOM     79  C56 UNL A   1      31.448  24.670  22.980  1.00  0.00    +0.000 C 
ATOM     80  C57 UNL A   1      30.780  25.897  23.037  1.00  0.00    +0.000 C 
ATOM     81  C58 UNL A   1      30.128  26.307  24.199  1.00  0.00    +0.000 C 
ATOM     89  C65 UNL A   1      30.163  25.459  25.307  1.00  0.00    +0.000 C 
ATOM     90  C66 UNL A   1      30.829  24.216  25.251  1.00  0.00    +0.000 C 
ATOM    126  H33 UNL A   1      31.942  24.411  22.112  1.00  0.00    +0.000 H 
ATOM    127  H34 UNL A   1      30.768  26.509  22.206  1.00  0.00    +0.000 H 
BRANCH   81   82
ATOM    129  H36 UNL A   1      28.518  27.434  24.834  1.00  0.00    +0.000 H 
ATOM     82  C59 UNL A   1      29.393  27.624  24.248  1.00  0.00    +0.000 C 
ATOM    128  H35 UNL A   1      30.061  28.352  24.660  1.00  0.00    +0.000 H 
BRANCH   82   83
ATOM    130  H37 UNL A   1      28.996  27.315  22.293  1.00  0.00    +0.000 H 
ATOM    131  H38 UNL A   1      26.871  28.209  23.704  1.00  0.00    +0.000 H 
ATOM    132  H39 UNL A   1      26.928  28.409  21.993  1.00  0.00    +0.000 H 
ATOM    133  H40 UNL A   1      27.542  30.415  24.145  1.00  0.00    +0.000 H 
ATOM    134  H41 UNL A   1      26.609  30.662  22.722  1.00  0.00    +0.000 H 
ATOM    135  H42 UNL A   1      29.196  31.459  22.877  1.00  0.00    +0.000 H 
ATOM    136  H43 UNL A   1      28.563  30.958  21.380  1.00  0.00    +0.000 H 
ATOM     83  C60 UNL A   1      28.872  28.176  22.917  1.00  0.00    +0.000 C 
ATOM     84  C61 UNL A   1      27.421  28.664  22.908  1.00  0.00    +0.000 C 
ATOM     85  C62 UNL A   1      27.482  30.175  23.104  1.00  0.00    +0.000 C 
ATOM     86  C63 UNL A   1      28.743  30.626  22.381  1.00  0.00    +0.000 C 
ATOM     87  C64 UNL A   1      29.622  29.405  22.457  1.00  0.00    +0.000 C 
ATOM     88  O3  UNL A   1      30.811  29.407  22.160  1.00  0.00    +0.000 O 
ENDBRANCH   82   83
ENDBRANCH   81   82
BRANCH   90   91
ATOM     91  N7  UNL A   1      30.804  23.427  26.466  1.00  0.00    +0.000 N 
ATOM     92  O4  UNL A   1      31.766  23.404  27.206  1.00  0.00    +0.000 O 
ATOM     93  O5  UNL A   1      29.735  22.628  26.790  1.00  0.00    +0.000 O 
ENDBRANCH   90   91
ENDBRANCH    2   78
ENDBRANCH    3    2
ENDBRANCH    5    3
ENDBRANCH    6    5
ENDBRANCH    7    6
ENDBRANCH    8    7
ENDBRANCH    9    8
ENDBRANCH   10    9
ENDBRANCH   11   10
ENDBRANCH   12   11
ENDBRANCH   13   12
ENDBRANCH   15   13
ENDBRANCH   19   18
BRANCH   23   24
ATOM     33  C24 UNL A   1      43.408  26.702  26.843  1.00  0.00    +0.000 C 
ATOM     34  F5  UNL A   1      43.850  27.968  26.895  1.00  0.00    +0.000 F 
ATOM     24  C19 UNL A   1      42.581  26.201  27.860  1.00  0.00    +0.000 C 
ATOM     25  C20 UNL A   1      42.142  24.872  27.753  1.00  0.00    +0.000 C 
ATOM     26  F1  UNL A   1      41.359  24.342  28.705  1.00  0.00    +0.000 F 
ATOM     27  C21 UNL A   1      42.530  24.073  26.681  1.00  0.00    +0.000 C 
ATOM     28  F2  UNL A   1      42.127  22.796  26.620  1.00  0.00    +0.000 F 
ATOM     29  C22 UNL A   1      43.336  24.595  25.681  1.00  0.00    +0.000 C 
ATOM     30  F3  UNL A   1      43.699  23.827  24.643  1.00  0.00    +0.000 F 
ATOM     31  C23 UNL A   1      43.771  25.909  25.758  1.00  0.00    +0.000 C 
ATOM     32  F4  UNL A   1      44.541  26.417  24.786  1.00  0.00    +0.000 F 
ENDBRANCH   23   24
BRANCH   40   41
ATOM     41  C30 UNL A   1      45.060  28.403  34.260  1.00  0.00    +0.000 C 
ATOM     42  C31 UNL A   1      46.153  29.276  34.160  1.00  0.00    +0.000 C 
ATOM     43  F6  UNL A   1      46.137  30.277  33.266  1.00  0.00    +0.000 F 
ATOM     44  C32 UNL A   1      47.288  29.095  34.945  1.00  0.00    +0.000 C 
ATOM     45  F7  UNL A   1      48.341  29.910  34.795  1.00  0.00    +0.000 F 
ATOM     46  C33 UNL A   1      47.337  28.061  35.869  1.00  0.00    +0.000 C 
ATOM     47  F8  UNL A   1      48.430  27.889  36.627  1.00  0.00    +0.000 F 
ATOM     48  C34 UNL A   1      46.258  27.201  36.002  1.00  0.00    +0.000 C 
ATOM     49  F9  UNL A   1      46.299  26.209  36.903  1.00  0.00    +0.000 F 
ATOM     50  C35 UNL A   1      45.133  27.362  35.198  1.00  0.00    +0.000 C 
ATOM     51  F10 UNL A   1      44.111  26.504  35.337  1.00  0.00    +0.000 F 
ENDBRANCH   40   41
BRANCH   55   56
ATOM     65  C44 UNL A   1      38.402  31.456  36.258  1.00  0.00    +0.000 C 
ATOM     66  F15 UNL A   1      38.070  30.157  36.227  1.00  0.00    +0.000 F 
ATOM     56  C39 UNL A   1      39.188  32.005  35.234  1.00  0.00    +0.000 C 
ATOM     57  C40 UNL A   1      39.500  33.368  35.312  1.00  0.00    +0.000 C 
ATOM     58  F11 UNL A   1      40.267  33.934  34.368  1.00  0.00    +0.000 F 
ATOM     59  C41 UNL A   1      39.069  34.146  36.384  1.00  0.00    +0.000 C 
ATOM     60  F12 UNL A   1      39.426  35.436  36.461  1.00  0.00    +0.000 F 
ATOM     61  C42 UNL A   1      38.289  33.583  37.383  1.00  0.00    +0.000 C 
ATOM     62  F13 UNL A   1      37.876  34.330  38.415  1.00  0.00    +0.000 F 
ATOM     63  C43 UNL A   1      37.946  32.241  37.315  1.00  0.00    +0.000 C 
ATOM     64  F14 UNL A   1      37.182  31.695  38.271  1.00  0.00    +0.000 F 
ENDBRANCH   55   56
TORSDOF 20
ENDMDL
MODEL 3
REMARK VINA RESULT:     -10.4      0.992      2.282
ROOT
ATOM     19  C15 UNL A   1      39.749  29.075  28.981  1.00  0.00    +0.000 C 
ATOM     20  C16 UNL A   1      40.549  30.112  29.720  1.00  0.00    +0.000 C 
ATOM     21  N3  UNL A   1      41.813  30.093  30.058  1.00  0.00    +0.000 N 
ATOM     22  C17 UNL A   1      42.053  31.304  30.694  1.00  0.00    +0.000 C 
ATOM     23  C18 UNL A   1      43.192  31.739  31.283  1.00  0.00    +0.000 C 
ATOM     35  C25 UNL A   1      44.416  30.981  31.346  1.00  0.00    +0.000 C 
ATOM     36  C26 UNL A   1      45.609  31.317  31.963  1.00  0.00    +0.000 C 
ATOM     37  C27 UNL A   1      46.528  30.289  31.731  1.00  0.00    +0.000 C 
ATOM     38  C28 UNL A   1      45.895  29.293  31.004  1.00  0.00    +0.000 C 
ATOM     39  N4  UNL A   1      44.602  29.734  30.771  1.00  0.00    +0.000 N 
ATOM     40  C29 UNL A   1      46.429  28.033  30.557  1.00  0.00    +0.000 C 
ATOM     52  C36 UNL A   1      45.735  27.103  29.855  1.00  0.00    +0.000 C 
ATOM     53  N5  UNL A   1      44.418  27.139  29.421  1.00  0.00    +0.000 N 
ATOM     54  C37 UNL A   1      44.225  26.021  28.767  1.00  0.00    +0.000 C 
ATOM     55  C38 UNL A   1      42.974  25.513  28.102  1.00  0.00    +0.000 C 
ATOM     67  C45 UNL A   1      41.851  26.254  28.160  1.00  0.00    +0.000 C 
ATOM     68  C46 UNL A   1      40.563  25.885  27.579  1.00  0.00    +0.000 C 
ATOM     69  C47 UNL A   1      39.683  26.875  27.803  1.00  0.00    +0.000 C 
ATOM     70  C48 UNL A   1      40.337  27.934  28.571  1.00  0.00    +0.000 C 
ATOM     71  N6  UNL A   1      41.622  27.480  28.736  1.00  0.00    +0.000 N 
ATOM     72  C49 UNL A   1      45.411  25.156  28.691  1.00  0.00    +0.000 C 
ATOM     73  C50 UNL A   1      46.289  25.842  29.408  1.00  0.00    +0.000 C 
ATOM     74  C51 UNL A   1      40.816  32.056  30.652  1.00  0.00    +0.000 C 
ATOM     75  C52 UNL A   1      39.840  31.340  30.111  1.00  0.00    +0.000 C 
ATOM    114  H21 UNL A   1      45.788  32.179  32.503  1.00  0.00    +0.000 H 
ATOM    115  H22 UNL A   1      47.511  30.276  32.045  1.00  0.00    +0.000 H 
ATOM    116  H23 UNL A   1      43.917  29.235  30.270  1.00  0.00    +0.000 H 
ATOM    117  H24 UNL A   1      40.362  25.006  27.078  1.00  0.00    +0.000 H 
ATOM    118  H25 UNL A   1      38.702  26.885  27.484  1.00  0.00    +0.000 H 
ATOM    119  H26 UNL A   1      42.314  27.983  29.222  1.00  0.00    +0.000 H 
ATOM    120  H27 UNL A   1      45.529  24.252  28.208  1.00  0.00    +0.000 H 
ATOM    121  H28 UNL A   1      47.246  25.519  29.620  1.00  0.00    +0.000 H 
ATOM    122  H29 UNL A   1      40.709  33.023  30.996  1.00  0.00    +0.000 H 
ATOM    123  H30 UNL A   1      38.844  31.582  29.995  1.00  0.00    +0.000 H 
ENDROOT
BRANCH   19   18
ATOM     76  C53 UNL A   1      37.338  29.189  29.641  1.00  0.00    +0.000 C 
ATOM     77  C54 UNL A   1      35.999  29.434  29.342  1.00  0.00    +0.000 C 
ATOM     15  C11 UNL A   1      35.641  29.901  28.073  1.00  0.00    +0.000 C 
ATOM    112  H19 UNL A   1      36.334  30.300  26.118  1.00  0.00    +0.000 H 
ATOM     16  C12 UNL A   1      36.605  30.000  27.068  1.00  0.00    +0.000 C 
ATOM     17  C13 UNL A   1      37.939  29.692  27.350  1.00  0.00    +0.000 C 
ATOM    113  H20 UNL A   1      38.646  29.741  26.601  1.00  0.00    +0.000 H 
ATOM     18  C14 UNL A   1      38.321  29.318  28.649  1.00  0.00    +0.000 C 
ATOM    124  H31 UNL A   1      37.608  28.911  30.598  1.00  0.00    +0.000 H 
ATOM    125  H32 UNL A   1      35.272  29.271  30.056  1.00  0.00    +0.000 H 
BRANCH   15   13
ATOM     13  C10 UNL A   1      34.244  30.276  27.757  1.00  0.00    +0.000 C 
ATOM     14  O2  UNL A   1      33.896  31.450  27.843  1.00  0.00    +0.000 O 
BRANCH   13   12
ATOM     12  N2  UNL A   1      33.335  29.316  27.387  1.00  0.00    +0.000 N 
ATOM    111  H18 UNL A   1      32.389  29.571  27.490  1.00  0.00    +0.000 H 
BRANCH   12   11
ATOM     11  C9  UNL A   1      33.565  27.978  26.870  1.00  0.00    +0.000 C 
ATOM    109  H16 UNL A   1      34.500  27.619  27.250  1.00  0.00    +0.000 H 
ATOM    110  H17 UNL A   1      32.750  27.361  27.187  1.00  0.00    +0.000 H 
BRANCH   11   10
ATOM     10  C8  UNL A   1      33.610  27.942  25.345  1.00  0.00    +0.000 C 
ATOM    107  H14 UNL A   1      32.619  28.109  24.981  1.00  0.00    +0.000 H 
ATOM    108  H15 UNL A   1      34.307  28.698  25.050  1.00  0.00    +0.000 H 
BRANCH   10    9
ATOM      9  C7  UNL A   1      34.122  26.633  24.742  1.00  0.00    +0.000 C 
ATOM    106  H13 UNL A   1      35.089  26.850  24.339  1.00  0.00    +0.000 H 
ATOM    105  H12 UNL A   1      33.415  26.308  24.006  1.00  0.00    +0.000 H 
BRANCH    9    8
ATOM    104  H11 UNL A   1      33.351  25.096  25.937  1.00  0.00    +0.000 H 
ATOM    103  H10 UNL A   1      34.815  25.887  26.602  1.00  0.00    +0.000 H 
ATOM      8  C6  UNL A   1      34.326  25.489  25.738  1.00  0.00    +0.000 C 
BRANCH    8    7
ATOM    101  H8  UNL A   1      34.613  23.830  24.440  1.00  0.00    +0.000 H 
ATOM    102  H9  UNL A   1      36.095  24.717  24.908  1.00  0.00    +0.000 H 
ATOM      7  C5  UNL A   1      35.159  24.307  25.227  1.00  0.00    +0.000 C 
BRANCH    7    6
ATOM     99  H6  UNL A   1      36.424  22.781  26.024  1.00  0.00    +0.000 H 
ATOM    100  H7  UNL A   1      35.561  23.729  27.234  1.00  0.00    +0.000 H 
ATOM      6  C4  UNL A   1      35.495  23.245  26.282  1.00  0.00    +0.000 C 
BRANCH    6    5
ATOM     98  H5  UNL A   1      33.950  22.179  27.196  1.00  0.00    +0.000 H 
ATOM      5  N1  UNL A   1      34.465  22.228  26.357  1.00  0.00    +0.000 N 
BRANCH    5    3
ATOM      3  C3  UNL A   1      34.137  21.330  25.377  1.00  0.00    +0.000 C 
ATOM      4  O1  UNL A   1      34.990  20.485  25.107  1.00  0.00    +0.000 O 
BRANCH    3    2
ATOM     97  H4  UNL A   1      32.029  21.266  25.505  1.00  0.00    +0.000 H 
ATOM      2  C2  UNL A   1      32.744  21.401  24.720  1.00  0.00    +0.000 C 
BRANCH    2    1
ATOM      1  C1  UNL A   1      32.689  20.290  23.662  1.00  0.00    +0.000 C 
ATOM     94  H1  UNL A   1      33.290  19.464  23.981  1.00  0.00    +0.000 H 
ATOM     95  H2  UNL A   1      33.062  20.664  22.732  1.00  0.00    +0.000 H 
ATOM     96  H3  UNL A   1      31.677  19.966  23.536  1.00  0.00    +0.000 H 
ENDBRANCH    2    1
BRANCH    2   78
ATOM    137  H44 UNL A   1      30.332  25.442  24.713  1.00  0.00    +0.000 H 
ATOM     78  C55 UNL A   1      32.317  22.754  24.125  1.00  0.00    +0.000 C 
ATOM     79  C56 UNL A   1      32.750  23.168  22.853  1.00  0.00    +0.000 C 
ATOM     80  C57 UNL A   1      32.293  24.347  22.255  1.00  0.00    +0.000 C 
ATOM     81  C58 UNL A   1      31.405  25.191  22.919  1.00  0.00    +0.000 C 
ATOM     89  C65 UNL A   1      30.985  24.828  24.200  1.00  0.00    +0.000 C 
ATOM     90  C66 UNL A   1      31.436  23.635  24.803  1.00  0.00    +0.000 C 
ATOM    126  H33 UNL A   1      33.428  22.580  22.342  1.00  0.00    +0.000 H 
ATOM    127  H34 UNL A   1      32.619  24.596  21.308  1.00  0.00    +0.000 H 
BRANCH   81   82
ATOM    129  H36 UNL A   1      31.729  26.818  21.688  1.00  0.00    +0.000 H 
ATOM     82  C59 UNL A   1      30.902  26.453  22.261  1.00  0.00    +0.000 C 
ATOM    128  H35 UNL A   1      30.036  26.196  21.687  1.00  0.00    +0.000 H 
BRANCH   82   83
ATOM    130  H37 UNL A   1      30.932  27.260  24.111  1.00  0.00    +0.000 H 
ATOM    131  H38 UNL A   1      31.937  28.887  22.201  1.00  0.00    +0.000 H 
ATOM    132  H39 UNL A   1      31.358  29.541  23.687  1.00  0.00    +0.000 H 
ATOM    133  H40 UNL A   1      29.981  29.425  21.018  1.00  0.00    +0.000 H 
ATOM    134  H41 UNL A   1      30.060  30.762  22.096  1.00  0.00    +0.000 H 
ATOM    135  H42 UNL A   1      27.872  29.165  21.976  1.00  0.00    +0.000 H 
ATOM    136  H43 UNL A   1      28.297  29.891  23.454  1.00  0.00    +0.000 H 
ATOM     83  C60 UNL A   1      30.517  27.610  23.189  1.00  0.00    +0.000 C 
ATOM     84  C61 UNL A   1      31.069  28.988  22.817  1.00  0.00    +0.000 C 
ATOM     85  C62 UNL A   1      29.957  29.698  22.053  1.00  0.00    +0.000 C 
ATOM     86  C63 UNL A   1      28.661  29.228  22.696  1.00  0.00    +0.000 C 
ATOM     87  C64 UNL A   1      29.027  27.864  23.221  1.00  0.00    +0.000 C 
ATOM     88  O3  UNL A   1      28.206  27.058  23.643  1.00  0.00    +0.000 O 
ENDBRANCH   82   83
ENDBRANCH   81   82
BRANCH   90   91
ATOM     91  N7  UNL A   1      30.937  23.370  26.136  1.00  0.00    +0.000 N 
ATOM     92  O4  UNL A   1      31.476  23.863  27.106  1.00  0.00    +0.000 O 
ATOM     93  O5  UNL A   1      29.895  22.504  26.362  1.00  0.00    +0.000 O 
ENDBRANCH   90   91
ENDBRANCH    2   78
ENDBRANCH    3    2
ENDBRANCH    5    3
ENDBRANCH    6    5
ENDBRANCH    7    6
ENDBRANCH    8    7
ENDBRANCH    9    8
ENDBRANCH   10    9
ENDBRANCH   11   10
ENDBRANCH   12   11
ENDBRANCH   13   12
ENDBRANCH   15   13
ENDBRANCH   19   18
BRANCH   23   24
ATOM     33  C24 UNL A   1      42.826  33.244  33.275  1.00  0.00    +0.000 C 
ATOM     34  F5  UNL A   1      42.556  32.166  34.026  1.00  0.00    +0.000 F 
ATOM     24  C19 UNL A   1      43.172  33.096  31.924  1.00  0.00    +0.000 C 
ATOM     25  C20 UNL A   1      43.439  34.258  31.183  1.00  0.00    +0.000 C 
ATOM     26  F1  UNL A   1      43.785  34.168  29.890  1.00  0.00    +0.000 F 
ATOM     27  C21 UNL A   1      43.379  35.515  31.776  1.00  0.00    +0.000 C 
ATOM     28  F2  UNL A   1      43.673  36.608  31.058  1.00  0.00    +0.000 F 
ATOM     29  C22 UNL A   1      43.021  35.639  33.110  1.00  0.00    +0.000 C 
ATOM     30  F3  UNL A   1      42.951  36.852  33.677  1.00  0.00    +0.000 F 
ATOM     31  C23 UNL A   1      42.739  34.506  33.858  1.00  0.00    +0.000 C 
ATOM     32  F4  UNL A   1      42.382  34.625  35.144  1.00  0.00    +0.000 F 
ENDBRANCH   23   24
BRANCH   40   41
ATOM     41  C30 UNL A   1      47.851  27.707  30.905  1.00  0.00    +0.000 C 
ATOM     42  C31 UNL A   1      48.176  26.974  32.055  1.00  0.00    +0.000 C 
ATOM     43  F6  UNL A   1      47.210  26.578  32.898  1.00  0.00    +0.000 F 
ATOM     44  C32 UNL A   1      49.501  26.685  32.368  1.00  0.00    +0.000 C 
ATOM     45  F7  UNL A   1      49.792  26.028  33.500  1.00  0.00    +0.000 F 
ATOM     46  C33 UNL A   1      50.521  27.092  31.521  1.00  0.00    +0.000 C 
ATOM     47  F8  UNL A   1      51.797  26.811  31.823  1.00  0.00    +0.000 F 
ATOM     48  C34 UNL A   1      50.221  27.798  30.366  1.00  0.00    +0.000 C 
ATOM     49  F9  UNL A   1      51.205  28.182  29.541  1.00  0.00    +0.000 F 
ATOM     50  C35 UNL A   1      48.899  28.113  30.065  1.00  0.00    +0.000 C 
ATOM     51  F10 UNL A   1      48.640  28.812  28.949  1.00  0.00    +0.000 F 
ENDBRANCH   40   41
BRANCH   55   56
ATOM     65  C44 UNL A   1      42.603  23.022  28.076  1.00  0.00    +0.000 C 
ATOM     66  F15 UNL A   1      42.279  23.061  29.377  1.00  0.00    +0.000 F 
ATOM     56  C39 UNL A   1      42.966  24.200  27.407  1.00  0.00    +0.000 C 
ATOM     57  C40 UNL A   1      43.302  24.102  26.050  1.00  0.00    +0.000 C 
ATOM     58  F11 UNL A   1      43.634  25.204  25.362  1.00  0.00    +0.000 F 
ATOM     59  C41 UNL A   1      43.249  22.881  25.381  1.00  0.00    +0.000 C 
ATOM     60  F12 UNL A   1      43.523  22.824  24.071  1.00  0.00    +0.000 F 
ATOM     61  C42 UNL A   1      42.891  21.728  26.065  1.00  0.00    +0.000 C 
ATOM     62  F13 UNL A   1      42.838  20.554  25.422  1.00  0.00    +0.000 F 
ATOM     63  C43 UNL A   1      42.579  21.796  27.414  1.00  0.00    +0.000 C 
ATOM     64  F14 UNL A   1      42.245  20.684  28.082  1.00  0.00    +0.000 F 
ENDBRANCH   55   56
TORSDOF 20
ENDMDL
MODEL 4
REMARK VINA RESULT:     -10.3      3.082      8.221
ROOT
ATOM     19  C15 UNL A   1      40.638  27.874  28.471  1.00  0.00    +0.000 C 
ATOM     20  C16 UNL A   1      42.081  28.092  28.835  1.00  0.00    +0.000 C 
ATOM     21  N3  UNL A   1      42.645  29.137  29.384  1.00  0.00    +0.000 N 
ATOM     22  C17 UNL A   1      43.987  28.809  29.531  1.00  0.00    +0.000 C 
ATOM     23  C18 UNL A   1      45.000  29.580  29.993  1.00  0.00    +0.000 C 
ATOM     35  C25 UNL A   1      44.848  30.941  30.439  1.00  0.00    +0.000 C 
ATOM     36  C26 UNL A   1      45.824  31.820  30.878  1.00  0.00    +0.000 C 
ATOM     37  C27 UNL A   1      45.203  33.020  31.240  1.00  0.00    +0.000 C 
ATOM     38  C28 UNL A   1      43.846  32.904  30.987  1.00  0.00    +0.000 C 
ATOM     39  N4  UNL A   1      43.642  31.622  30.501  1.00  0.00    +0.000 N 
ATOM     40  C29 UNL A   1      42.812  33.887  31.173  1.00  0.00    +0.000 C 
ATOM     52  C36 UNL A   1      41.500  33.696  30.890  1.00  0.00    +0.000 C 
ATOM     53  N5  UNL A   1      40.871  32.569  30.380  1.00  0.00    +0.000 N 
ATOM     54  C37 UNL A   1      39.598  32.870  30.307  1.00  0.00    +0.000 C 
ATOM     55  C38 UNL A   1      38.453  32.035  29.802  1.00  0.00    +0.000 C 
ATOM     67  C45 UNL A   1      38.698  30.798  29.330  1.00  0.00    +0.000 C 
ATOM     68  C46 UNL A   1      37.695  29.883  28.794  1.00  0.00    +0.000 C 
ATOM     69  C47 UNL A   1      38.293  28.732  28.448  1.00  0.00    +0.000 C 
ATOM     70  C48 UNL A   1      39.729  28.840  28.709  1.00  0.00    +0.000 C 
ATOM     71  N6  UNL A   1      39.877  30.101  29.232  1.00  0.00    +0.000 N 
ATOM     72  C49 UNL A   1      39.271  34.220  30.786  1.00  0.00    +0.000 C 
ATOM     73  C50 UNL A   1      40.470  34.696  31.088  1.00  0.00    +0.000 C 
ATOM     74  C51 UNL A   1      44.143  27.449  29.061  1.00  0.00    +0.000 C 
ATOM     75  C52 UNL A   1      43.006  26.980  28.566  1.00  0.00    +0.000 C 
ATOM    114  H21 UNL A   1      46.836  31.623  30.929  1.00  0.00    +0.000 H 
ATOM    115  H22 UNL A   1      45.676  33.850  31.631  1.00  0.00    +0.000 H 
ATOM    116  H23 UNL A   1      42.769  31.249  30.239  1.00  0.00    +0.000 H 
ATOM    117  H24 UNL A   1      36.688  30.088  28.696  1.00  0.00    +0.000 H 
ATOM    118  H25 UNL A   1      37.817  27.903  28.059  1.00  0.00    +0.000 H 
ATOM    119  H26 UNL A   1      40.746  30.470  29.510  1.00  0.00    +0.000 H 
ATOM    120  H27 UNL A   1      38.350  34.678  30.868  1.00  0.00    +0.000 H 
ATOM    121  H28 UNL A   1      40.649  35.655  31.421  1.00  0.00    +0.000 H 
ATOM    122  H29 UNL A   1      45.025  26.914  29.106  1.00  0.00    +0.000 H 
ATOM    123  H30 UNL A   1      42.820  26.073  28.112  1.00  0.00    +0.000 H 
ENDROOT
BRANCH   19   18
ATOM     76  C53 UNL A   1      40.529  26.241  26.579  1.00  0.00    +0.000 C 
ATOM     77  C54 UNL A   1      40.130  25.018  26.040  1.00  0.00    +0.000 C 
ATOM     15  C11 UNL A   1      39.470  24.084  26.843  1.00  0.00    +0.000 C 
ATOM    112  H19 UNL A   1      38.569  23.750  28.725  1.00  0.00    +0.000 H 
ATOM     16  C12 UNL A   1      39.097  24.422  28.146  1.00  0.00    +0.000 C 
ATOM     17  C13 UNL A   1      39.441  25.672  28.665  1.00  0.00    +0.000 C 
ATOM    113  H20 UNL A   1      39.143  25.931  29.619  1.00  0.00    +0.000 H 
ATOM     18  C14 UNL A   1      40.191  26.579  27.897  1.00  0.00    +0.000 C 
ATOM    124  H31 UNL A   1      41.077  26.900  26.004  1.00  0.00    +0.000 H 
ATOM    125  H32 UNL A   1      40.322  24.804  25.049  1.00  0.00    +0.000 H 
BRANCH   15   13
ATOM     13  C10 UNL A   1      39.130  22.735  26.335  1.00  0.00    +0.000 C 
ATOM     14  O2  UNL A   1      39.854  21.782  26.611  1.00  0.00    +0.000 O 
BRANCH   13   12
ATOM     12  N2  UNL A   1      38.025  22.551  25.542  1.00  0.00    +0.000 N 
ATOM    111  H18 UNL A   1      38.211  22.231  24.630  1.00  0.00    +0.000 H 
BRANCH   12   11
ATOM     11  C9  UNL A   1      36.621  22.761  25.853  1.00  0.00    +0.000 C 
ATOM    109  H16 UNL A   1      36.529  22.972  26.899  1.00  0.00    +0.000 H 
ATOM    110  H17 UNL A   1      36.275  23.579  25.256  1.00  0.00    +0.000 H 
BRANCH   11   10
ATOM     10  C8  UNL A   1      35.762  21.545  25.521  1.00  0.00    +0.000 C 
ATOM    107  H14 UNL A   1      36.414  20.749  25.230  1.00  0.00    +0.000 H 
ATOM    108  H15 UNL A   1      35.194  21.332  26.403  1.00  0.00    +0.000 H 
BRANCH   10    9
ATOM      9  C7  UNL A   1      34.743  21.757  24.400  1.00  0.00    +0.000 C 
ATOM    106  H13 UNL A   1      33.802  21.921  24.882  1.00  0.00    +0.000 H 
ATOM    105  H12 UNL A   1      34.757  20.891  23.772  1.00  0.00    +0.000 H 
BRANCH    9    8
ATOM    104  H11 UNL A   1      35.257  22.604  22.556  1.00  0.00    +0.000 H 
ATOM    103  H10 UNL A   1      35.750  23.575  23.979  1.00  0.00    +0.000 H 
ATOM      8  C6  UNL A   1      34.987  22.984  23.519  1.00  0.00    +0.000 C 
BRANCH    8    7
ATOM    101  H8  UNL A   1      33.572  23.918  22.237  1.00  0.00    +0.000 H 
ATOM    102  H9  UNL A   1      32.967  23.458  23.857  1.00  0.00    +0.000 H 
ATOM      7  C5  UNL A   1      33.767  23.886  23.288  1.00  0.00    +0.000 C 
BRANCH    7    6
ATOM     99  H6  UNL A   1      34.853  25.718  23.436  1.00  0.00    +0.000 H 
ATOM    100  H7  UNL A   1      33.101  25.902  23.409  1.00  0.00    +0.000 H 
ATOM      6  C4  UNL A   1      33.922  25.328  23.786  1.00  0.00    +0.000 C 
BRANCH    6    5
ATOM     98  H5  UNL A   1      34.643  25.866  25.670  1.00  0.00    +0.000 H 
ATOM      5  N1  UNL A   1      33.896  25.394  25.234  1.00  0.00    +0.000 N 
BRANCH    5    3
ATOM      3  C3  UNL A   1      32.935  24.866  26.054  1.00  0.00    +0.000 C 
ATOM      4  O1  UNL A   1      33.240  23.835  26.655  1.00  0.00    +0.000 O 
BRANCH    3    2
ATOM     97  H4  UNL A   1      31.653  26.178  27.101  1.00  0.00    +0.000 H 
ATOM      2  C2  UNL A   1      31.585  25.594  26.206  1.00  0.00    +0.000 C 
BRANCH    2    1
ATOM      1  C1  UNL A   1      30.497  24.513  26.277  1.00  0.00    +0.000 C 
ATOM     94  H1  UNL A   1      30.565  23.882  25.415  1.00  0.00    +0.000 H 
ATOM     95  H2  UNL A   1      29.534  24.978  26.303  1.00  0.00    +0.000 H 
ATOM     96  H3  UNL A   1      30.633  23.926  27.160  1.00  0.00    +0.000 H 
ENDBRANCH    2    1
BRANCH    2   78
ATOM    137  H44 UNL A   1      31.482  29.982  24.510  1.00  0.00    +0.000 H 
ATOM     78  C55 UNL A   1      31.240  26.660  25.152  1.00  0.00    +0.000 C 
ATOM     79  C56 UNL A   1      30.498  26.342  24.001  1.00  0.00    +0.000 C 
ATOM     80  C57 UNL A   1      30.090  27.315  23.083  1.00  0.00    +0.000 C 
ATOM     81  C58 UNL A   1      30.437  28.654  23.254  1.00  0.00    +0.000 C 
ATOM     89  C65 UNL A   1      31.207  28.997  24.367  1.00  0.00    +0.000 C 
ATOM     90  C66 UNL A   1      31.613  28.020  25.300  1.00  0.00    +0.000 C 
ATOM    126  H33 UNL A   1      30.244  25.357  23.828  1.00  0.00    +0.000 H 
ATOM    127  H34 UNL A   1      29.523  27.039  22.266  1.00  0.00    +0.000 H 
BRANCH   81   82
ATOM    129  H36 UNL A   1      30.728  30.466  22.306  1.00  0.00    +0.000 H 
ATOM     82  C59 UNL A   1      29.979  29.702  22.269  1.00  0.00    +0.000 C 
ATOM    128  H35 UNL A   1      29.869  29.226  21.317  1.00  0.00    +0.000 H 
BRANCH   82   83
ATOM    130  H37 UNL A   1      28.042  29.579  22.822  1.00  0.00    +0.000 H 
ATOM    131  H38 UNL A   1      29.516  31.215  24.390  1.00  0.00    +0.000 H 
ATOM    132  H39 UNL A   1      27.802  31.386  24.319  1.00  0.00    +0.000 H 
ATOM    133  H40 UNL A   1      29.914  32.991  22.907  1.00  0.00    +0.000 H 
ATOM    134  H41 UNL A   1      28.521  33.585  23.721  1.00  0.00    +0.000 H 
ATOM    135  H42 UNL A   1      28.582  33.324  21.023  1.00  0.00    +0.000 H 
ATOM    136  H43 UNL A   1      27.111  33.112  21.851  1.00  0.00    +0.000 H 
ATOM     83  C60 UNL A   1      28.662  30.418  22.584  1.00  0.00    +0.000 C 
ATOM     84  C61 UNL A   1      28.698  31.428  23.734  1.00  0.00    +0.000 C 
ATOM     85  C62 UNL A   1      28.878  32.798  23.090  1.00  0.00    +0.000 C 
ATOM     86  C63 UNL A   1      28.109  32.732  21.779  1.00  0.00    +0.000 C 
ATOM     87  C64 UNL A   1      28.166  31.266  21.435  1.00  0.00    +0.000 C 
ATOM     88  O3  UNL A   1      27.829  30.812  20.348  1.00  0.00    +0.000 O 
ENDBRANCH   82   83
ENDBRANCH   81   82
BRANCH   90   91
ATOM     91  N7  UNL A   1      32.414  28.495  26.409  1.00  0.00    +0.000 N 
ATOM     92  O4  UNL A   1      31.885  28.873  27.435  1.00  0.00    +0.000 O 
ATOM     93  O5  UNL A   1      33.780  28.605  26.322  1.00  0.00    +0.000 O 
ENDBRANCH   90   91
ENDBRANCH    2   78
ENDBRANCH    3    2
ENDBRANCH    5    3
ENDBRANCH    6    5
ENDBRANCH    7    6
ENDBRANCH    8    7
ENDBRANCH    9    8
ENDBRANCH   10    9
ENDBRANCH   11   10
ENDBRANCH   12   11
ENDBRANCH   13   12
ENDBRANCH   15   13
ENDBRANCH   19   18
BRANCH   23   24
ATOM     33  C24 UNL A   1      47.207  29.029  28.901  1.00  0.00    +0.000 C 
ATOM     34  F5  UNL A   1      46.802  29.662  27.790  1.00  0.00    +0.000 F 
ATOM     24  C19 UNL A   1      46.374  28.978  30.028  1.00  0.00    +0.000 C 
ATOM     25  C20 UNL A   1      46.844  28.297  31.163  1.00  0.00    +0.000 C 
ATOM     26  F1  UNL A   1      46.090  28.230  32.270  1.00  0.00    +0.000 F 
ATOM     27  C21 UNL A   1      48.105  27.708  31.172  1.00  0.00    +0.000 C 
ATOM     28  F2  UNL A   1      48.547  27.094  32.279  1.00  0.00    +0.000 F 
ATOM     29  C22 UNL A   1      48.906  27.758  30.042  1.00  0.00    +0.000 C 
ATOM     30  F3  UNL A   1      50.115  27.178  30.048  1.00  0.00    +0.000 F 
ATOM     31  C23 UNL A   1      48.456  28.413  28.905  1.00  0.00    +0.000 C 
ATOM     32  F4  UNL A   1      49.225  28.453  27.808  1.00  0.00    +0.000 F 
ENDBRANCH   23   24
BRANCH   40   41
ATOM     41  C30 UNL A   1      43.208  35.234  31.703  1.00  0.00    +0.000 C 
ATOM     42  C31 UNL A   1      43.173  35.523  33.074  1.00  0.00    +0.000 C 
ATOM     43  F6  UNL A   1      42.743  34.599  33.948  1.00  0.00    +0.000 F 
ATOM     44  C32 UNL A   1      43.537  36.779  33.550  1.00  0.00    +0.000 C 
ATOM     45  F7  UNL A   1      43.447  37.050  34.860  1.00  0.00    +0.000 F 
ATOM     46  C33 UNL A   1      43.975  37.757  32.669  1.00  0.00    +0.000 C 
ATOM     47  F8  UNL A   1      44.327  38.967  33.129  1.00  0.00    +0.000 F 
ATOM     48  C34 UNL A   1      44.039  37.486  31.311  1.00  0.00    +0.000 C 
ATOM     49  F9  UNL A   1      44.473  38.426  30.459  1.00  0.00    +0.000 F 
ATOM     50  C35 UNL A   1      43.649  36.239  30.829  1.00  0.00    +0.000 C 
ATOM     51  F10 UNL A   1      43.706  36.011  29.508  1.00  0.00    +0.000 F 
ENDBRANCH   40   41
BRANCH   55   56
ATOM     65  C44 UNL A   1      36.208  32.371  30.892  1.00  0.00    +0.000 C 
ATOM     66  F15 UNL A   1      36.620  31.660  31.951  1.00  0.00    +0.000 F 
ATOM     56  C39 UNL A   1      37.067  32.572  29.802  1.00  0.00    +0.000 C 
ATOM     57  C40 UNL A   1      36.584  33.318  28.719  1.00  0.00    +0.000 C 
ATOM     58  F11 UNL A   1      37.376  33.555  27.663  1.00  0.00    +0.000 F 
ATOM     59  C41 UNL A   1      35.303  33.865  28.735  1.00  0.00    +0.000 C 
ATOM     60  F12 UNL A   1      34.885  34.619  27.709  1.00  0.00    +0.000 F 
ATOM     61  C42 UNL A   1      34.468  33.650  29.823  1.00  0.00    +0.000 C 
ATOM     62  F13 UNL A   1      33.237  34.177  29.839  1.00  0.00    +0.000 F 
ATOM     63  C43 UNL A   1      34.916  32.894  30.895  1.00  0.00    +0.000 C 
ATOM     64  F14 UNL A   1      34.109  32.672  31.942  1.00  0.00    +0.000 F 
ENDBRANCH   55   56
TORSDOF 20
ENDMDL
MODEL 5
REMARK VINA RESULT:     -10.0      1.438      4.092
ROOT
ATOM     19  C15 UNL A   1      40.183  28.964  29.358  1.00  0.00    +0.000 C 
ATOM     20  C16 UNL A   1      41.038  29.891  30.177  1.00  0.00    +0.000 C 
ATOM     21  N3  UNL A   1      42.290  29.759  30.536  1.00  0.00    +0.000 N 
ATOM     22  C17 UNL A   1      42.601  30.906  31.254  1.00  0.00    +0.000 C 
ATOM     23  C18 UNL A   1      43.755  31.219  31.890  1.00  0.00    +0.000 C 
ATOM     35  C25 UNL A   1      44.919  30.370  31.927  1.00  0.00    +0.000 C 
ATOM     36  C26 UNL A   1      46.119  30.579  32.586  1.00  0.00    +0.000 C 
ATOM     37  C27 UNL A   1      46.966  29.502  32.305  1.00  0.00    +0.000 C 
ATOM     38  C28 UNL A   1      46.280  28.603  31.504  1.00  0.00    +0.000 C 
ATOM     39  N4  UNL A   1      45.029  29.151  31.276  1.00  0.00    +0.000 N 
ATOM     40  C29 UNL A   1      46.732  27.338  30.987  1.00  0.00    +0.000 C 
ATOM     52  C36 UNL A   1      45.990  26.507  30.214  1.00  0.00    +0.000 C 
ATOM     53  N5  UNL A   1      44.689  26.667  29.759  1.00  0.00    +0.000 N 
ATOM     54  C37 UNL A   1      44.430  25.609  29.031  1.00  0.00    +0.000 C 
ATOM     55  C38 UNL A   1      43.162  25.237  28.312  1.00  0.00    +0.000 C 
ATOM     67  C45 UNL A   1      42.094  26.053  28.396  1.00  0.00    +0.000 C 
ATOM     68  C46 UNL A   1      40.797  25.817  27.770  1.00  0.00    +0.000 C 
ATOM     69  C47 UNL A   1      39.986  26.853  28.040  1.00  0.00    +0.000 C 
ATOM     70  C48 UNL A   1      40.697  27.811  28.887  1.00  0.00    +0.000 C 
ATOM     71  N6  UNL A   1      41.942  27.254  29.046  1.00  0.00    +0.000 N 
ATOM     72  C49 UNL A   1      45.552  24.666  28.922  1.00  0.00    +0.000 C 
ATOM     73  C50 UNL A   1      46.461  25.239  29.697  1.00  0.00    +0.000 C 
ATOM     74  C51 UNL A   1      41.423  31.748  31.236  1.00  0.00    +0.000 C 
ATOM     75  C52 UNL A   1      40.411  31.141  30.633  1.00  0.00    +0.000 C 
ATOM    114  H21 UNL A   1      46.347  31.389  33.183  1.00  0.00    +0.000 H 
ATOM    115  H22 UNL A   1      47.938  29.397  32.636  1.00  0.00    +0.000 H 
ATOM    116  H23 UNL A   1      44.320  28.736  30.732  1.00  0.00    +0.000 H 
ATOM    117  H24 UNL A   1      40.544  24.988  27.210  1.00  0.00    +0.000 H 
ATOM    118  H25 UNL A   1      39.015  26.955  27.705  1.00  0.00    +0.000 H 
ATOM    119  H26 UNL A   1      42.656  27.674  29.576  1.00  0.00    +0.000 H 
ATOM    120  H27 UNL A   1      45.616  23.788  28.383  1.00  0.00    +0.000 H 
ATOM    121  H28 UNL A   1      47.387  24.835  29.905  1.00  0.00    +0.000 H 
ATOM    122  H29 UNL A   1      41.378  32.696  31.641  1.00  0.00    +0.000 H 
ATOM    123  H30 UNL A   1      39.438  31.462  30.515  1.00  0.00    +0.000 H 
ENDROOT
BRANCH   19   18
ATOM     76  C53 UNL A   1      38.480  29.824  27.739  1.00  0.00    +0.000 C 
ATOM     77  C54 UNL A   1      37.167  30.153  27.405  1.00  0.00    +0.000 C 
ATOM     15  C11 UNL A   1      36.133  29.903  28.311  1.00  0.00    +0.000 C 
ATOM    112  H19 UNL A   1      35.668  29.305  30.284  1.00  0.00    +0.000 H 
ATOM     16  C12 UNL A   1      36.427  29.446  29.598  1.00  0.00    +0.000 C 
ATOM     17  C13 UNL A   1      37.751  29.177  29.955  1.00  0.00    +0.000 C 
ATOM    113  H20 UNL A   1      37.970  28.863  30.913  1.00  0.00    +0.000 H 
ATOM     18  C14 UNL A   1      38.784  29.331  29.016  1.00  0.00    +0.000 C 
ATOM    124  H31 UNL A   1      39.232  29.945  27.043  1.00  0.00    +0.000 H 
ATOM    125  H32 UNL A   1      36.959  30.580  26.489  1.00  0.00    +0.000 H 
BRANCH   15   13
ATOM     13  C10 UNL A   1      34.717  30.137  27.948  1.00  0.00    +0.000 C 
ATOM     14  O2  UNL A   1      34.211  31.237  28.151  1.00  0.00    +0.000 O 
BRANCH   13   12
ATOM     12  N2  UNL A   1      33.964  29.125  27.406  1.00  0.00    +0.000 N 
ATOM    111  H18 UNL A   1      34.468  28.319  27.145  1.00  0.00    +0.000 H 
BRANCH   12   11
ATOM     11  C9  UNL A   1      32.533  29.069  27.160  1.00  0.00    +0.000 C 
ATOM    109  H16 UNL A   1      32.077  28.470  27.922  1.00  0.00    +0.000 H 
ATOM    110  H17 UNL A   1      32.161  30.072  27.174  1.00  0.00    +0.000 H 
BRANCH   11   10
ATOM     10  C8  UNL A   1      32.199  28.468  25.798  1.00  0.00    +0.000 C 
ATOM    107  H14 UNL A   1      31.657  27.560  25.961  1.00  0.00    +0.000 H 
ATOM    108  H15 UNL A   1      31.636  29.212  25.274  1.00  0.00    +0.000 H 
BRANCH   10    9
ATOM      9  C7  UNL A   1      33.406  28.148  24.915  1.00  0.00    +0.000 C 
ATOM    106  H13 UNL A   1      34.262  28.195  25.555  1.00  0.00    +0.000 H 
ATOM    105  H12 UNL A   1      33.430  28.860  24.116  1.00  0.00    +0.000 H 
BRANCH    9    8
ATOM    104  H11 UNL A   1      32.965  26.104  25.030  1.00  0.00    +0.000 H 
ATOM    103  H10 UNL A   1      34.426  26.494  24.067  1.00  0.00    +0.000 H 
ATOM      8  C6  UNL A   1      33.413  26.747  24.301  1.00  0.00    +0.000 C 
BRANCH    8    7
ATOM    101  H8  UNL A   1      32.724  27.448  22.416  1.00  0.00    +0.000 H 
ATOM    102  H9  UNL A   1      32.918  25.675  22.562  1.00  0.00    +0.000 H 
ATOM      7  C5  UNL A   1      32.579  26.580  23.024  1.00  0.00    +0.000 C 
BRANCH    7    6
ATOM     99  H6  UNL A   1      30.755  27.085  24.012  1.00  0.00    +0.000 H 
ATOM    100  H7  UNL A   1      30.570  26.606  22.327  1.00  0.00    +0.000 H 
ATOM      6  C4  UNL A   1      31.072  26.406  23.250  1.00  0.00    +0.000 C 
BRANCH    6    5
ATOM     98  H5  UNL A   1      30.517  24.416  22.945  1.00  0.00    +0.000 H 
ATOM      5  N1  UNL A   1      30.750  25.053  23.659  1.00  0.00    +0.000 N 
BRANCH    5    3
ATOM      3  C3  UNL A   1      30.738  24.574  24.942  1.00  0.00    +0.000 C 
ATOM      4  O1  UNL A   1      30.493  25.396  25.827  1.00  0.00    +0.000 O 
BRANCH    3    2
ATOM     97  H4  UNL A   1      30.613  22.556  24.331  1.00  0.00    +0.000 H 
ATOM      2  C2  UNL A   1      30.981  23.073  25.193  1.00  0.00    +0.000 C 
BRANCH    2    1
ATOM      1  C1  UNL A   1      30.229  22.704  26.480  1.00  0.00    +0.000 C 
ATOM     94  H1  UNL A   1      30.921  22.314  27.197  1.00  0.00    +0.000 H 
ATOM     95  H2  UNL A   1      29.488  21.965  26.260  1.00  0.00    +0.000 H 
ATOM     96  H3  UNL A   1      29.755  23.577  26.878  1.00  0.00    +0.000 H 
ENDBRANCH    2    1
BRANCH    2   78
ATOM    137  H44 UNL A   1      34.931  21.316  23.335  1.00  0.00    +0.000 H 
ATOM     78  C55 UNL A   1      32.444  22.599  25.251  1.00  0.00    +0.000 C 
ATOM     79  C56 UNL A   1      33.150  22.541  26.466  1.00  0.00    +0.000 C 
ATOM     80  C57 UNL A   1      34.445  22.020  26.553  1.00  0.00    +0.000 C 
ATOM     81  C58 UNL A   1      35.113  21.563  25.418  1.00  0.00    +0.000 C 
ATOM     89  C65 UNL A   1      34.453  21.642  24.190  1.00  0.00    +0.000 C 
ATOM     90  C66 UNL A   1      33.144  22.158  24.099  1.00  0.00    +0.000 C 
ATOM    126  H33 UNL A   1      32.697  22.895  27.323  1.00  0.00    +0.000 H 
ATOM    127  H34 UNL A   1      34.914  21.973  27.471  1.00  0.00    +0.000 H 
BRANCH   81   82
ATOM    129  H36 UNL A   1      36.672  20.847  26.569  1.00  0.00    +0.000 H 
ATOM     82  C59 UNL A   1      36.503  20.985  25.521  1.00  0.00    +0.000 C 
ATOM    128  H35 UNL A   1      36.524  20.086  24.941  1.00  0.00    +0.000 H 
BRANCH   82   83
ATOM    130  H37 UNL A   1      37.752  21.533  24.032  1.00  0.00    +0.000 H 
ATOM    131  H38 UNL A   1      36.373  23.595  25.107  1.00  0.00    +0.000 H 
ATOM    132  H39 UNL A   1      37.845  23.879  24.256  1.00  0.00    +0.000 H 
ATOM    133  H40 UNL A   1      37.383  23.735  27.222  1.00  0.00    +0.000 H 
ATOM    134  H41 UNL A   1      38.315  24.899  26.365  1.00  0.00    +0.000 H 
ATOM    135  H42 UNL A   1      39.481  22.804  27.631  1.00  0.00    +0.000 H 
ATOM    136  H43 UNL A   1      40.190  23.426  26.216  1.00  0.00    +0.000 H 
ATOM     83  C60 UNL A   1      37.658  21.872  25.043  1.00  0.00    +0.000 C 
ATOM     84  C61 UNL A   1      37.422  23.383  25.104  1.00  0.00    +0.000 C 
ATOM     85  C62 UNL A   1      38.061  23.860  26.403  1.00  0.00    +0.000 C 
ATOM     86  C63 UNL A   1      39.291  22.984  26.593  1.00  0.00    +0.000 C 
ATOM     87  C64 UNL A   1      38.905  21.713  25.882  1.00  0.00    +0.000 C 
ATOM     88  O3  UNL A   1      39.545  20.671  25.963  1.00  0.00    +0.000 O 
ENDBRANCH   82   83
ENDBRANCH   81   82
BRANCH   90   91
ATOM     91  N7  UNL A   1      32.567  22.197  22.771  1.00  0.00    +0.000 N 
ATOM     92  O4  UNL A   1      31.856  21.294  22.381  1.00  0.00    +0.000 O 
ATOM     93  O5  UNL A   1      32.854  23.207  21.885  1.00  0.00    +0.000 O 
ENDBRANCH   90   91
ENDBRANCH    2   78
ENDBRANCH    3    2
ENDBRANCH    5    3
ENDBRANCH    6    5
ENDBRANCH    7    6
ENDBRANCH    8    7
ENDBRANCH    9    8
ENDBRANCH   10    9
ENDBRANCH   11   10
ENDBRANCH   12   11
ENDBRANCH   13   12
ENDBRANCH   15   13
ENDBRANCH   19   18
BRANCH   23   24
ATOM     33  C24 UNL A   1      43.402  32.629  33.952  1.00  0.00    +0.000 C 
ATOM     34  F5  UNL A   1      42.989  31.538  34.614  1.00  0.00    +0.000 F 
ATOM     24  C19 UNL A   1      43.818  32.530  32.616  1.00  0.00    +0.000 C 
ATOM     25  C20 UNL A   1      44.235  33.704  31.969  1.00  0.00    +0.000 C 
ATOM     26  F1  UNL A   1      44.653  33.660  30.695  1.00  0.00    +0.000 F 
ATOM     27  C21 UNL A   1      44.253  34.924  32.640  1.00  0.00    +0.000 C 
ATOM     28  F2  UNL A   1      44.690  36.025  32.012  1.00  0.00    +0.000 F 
ATOM     29  C22 UNL A   1      43.824  35.000  33.956  1.00  0.00    +0.000 C 
ATOM     30  F3  UNL A   1      43.829  36.178  34.596  1.00  0.00    +0.000 F 
ATOM     31  C23 UNL A   1      43.395  33.856  34.611  1.00  0.00    +0.000 C 
ATOM     32  F4  UNL A   1      42.969  33.931  35.879  1.00  0.00    +0.000 F 
ENDBRANCH   23   24
BRANCH   40   41
ATOM     41  C30 UNL A   1      48.119  26.887  31.339  1.00  0.00    +0.000 C 
ATOM     42  C31 UNL A   1      49.235  27.296  30.595  1.00  0.00    +0.000 C 
ATOM     43  F6  UNL A   1      49.077  28.078  29.517  1.00  0.00    +0.000 F 
ATOM     44  C32 UNL A   1      50.515  26.864  30.930  1.00  0.00    +0.000 C 
ATOM     45  F7  UNL A   1      51.561  27.225  30.174  1.00  0.00    +0.000 F 
ATOM     46  C33 UNL A   1      50.707  26.046  32.034  1.00  0.00    +0.000 C 
ATOM     47  F8  UNL A   1      51.941  25.632  32.356  1.00  0.00    +0.000 F 
ATOM     48  C34 UNL A   1      49.620  25.648  32.797  1.00  0.00    +0.000 C 
ATOM     49  F9  UNL A   1      49.806  24.867  33.870  1.00  0.00    +0.000 F 
ATOM     50  C35 UNL A   1      48.336  26.056  32.448  1.00  0.00    +0.000 C 
ATOM     51  F10 UNL A   1      47.301  25.641  33.196  1.00  0.00    +0.000 F 
ENDBRANCH   40   41
BRANCH   55   56
ATOM     65  C44 UNL A   1      42.674  22.773  28.135  1.00  0.00    +0.000 C 
ATOM     66  F15 UNL A   1      42.384  22.741  29.444  1.00  0.00    +0.000 F 
ATOM     56  C39 UNL A   1      43.076  23.974  27.534  1.00  0.00    +0.000 C 
ATOM     57  C40 UNL A   1      43.373  23.951  26.165  1.00  0.00    +0.000 C 
ATOM     58  F11 UNL A   1      43.740  25.079  25.541  1.00  0.00    +0.000 F 
ATOM     59  C41 UNL A   1      43.247  22.780  25.420  1.00  0.00    +0.000 C 
ATOM     60  F12 UNL A   1      43.486  22.797  24.102  1.00  0.00    +0.000 F 
ATOM     61  C42 UNL A   1      42.851  21.602  26.038  1.00  0.00    +0.000 C 
ATOM     62  F13 UNL A   1      42.728  20.476  25.321  1.00  0.00    +0.000 F 
ATOM     63  C43 UNL A   1      42.576  21.595  27.396  1.00  0.00    +0.000 C 
ATOM     64  F14 UNL A   1      42.207  20.458  28.000  1.00  0.00    +0.000 F 
ENDBRANCH   55   56
TORSDOF 20
ENDMDL
MODEL 6
REMARK VINA RESULT:      -9.8      2.983      8.140
ROOT
ATOM     19  C15 UNL A   1      40.773  27.749  28.382  1.00  0.00    +0.000 C 
ATOM     20  C16 UNL A   1      42.243  27.903  28.660  1.00  0.00    +0.000 C 
ATOM     21  N3  UNL A   1      42.879  28.908  29.206  1.00  0.00    +0.000 N 
ATOM     22  C17 UNL A   1      44.214  28.528  29.258  1.00  0.00    +0.000 C 
ATOM     23  C18 UNL A   1      45.282  29.246  29.679  1.00  0.00    +0.000 C 
ATOM     35  C25 UNL A   1      45.209  30.596  30.177  1.00  0.00    +0.000 C 
ATOM     36  C26 UNL A   1      46.243  31.424  30.582  1.00  0.00    +0.000 C 
ATOM     37  C27 UNL A   1      45.691  32.632  31.021  1.00  0.00    +0.000 C 
ATOM     38  C28 UNL A   1      44.317  32.572  30.850  1.00  0.00    +0.000 C 
ATOM     39  N4  UNL A   1      44.035  31.316  30.337  1.00  0.00    +0.000 N 
ATOM     40  C29 UNL A   1      43.334  33.585  31.132  1.00  0.00    +0.000 C 
ATOM     52  C36 UNL A   1      42.001  33.451  30.926  1.00  0.00    +0.000 C 
ATOM     53  N5  UNL A   1      41.300  32.365  30.422  1.00  0.00    +0.000 N 
ATOM     54  C37 UNL A   1      40.037  32.713  30.439  1.00  0.00    +0.000 C 
ATOM     55  C38 UNL A   1      38.832  31.937  29.980  1.00  0.00    +0.000 C 
ATOM     67  C45 UNL A   1      39.001  30.709  29.454  1.00  0.00    +0.000 C 
ATOM     68  C46 UNL A   1      37.933  29.849  28.954  1.00  0.00    +0.000 C 
ATOM     69  C47 UNL A   1      38.465  28.689  28.535  1.00  0.00    +0.000 C 
ATOM     70  C48 UNL A   1      39.917  28.738  28.708  1.00  0.00    +0.000 C 
ATOM     71  N6  UNL A   1      40.145  29.974  29.260  1.00  0.00    +0.000 N 
ATOM     72  C49 UNL A   1      39.792  34.056  30.981  1.00  0.00    +0.000 C 
ATOM     73  C50 UNL A   1      41.024  34.479  31.221  1.00  0.00    +0.000 C 
ATOM     74  C51 UNL A   1      44.290  27.180  28.736  1.00  0.00    +0.000 C 
ATOM     75  C52 UNL A   1      43.107  26.769  28.299  1.00  0.00    +0.000 C 
ATOM    114  H21 UNL A   1      47.248  31.190  30.562  1.00  0.00    +0.000 H 
ATOM    115  H22 UNL A   1      46.218  33.431  31.407  1.00  0.00    +0.000 H 
ATOM    116  H23 UNL A   1      43.135  30.984  30.119  1.00  0.00    +0.000 H 
ATOM    117  H24 UNL A   1      36.931  30.093  28.927  1.00  0.00    +0.000 H 
ATOM    118  H25 UNL A   1      37.935  27.892  28.150  1.00  0.00    +0.000 H 
ATOM    119  H26 UNL A   1      41.042  30.302  29.495  1.00  0.00    +0.000 H 
ATOM    120  H27 UNL A   1      38.895  34.543  31.134  1.00  0.00    +0.000 H 
ATOM    121  H28 UNL A   1      41.259  35.419  31.573  1.00  0.00    +0.000 H 
ATOM    122  H29 UNL A   1      45.152  26.613  28.708  1.00  0.00    +0.000 H 
ATOM    123  H30 UNL A   1      42.859  25.885  27.829  1.00  0.00    +0.000 H 
ENDROOT
BRANCH   19   18
ATOM     76  C53 UNL A   1      40.548  26.150  26.471  1.00  0.00    +0.000 C 
ATOM     77  C54 UNL A   1      40.070  24.962  25.920  1.00  0.00    +0.000 C 
ATOM     15  C11 UNL A   1      39.362  24.058  26.718  1.00  0.00    +0.000 C 
ATOM    112  H19 UNL A   1      38.460  23.754  28.604  1.00  0.00    +0.000 H 
ATOM     16  C12 UNL A   1      39.023  24.401  28.029  1.00  0.00    +0.000 C 
ATOM     17  C13 UNL A   1      39.447  25.621  28.561  1.00  0.00    +0.000 C 
ATOM    113  H20 UNL A   1      39.174  25.885  29.520  1.00  0.00    +0.000 H 
ATOM     18  C14 UNL A   1      40.243  26.491  27.797  1.00  0.00    +0.000 C 
ATOM    124  H31 UNL A   1      41.129  26.783  25.899  1.00  0.00    +0.000 H 
ATOM    125  H32 UNL A   1      40.239  24.749  24.925  1.00  0.00    +0.000 H 
BRANCH   15   13
ATOM     13  C10 UNL A   1      38.937  22.739  26.197  1.00  0.00    +0.000 C 
ATOM     14  O2  UNL A   1      39.490  21.720  26.599  1.00  0.00    +0.000 O 
BRANCH   13   12
ATOM     12  N2  UNL A   1      37.944  22.654  25.253  1.00  0.00    +0.000 N 
ATOM    111  H18 UNL A   1      38.226  22.311  24.375  1.00  0.00    +0.000 H 
BRANCH   12   11
ATOM     11  C9  UNL A   1      36.536  22.999  25.362  1.00  0.00    +0.000 C 
ATOM    109  H16 UNL A   1      36.447  23.910  25.918  1.00  0.00    +0.000 H 
ATOM    110  H17 UNL A   1      36.150  23.105  24.370  1.00  0.00    +0.000 H 
BRANCH   11   10
ATOM     10  C8  UNL A   1      35.723  21.915  26.064  1.00  0.00    +0.000 C 
ATOM    107  H14 UNL A   1      36.347  21.054  26.177  1.00  0.00    +0.000 H 
ATOM    108  H15 UNL A   1      35.405  22.338  26.994  1.00  0.00    +0.000 H 
BRANCH   10    9
ATOM      9  C7  UNL A   1      34.449  21.485  25.334  1.00  0.00    +0.000 C 
ATOM    106  H13 UNL A   1      33.636  21.746  25.979  1.00  0.00    +0.000 H 
ATOM    105  H12 UNL A   1      34.519  20.435  25.137  1.00  0.00    +0.000 H 
BRANCH    9    8
ATOM    104  H11 UNL A   1      34.647  21.596  23.253  1.00  0.00    +0.000 H 
ATOM    103  H10 UNL A   1      34.585  23.187  24.077  1.00  0.00    +0.000 H 
ATOM      8  C6  UNL A   1      34.184  22.198  24.007  1.00  0.00    +0.000 C 
BRANCH    8    7
ATOM    101  H8  UNL A   1      32.557  21.729  22.721  1.00  0.00    +0.000 H 
ATOM    102  H9  UNL A   1      32.140  21.975  24.444  1.00  0.00    +0.000 H 
ATOM      7  C5  UNL A   1      32.708  22.316  23.603  1.00  0.00    +0.000 C 
BRANCH    7    6
ATOM     99  H6  UNL A   1      32.566  24.032  22.340  1.00  0.00    +0.000 H 
ATOM    100  H7  UNL A   1      31.157  23.751  23.360  1.00  0.00    +0.000 H 
ATOM      6  C4  UNL A   1      32.226  23.742  23.311  1.00  0.00    +0.000 C 
BRANCH    6    5
ATOM     98  H5  UNL A   1      33.676  24.957  24.195  1.00  0.00    +0.000 H 
ATOM      5  N1  UNL A   1      32.735  24.684  24.289  1.00  0.00    +0.000 N 
BRANCH    5    3
ATOM      3  C3  UNL A   1      32.033  25.231  25.330  1.00  0.00    +0.000 C 
ATOM      4  O1  UNL A   1      31.554  24.436  26.140  1.00  0.00    +0.000 O 
BRANCH    3    2
ATOM     97  H4  UNL A   1      32.900  27.156  25.247  1.00  0.00    +0.000 H 
ATOM      2  C2  UNL A   1      31.924  26.764  25.448  1.00  0.00    +0.000 C 
BRANCH    2    1
ATOM      1  C1  UNL A   1      31.436  27.072  26.870  1.00  0.00    +0.000 C 
ATOM     94  H1  UNL A   1      31.982  26.475  27.571  1.00  0.00    +0.000 H 
ATOM     95  H2  UNL A   1      30.393  26.847  26.946  1.00  0.00    +0.000 H 
ATOM     96  H3  UNL A   1      31.593  28.108  27.085  1.00  0.00    +0.000 H 
ENDBRANCH    2    1
BRANCH    2   78
ATOM    137  H44 UNL A   1      31.057  30.165  22.313  1.00  0.00    +0.000 H 
ATOM     78  C55 UNL A   1      31.064  27.489  24.398  1.00  0.00    +0.000 C 
ATOM     79  C56 UNL A   1      29.749  27.079  24.114  1.00  0.00    +0.000 C 
ATOM     80  C57 UNL A   1      28.920  27.785  23.237  1.00  0.00    +0.000 C 
ATOM     81  C58 UNL A   1      29.379  28.919  22.571  1.00  0.00    +0.000 C 
ATOM     89  C65 UNL A   1      30.693  29.331  22.801  1.00  0.00    +0.000 C 
ATOM     90  C66 UNL A   1      31.530  28.627  23.691  1.00  0.00    +0.000 C 
ATOM    126  H33 UNL A   1      29.383  26.228  24.570  1.00  0.00    +0.000 H 
ATOM    127  H34 UNL A   1      27.952  27.462  23.081  1.00  0.00    +0.000 H 
BRANCH   81   82
ATOM    129  H36 UNL A   1      29.126  30.126  20.914  1.00  0.00    +0.000 H 
ATOM     82  C59 UNL A   1      28.473  29.687  21.639  1.00  0.00    +0.000 C 
ATOM    128  H35 UNL A   1      27.759  28.997  21.240  1.00  0.00    +0.000 H 
BRANCH   82   83
ATOM    130  H37 UNL A   1      26.692  30.547  22.045  1.00  0.00    +0.000 H 
ATOM    131  H38 UNL A   1      28.270  30.239  24.219  1.00  0.00    +0.000 H 
ATOM    132  H39 UNL A   1      27.004  31.408  24.219  1.00  0.00    +0.000 H 
ATOM    133  H40 UNL A   1      29.946  31.819  23.764  1.00  0.00    +0.000 H 
ATOM    134  H41 UNL A   1      28.899  32.764  24.747  1.00  0.00    +0.000 H 
ATOM    135  H42 UNL A   1      29.599  33.558  22.251  1.00  0.00    +0.000 H 
ATOM    136  H43 UNL A   1      28.067  33.973  22.862  1.00  0.00    +0.000 H 
ATOM     83  C60 UNL A   1      27.696  30.862  22.242  1.00  0.00    +0.000 C 
ATOM     84  C61 UNL A   1      27.915  31.124  23.734  1.00  0.00    +0.000 C 
ATOM     85  C62 UNL A   1      28.960  32.230  23.822  1.00  0.00    +0.000 C 
ATOM     86  C63 UNL A   1      28.691  33.135  22.628  1.00  0.00    +0.000 C 
ATOM     87  C64 UNL A   1      28.074  32.191  21.629  1.00  0.00    +0.000 C 
ATOM     88  O3  UNL A   1      27.885  32.479  20.453  1.00  0.00    +0.000 O 
ENDBRANCH   82   83
ENDBRANCH   81   82
BRANCH   90   91
ATOM     91  N7  UNL A   1      32.875  29.144  23.842  1.00  0.00    +0.000 N 
ATOM     92  O4  UNL A   1      33.703  28.974  22.970  1.00  0.00    +0.000 O 
ATOM     93  O5  UNL A   1      33.284  29.776  24.991  1.00  0.00    +0.000 O 
ENDBRANCH   90   91
ENDBRANCH    2   78
ENDBRANCH    3    2
ENDBRANCH    5    3
ENDBRANCH    6    5
ENDBRANCH    7    6
ENDBRANCH    8    7
ENDBRANCH    9    8
ENDBRANCH   10    9
ENDBRANCH   11   10
ENDBRANCH   12   11
ENDBRANCH   13   12
ENDBRANCH   15   13
ENDBRANCH   19   18
BRANCH   23   24
ATOM     33  C24 UNL A   1      47.138  27.877  30.702  1.00  0.00    +0.000 C 
ATOM     34  F5  UNL A   1      46.398  27.723  31.810  1.00  0.00    +0.000 F 
ATOM     24  C19 UNL A   1      46.632  28.595  29.609  1.00  0.00    +0.000 C 
ATOM     25  C20 UNL A   1      47.450  28.731  28.476  1.00  0.00    +0.000 C 
ATOM     26  F1  UNL A   1      47.008  29.398  27.400  1.00  0.00    +0.000 F 
ATOM     27  C21 UNL A   1      48.717  28.156  28.435  1.00  0.00    +0.000 C 
ATOM     28  F2  UNL A   1      49.466  28.268  27.329  1.00  0.00    +0.000 F 
ATOM     29  C22 UNL A   1      49.202  27.462  29.534  1.00  0.00    +0.000 C 
ATOM     30  F3  UNL A   1      50.428  26.920  29.497  1.00  0.00    +0.000 F 
ATOM     31  C23 UNL A   1      48.417  27.327  30.668  1.00  0.00    +0.000 C 
ATOM     32  F4  UNL A   1      48.890  26.667  31.734  1.00  0.00    +0.000 F 
ENDBRANCH   23   24
BRANCH   40   41
ATOM     41  C30 UNL A   1      43.813  34.898  31.678  1.00  0.00    +0.000 C 
ATOM     42  C31 UNL A   1      44.119  35.976  30.836  1.00  0.00    +0.000 C 
ATOM     43  F6  UNL A   1      44.026  35.839  29.504  1.00  0.00    +0.000 F 
ATOM     44  C32 UNL A   1      44.568  37.186  31.356  1.00  0.00    +0.000 C 
ATOM     45  F7  UNL A   1      44.906  38.185  30.529  1.00  0.00    +0.000 F 
ATOM     46  C33 UNL A   1      44.685  37.353  32.729  1.00  0.00    +0.000 C 
ATOM     47  F8  UNL A   1      45.117  38.519  33.229  1.00  0.00    +0.000 F 
ATOM     48  C34 UNL A   1      44.365  36.307  33.582  1.00  0.00    +0.000 C 
ATOM     49  F9  UNL A   1      44.467  36.471  34.908  1.00  0.00    +0.000 F 
ATOM     50  C35 UNL A   1      43.943  35.087  33.062  1.00  0.00    +0.000 C 
ATOM     51  F10 UNL A   1      43.656  34.089  33.912  1.00  0.00    +0.000 F 
ENDBRANCH   40   41
BRANCH   55   56
ATOM     65  C44 UNL A   1      36.980  33.407  29.114  1.00  0.00    +0.000 C 
ATOM     66  F15 UNL A   1      37.752  33.762  28.077  1.00  0.00    +0.000 F 
ATOM     56  C39 UNL A   1      37.471  32.523  30.086  1.00  0.00    +0.000 C 
ATOM     57  C40 UNL A   1      36.624  32.190  31.152  1.00  0.00    +0.000 C 
ATOM     58  F11 UNL A   1      37.041  31.331  32.094  1.00  0.00    +0.000 F 
ATOM     59  C41 UNL A   1      35.329  32.698  31.229  1.00  0.00    +0.000 C 
ATOM     60  F12 UNL A   1      34.523  32.322  32.231  1.00  0.00    +0.000 F 
ATOM     61  C42 UNL A   1      34.867  33.575  30.259  1.00  0.00    +0.000 C 
ATOM     62  F13 UNL A   1      33.621  34.062  30.332  1.00  0.00    +0.000 F 
ATOM     63  C43 UNL A   1      35.695  33.938  29.208  1.00  0.00    +0.000 C 
ATOM     64  F14 UNL A   1      35.258  34.795  28.275  1.00  0.00    +0.000 F 
ENDBRANCH   55   56
TORSDOF 20
ENDMDL
MODEL 7
REMARK VINA RESULT:      -9.8     38.439     44.062
ROOT
ATOM     19  C15 UNL A   1      13.160  49.926   3.392  1.00  0.00    +0.000 C 
ATOM     20  C16 UNL A   1      14.083  49.479   2.292  1.00  0.00    +0.000 C 
ATOM     21  N3  UNL A   1      14.947  50.181   1.603  1.00  0.00    +0.000 N 
ATOM     22  C17 UNL A   1      15.559  49.283   0.737  1.00  0.00    +0.000 C 
ATOM     23  C18 UNL A   1      16.481  49.530  -0.224  1.00  0.00    +0.000 C 
ATOM     35  C25 UNL A   1      17.015  50.834  -0.523  1.00  0.00    +0.000 C 
ATOM     36  C26 UNL A   1      17.917  51.192  -1.511  1.00  0.00    +0.000 C 
ATOM     37  C27 UNL A   1      18.170  52.563  -1.397  1.00  0.00    +0.000 C 
ATOM     38  C28 UNL A   1      17.395  53.067  -0.365  1.00  0.00    +0.000 C 
ATOM     39  N4  UNL A   1      16.696  51.995   0.165  1.00  0.00    +0.000 N 
ATOM     40  C29 UNL A   1      17.298  54.425   0.101  1.00  0.00    +0.000 C 
ATOM     52  C36 UNL A   1      16.502  54.840   1.117  1.00  0.00    +0.000 C 
ATOM     53  N5  UNL A   1      15.637  54.098   1.909  1.00  0.00    +0.000 N 
ATOM     54  C37 UNL A   1      15.116  54.945   2.763  1.00  0.00    +0.000 C 
ATOM     55  C38 UNL A   1      14.095  54.699   3.840  1.00  0.00    +0.000 C 
ATOM     67  C45 UNL A   1      13.589  53.461   3.999  1.00  0.00    +0.000 C 
ATOM     68  C46 UNL A   1      12.584  53.077   4.985  1.00  0.00    +0.000 C 
ATOM     69  C47 UNL A   1      12.344  51.761   4.875  1.00  0.00    +0.000 C 
ATOM     70  C48 UNL A   1      13.156  51.214   3.787  1.00  0.00    +0.000 C 
ATOM     71  N6  UNL A   1      13.864  52.296   3.325  1.00  0.00    +0.000 N 
ATOM     72  C49 UNL A   1      15.612  56.321   2.623  1.00  0.00    +0.000 C 
ATOM     73  C50 UNL A   1      16.419  56.211   1.578  1.00  0.00    +0.000 C 
ATOM     74  C51 UNL A   1      15.004  47.977   1.022  1.00  0.00    +0.000 C 
ATOM     75  C52 UNL A   1      14.046  48.053   1.934  1.00  0.00    +0.000 C 
ATOM    114  H21 UNL A   1      18.330  50.556  -2.211  1.00  0.00    +0.000 H 
ATOM    115  H22 UNL A   1      18.825  53.106  -1.982  1.00  0.00    +0.000 H 
ATOM    116  H23 UNL A   1      16.066  52.048   0.919  1.00  0.00    +0.000 H 
ATOM    117  H24 UNL A   1      12.132  53.715   5.658  1.00  0.00    +0.000 H 
ATOM    118  H25 UNL A   1      11.690  51.221   5.463  1.00  0.00    +0.000 H 
ATOM    119  H26 UNL A   1      14.506  52.242   2.582  1.00  0.00    +0.000 H 
ATOM    120  H27 UNL A   1      15.390  57.155   3.189  1.00  0.00    +0.000 H 
ATOM    121  H28 UNL A   1      16.925  57.000   1.148  1.00  0.00    +0.000 H 
ATOM    122  H29 UNL A   1      15.315  47.101   0.573  1.00  0.00    +0.000 H 
ATOM    123  H30 UNL A   1      13.434  47.306   2.299  1.00  0.00    +0.000 H 
ENDROOT
BRANCH   19   18
ATOM     76  C53 UNL A   1      10.960  48.766   3.663  1.00  0.00    +0.000 C 
ATOM     77  C54 UNL A   1      10.138  47.836   4.298  1.00  0.00    +0.000 C 
ATOM     15  C11 UNL A   1      10.660  47.012   5.300  1.00  0.00    +0.000 C 
ATOM    112  H19 UNL A   1      12.339  46.631   6.526  1.00  0.00    +0.000 H 
ATOM     16  C12 UNL A   1      11.967  47.207   5.754  1.00  0.00    +0.000 C 
ATOM     17  C13 UNL A   1      12.771  48.184   5.160  1.00  0.00    +0.000 C 
ATOM    113  H20 UNL A   1      13.727  48.345   5.513  1.00  0.00    +0.000 H 
ATOM     18  C14 UNL A   1      12.284  48.948   4.087  1.00  0.00    +0.000 C 
ATOM    124  H31 UNL A   1      10.591  49.324   2.877  1.00  0.00    +0.000 H 
ATOM    125  H32 UNL A   1       9.145  47.755   4.029  1.00  0.00    +0.000 H 
BRANCH   15   13
ATOM     13  C10 UNL A   1       9.847  45.940   5.917  1.00  0.00    +0.000 C 
ATOM     14  O2  UNL A   1       8.837  45.539   5.347  1.00  0.00    +0.000 O 
BRANCH   13   12
ATOM     12  N2  UNL A   1      10.207  45.409   7.131  1.00  0.00    +0.000 N 
ATOM    111  H18 UNL A   1      10.618  44.515   7.094  1.00  0.00    +0.000 H 
BRANCH   12   11
ATOM     11  C9  UNL A   1      10.067  45.973   8.463  1.00  0.00    +0.000 C 
ATOM    109  H16 UNL A   1       9.738  46.989   8.373  1.00  0.00    +0.000 H 
ATOM    110  H17 UNL A   1       9.356  45.377   8.996  1.00  0.00    +0.000 H 
BRANCH   11   10
ATOM     10  C8  UNL A   1      11.375  45.950   9.247  1.00  0.00    +0.000 C 
ATOM    107  H14 UNL A   1      11.380  45.071   9.856  1.00  0.00    +0.000 H 
ATOM    108  H15 UNL A   1      12.159  45.969   8.519  1.00  0.00    +0.000 H 
BRANCH   10    9
ATOM      9  C7  UNL A   1      11.609  47.157  10.156  1.00  0.00    +0.000 C 
ATOM    106  H13 UNL A   1      10.966  47.931   9.792  1.00  0.00    +0.000 H 
ATOM    105  H12 UNL A   1      12.648  47.409  10.112  1.00  0.00    +0.000 H 
BRANCH    9    8
ATOM    104  H11 UNL A   1      11.983  46.304  12.031  1.00  0.00    +0.000 H 
ATOM    103  H10 UNL A   1      10.246  46.543  11.660  1.00  0.00    +0.000 H 
ATOM      8  C6  UNL A   1      11.234  46.951  11.625  1.00  0.00    +0.000 C 
BRANCH    8    7
ATOM    101  H8  UNL A   1      10.243  48.542  12.630  1.00  0.00    +0.000 H 
ATOM    102  H9  UNL A   1      11.736  47.939  13.412  1.00  0.00    +0.000 H 
ATOM      7  C5  UNL A   1      11.253  48.214  12.497  1.00  0.00    +0.000 C 
BRANCH    7    6
ATOM     99  H6  UNL A   1      12.355  49.149  10.924  1.00  0.00    +0.000 H 
ATOM    100  H7  UNL A   1      11.441  50.259  11.943  1.00  0.00    +0.000 H 
ATOM      6  C4  UNL A   1      12.060  49.386  11.924  1.00  0.00    +0.000 C 
BRANCH    6    5
ATOM     98  H5  UNL A   1      13.768  48.869  13.008  1.00  0.00    +0.000 H 
ATOM      5  N1  UNL A   1      13.245  49.651  12.716  1.00  0.00    +0.000 N 
BRANCH    5    3
ATOM      3  C3  UNL A   1      13.708  50.882  13.096  1.00  0.00    +0.000 C 
ATOM      4  O1  UNL A   1      12.883  51.638  13.610  1.00  0.00    +0.000 O 
BRANCH    3    2
ATOM     97  H4  UNL A   1      15.753  50.493  13.460  1.00  0.00    +0.000 H 
ATOM      2  C2  UNL A   1      15.200  51.223  12.905  1.00  0.00    +0.000 C 
BRANCH    2    1
ATOM      1  C1  UNL A   1      15.405  52.653  13.425  1.00  0.00    +0.000 C 
ATOM     94  H1  UNL A   1      16.452  52.872  13.463  1.00  0.00    +0.000 H 
ATOM     95  H2  UNL A   1      14.986  52.739  14.405  1.00  0.00    +0.000 H 
ATOM     96  H3  UNL A   1      14.920  53.344  12.768  1.00  0.00    +0.000 H 
ENDBRANCH    2    1
BRANCH    2   78
ATOM    137  H44 UNL A   1      15.281  51.962   8.258  1.00  0.00    +0.000 H 
ATOM     78  C55 UNL A   1      15.781  51.059  11.490  1.00  0.00    +0.000 C 
ATOM     79  C56 UNL A   1      16.874  50.211  11.238  1.00  0.00    +0.000 C 
ATOM     80  C57 UNL A   1      17.351  49.973   9.945  1.00  0.00    +0.000 C 
ATOM     81  C58 UNL A   1      16.779  50.601   8.841  1.00  0.00    +0.000 C 
ATOM     89  C65 UNL A   1      15.716  51.479   9.061  1.00  0.00    +0.000 C 
ATOM     90  C66 UNL A   1      15.225  51.716  10.362  1.00  0.00    +0.000 C 
ATOM    126  H33 UNL A   1      17.340  49.748  12.034  1.00  0.00    +0.000 H 
ATOM    127  H34 UNL A   1      18.140  49.321   9.806  1.00  0.00    +0.000 H 
BRANCH   81   82
ATOM    129  H36 UNL A   1      17.688  51.258   7.107  1.00  0.00    +0.000 H 
ATOM     82  C59 UNL A   1      17.287  50.326   7.447  1.00  0.00    +0.000 C 
ATOM    128  H35 UNL A   1      17.998  49.529   7.512  1.00  0.00    +0.000 H 
BRANCH   82   83
ATOM    130  H37 UNL A   1      15.377  50.412   6.799  1.00  0.00    +0.000 H 
ATOM    131  H38 UNL A   1      17.185  51.231   4.962  1.00  0.00    +0.000 H 
ATOM    132  H39 UNL A   1      15.621  50.699   4.470  1.00  0.00    +0.000 H 
ATOM    133  H40 UNL A   1      18.220  49.190   4.435  1.00  0.00    +0.000 H 
ATOM    134  H41 UNL A   1      17.033  49.257   3.192  1.00  0.00    +0.000 H 
ATOM    135  H42 UNL A   1      17.188  47.150   4.892  1.00  0.00    +0.000 H 
ATOM    136  H43 UNL A   1      15.674  47.615   4.272  1.00  0.00    +0.000 H 
ATOM     83  C60 UNL A   1      16.244  49.931   6.395  1.00  0.00    +0.000 C 
ATOM     84  C61 UNL A   1      16.520  50.392   4.962  1.00  0.00    +0.000 C 
ATOM     85  C62 UNL A   1      17.165  49.207   4.253  1.00  0.00    +0.000 C 
ATOM     86  C63 UNL A   1      16.504  47.972   4.847  1.00  0.00    +0.000 C 
ATOM     87  C64 UNL A   1      16.119  48.435   6.228  1.00  0.00    +0.000 C 
ATOM     88  O3  UNL A   1      15.729  47.680   7.111  1.00  0.00    +0.000 O 
ENDBRANCH   82   83
ENDBRANCH   81   82
BRANCH   90   91
ATOM     91  N7  UNL A   1      14.125  52.652  10.466  1.00  0.00    +0.000 N 
ATOM     92  O4  UNL A   1      12.984  52.286  10.272  1.00  0.00    +0.000 O 
ATOM     93  O5  UNL A   1      14.330  53.988  10.713  1.00  0.00    +0.000 O 
ENDBRANCH   90   91
ENDBRANCH    2   78
ENDBRANCH    3    2
ENDBRANCH    5    3
ENDBRANCH    6    5
ENDBRANCH    7    6
ENDBRANCH    8    7
ENDBRANCH    9    8
ENDBRANCH   10    9
ENDBRANCH   11   10
ENDBRANCH   12   11
ENDBRANCH   13   12
ENDBRANCH   15   13
ENDBRANCH   19   18
BRANCH   23   24
ATOM     33  C24 UNL A   1      18.135  47.681  -0.684  1.00  0.00    +0.000 C 
ATOM     34  F5  UNL A   1      18.809  48.025   0.424  1.00  0.00    +0.000 F 
ATOM     24  C19 UNL A   1      16.965  48.368  -1.040  1.00  0.00    +0.000 C 
ATOM     25  C20 UNL A   1      16.301  47.970  -2.212  1.00  0.00    +0.000 C 
ATOM     26  F1  UNL A   1      15.172  48.589  -2.590  1.00  0.00    +0.000 F 
ATOM     27  C21 UNL A   1      16.780  46.916  -2.983  1.00  0.00    +0.000 C 
ATOM     28  F2  UNL A   1      16.109  46.531  -4.078  1.00  0.00    +0.000 F 
ATOM     29  C22 UNL A   1      17.946  46.260  -2.619  1.00  0.00    +0.000 C 
ATOM     30  F3  UNL A   1      18.413  45.253  -3.371  1.00  0.00    +0.000 F 
ATOM     31  C23 UNL A   1      18.626  46.645  -1.474  1.00  0.00    +0.000 C 
ATOM     32  F4  UNL A   1      19.759  46.019  -1.127  1.00  0.00    +0.000 F 
ENDBRANCH   23   24
BRANCH   40   41
ATOM     41  C30 UNL A   1      18.120  55.470  -0.594  1.00  0.00    +0.000 C 
ATOM     42  C31 UNL A   1      19.371  55.867  -0.102  1.00  0.00    +0.000 C 
ATOM     43  F6  UNL A   1      19.846  55.340   1.037  1.00  0.00    +0.000 F 
ATOM     44  C32 UNL A   1      20.119  56.842  -0.754  1.00  0.00    +0.000 C 
ATOM     45  F7  UNL A   1      21.289  57.244  -0.237  1.00  0.00    +0.000 F 
ATOM     46  C33 UNL A   1      19.648  57.413  -1.928  1.00  0.00    +0.000 C 
ATOM     47  F8  UNL A   1      20.371  58.351  -2.556  1.00  0.00    +0.000 F 
ATOM     48  C34 UNL A   1      18.424  57.018  -2.445  1.00  0.00    +0.000 C 
ATOM     49  F9  UNL A   1      17.973  57.560  -3.585  1.00  0.00    +0.000 F 
ATOM     50  C35 UNL A   1      17.660  56.063  -1.780  1.00  0.00    +0.000 C 
ATOM     51  F10 UNL A   1      16.472  55.713  -2.295  1.00  0.00    +0.000 F 
ENDBRANCH   40   41
BRANCH   55   56
ATOM     65  C44 UNL A   1      14.279  56.116   5.914  1.00  0.00    +0.000 C 
ATOM     66  F15 UNL A   1      15.326  55.382   6.317  1.00  0.00    +0.000 F 
ATOM     56  C39 UNL A   1      13.630  55.811   4.709  1.00  0.00    +0.000 C 
ATOM     57  C40 UNL A   1      12.537  56.606   4.338  1.00  0.00    +0.000 C 
ATOM     58  F11 UNL A   1      11.897  56.368   3.184  1.00  0.00    +0.000 F 
ATOM     59  C41 UNL A   1      12.128  57.681   5.125  1.00  0.00    +0.000 C 
ATOM     60  F12 UNL A   1      11.114  58.458   4.720  1.00  0.00    +0.000 F 
ATOM     61  C42 UNL A   1      12.783  57.961   6.315  1.00  0.00    +0.000 C 
ATOM     62  F13 UNL A   1      12.390  58.995   7.071  1.00  0.00    +0.000 F 
ATOM     63  C43 UNL A   1      13.851  57.173   6.715  1.00  0.00    +0.000 C 
ATOM     64  F14 UNL A   1      14.479  57.431   7.870  1.00  0.00    +0.000 F 
ENDBRANCH   55   56
TORSDOF 20
ENDMDL
MODEL 8
REMARK VINA RESULT:      -9.6      4.220      7.975
ROOT
ATOM     19  C15 UNL A   1      40.254  28.827  28.942  1.00  0.00    +0.000 C 
ATOM     20  C16 UNL A   1      41.165  29.795  29.647  1.00  0.00    +0.000 C 
ATOM     21  N3  UNL A   1      42.437  29.674  29.931  1.00  0.00    +0.000 N 
ATOM     22  C17 UNL A   1      42.800  30.860  30.557  1.00  0.00    +0.000 C 
ATOM     23  C18 UNL A   1      43.994  31.201  31.096  1.00  0.00    +0.000 C 
ATOM     35  C25 UNL A   1      45.155  30.347  31.107  1.00  0.00    +0.000 C 
ATOM     36  C26 UNL A   1      46.396  30.585  31.673  1.00  0.00    +0.000 C 
ATOM     37  C27 UNL A   1      47.219  29.487  31.401  1.00  0.00    +0.000 C 
ATOM     38  C28 UNL A   1      46.479  28.548  30.702  1.00  0.00    +0.000 C 
ATOM     39  N4  UNL A   1      45.217  29.091  30.524  1.00  0.00    +0.000 N 
ATOM     40  C29 UNL A   1      46.891  27.251  30.233  1.00  0.00    +0.000 C 
ATOM     52  C36 UNL A   1      46.096  26.382  29.561  1.00  0.00    +0.000 C 
ATOM     53  N5  UNL A   1      44.769  26.524  29.184  1.00  0.00    +0.000 N 
ATOM     54  C37 UNL A   1      44.459  25.426  28.538  1.00  0.00    +0.000 C 
ATOM     55  C38 UNL A   1      43.144  25.022  27.928  1.00  0.00    +0.000 C 
ATOM     67  C45 UNL A   1      42.088  25.850  28.033  1.00  0.00    +0.000 C 
ATOM     68  C46 UNL A   1      40.751  25.588  27.508  1.00  0.00    +0.000 C 
ATOM     69  C47 UNL A   1      39.964  26.643  27.768  1.00  0.00    +0.000 C 
ATOM     70  C48 UNL A   1      40.732  27.645  28.508  1.00  0.00    +0.000 C 
ATOM     71  N6  UNL A   1      41.983  27.088  28.619  1.00  0.00    +0.000 N 
ATOM     72  C49 UNL A   1      45.568  24.470  28.412  1.00  0.00    +0.000 C 
ATOM     73  C50 UNL A   1      46.528  25.082  29.090  1.00  0.00    +0.000 C 
ATOM     74  C51 UNL A   1      41.626  31.708  30.566  1.00  0.00    +0.000 C 
ATOM     75  C52 UNL A   1      40.574  31.074  30.068  1.00  0.00    +0.000 C 
ATOM    114  H21 UNL A   1      46.666  31.427  32.205  1.00  0.00    +0.000 H 
ATOM    115  H22 UNL A   1      48.211  29.394  31.674  1.00  0.00    +0.000 H 
ATOM    116  H23 UNL A   1      44.473  28.650  30.054  1.00  0.00    +0.000 H 
ATOM    117  H24 UNL A   1      40.459  24.729  27.016  1.00  0.00    +0.000 H 
ATOM    118  H25 UNL A   1      38.973  26.733  27.492  1.00  0.00    +0.000 H 
ATOM    119  H26 UNL A   1      42.732  27.534  29.074  1.00  0.00    +0.000 H 
ATOM    120  H27 UNL A   1      45.593  23.562  27.924  1.00  0.00    +0.000 H 
ATOM    121  H28 UNL A   1      47.464  24.683  29.262  1.00  0.00    +0.000 H 
ATOM    122  H29 UNL A   1      41.612  32.679  30.916  1.00  0.00    +0.000 H 
ATOM    123  H30 UNL A   1      39.596  31.395  29.995  1.00  0.00    +0.000 H 
ENDROOT
BRANCH   19   18
ATOM     76  C53 UNL A   1      37.860  28.970  29.654  1.00  0.00    +0.000 C 
ATOM     77  C54 UNL A   1      36.532  29.321  29.415  1.00  0.00    +0.000 C 
ATOM     15  C11 UNL A   1      36.185  29.974  28.228  1.00  0.00    +0.000 C 
ATOM    112  H19 UNL A   1      36.878  30.601  26.333  1.00  0.00    +0.000 H 
ATOM     16  C12 UNL A   1      37.143  30.161  27.229  1.00  0.00    +0.000 C 
ATOM     17  C13 UNL A   1      38.462  29.751  27.443  1.00  0.00    +0.000 C 
ATOM    113  H20 UNL A   1      39.162  29.866  26.695  1.00  0.00    +0.000 H 
ATOM     18  C14 UNL A   1      38.838  29.184  28.672  1.00  0.00    +0.000 C 
ATOM    124  H31 UNL A   1      38.125  28.551  30.560  1.00  0.00    +0.000 H 
ATOM    125  H32 UNL A   1      35.805  29.099  30.113  1.00  0.00    +0.000 H 
BRANCH   15   13
ATOM     13  C10 UNL A   1      34.807  30.458  27.990  1.00  0.00    +0.000 C 
ATOM     14  O2  UNL A   1      34.049  29.806  27.277  1.00  0.00    +0.000 O 
BRANCH   13   12
ATOM     12  N2  UNL A   1      34.382  31.640  28.543  1.00  0.00    +0.000 N 
ATOM    111  H18 UNL A   1      33.802  31.550  29.334  1.00  0.00    +0.000 H 
BRANCH   12   11
ATOM     11  C9  UNL A   1      34.663  33.005  28.132  1.00  0.00    +0.000 C 
ATOM    109  H16 UNL A   1      35.427  33.405  28.767  1.00  0.00    +0.000 H 
ATOM    110  H17 UNL A   1      34.977  32.979  27.110  1.00  0.00    +0.000 H 
BRANCH   11   10
ATOM     10  C8  UNL A   1      33.434  33.905  28.218  1.00  0.00    +0.000 C 
ATOM    107  H14 UNL A   1      33.364  34.458  27.305  1.00  0.00    +0.000 H 
ATOM    108  H15 UNL A   1      32.600  33.255  28.388  1.00  0.00    +0.000 H 
BRANCH   10    9
ATOM      9  C7  UNL A   1      33.439  34.902  29.377  1.00  0.00    +0.000 C 
ATOM    106  H13 UNL A   1      32.415  35.045  29.651  1.00  0.00    +0.000 H 
ATOM    105  H12 UNL A   1      33.921  35.798  29.042  1.00  0.00    +0.000 H 
BRANCH    9    8
ATOM    104  H11 UNL A   1      35.199  34.444  30.415  1.00  0.00    +0.000 H 
ATOM    103  H10 UNL A   1      33.781  33.456  30.889  1.00  0.00    +0.000 H 
ATOM      8  C6  UNL A   1      34.154  34.428  30.644  1.00  0.00    +0.000 C 
BRANCH    8    7
ATOM    101  H8  UNL A   1      34.428  36.273  31.664  1.00  0.00    +0.000 H 
ATOM    102  H9  UNL A   1      32.927  35.382  32.059  1.00  0.00    +0.000 H 
ATOM      7  C5  UNL A   1      33.980  35.325  31.877  1.00  0.00    +0.000 C 
BRANCH    7    6
ATOM     99  H6  UNL A   1      34.183  35.298  34.003  1.00  0.00    +0.000 H 
ATOM    100  H7  UNL A   1      34.407  33.734  33.223  1.00  0.00    +0.000 H 
ATOM      6  C4  UNL A   1      34.608  34.784  33.168  1.00  0.00    +0.000 C 
BRANCH    6    5
ATOM     98  H5  UNL A   1      36.405  35.677  32.591  1.00  0.00    +0.000 H 
ATOM      5  N1  UNL A   1      36.045  34.973  33.178  1.00  0.00    +0.000 N 
BRANCH    5    3
ATOM      3  C3  UNL A   1      36.951  34.268  33.925  1.00  0.00    +0.000 C 
ATOM      4  O1  UNL A   1      36.526  33.773  34.970  1.00  0.00    +0.000 O 
BRANCH    3    2
ATOM     97  H4  UNL A   1      39.031  34.581  34.123  1.00  0.00    +0.000 H 
ATOM      2  C2  UNL A   1      38.394  34.102  33.409  1.00  0.00    +0.000 C 
BRANCH    2    1
ATOM      1  C1  UNL A   1      38.453  34.754  32.020  1.00  0.00    +0.000 C 
ATOM     94  H1  UNL A   1      37.478  35.106  31.751  1.00  0.00    +0.000 H 
ATOM     95  H2  UNL A   1      38.783  34.034  31.302  1.00  0.00    +0.000 H 
ATOM     96  H3  UNL A   1      39.135  35.577  32.041  1.00  0.00    +0.000 H 
ENDBRANCH    2    1
BRANCH    2   78
ATOM    137  H44 UNL A   1      38.211  29.497  32.459  1.00  0.00    +0.000 H 
ATOM     78  C55 UNL A   1      38.967  32.674  33.375  1.00  0.00    +0.000 C 
ATOM     79  C56 UNL A   1      40.214  32.369  33.948  1.00  0.00    +0.000 C 
ATOM     80  C57 UNL A   1      40.705  31.061  34.015  1.00  0.00    +0.000 C 
ATOM     81  C58 UNL A   1      39.985  29.995  33.479  1.00  0.00    +0.000 C 
ATOM     89  C65 UNL A   1      38.759  30.270  32.869  1.00  0.00    +0.000 C 
ATOM     90  C66 UNL A   1      38.256  31.586  32.807  1.00  0.00    +0.000 C 
ATOM    126  H33 UNL A   1      40.787  33.137  34.332  1.00  0.00    +0.000 H 
ATOM    127  H34 UNL A   1      41.614  30.882  34.469  1.00  0.00    +0.000 H 
BRANCH   81   82
ATOM    129  H36 UNL A   1      39.778  28.049  34.137  1.00  0.00    +0.000 H 
ATOM     82  C59 UNL A   1      40.511  28.584  33.570  1.00  0.00    +0.000 C 
ATOM    128  H35 UNL A   1      40.656  28.226  32.572  1.00  0.00    +0.000 H 
BRANCH   82   83
ATOM    130  H37 UNL A   1      42.214  29.382  34.305  1.00  0.00    +0.000 H 
ATOM    131  H38 UNL A   1      40.738  28.079  36.158  1.00  0.00    +0.000 H 
ATOM    132  H39 UNL A   1      42.424  28.337  36.409  1.00  0.00    +0.000 H 
ATOM    133  H40 UNL A   1      41.021  25.858  35.452  1.00  0.00    +0.000 H 
ATOM    134  H41 UNL A   1      42.272  25.963  36.627  1.00  0.00    +0.000 H 
ATOM    135  H42 UNL A   1      42.790  25.240  34.065  1.00  0.00    +0.000 H 
ATOM    136  H43 UNL A   1      43.967  26.095  34.947  1.00  0.00    +0.000 H 
ATOM     83  C60 UNL A   1      41.828  28.384  34.329  1.00  0.00    +0.000 C 
ATOM     84  C61 UNL A   1      41.710  27.867  35.765  1.00  0.00    +0.000 C 
ATOM     85  C62 UNL A   1      41.934  26.361  35.692  1.00  0.00    +0.000 C 
ATOM     86  C63 UNL A   1      42.961  26.158  34.587  1.00  0.00    +0.000 C 
ATOM     87  C64 UNL A   1      42.721  27.345  33.691  1.00  0.00    +0.000 C 
ATOM     88  O3  UNL A   1      43.211  27.460  32.574  1.00  0.00    +0.000 O 
ENDBRANCH   82   83
ENDBRANCH   81   82
BRANCH   90   91
ATOM     91  N7  UNL A   1      36.979  31.748  32.143  1.00  0.00    +0.000 N 
ATOM     92  O4  UNL A   1      35.958  31.347  32.664  1.00  0.00    +0.000 O 
ATOM     93  O5  UNL A   1      36.879  32.287  30.883  1.00  0.00    +0.000 O 
ENDBRANCH   90   91
ENDBRANCH    2   78
ENDBRANCH    3    2
ENDBRANCH    5    3
ENDBRANCH    6    5
ENDBRANCH    7    6
ENDBRANCH    8    7
ENDBRANCH    9    8
ENDBRANCH   10    9
ENDBRANCH   11   10
ENDBRANCH   12   11
ENDBRANCH   13   12
ENDBRANCH   15   13
ENDBRANCH   19   18
BRANCH   23   24
ATOM     33  C24 UNL A   1      43.954  32.703  33.123  1.00  0.00    +0.000 C 
ATOM     34  F5  UNL A   1      43.749  31.629  33.901  1.00  0.00    +0.000 F 
ATOM     24  C19 UNL A   1      44.109  32.552  31.737  1.00  0.00    +0.000 C 
ATOM     25  C20 UNL A   1      44.316  33.710  30.970  1.00  0.00    +0.000 C 
ATOM     26  F1  UNL A   1      44.481  33.617  29.642  1.00  0.00    +0.000 F 
ATOM     27  C21 UNL A   1      44.382  34.964  31.569  1.00  0.00    +0.000 C 
ATOM     28  F2  UNL A   1      44.616  36.051  30.820  1.00  0.00    +0.000 F 
ATOM     29  C22 UNL A   1      44.212  35.090  32.939  1.00  0.00    +0.000 C 
ATOM     30  F3  UNL A   1      44.263  36.301  33.514  1.00  0.00    +0.000 F 
ATOM     31  C23 UNL A   1      43.993  33.962  33.716  1.00  0.00    +0.000 C 
ATOM     32  F4  UNL A   1      43.817  34.085  35.038  1.00  0.00    +0.000 F 
ENDBRANCH   23   24
BRANCH   40   41
ATOM     41  C30 UNL A   1      48.296  26.811  30.520  1.00  0.00    +0.000 C 
ATOM     42  C31 UNL A   1      49.362  27.163  29.679  1.00  0.00    +0.000 C 
ATOM     43  F6  UNL A   1      49.135  27.877  28.565  1.00  0.00    +0.000 F 
ATOM     44  C32 UNL A   1      50.659  26.742  29.954  1.00  0.00    +0.000 C 
ATOM     45  F7  UNL A   1      51.654  27.046  29.108  1.00  0.00    +0.000 F 
ATOM     46  C33 UNL A   1      50.921  25.993  31.092  1.00  0.00    +0.000 C 
ATOM     47  F8  UNL A   1      52.172  25.589  31.357  1.00  0.00    +0.000 F 
ATOM     48  C34 UNL A   1      49.886  25.654  31.950  1.00  0.00    +0.000 C 
ATOM     49  F9  UNL A   1      50.140  24.939  33.056  1.00  0.00    +0.000 F 
ATOM     50  C35 UNL A   1      48.583  26.049  31.662  1.00  0.00    +0.000 C 
ATOM     51  F10 UNL A   1      47.600  25.692  32.502  1.00  0.00    +0.000 F 
ENDBRANCH   40   41
BRANCH   55   56
ATOM     65  C44 UNL A   1      43.410  23.550  25.902  1.00  0.00    +0.000 C 
ATOM     66  F15 UNL A   1      43.916  24.588  25.220  1.00  0.00    +0.000 F 
ATOM     56  C39 UNL A   1      43.003  23.716  27.233  1.00  0.00    +0.000 C 
ATOM     57  C40 UNL A   1      42.475  22.601  27.898  1.00  0.00    +0.000 C 
ATOM     58  F11 UNL A   1      42.091  22.705  29.179  1.00  0.00    +0.000 F 
ATOM     59  C41 UNL A   1      42.385  21.362  27.267  1.00  0.00    +0.000 C 
ATOM     60  F12 UNL A   1      41.926  20.300  27.942  1.00  0.00    +0.000 F 
ATOM     61  C42 UNL A   1      42.791  21.223  25.948  1.00  0.00    +0.000 C 
ATOM     62  F13 UNL A   1      42.706  20.031  25.341  1.00  0.00    +0.000 F 
ATOM     63  C43 UNL A   1      43.293  22.318  25.262  1.00  0.00    +0.000 C 
ATOM     64  F14 UNL A   1      43.674  22.191  23.984  1.00  0.00    +0.000 F 
ENDBRANCH   55   56
TORSDOF 20
ENDMDL
MODEL 9
REMARK VINA RESULT:      -9.6     24.783     29.950
ROOT
ATOM     19  C15 UNL A   1      24.743  38.969  46.832  1.00  0.00    +0.000 C 
ATOM     20  C16 UNL A   1      23.957  40.007  47.584  1.00  0.00    +0.000 C 
ATOM     21  N3  UNL A   1      22.750  39.927  48.084  1.00  0.00    +0.000 N 
ATOM     22  C17 UNL A   1      22.514  41.148  48.702  1.00  0.00    +0.000 C 
ATOM     23  C18 UNL A   1      21.386  41.585  49.311  1.00  0.00    +0.000 C 
ATOM     35  C25 UNL A   1      20.176  40.811  49.432  1.00  0.00    +0.000 C 
ATOM     36  C26 UNL A   1      18.965  41.185  49.989  1.00  0.00    +0.000 C 
ATOM     37  C27 UNL A   1      18.093  40.094  49.914  1.00  0.00    +0.000 C 
ATOM     38  C28 UNL A   1      18.747  39.054  49.274  1.00  0.00    +0.000 C 
ATOM     39  N4  UNL A   1      20.025  39.506  48.989  1.00  0.00    +0.000 N 
ATOM     40  C29 UNL A   1      18.244  37.747  48.944  1.00  0.00    +0.000 C 
ATOM     52  C36 UNL A   1      18.951  36.783  48.303  1.00  0.00    +0.000 C 
ATOM     53  N5  UNL A   1      20.256  36.823  47.835  1.00  0.00    +0.000 N 
ATOM     54  C37 UNL A   1      20.487  35.643  47.312  1.00  0.00    +0.000 C 
ATOM     55  C38 UNL A   1      21.728  35.131  46.633  1.00  0.00    +0.000 C 
ATOM     67  C45 UNL A   1      22.788  35.950  46.494  1.00  0.00    +0.000 C 
ATOM     68  C46 UNL A   1      24.048  35.601  45.845  1.00  0.00    +0.000 C 
ATOM     69  C47 UNL A   1      24.883  36.649  45.920  1.00  0.00    +0.000 C 
ATOM     70  C48 UNL A   1      24.205  37.757  46.594  1.00  0.00    +0.000 C 
ATOM     71  N6  UNL A   1      22.966  37.251  46.899  1.00  0.00    +0.000 N 
ATOM     72  C49 UNL A   1      19.355  34.711  47.412  1.00  0.00    +0.000 C 
ATOM     73  C50 UNL A   1      18.431  35.470  47.983  1.00  0.00    +0.000 C 
ATOM     74  C51 UNL A   1      23.722  41.934  48.559  1.00  0.00    +0.000 C 
ATOM     75  C52 UNL A   1      24.623  41.296  47.826  1.00  0.00    +0.000 C 
ATOM    114  H21 UNL A   1      18.744  42.110  50.389  1.00  0.00    +0.000 H 
ATOM    115  H22 UNL A   1      17.127  40.068  50.277  1.00  0.00    +0.000 H 
ATOM    116  H23 UNL A   1      20.724  38.979  48.538  1.00  0.00    +0.000 H 
ATOM    117  H24 UNL A   1      24.261  34.694  45.401  1.00  0.00    +0.000 H 
ATOM    118  H25 UNL A   1      25.849  36.671  45.558  1.00  0.00    +0.000 H 
ATOM    119  H26 UNL A   1      22.271  37.770  47.364  1.00  0.00    +0.000 H 
ATOM    120  H27 UNL A   1      19.295  33.724  47.116  1.00  0.00    +0.000 H 
ATOM    121  H28 UNL A   1      17.465  35.164  48.176  1.00  0.00    +0.000 H 
ATOM    122  H29 UNL A   1      23.863  42.868  48.975  1.00  0.00    +0.000 H 
ATOM    123  H30 UNL A   1      25.550  41.619  47.509  1.00  0.00    +0.000 H 
ENDROOT
BRANCH   19   18
ATOM     76  C53 UNL A   1      26.379  40.229  45.420  1.00  0.00    +0.000 C 
ATOM     77  C54 UNL A   1      27.684  40.510  45.015  1.00  0.00    +0.000 C 
ATOM     15  C11 UNL A   1      28.761  39.879  45.645  1.00  0.00    +0.000 C 
ATOM    112  H19 UNL A   1      29.322  38.377  47.022  1.00  0.00    +0.000 H 
ATOM     16  C12 UNL A   1      28.529  38.876  46.589  1.00  0.00    +0.000 C 
ATOM     17  C13 UNL A   1      27.218  38.549  46.948  1.00  0.00    +0.000 C 
ATOM    113  H20 UNL A   1      27.046  37.791  47.626  1.00  0.00    +0.000 H 
ATOM     18  C14 UNL A   1      26.134  39.248  46.392  1.00  0.00    +0.000 C 
ATOM    124  H31 UNL A   1      25.590  40.746  45.002  1.00  0.00    +0.000 H 
ATOM    125  H32 UNL A   1      27.854  41.182  44.252  1.00  0.00    +0.000 H 
BRANCH   15   13
ATOM     13  C10 UNL A   1      30.160  40.235  45.318  1.00  0.00    +0.000 C 
ATOM     14  O2  UNL A   1      30.632  41.289  45.733  1.00  0.00    +0.000 O 
BRANCH   13   12
ATOM     12  N2  UNL A   1      30.923  39.402  44.538  1.00  0.00    +0.000 N 
ATOM    111  H18 UNL A   1      31.627  38.906  45.015  1.00  0.00    +0.000 H 
BRANCH   12   11
ATOM     11  C9  UNL A   1      30.842  39.146  43.109  1.00  0.00    +0.000 C 
ATOM    109  H16 UNL A   1      29.871  39.433  42.763  1.00  0.00    +0.000 H 
ATOM    110  H17 UNL A   1      31.613  39.715  42.633  1.00  0.00    +0.000 H 
BRANCH   11   10
ATOM     10  C8  UNL A   1      31.070  37.677  42.766  1.00  0.00    +0.000 C 
ATOM    107  H14 UNL A   1      30.664  37.498  41.793  1.00  0.00    +0.000 H 
ATOM    108  H15 UNL A   1      32.127  37.518  42.823  1.00  0.00    +0.000 H 
BRANCH   10    9
ATOM      9  C7  UNL A   1      30.436  36.678  43.735  1.00  0.00    +0.000 C 
ATOM    106  H13 UNL A   1      29.991  37.262  44.514  1.00  0.00    +0.000 H 
ATOM    105  H12 UNL A   1      31.205  36.018  44.081  1.00  0.00    +0.000 H 
BRANCH    9    8
ATOM    104  H11 UNL A   1      29.693  34.826  43.101  1.00  0.00    +0.000 H 
ATOM    103  H10 UNL A   1      29.046  36.233  42.197  1.00  0.00    +0.000 H 
ATOM      8  C6  UNL A   1      29.310  35.824  43.150  1.00  0.00    +0.000 C 
BRANCH    8    7
ATOM    101  H8  UNL A   1      28.320  35.621  45.021  1.00  0.00    +0.000 H 
ATOM    102  H9  UNL A   1      27.492  36.647  43.811  1.00  0.00    +0.000 H 
ATOM      7  C5  UNL A   1      28.033  35.742  43.997  1.00  0.00    +0.000 C 
BRANCH    7    6
ATOM     99  H6  UNL A   1      26.177  35.004  43.241  1.00  0.00    +0.000 H 
ATOM    100  H7  UNL A   1      27.569  33.978  42.904  1.00  0.00    +0.000 H 
ATOM      6  C4  UNL A   1      27.084  34.595  43.632  1.00  0.00    +0.000 C 
BRANCH    6    5
ATOM     98  H5  UNL A   1      25.818  33.658  45.004  1.00  0.00    +0.000 H 
ATOM      5  N1  UNL A   1      26.772  33.776  44.787  1.00  0.00    +0.000 N 
BRANCH    5    3
ATOM      3  C3  UNL A   1      27.674  33.151  45.606  1.00  0.00    +0.000 C 
ATOM      4  O1  UNL A   1      28.768  32.887  45.108  1.00  0.00    +0.000 O 
BRANCH    3    2
ATOM     97  H4  UNL A   1      28.144  32.393  47.522  1.00  0.00    +0.000 H 
ATOM      2  C2  UNL A   1      27.294  32.864  47.073  1.00  0.00    +0.000 C 
BRANCH    2    1
ATOM      1  C1  UNL A   1      26.053  31.960  47.047  1.00  0.00    +0.000 C 
ATOM     94  H1  UNL A   1      25.518  32.064  47.969  1.00  0.00    +0.000 H 
ATOM     95  H2  UNL A   1      26.356  30.942  46.924  1.00  0.00    +0.000 H 
ATOM     96  H3  UNL A   1      25.420  32.246  46.233  1.00  0.00    +0.000 H 
ENDBRANCH    2    1
BRANCH    2   78
ATOM    137  H44 UNL A   1      28.741  36.514  49.666  1.00  0.00    +0.000 H 
ATOM     78  C55 UNL A   1      27.076  34.079  47.992  1.00  0.00    +0.000 C 
ATOM     79  C56 UNL A   1      25.799  34.417  48.473  1.00  0.00    +0.000 C 
ATOM     80  C57 UNL A   1      25.596  35.456  49.387  1.00  0.00    +0.000 C 
ATOM     81  C58 UNL A   1      26.661  36.233  49.838  1.00  0.00    +0.000 C 
ATOM     89  C65 UNL A   1      27.938  35.947  49.351  1.00  0.00    +0.000 C 
ATOM     90  C66 UNL A   1      28.148  34.895  48.435  1.00  0.00    +0.000 C 
ATOM    126  H33 UNL A   1      24.983  33.879  48.140  1.00  0.00    +0.000 H 
ATOM    127  H34 UNL A   1      24.644  35.650  49.733  1.00  0.00    +0.000 H 
BRANCH   81   82
ATOM    129  H36 UNL A   1      25.891  36.888  51.639  1.00  0.00    +0.000 H 
ATOM     82  C59 UNL A   1      26.439  37.341  50.839  1.00  0.00    +0.000 C 
ATOM    128  H35 UNL A   1      27.398  37.727  51.113  1.00  0.00    +0.000 H 
BRANCH   82   83
ATOM    130  H37 UNL A   1      25.424  38.261  49.356  1.00  0.00    +0.000 H 
ATOM    131  H38 UNL A   1      23.934  37.793  51.563  1.00  0.00    +0.000 H 
ATOM    132  H39 UNL A   1      23.470  39.016  50.441  1.00  0.00    +0.000 H 
ATOM    133  H40 UNL A   1      24.900  39.315  53.067  1.00  0.00    +0.000 H 
ATOM    134  H41 UNL A   1      23.594  40.263  52.474  1.00  0.00    +0.000 H 
ATOM    135  H42 UNL A   1      26.159  41.129  52.319  1.00  0.00    +0.000 H 
ATOM    136  H43 UNL A   1      25.048  41.586  51.115  1.00  0.00    +0.000 H 
ATOM     83  C60 UNL A   1      25.577  38.523  50.382  1.00  0.00    +0.000 C 
ATOM     84  C61 UNL A   1      24.245  38.712  51.113  1.00  0.00    +0.000 C 
ATOM     85  C62 UNL A   1      24.497  39.767  52.185  1.00  0.00    +0.000 C 
ATOM     86  C63 UNL A   1      25.502  40.732  51.574  1.00  0.00    +0.000 C 
ATOM     87  C64 UNL A   1      26.250  39.858  50.601  1.00  0.00    +0.000 C 
ATOM     88  O3  UNL A   1      27.282  40.203  50.036  1.00  0.00    +0.000 O 
ENDBRANCH   82   83
ENDBRANCH   81   82
BRANCH   90   91
ATOM     91  N7  UNL A   1      29.514  34.699  47.994  1.00  0.00    +0.000 N 
ATOM     92  O4  UNL A   1      30.243  33.920  48.573  1.00  0.00    +0.000 O 
ATOM     93  O5  UNL A   1      30.055  35.429  46.964  1.00  0.00    +0.000 O 
ENDBRANCH   90   91
ENDBRANCH    2   78
ENDBRANCH    3    2
ENDBRANCH    5    3
ENDBRANCH    6    5
ENDBRANCH    7    6
ENDBRANCH    8    7
ENDBRANCH    9    8
ENDBRANCH   10    9
ENDBRANCH   11   10
ENDBRANCH   12   11
ENDBRANCH   13   12
ENDBRANCH   15   13
ENDBRANCH   19   18
BRANCH   23   24
ATOM     33  C24 UNL A   1      21.728  43.187  51.229  1.00  0.00    +0.000 C 
ATOM     34  F5  UNL A   1      22.093  42.158  52.009  1.00  0.00    +0.000 F 
ATOM     24  C19 UNL A   1      21.394  42.971  49.884  1.00  0.00    +0.000 C 
ATOM     25  C20 UNL A   1      21.014  44.082  49.115  1.00  0.00    +0.000 C 
ATOM     26  F1  UNL A   1      20.696  43.929  47.821  1.00  0.00    +0.000 F 
ATOM     27  C21 UNL A   1      20.987  45.360  49.667  1.00  0.00    +0.000 C 
ATOM     28  F2  UNL A   1      20.656  46.410  48.902  1.00  0.00    +0.000 F 
ATOM     29  C22 UNL A   1      21.308  45.548  51.002  1.00  0.00    +0.000 C 
ATOM     30  F3  UNL A   1      21.269  46.777  51.535  1.00  0.00    +0.000 F 
ATOM     31  C23 UNL A   1      21.673  44.463  51.785  1.00  0.00    +0.000 C 
ATOM     32  F4  UNL A   1      21.972  44.643  53.079  1.00  0.00    +0.000 F 
ENDBRANCH   23   24
BRANCH   40   41
ATOM     41  C30 UNL A   1      16.828  37.421  49.318  1.00  0.00    +0.000 C 
ATOM     42  C31 UNL A   1      16.428  37.318  50.658  1.00  0.00    +0.000 C 
ATOM     43  F6  UNL A   1      17.325  37.472  51.644  1.00  0.00    +0.000 F 
ATOM     44  C32 UNL A   1      15.112  37.009  50.989  1.00  0.00    +0.000 C 
ATOM     45  F7  UNL A   1      14.763  36.863  52.275  1.00  0.00    +0.000 F 
ATOM     46  C33 UNL A   1      14.165  36.833  49.990  1.00  0.00    +0.000 C 
ATOM     47  F8  UNL A   1      12.898  36.537  50.311  1.00  0.00    +0.000 F 
ATOM     48  C34 UNL A   1      14.535  36.954  48.659  1.00  0.00    +0.000 C 
ATOM     49  F9  UNL A   1      13.618  36.795  47.693  1.00  0.00    +0.000 F 
ATOM     50  C35 UNL A   1      15.856  37.235  48.324  1.00  0.00    +0.000 C 
ATOM     51  F10 UNL A   1      16.187  37.329  47.027  1.00  0.00    +0.000 F 
ENDBRANCH   40   41
BRANCH   55   56
ATOM     65  C44 UNL A   1      22.363  32.703  46.839  1.00  0.00    +0.000 C 
ATOM     66  F15 UNL A   1      22.908  32.952  48.039  1.00  0.00    +0.000 F 
ATOM     56  C39 UNL A   1      21.782  33.745  46.102  1.00  0.00    +0.000 C 
ATOM     57  C40 UNL A   1      21.232  33.431  44.852  1.00  0.00    +0.000 C 
ATOM     58  F11 UNL A   1      20.646  34.389  44.119  1.00  0.00    +0.000 F 
ATOM     59  C41 UNL A   1      21.236  32.124  44.370  1.00  0.00    +0.000 C 
ATOM     60  F12 UNL A   1      20.656  31.842  43.195  1.00  0.00    +0.000 F 
ATOM     61  C42 UNL A   1      21.820  31.110  45.116  1.00  0.00    +0.000 C 
ATOM     62  F13 UNL A   1      21.824  29.852  44.654  1.00  0.00    +0.000 F 
ATOM     63  C43 UNL A   1      22.393  31.401  46.344  1.00  0.00    +0.000 C 
ATOM     64  F14 UNL A   1      22.970  30.428  47.062  1.00  0.00    +0.000 F 
ENDBRANCH   55   56
TORSDOF 20
ENDMDL
MODEL 10
REMARK VINA RESULT:      -9.6      3.400      8.210
ROOT
ATOM     19  C15 UNL A   1      41.734  26.595  27.676  1.00  0.00    +0.000 C 
ATOM     20  C16 UNL A   1      43.165  26.874  27.308  1.00  0.00    +0.000 C 
ATOM     21  N3  UNL A   1      43.908  27.910  27.607  1.00  0.00    +0.000 N 
ATOM     22  C17 UNL A   1      45.155  27.654  27.050  1.00  0.00    +0.000 C 
ATOM     23  C18 UNL A   1      46.250  28.450  27.029  1.00  0.00    +0.000 C 
ATOM     35  C25 UNL A   1      46.313  29.764  27.616  1.00  0.00    +0.000 C 
ATOM     36  C26 UNL A   1      47.363  30.667  27.604  1.00  0.00    +0.000 C 
ATOM     37  C27 UNL A   1      46.978  31.797  28.333  1.00  0.00    +0.000 C 
ATOM     38  C28 UNL A   1      45.674  31.616  28.764  1.00  0.00    +0.000 C 
ATOM     39  N4  UNL A   1      45.280  30.363  28.322  1.00  0.00    +0.000 N 
ATOM     40  C29 UNL A   1      44.847  32.519  29.521  1.00  0.00    +0.000 C 
ATOM     52  C36 UNL A   1      43.568  32.269  29.896  1.00  0.00    +0.000 C 
ATOM     53  N5  UNL A   1      42.791  31.146  29.655  1.00  0.00    +0.000 N 
ATOM     54  C37 UNL A   1      41.641  31.373  30.241  1.00  0.00    +0.000 C 
ATOM     55  C38 UNL A   1      40.410  30.508  30.283  1.00  0.00    +0.000 C 
ATOM     67  C45 UNL A   1      40.413  29.326  29.638  1.00  0.00    +0.000 C 
ATOM     68  C46 UNL A   1      39.293  28.392  29.577  1.00  0.00    +0.000 C 
ATOM     69  C47 UNL A   1      39.665  27.308  28.878  1.00  0.00    +0.000 C 
ATOM     70  C48 UNL A   1      41.042  27.484  28.415  1.00  0.00    +0.000 C 
ATOM     71  N6  UNL A   1      41.405  28.711  28.914  1.00  0.00    +0.000 N 
ATOM     72  C49 UNL A   1      41.567  32.662  30.941  1.00  0.00    +0.000 C 
ATOM     73  C50 UNL A   1      42.751  33.187  30.663  1.00  0.00    +0.000 C 
ATOM     74  C51 UNL A   1      45.084  26.344  26.440  1.00  0.00    +0.000 C 
ATOM     75  C52 UNL A   1      43.859  25.843  26.521  1.00  0.00    +0.000 C 
ATOM    114  H21 UNL A   1      48.272  30.529  27.136  1.00  0.00    +0.000 H 
ATOM    115  H22 UNL A   1      47.567  32.624  28.519  1.00  0.00    +0.000 H 
ATOM    116  H23 UNL A   1      44.398  29.958  28.485  1.00  0.00    +0.000 H 
ATOM    117  H24 UNL A   1      38.365  28.542  30.002  1.00  0.00    +0.000 H 
ATOM    118  H25 UNL A   1      39.074  26.482  28.696  1.00  0.00    +0.000 H 
ATOM    119  H26 UNL A   1      42.292  29.111  28.766  1.00  0.00    +0.000 H 
ATOM    120  H27 UNL A   1      40.796  33.056  31.504  1.00  0.00    +0.000 H 
ATOM    121  H28 UNL A   1      43.053  34.129  30.955  1.00  0.00    +0.000 H 
ATOM    122  H29 UNL A   1      45.884  25.862  25.999  1.00  0.00    +0.000 H 
ATOM    123  H30 UNL A   1      43.490  24.962  26.133  1.00  0.00    +0.000 H 
ENDROOT
BRANCH   19   18
ATOM     76  C53 UNL A   1      41.402  24.131  27.948  1.00  0.00    +0.000 C 
ATOM     77  C54 UNL A   1      40.783  22.933  27.591  1.00  0.00    +0.000 C 
ATOM     15  C11 UNL A   1      39.776  22.930  26.621  1.00  0.00    +0.000 C 
ATOM    112  H19 UNL A   1      38.766  24.090  25.172  1.00  0.00    +0.000 H 
ATOM     16  C12 UNL A   1      39.477  24.101  25.920  1.00  0.00    +0.000 C 
ATOM     17  C13 UNL A   1      40.143  25.288  26.235  1.00  0.00    +0.000 C 
ATOM    113  H20 UNL A   1      39.941  26.147  25.699  1.00  0.00    +0.000 H 
ATOM     18  C14 UNL A   1      41.086  25.320  27.275  1.00  0.00    +0.000 C 
ATOM    124  H31 UNL A   1      42.095  24.142  28.712  1.00  0.00    +0.000 H 
ATOM    125  H32 UNL A   1      41.069  22.050  28.041  1.00  0.00    +0.000 H 
BRANCH   15   13
ATOM     13  C10 UNL A   1      39.023  21.697  26.297  1.00  0.00    +0.000 C 
ATOM     14  O2  UNL A   1      39.587  20.609  26.351  1.00  0.00    +0.000 O 
BRANCH   13   12
ATOM     12  N2  UNL A   1      37.706  21.770  25.917  1.00  0.00    +0.000 N 
ATOM    111  H18 UNL A   1      37.205  22.537  26.279  1.00  0.00    +0.000 H 
BRANCH   12   11
ATOM     11  C9  UNL A   1      36.942  20.878  25.061  1.00  0.00    +0.000 C 
ATOM    109  H16 UNL A   1      37.575  20.538  24.267  1.00  0.00    +0.000 H 
ATOM    110  H17 UNL A   1      36.597  20.064  25.664  1.00  0.00    +0.000 H 
BRANCH   11   10
ATOM     10  C8  UNL A   1      35.718  21.557  24.454  1.00  0.00    +0.000 C 
ATOM    107  H14 UNL A   1      35.895  22.612  24.447  1.00  0.00    +0.000 H 
ATOM    108  H15 UNL A   1      35.599  21.138  23.477  1.00  0.00    +0.000 H 
BRANCH   10    9
ATOM      9  C7  UNL A   1      34.402  21.303  25.191  1.00  0.00    +0.000 C 
ATOM    106  H13 UNL A   1      33.955  22.263  25.339  1.00  0.00    +0.000 H 
ATOM    105  H12 UNL A   1      34.627  20.790  26.103  1.00  0.00    +0.000 H 
BRANCH    9    8
ATOM    104  H11 UNL A   1      32.846  19.902  25.159  1.00  0.00    +0.000 H 
ATOM    103  H10 UNL A   1      33.900  19.871  23.709  1.00  0.00    +0.000 H 
ATOM      8  C6  UNL A   1      33.374  20.471  24.422  1.00  0.00    +0.000 C 
BRANCH    8    7
ATOM    101  H8  UNL A   1      31.667  20.580  23.159  1.00  0.00    +0.000 H 
ATOM    102  H9  UNL A   1      31.796  21.860  24.404  1.00  0.00    +0.000 H 
ATOM      7  C5  UNL A   1      32.305  21.272  23.667  1.00  0.00    +0.000 C 
BRANCH    7    6
ATOM     99  H6  UNL A   1      33.898  22.102  22.512  1.00  0.00    +0.000 H 
ATOM    100  H7  UNL A   1      32.330  22.101  21.708  1.00  0.00    +0.000 H 
ATOM      6  C4  UNL A   1      32.848  22.264  22.631  1.00  0.00    +0.000 C 
BRANCH    6    5
ATOM     98  H5  UNL A   1      33.365  24.082  23.517  1.00  0.00    +0.000 H 
ATOM      5  N1  UNL A   1      32.626  23.636  23.042  1.00  0.00    +0.000 N 
BRANCH    5    3
ATOM      3  C3  UNL A   1      31.490  24.372  22.834  1.00  0.00    +0.000 C 
ATOM      4  O1  UNL A   1      30.430  23.842  23.170  1.00  0.00    +0.000 O 
BRANCH    3    2
ATOM     97  H4  UNL A   1      30.630  26.056  21.893  1.00  0.00    +0.000 H 
ATOM      2  C2  UNL A   1      31.604  25.795  22.251  1.00  0.00    +0.000 C 
BRANCH    2    1
ATOM      1  C1  UNL A   1      32.659  25.741  21.137  1.00  0.00    +0.000 C 
ATOM     94  H1  UNL A   1      33.103  24.767  21.114  1.00  0.00    +0.000 H 
ATOM     95  H2  UNL A   1      33.415  26.473  21.326  1.00  0.00    +0.000 H 
ATOM     96  H3  UNL A   1      32.194  25.943  20.195  1.00  0.00    +0.000 H 
ENDBRANCH    2    1
BRANCH    2   78
ATOM    137  H44 UNL A   1      30.472  28.829  25.665  1.00  0.00    +0.000 H 
ATOM     78  C55 UNL A   1      31.901  26.936  23.240  1.00  0.00    +0.000 C 
ATOM     79  C56 UNL A   1      33.136  27.607  23.239  1.00  0.00    +0.000 C 
ATOM     80  C57 UNL A   1      33.387  28.710  24.061  1.00  0.00    +0.000 C 
ATOM     81  C58 UNL A   1      32.423  29.175  24.954  1.00  0.00    +0.000 C 
ATOM     89  C65 UNL A   1      31.198  28.506  25.006  1.00  0.00    +0.000 C 
ATOM     90  C66 UNL A   1      30.938  27.399  24.173  1.00  0.00    +0.000 C 
ATOM    126  H33 UNL A   1      33.883  27.275  22.609  1.00  0.00    +0.000 H 
ATOM    127  H34 UNL A   1      34.300  29.188  24.007  1.00  0.00    +0.000 H 
BRANCH   81   82
ATOM    129  H36 UNL A   1      33.470  30.917  25.324  1.00  0.00    +0.000 H 
ATOM     82  C59 UNL A   1      32.694  30.377  25.826  1.00  0.00    +0.000 C 
ATOM    128  H35 UNL A   1      31.773  30.911  25.935  1.00  0.00    +0.000 H 
BRANCH   82   83
ATOM    130  H37 UNL A   1      32.324  30.021  27.778  1.00  0.00    +0.000 H 
ATOM    131  H38 UNL A   1      33.884  28.148  26.610  1.00  0.00    +0.000 H 
ATOM    132  H39 UNL A   1      33.903  28.355  28.321  1.00  0.00    +0.000 H 
ATOM    133  H40 UNL A   1      35.859  29.374  26.279  1.00  0.00    +0.000 H 
ATOM    134  H41 UNL A   1      36.215  28.628  27.786  1.00  0.00    +0.000 H 
ATOM    135  H42 UNL A   1      36.296  31.321  27.484  1.00  0.00    +0.000 H 
ATOM    136  H43 UNL A   1      35.849  30.661  28.987  1.00  0.00    +0.000 H 
ATOM     83  C60 UNL A   1      33.240  30.104  27.231  1.00  0.00    +0.000 C 
ATOM     84  C61 UNL A   1      34.099  28.847  27.391  1.00  0.00    +0.000 C 
ATOM     85  C62 UNL A   1      35.549  29.310  27.301  1.00  0.00    +0.000 C 
ATOM     86  C63 UNL A   1      35.574  30.685  27.953  1.00  0.00    +0.000 C 
ATOM     87  C64 UNL A   1      34.174  31.188  27.718  1.00  0.00    +0.000 C 
ATOM     88  O3  UNL A   1      33.828  32.347  27.918  1.00  0.00    +0.000 O 
ENDBRANCH   82   83
ENDBRANCH   81   82
BRANCH   90   91
ATOM     91  N7  UNL A   1      29.636  26.783  24.323  1.00  0.00    +0.000 N 
ATOM     92  O4  UNL A   1      28.729  27.065  23.567  1.00  0.00    +0.000 O 
ATOM     93  O5  UNL A   1      29.355  25.922  25.356  1.00  0.00    +0.000 O 
ENDBRANCH   90   91
ENDBRANCH    2   78
ENDBRANCH    3    2
ENDBRANCH    5    3
ENDBRANCH    6    5
ENDBRANCH    7    6
ENDBRANCH    8    7
ENDBRANCH    9    8
ENDBRANCH   10    9
ENDBRANCH   11   10
ENDBRANCH   12   11
ENDBRANCH   13   12
ENDBRANCH   15   13
ENDBRANCH   19   18
BRANCH   23   24
ATOM     33  C24 UNL A   1      47.569  27.959  24.935  1.00  0.00    +0.000 C 
ATOM     34  F5  UNL A   1      46.583  28.496  24.201  1.00  0.00    +0.000 F 
ATOM     24  C19 UNL A   1      47.475  27.932  26.334  1.00  0.00    +0.000 C 
ATOM     25  C20 UNL A   1      48.533  27.353  27.053  1.00  0.00    +0.000 C 
ATOM     26  F1  UNL A   1      48.495  27.314  28.393  1.00  0.00    +0.000 F 
ATOM     27  C21 UNL A   1      49.648  26.840  26.397  1.00  0.00    +0.000 C 
ATOM     28  F2  UNL A   1      50.662  26.325  27.107  1.00  0.00    +0.000 F 
ATOM     29  C22 UNL A   1      49.713  26.864  25.012  1.00  0.00    +0.000 C 
ATOM     30  F3  UNL A   1      50.782  26.357  24.381  1.00  0.00    +0.000 F 
ATOM     31  C23 UNL A   1      48.674  27.418  24.281  1.00  0.00    +0.000 C 
ATOM     32  F4  UNL A   1      48.731  27.432  22.942  1.00  0.00    +0.000 F 
ENDBRANCH   23   24
BRANCH   40   41
ATOM     41  C30 UNL A   1      45.428  33.846  29.912  1.00  0.00    +0.000 C 
ATOM     42  C31 UNL A   1      46.103  34.022  31.128  1.00  0.00    +0.000 C 
ATOM     43  F6  UNL A   1      46.211  33.001  31.994  1.00  0.00    +0.000 F 
ATOM     44  C32 UNL A   1      46.631  35.260  31.481  1.00  0.00    +0.000 C 
ATOM     45  F7  UNL A   1      47.227  35.418  32.672  1.00  0.00    +0.000 F 
ATOM     46  C33 UNL A   1      46.524  36.335  30.611  1.00  0.00    +0.000 C 
ATOM     47  F8  UNL A   1      47.035  37.527  30.952  1.00  0.00    +0.000 F 
ATOM     48  C34 UNL A   1      45.881  36.178  29.394  1.00  0.00    +0.000 C 
ATOM     49  F9  UNL A   1      45.787  37.214  28.547  1.00  0.00    +0.000 F 
ATOM     50  C35 UNL A   1      45.328  34.948  29.050  1.00  0.00    +0.000 C 
ATOM     51  F10 UNL A   1      44.696  34.831  27.872  1.00  0.00    +0.000 F 
ENDBRANCH   40   41
BRANCH   55   56
ATOM     65  C44 UNL A   1      38.216  31.742  30.378  1.00  0.00    +0.000 C 
ATOM     66  F15 UNL A   1      38.380  32.122  29.103  1.00  0.00    +0.000 F 
ATOM     56  C39 UNL A   1      39.194  30.958  31.008  1.00  0.00    +0.000 C 
ATOM     57  C40 UNL A   1      38.976  30.594  32.344  1.00  0.00    +0.000 C 
ATOM     58  F11 UNL A   1      39.872  29.828  32.983  1.00  0.00    +0.000 F 
ATOM     59  C41 UNL A   1      37.815  30.972  33.014  1.00  0.00    +0.000 C 
ATOM     60  F12 UNL A   1      37.607  30.566  34.273  1.00  0.00    +0.000 F 
ATOM     61  C42 UNL A   1      36.863  31.751  32.371  1.00  0.00    +0.000 C 
ATOM     62  F13 UNL A   1      35.745  32.113  33.015  1.00  0.00    +0.000 F 
ATOM     63  C43 UNL A   1      37.068  32.145  31.057  1.00  0.00    +0.000 C 
ATOM     64  F14 UNL A   1      36.158  32.907  30.437  1.00  0.00    +0.000 F 
ENDBRANCH   55   56
TORSDOF 20
ENDMDL
