MODEL 1
REMARK VINA RESULT:      -9.2      0.000      0.000
ROOT
ATOM     19  C15 UNL A   1      25.675  38.268  48.768  1.00  0.00    +0.000 C 
ATOM     20  C16 UNL A   1      26.953  39.002  48.473  1.00  0.00    +0.000 C 
ATOM     21  N3  UNL A   1      27.901  38.702  47.619  1.00  0.00    +0.000 N 
ATOM     22  C17 UNL A   1      28.839  39.720  47.722  1.00  0.00    +0.000 C 
ATOM     23  C18 UNL A   1      30.031  39.838  47.089  1.00  0.00    +0.000 C 
ATOM     35  C25 UNL A   1      30.553  38.881  46.149  1.00  0.00    +0.000 C 
ATOM     36  C26 UNL A   1      31.771  38.891  45.491  1.00  0.00    +0.000 C 
ATOM     37  C27 UNL A   1      31.826  37.772  44.653  1.00  0.00    +0.000 C 
ATOM     38  C28 UNL A   1      30.659  37.044  44.818  1.00  0.00    +0.000 C 
ATOM     39  N4  UNL A   1      29.885  37.739  45.733  1.00  0.00    +0.000 N 
ATOM     40  C29 UNL A   1      30.278  35.808  44.189  1.00  0.00    +0.000 C 
ATOM     52  C36 UNL A   1      29.113  35.151  44.411  1.00  0.00    +0.000 C 
ATOM     53  N5  UNL A   1      28.064  35.496  45.251  1.00  0.00    +0.000 N 
ATOM     54  C37 UNL A   1      27.159  34.561  45.099  1.00  0.00    +0.000 C 
ATOM     55  C38 UNL A   1      25.826  34.407  45.780  1.00  0.00    +0.000 C 
ATOM     67  C45 UNL A   1      25.451  35.313  46.702  1.00  0.00    +0.000 C 
ATOM     68  C46 UNL A   1      24.201  35.284  47.456  1.00  0.00    +0.000 C 
ATOM     69  C47 UNL A   1      24.151  36.355  48.264  1.00  0.00    +0.000 C 
ATOM     70  C48 UNL A   1      25.382  37.133  48.104  1.00  0.00    +0.000 C 
ATOM     71  N6  UNL A   1      26.093  36.439  47.157  1.00  0.00    +0.000 N 
ATOM     72  C49 UNL A   1      27.526  33.525  44.122  1.00  0.00    +0.000 C 
ATOM     73  C50 UNL A   1      28.742  33.909  43.765  1.00  0.00    +0.000 C 
ATOM     74  C51 UNL A   1      28.327  40.672  48.685  1.00  0.00    +0.000 C 
ATOM     75  C52 UNL A   1      27.190  40.248  49.219  1.00  0.00    +0.000 C 
ATOM    112  H21 UNL A   1      32.511  39.602  45.601  1.00  0.00    +0.000 H 
ATOM    113  H22 UNL A   1      32.605  37.530  44.020  1.00  0.00    +0.000 H 
ATOM    114  H23 UNL A   1      28.992  37.462  46.042  1.00  0.00    +0.000 H 
ATOM    115  H24 UNL A   1      23.473  34.557  47.381  1.00  0.00    +0.000 H 
ATOM    116  H25 UNL A   1      23.371  36.593  48.895  1.00  0.00    +0.000 H 
ATOM    117  H26 UNL A   1      26.979  36.720  46.834  1.00  0.00    +0.000 H 
ATOM    118  H27 UNL A   1      26.978  32.712  43.799  1.00  0.00    +0.000 H 
ATOM    119  H28 UNL A   1      29.348  33.390  43.111  1.00  0.00    +0.000 H 
ATOM    120  H29 UNL A   1      28.786  41.565  48.923  1.00  0.00    +0.000 H 
ATOM    121  H30 UNL A   1      26.621  40.677  49.964  1.00  0.00    +0.000 H 
ENDROOT
BRANCH   19   18
ATOM     76  C53 UNL A   1      23.859  39.873  49.394  1.00  0.00    +0.000 C 
ATOM     77  C54 UNL A   1      22.930  40.372  50.305  1.00  0.00    +0.000 C 
ATOM    110  H19 UNL A   1      23.546  38.297  52.868  1.00  0.00    +0.000 H 
ATOM     15  C11 UNL A   1      22.772  39.757  51.551  1.00  0.00    +0.000 C 
ATOM     16  C12 UNL A   1      23.631  38.722  51.930  1.00  0.00    +0.000 C 
ATOM     17  C13 UNL A   1      24.603  38.260  51.040  1.00  0.00    +0.000 C 
ATOM    111  H20 UNL A   1      25.251  37.512  51.330  1.00  0.00    +0.000 H 
ATOM     18  C14 UNL A   1      24.703  38.811  49.751  1.00  0.00    +0.000 C 
ATOM    122  H31 UNL A   1      23.926  40.287  48.451  1.00  0.00    +0.000 H 
ATOM    123  H32 UNL A   1      22.357  41.196  50.060  1.00  0.00    +0.000 H 
BRANCH   15   13
ATOM     13  C10 UNL A   1      21.725  40.194  52.503  1.00  0.00    +0.000 C 
ATOM     14  O2  UNL A   1      21.988  41.052  53.340  1.00  0.00    +0.000 O 
BRANCH   13   12
ATOM     12  N2  UNL A   1      20.476  39.628  52.467  1.00  0.00    +0.000 N 
ATOM    109  H18 UNL A   1      19.813  40.107  51.919  1.00  0.00    +0.000 H 
BRANCH   12   11
ATOM     11  C9  UNL A   1      19.988  38.425  53.121  1.00  0.00    +0.000 C 
ATOM    108  H17 UNL A   1      18.978  38.606  53.423  1.00  0.00    +0.000 H 
ATOM    107  H16 UNL A   1      20.618  38.211  53.959  1.00  0.00    +0.000 H 
BRANCH   11   10
ATOM    105  H14 UNL A   1      20.972  36.805  52.176  1.00  0.00    +0.000 H 
ATOM     10  C8  UNL A   1      19.984  37.214  52.190  1.00  0.00    +0.000 C 
ATOM    106  H15 UNL A   1      19.248  36.543  52.582  1.00  0.00    +0.000 H 
BRANCH   10    9
ATOM      9  C7  UNL A   1      19.569  37.502  50.746  1.00  0.00    +0.000 C 
ATOM    103  H12 UNL A   1      18.602  37.073  50.588  1.00  0.00    +0.000 H 
ATOM    104  H13 UNL A   1      19.589  38.567  50.639  1.00  0.00    +0.000 H 
BRANCH    9    8
ATOM    101  H10 UNL A   1      21.402  36.613  50.159  1.00  0.00    +0.000 H 
ATOM    102  H11 UNL A   1      19.968  36.174  49.177  1.00  0.00    +0.000 H 
ATOM      8  C6  UNL A   1      20.510  36.951  49.674  1.00  0.00    +0.000 C 
BRANCH    8    7
ATOM     99  H8  UNL A   1      21.332  38.810  49.052  1.00  0.00    +0.000 H 
ATOM    100  H9  UNL A   1      21.613  37.428  47.951  1.00  0.00    +0.000 H 
ATOM      7  C5  UNL A   1      20.918  37.945  48.577  1.00  0.00    +0.000 C 
BRANCH    7    6
ATOM     97  H6  UNL A   1      18.844  38.213  48.143  1.00  0.00    +0.000 H 
ATOM     98  H7  UNL A   1      19.902  39.453  47.474  1.00  0.00    +0.000 H 
ATOM      6  C4  UNL A   1      19.778  38.407  47.659  1.00  0.00    +0.000 C 
BRANCH    6    5
ATOM      5  N1  UNL A   1      19.803  37.714  46.385  1.00  0.00    +0.000 N 
ATOM     96  H5  UNL A   1      20.046  38.237  45.587  1.00  0.00    +0.000 H 
BRANCH    5    3
ATOM      3  C3  UNL A   1      19.512  36.385  46.209  1.00  0.00    +0.000 C 
ATOM      4  O1  UNL A   1      18.381  36.026  46.535  1.00  0.00    +0.000 O 
BRANCH    3    2
ATOM      2  C2  UNL A   1      20.579  35.457  45.597  1.00  0.00    +0.000 C 
ATOM     95  H4  UNL A   1      21.367  35.372  46.318  1.00  0.00    +0.000 H 
BRANCH    2    1
ATOM      1  C1  UNL A   1      21.049  36.102  44.287  1.00  0.00    +0.000 C 
ATOM     92  H1  UNL A   1      21.775  36.857  44.502  1.00  0.00    +0.000 H 
ATOM     93  H2  UNL A   1      20.212  36.544  43.788  1.00  0.00    +0.000 H 
ATOM     94  H3  UNL A   1      21.486  35.355  43.658  1.00  0.00    +0.000 H 
ENDBRANCH    2    1
BRANCH    2   78
ATOM    137  H46 UNL A   1      20.203  30.951  46.862  1.00  0.00    +0.000 H 
ATOM     78  C55 UNL A   1      20.169  33.989  45.380  1.00  0.00    +0.000 C 
ATOM     79  C56 UNL A   1      19.619  33.554  44.159  1.00  0.00    +0.000 C 
ATOM     80  C57 UNL A   1      19.294  32.216  43.921  1.00  0.00    +0.000 C 
ATOM     81  C58 UNL A   1      19.488  31.251  44.904  1.00  0.00    +0.000 C 
ATOM     89  C65 UNL A   1      20.029  31.654  46.128  1.00  0.00    +0.000 C 
ATOM     90  C66 UNL A   1      20.341  33.002  46.375  1.00  0.00    +0.000 C 
ATOM     91 Br1  UNL A   1      20.928  33.388  48.147  1.00  0.00    +0.000 Br
ATOM    124  H33 UNL A   1      19.450  34.248  43.414  1.00  0.00    +0.000 H 
ATOM    125  H34 UNL A   1      18.904  31.941  43.007  1.00  0.00    +0.000 H 
BRANCH   81   82
ATOM     82  C59 UNL A   1      19.091  29.816  44.661  1.00  0.00    +0.000 C 
ATOM    126  H35 UNL A   1      18.909  29.360  45.611  1.00  0.00    +0.000 H 
ATOM    127  H36 UNL A   1      19.901  29.377  44.116  1.00  0.00    +0.000 H 
BRANCH   82   83
ATOM    129  H38 UNL A   1      18.193  27.481  43.750  1.00  0.00    +0.000 H 
ATOM    130  H39 UNL A   1      18.092  28.177  42.177  1.00  0.00    +0.000 H 
ATOM    131  H40 UNL A   1      15.933  27.170  43.869  1.00  0.00    +0.000 H 
ATOM    132  H41 UNL A   1      15.847  27.570  42.198  1.00  0.00    +0.000 H 
ATOM    133  H42 UNL A   1      14.563  29.070  44.001  1.00  0.00    +0.000 H 
ATOM    134  H43 UNL A   1      15.286  29.857  42.675  1.00  0.00    +0.000 H 
ATOM    135  H44 UNL A   1      16.443  29.469  45.473  1.00  0.00    +0.000 H 
ATOM     83  C60 UNL A   1      17.841  29.607  43.790  1.00  0.00    +0.000 C 
ATOM     84  C61 UNL A   1      17.679  28.213  43.163  1.00  0.00    +0.000 C 
ATOM     85  C62 UNL A   1      16.174  27.926  43.152  1.00  0.00    +0.000 C 
ATOM     86  C63 UNL A   1      15.505  29.240  43.522  1.00  0.00    +0.000 C 
ATOM     87  C64 UNL A   1      16.501  29.870  44.483  1.00  0.00    +0.000 C 
ATOM    128  H37 UNL A   1      18.047  30.342  43.041  1.00  0.00    +0.000 H 
BRANCH   87   88
ATOM    136  H45 UNL A   1      17.107  31.738  44.528  1.00  0.00    +0.000 H 
ATOM     88  O3  UNL A   1      16.272  31.258  44.641  1.00  0.00    +0.000 O 
ENDBRANCH   87   88
ENDBRANCH   82   83
ENDBRANCH   81   82
ENDBRANCH    2   78
ENDBRANCH    3    2
ENDBRANCH    5    3
ENDBRANCH    6    5
ENDBRANCH    7    6
ENDBRANCH    8    7
ENDBRANCH    9    8
ENDBRANCH   10    9
ENDBRANCH   11   10
ENDBRANCH   12   11
ENDBRANCH   13   12
ENDBRANCH   15   13
ENDBRANCH   19   18
BRANCH   23   24
ATOM     33  C24 UNL A   1      31.903  40.967  48.349  1.00  0.00    +0.000 C 
ATOM     34  F5  UNL A   1      32.188  39.801  48.949  1.00  0.00    +0.000 F 
ATOM     24  C19 UNL A   1      30.869  41.042  47.403  1.00  0.00    +0.000 C 
ATOM     25  C20 UNL A   1      30.611  42.287  46.810  1.00  0.00    +0.000 C 
ATOM     26  F1  UNL A   1      29.640  42.407  45.893  1.00  0.00    +0.000 F 
ATOM     27  C21 UNL A   1      31.368  43.408  47.139  1.00  0.00    +0.000 C 
ATOM     28  F2  UNL A   1      31.125  44.580  46.535  1.00  0.00    +0.000 F 
ATOM     29  C22 UNL A   1      32.377  43.314  48.086  1.00  0.00    +0.000 C 
ATOM     30  F3  UNL A   1      33.097  44.396  48.411  1.00  0.00    +0.000 F 
ATOM     31  C23 UNL A   1      32.642  42.096  48.694  1.00  0.00    +0.000 C 
ATOM     32  F4  UNL A   1      33.609  42.005  49.617  1.00  0.00    +0.000 F 
ENDBRANCH   23   24
BRANCH   40   41
ATOM     41  C30 UNL A   1      31.242  35.180  43.227  1.00  0.00    +0.000 C 
ATOM     42  C31 UNL A   1      31.323  35.599  41.891  1.00  0.00    +0.000 C 
ATOM     43  F6  UNL A   1      30.501  36.557  41.434  1.00  0.00    +0.000 F 
ATOM     44  C32 UNL A   1      32.217  35.003  41.007  1.00  0.00    +0.000 C 
ATOM     45  F7  UNL A   1      32.243  35.384  39.723  1.00  0.00    +0.000 F 
ATOM     46  C33 UNL A   1      33.070  34.002  41.449  1.00  0.00    +0.000 C 
ATOM     47  F8  UNL A   1      33.932  33.429  40.598  1.00  0.00    +0.000 F 
ATOM     48  C34 UNL A   1      33.022  33.587  42.772  1.00  0.00    +0.000 C 
ATOM     49  F9  UNL A   1      33.852  32.627  43.203  1.00  0.00    +0.000 F 
ATOM     50  C35 UNL A   1      32.110  34.163  43.651  1.00  0.00    +0.000 C 
ATOM     51  F10 UNL A   1      32.075  33.729  44.921  1.00  0.00    +0.000 F 
ENDBRANCH   40   41
BRANCH   55   56
ATOM     65  C44 UNL A   1      24.014  33.326  44.407  1.00  0.00    +0.000 C 
ATOM     66  F15 UNL A   1      23.898  34.449  43.684  1.00  0.00    +0.000 F 
ATOM     56  C39 UNL A   1      24.940  33.260  45.458  1.00  0.00    +0.000 C 
ATOM     57  C40 UNL A   1      25.017  32.065  46.186  1.00  0.00    +0.000 C 
ATOM     58  F11 UNL A   1      25.902  31.947  47.187  1.00  0.00    +0.000 F 
ATOM     59  C41 UNL A   1      24.220  30.970  45.860  1.00  0.00    +0.000 C 
ATOM     60  F12 UNL A   1      24.349  29.823  46.540  1.00  0.00    +0.000 F 
ATOM     61  C42 UNL A   1      23.308  31.060  44.819  1.00  0.00    +0.000 C 
ATOM     62  F13 UNL A   1      22.543  30.006  44.504  1.00  0.00    +0.000 F 
ATOM     63  C43 UNL A   1      23.198  32.240  44.098  1.00  0.00    +0.000 C 
ATOM     64  F14 UNL A   1      22.309  32.334  43.100  1.00  0.00    +0.000 F 
ENDBRANCH   55   56
TORSDOF 20
ENDMDL
MODEL 2
REMARK VINA RESULT:      -9.1     34.360     42.288
ROOT
ATOM     19  C15 UNL A   1       7.456   2.969  25.978  1.00  0.00    +0.000 C 
ATOM     20  C16 UNL A   1       8.609   3.289  26.887  1.00  0.00    +0.000 C 
ATOM     21  N3  UNL A   1       9.060   4.458  27.270  1.00  0.00    +0.000 N 
ATOM     22  C17 UNL A   1      10.120   4.193  28.127  1.00  0.00    +0.000 C 
ATOM     23  C18 UNL A   1      10.952   5.069  28.739  1.00  0.00    +0.000 C 
ATOM     35  C25 UNL A   1      10.871   6.500  28.604  1.00  0.00    +0.000 C 
ATOM     36  C26 UNL A   1      11.698   7.468  29.147  1.00  0.00    +0.000 C 
ATOM     37  C27 UNL A   1      11.213   8.724  28.767  1.00  0.00    +0.000 C 
ATOM     38  C28 UNL A   1      10.107   8.537  27.954  1.00  0.00    +0.000 C 
ATOM     39  N4  UNL A   1       9.905   7.169  27.867  1.00  0.00    +0.000 N 
ATOM     40  C29 UNL A   1       9.295   9.531  27.303  1.00  0.00    +0.000 C 
ATOM     52  C36 UNL A   1       8.227   9.265  26.512  1.00  0.00    +0.000 C 
ATOM     53  N5  UNL A   1       7.688   8.036  26.161  1.00  0.00    +0.000 N 
ATOM     54  C37 UNL A   1       6.652   8.301  25.403  1.00  0.00    +0.000 C 
ATOM     55  C38 UNL A   1       5.708   7.352  24.717  1.00  0.00    +0.000 C 
ATOM     67  C45 UNL A   1       5.903   6.026  24.840  1.00  0.00    +0.000 C 
ATOM     68  C46 UNL A   1       5.084   4.989  24.220  1.00  0.00    +0.000 C 
ATOM     69  C47 UNL A   1       5.554   3.785  24.581  1.00  0.00    +0.000 C 
ATOM     70  C48 UNL A   1       6.727   3.965  25.438  1.00  0.00    +0.000 C 
ATOM     71  N6  UNL A   1       6.859   5.328  25.538  1.00  0.00    +0.000 N 
ATOM     72  C49 UNL A   1       6.405   9.737  25.208  1.00  0.00    +0.000 C 
ATOM     73  C50 UNL A   1       7.417  10.278  25.869  1.00  0.00    +0.000 C 
ATOM     74  C51 UNL A   1      10.217   2.753  28.246  1.00  0.00    +0.000 C 
ATOM     75  C52 UNL A   1       9.341   2.148  27.457  1.00  0.00    +0.000 C 
ATOM    112  H21 UNL A   1      12.529   7.293  29.733  1.00  0.00    +0.000 H 
ATOM    113  H22 UNL A   1      11.611   9.635  29.045  1.00  0.00    +0.000 H 
ATOM    114  H23 UNL A   1       9.182   6.737  27.357  1.00  0.00    +0.000 H 
ATOM    115  H24 UNL A   1       4.274   5.155  23.602  1.00  0.00    +0.000 H 
ATOM    116  H25 UNL A   1       5.151   2.877  24.301  1.00  0.00    +0.000 H 
ATOM    117  H26 UNL A   1       7.571   5.765  26.058  1.00  0.00    +0.000 H 
ATOM    118  H27 UNL A   1       5.641  10.202  24.691  1.00  0.00    +0.000 H 
ATOM    119  H28 UNL A   1       7.604  11.291  25.920  1.00  0.00    +0.000 H 
ATOM    120  H29 UNL A   1      10.880   2.263  28.867  1.00  0.00    +0.000 H 
ATOM    121  H30 UNL A   1       9.208   1.139  27.286  1.00  0.00    +0.000 H 
ENDROOT
BRANCH   19   18
ATOM     76  C53 UNL A   1       6.262   0.862  26.610  1.00  0.00    +0.000 C 
ATOM     77  C54 UNL A   1       5.887  -0.455  26.350  1.00  0.00    +0.000 C 
ATOM    110  H19 UNL A   1       7.395  -0.851  23.379  1.00  0.00    +0.000 H 
ATOM     15  C11 UNL A   1       6.248  -1.060  25.142  1.00  0.00    +0.000 C 
ATOM     16  C12 UNL A   1       7.090  -0.388  24.251  1.00  0.00    +0.000 C 
ATOM     17  C13 UNL A   1       7.516   0.910  24.539  1.00  0.00    +0.000 C 
ATOM    111  H20 UNL A   1       8.156   1.396  23.891  1.00  0.00    +0.000 H 
ATOM     18  C14 UNL A   1       7.078   1.558  25.706  1.00  0.00    +0.000 C 
ATOM    122  H31 UNL A   1       5.938   1.328  27.472  1.00  0.00    +0.000 H 
ATOM    123  H32 UNL A   1       5.341  -0.984  27.049  1.00  0.00    +0.000 H 
BRANCH   15   13
ATOM     13  C10 UNL A   1       5.780  -2.419  24.787  1.00  0.00    +0.000 C 
ATOM     14  O2  UNL A   1       4.663  -2.786  25.139  1.00  0.00    +0.000 O 
BRANCH   13   12
ATOM     12  N2  UNL A   1       6.595  -3.273  24.089  1.00  0.00    +0.000 N 
ATOM    109  H18 UNL A   1       6.815  -2.990  23.172  1.00  0.00    +0.000 H 
BRANCH   12   11
ATOM     11  C9  UNL A   1       7.180  -4.537  24.505  1.00  0.00    +0.000 C 
ATOM    108  H17 UNL A   1       7.109  -5.215  23.681  1.00  0.00    +0.000 H 
ATOM    107  H16 UNL A   1       6.646  -4.898  25.360  1.00  0.00    +0.000 H 
BRANCH   11   10
ATOM    105  H14 UNL A   1       9.034  -5.384  25.082  1.00  0.00    +0.000 H 
ATOM     10  C8  UNL A   1       8.657  -4.405  24.871  1.00  0.00    +0.000 C 
ATOM    106  H15 UNL A   1       9.129  -3.937  24.032  1.00  0.00    +0.000 H 
BRANCH   10    9
ATOM      9  C7  UNL A   1       8.954  -3.514  26.078  1.00  0.00    +0.000 C 
ATOM    103  H12 UNL A   1       8.021  -3.239  26.523  1.00  0.00    +0.000 H 
ATOM    104  H13 UNL A   1       9.584  -4.089  26.723  1.00  0.00    +0.000 H 
BRANCH    9    8
ATOM    101  H10 UNL A   1      10.586  -2.493  25.189  1.00  0.00    +0.000 H 
ATOM    102  H11 UNL A   1       9.038  -1.591  25.254  1.00  0.00    +0.000 H 
ATOM      8  C6  UNL A   1       9.725  -2.230  25.768  1.00  0.00    +0.000 C 
BRANCH    8    7
ATOM     99  H8  UNL A   1      10.629  -0.516  26.641  1.00  0.00    +0.000 H 
ATOM    100  H9  UNL A   1       9.344  -1.296  27.611  1.00  0.00    +0.000 H 
ATOM      7  C5  UNL A   1      10.203  -1.434  26.990  1.00  0.00    +0.000 C 
BRANCH    7    6
ATOM     97  H6  UNL A   1      11.526  -1.494  28.666  1.00  0.00    +0.000 H 
ATOM     98  H7  UNL A   1      10.819  -3.048  28.230  1.00  0.00    +0.000 H 
ATOM      6  C4  UNL A   1      11.250  -2.141  27.861  1.00  0.00    +0.000 C 
BRANCH    6    5
ATOM      5  N1  UNL A   1      12.438  -2.480  27.100  1.00  0.00    +0.000 N 
ATOM     96  H5  UNL A   1      12.712  -3.426  27.082  1.00  0.00    +0.000 H 
BRANCH    5    3
ATOM      3  C3  UNL A   1      13.207  -1.582  26.405  1.00  0.00    +0.000 C 
ATOM      4  O1  UNL A   1      13.679  -0.649  27.056  1.00  0.00    +0.000 O 
BRANCH    3    2
ATOM      2  C2  UNL A   1      13.456  -1.810  24.902  1.00  0.00    +0.000 C 
ATOM     95  H4  UNL A   1      13.064  -2.778  24.666  1.00  0.00    +0.000 H 
BRANCH    2    1
ATOM      1  C1  UNL A   1      14.970  -1.718  24.671  1.00  0.00    +0.000 C 
ATOM     92  H1  UNL A   1      15.404  -2.692  24.758  1.00  0.00    +0.000 H 
ATOM     93  H2  UNL A   1      15.404  -1.068  25.403  1.00  0.00    +0.000 H 
ATOM     94  H3  UNL A   1      15.159  -1.329  23.692  1.00  0.00    +0.000 H 
ENDBRANCH    2    1
BRANCH    2   78
ATOM    137  H46 UNL A   1      10.757  -0.951  21.157  1.00  0.00    +0.000 H 
ATOM     78  C55 UNL A   1      12.688  -0.895  23.932  1.00  0.00    +0.000 C 
ATOM     79  C56 UNL A   1      12.740   0.508  24.050  1.00  0.00    +0.000 C 
ATOM     80  C57 UNL A   1      12.097   1.357  23.146  1.00  0.00    +0.000 C 
ATOM     81  C58 UNL A   1      11.355   0.841  22.088  1.00  0.00    +0.000 C 
ATOM     89  C65 UNL A   1      11.283  -0.547  21.948  1.00  0.00    +0.000 C 
ATOM     90  C66 UNL A   1      11.915  -1.403  22.866  1.00  0.00    +0.000 C 
ATOM     91 Br1  UNL A   1      11.584  -3.262  22.604  1.00  0.00    +0.000 Br
ATOM    124  H33 UNL A   1      13.271   0.922  24.832  1.00  0.00    +0.000 H 
ATOM    125  H34 UNL A   1      12.172   2.379  23.264  1.00  0.00    +0.000 H 
BRANCH   81   82
ATOM     82  C59 UNL A   1      10.622   1.761  21.142  1.00  0.00    +0.000 C 
ATOM    126  H35 UNL A   1      10.315   1.184  20.295  1.00  0.00    +0.000 H 
ATOM    127  H36 UNL A   1      11.311   2.546  20.908  1.00  0.00    +0.000 H 
BRANCH   82   83
ATOM    129  H38 UNL A   1      10.559   4.169  22.275  1.00  0.00    +0.000 H 
ATOM    130  H39 UNL A   1       9.703   3.480  23.602  1.00  0.00    +0.000 H 
ATOM    131  H40 UNL A   1       8.794   5.496  21.692  1.00  0.00    +0.000 H 
ATOM    132  H41 UNL A   1       8.044   5.054  23.176  1.00  0.00    +0.000 H 
ATOM    133  H42 UNL A   1       6.864   4.459  20.853  1.00  0.00    +0.000 H 
ATOM    134  H43 UNL A   1       6.749   3.329  22.121  1.00  0.00    +0.000 H 
ATOM    135  H44 UNL A   1       8.751   3.351  19.817  1.00  0.00    +0.000 H 
ATOM     83  C60 UNL A   1       9.377   2.455  21.717  1.00  0.00    +0.000 C 
ATOM     84  C61 UNL A   1       9.634   3.714  22.561  1.00  0.00    +0.000 C 
ATOM     85  C62 UNL A   1       8.465   4.662  22.275  1.00  0.00    +0.000 C 
ATOM     86  C63 UNL A   1       7.452   3.838  21.495  1.00  0.00    +0.000 C 
ATOM     87  C64 UNL A   1       8.331   2.894  20.689  1.00  0.00    +0.000 C 
ATOM    128  H37 UNL A   1       9.017   1.653  22.326  1.00  0.00    +0.000 H 
BRANCH   87   88
ATOM    136  H45 UNL A   1       7.764   1.685  19.249  1.00  0.00    +0.000 H 
ATOM     88  O3  UNL A   1       7.600   1.786  20.199  1.00  0.00    +0.000 O 
ENDBRANCH   87   88
ENDBRANCH   82   83
ENDBRANCH   81   82
ENDBRANCH    2   78
ENDBRANCH    3    2
ENDBRANCH    5    3
ENDBRANCH    6    5
ENDBRANCH    7    6
ENDBRANCH    8    7
ENDBRANCH    9    8
ENDBRANCH   10    9
ENDBRANCH   11   10
ENDBRANCH   12   11
ENDBRANCH   13   12
ENDBRANCH   15   13
ENDBRANCH   19   18
BRANCH   23   24
ATOM     33  C24 UNL A   1      13.158   3.881  29.034  1.00  0.00    +0.000 C 
ATOM     34  F5  UNL A   1      13.293   3.824  27.700  1.00  0.00    +0.000 F 
ATOM     24  C19 UNL A   1      12.039   4.507  29.605  1.00  0.00    +0.000 C 
ATOM     25  C20 UNL A   1      11.947   4.535  31.006  1.00  0.00    +0.000 C 
ATOM     26  F1  UNL A   1      10.902   5.130  31.600  1.00  0.00    +0.000 F 
ATOM     27  C21 UNL A   1      12.942   3.973  31.801  1.00  0.00    +0.000 C 
ATOM     28  F2  UNL A   1      12.849   4.041  33.136  1.00  0.00    +0.000 F 
ATOM     29  C22 UNL A   1      14.033   3.349  31.214  1.00  0.00    +0.000 C 
ATOM     30  F3  UNL A   1      14.984   2.798  31.980  1.00  0.00    +0.000 F 
ATOM     31  C23 UNL A   1      14.139   3.299  29.832  1.00  0.00    +0.000 C 
ATOM     32  F4  UNL A   1      15.187   2.686  29.263  1.00  0.00    +0.000 F 
ENDBRANCH   23   24
BRANCH   40   41
ATOM     41  C30 UNL A   1       9.659  10.974  27.494  1.00  0.00    +0.000 C 
ATOM     42  C31 UNL A   1       8.981  11.786  28.413  1.00  0.00    +0.000 C 
ATOM     43  F6  UNL A   1       7.954  11.291  29.121  1.00  0.00    +0.000 F 
ATOM     44  C32 UNL A   1       9.325  13.125  28.575  1.00  0.00    +0.000 C 
ATOM     45  F7  UNL A   1       8.630  13.897  29.422  1.00  0.00    +0.000 F 
ATOM     46  C33 UNL A   1      10.374  13.667  27.847  1.00  0.00    +0.000 C 
ATOM     47  F8  UNL A   1      10.706  14.956  28.004  1.00  0.00    +0.000 F 
ATOM     48  C34 UNL A   1      11.074  12.875  26.948  1.00  0.00    +0.000 C 
ATOM     49  F9  UNL A   1      12.094  13.395  26.251  1.00  0.00    +0.000 F 
ATOM     50  C35 UNL A   1      10.714  11.544  26.765  1.00  0.00    +0.000 C 
ATOM     51  F10 UNL A   1      11.398  10.806  25.876  1.00  0.00    +0.000 F 
ENDBRANCH   40   41
BRANCH   55   56
ATOM     65  C44 UNL A   1       3.355   8.215  24.474  1.00  0.00    +0.000 C 
ATOM     66  F15 UNL A   1       3.169   8.064  25.794  1.00  0.00    +0.000 F 
ATOM     56  C39 UNL A   1       4.583   7.867  23.894  1.00  0.00    +0.000 C 
ATOM     57  C40 UNL A   1       4.724   8.038  22.510  1.00  0.00    +0.000 C 
ATOM     58  F11 UNL A   1       5.887   7.739  21.914  1.00  0.00    +0.000 F 
ATOM     59  C41 UNL A   1       3.688   8.562  21.741  1.00  0.00    +0.000 C 
ATOM     60  F12 UNL A   1       3.867   8.764  20.429  1.00  0.00    +0.000 F 
ATOM     61  C42 UNL A   1       2.481   8.897  22.336  1.00  0.00    +0.000 C 
ATOM     62  F13 UNL A   1       1.485   9.403  21.596  1.00  0.00    +0.000 F 
ATOM     63  C43 UNL A   1       2.310   8.714  23.700  1.00  0.00    +0.000 C 
ATOM     64  F14 UNL A   1       1.141   9.023  24.276  1.00  0.00    +0.000 F 
ENDBRANCH   55   56
TORSDOF 20
ENDMDL
MODEL 3
REMARK VINA RESULT:      -8.9      4.894     12.793
ROOT
ATOM     19  C15 UNL A   1      24.686  38.793  46.908  1.00  0.00    +0.000 C 
ATOM     20  C16 UNL A   1      23.922  37.515  46.707  1.00  0.00    +0.000 C 
ATOM     21  N3  UNL A   1      22.707  37.208  47.088  1.00  0.00    +0.000 N 
ATOM     22  C17 UNL A   1      22.478  35.919  46.626  1.00  0.00    +0.000 C 
ATOM     23  C18 UNL A   1      21.390  35.134  46.815  1.00  0.00    +0.000 C 
ATOM     35  C25 UNL A   1      20.223  35.525  47.562  1.00  0.00    +0.000 C 
ATOM     36  C26 UNL A   1      19.091  34.782  47.847  1.00  0.00    +0.000 C 
ATOM     37  C27 UNL A   1      18.208  35.588  48.574  1.00  0.00    +0.000 C 
ATOM     38  C28 UNL A   1      18.807  36.820  48.776  1.00  0.00    +0.000 C 
ATOM     39  N4  UNL A   1      20.040  36.770  48.144  1.00  0.00    +0.000 N 
ATOM     40  C29 UNL A   1      18.296  37.959  49.490  1.00  0.00    +0.000 C 
ATOM     52  C36 UNL A   1      18.952  39.135  49.649  1.00  0.00    +0.000 C 
ATOM     53  N5  UNL A   1      20.205  39.503  49.184  1.00  0.00    +0.000 N 
ATOM     54  C37 UNL A   1      20.384  40.742  49.573  1.00  0.00    +0.000 C 
ATOM     55  C38 UNL A   1      21.574  41.640  49.372  1.00  0.00    +0.000 C 
ATOM     67  C45 UNL A   1      22.655  41.165  48.724  1.00  0.00    +0.000 C 
ATOM     68  C46 UNL A   1      23.885  41.909  48.472  1.00  0.00    +0.000 C 
ATOM     69  C47 UNL A   1      24.732  41.133  47.779  1.00  0.00    +0.000 C 
ATOM     70  C48 UNL A   1      24.115  39.823  47.562  1.00  0.00    +0.000 C 
ATOM     71  N6  UNL A   1      22.883  39.935  48.156  1.00  0.00    +0.000 N 
ATOM     72  C49 UNL A   1      19.247  41.307  50.313  1.00  0.00    +0.000 C 
ATOM     73  C50 UNL A   1      18.420  40.274  50.368  1.00  0.00    +0.000 C 
ATOM     74  C51 UNL A   1      23.661  35.516  45.895  1.00  0.00    +0.000 C 
ATOM     75  C52 UNL A   1      24.604  36.445  45.961  1.00  0.00    +0.000 C 
ATOM    112  H21 UNL A   1      18.926  33.801  47.570  1.00  0.00    +0.000 H 
ATOM    113  H22 UNL A   1      17.270  35.311  48.904  1.00  0.00    +0.000 H 
ATOM    114  H23 UNL A   1      20.689  37.510  48.114  1.00  0.00    +0.000 H 
ATOM    115  H24 UNL A   1      24.072  42.877  48.778  1.00  0.00    +0.000 H 
ATOM    116  H25 UNL A   1      25.669  41.414  47.450  1.00  0.00    +0.000 H 
ATOM    117  H26 UNL A   1      22.225  39.203  48.176  1.00  0.00    +0.000 H 
ATOM    118  H27 UNL A   1      19.124  42.260  50.691  1.00  0.00    +0.000 H 
ATOM    119  H28 UNL A   1      17.512  40.279  50.860  1.00  0.00    +0.000 H 
ATOM    120  H29 UNL A   1      23.756  34.623  45.387  1.00  0.00    +0.000 H 
ATOM    121  H30 UNL A   1      25.566  36.423  45.589  1.00  0.00    +0.000 H 
ENDROOT
BRANCH   19   18
ATOM     76  C53 UNL A   1      27.050  38.014  46.650  1.00  0.00    +0.000 C 
ATOM     77  C54 UNL A   1      28.329  38.147  46.110  1.00  0.00    +0.000 C 
ATOM    110  H19 UNL A   1      27.834  40.909  44.270  1.00  0.00    +0.000 H 
ATOM     15  C11 UNL A   1      28.599  39.168  45.193  1.00  0.00    +0.000 C 
ATOM     16  C12 UNL A   1      27.623  40.128  44.912  1.00  0.00    +0.000 C 
ATOM     17  C13 UNL A   1      26.359  40.030  45.499  1.00  0.00    +0.000 C 
ATOM    111  H20 UNL A   1      25.648  40.752  45.310  1.00  0.00    +0.000 H 
ATOM     18  C14 UNL A   1      26.053  38.952  46.348  1.00  0.00    +0.000 C 
ATOM    122  H31 UNL A   1      26.837  37.221  47.274  1.00  0.00    +0.000 H 
ATOM    123  H32 UNL A   1      29.077  37.492  46.387  1.00  0.00    +0.000 H 
BRANCH   15   13
ATOM     13  C10 UNL A   1      29.913  39.277  44.521  1.00  0.00    +0.000 C 
ATOM     14  O2  UNL A   1      30.694  40.162  44.857  1.00  0.00    +0.000 O 
BRANCH   13   12
ATOM     12  N2  UNL A   1      30.251  38.411  43.512  1.00  0.00    +0.000 N 
ATOM    109  H18 UNL A   1      30.089  38.745  42.599  1.00  0.00    +0.000 H 
BRANCH   12   11
ATOM     11  C9  UNL A   1      30.812  37.073  43.592  1.00  0.00    +0.000 C 
ATOM    108  H17 UNL A   1      30.885  36.813  44.627  1.00  0.00    +0.000 H 
ATOM    107  H16 UNL A   1      31.772  37.075  43.118  1.00  0.00    +0.000 H 
BRANCH   11   10
ATOM    105  H14 UNL A   1      29.600  36.432  41.978  1.00  0.00    +0.000 H 
ATOM     10  C8  UNL A   1      29.933  36.027  42.911  1.00  0.00    +0.000 C 
ATOM    106  H15 UNL A   1      30.541  35.152  42.805  1.00  0.00    +0.000 H 
BRANCH   10    9
ATOM      9  C7  UNL A   1      28.700  35.593  43.705  1.00  0.00    +0.000 C 
ATOM    103  H12 UNL A   1      28.859  35.853  44.731  1.00  0.00    +0.000 H 
ATOM    104  H13 UNL A   1      27.868  36.097  43.259  1.00  0.00    +0.000 H 
BRANCH    9    8
ATOM    101  H10 UNL A   1      27.399  33.993  43.213  1.00  0.00    +0.000 H 
ATOM    102  H11 UNL A   1      29.153  33.653  43.061  1.00  0.00    +0.000 H 
ATOM      8  C6  UNL A   1      28.373  34.100  43.642  1.00  0.00    +0.000 C 
BRANCH    8    7
ATOM     99  H8  UNL A   1      28.652  32.345  44.807  1.00  0.00    +0.000 H 
ATOM    100  H9  UNL A   1      29.074  33.887  45.611  1.00  0.00    +0.000 H 
ATOM      7  C5  UNL A   1      28.379  33.363  44.989  1.00  0.00    +0.000 C 
BRANCH    7    6
ATOM     97  H6  UNL A   1      26.260  33.615  45.055  1.00  0.00    +0.000 H 
ATOM     98  H7  UNL A   1      26.891  32.398  46.162  1.00  0.00    +0.000 H 
ATOM      6  C4  UNL A   1      27.043  33.370  45.742  1.00  0.00    +0.000 C 
BRANCH    6    5
ATOM      5  N1  UNL A   1      27.042  34.338  46.823  1.00  0.00    +0.000 N 
ATOM     96  H5  UNL A   1      26.802  35.266  46.601  1.00  0.00    +0.000 H 
BRANCH    5    3
ATOM      3  C3  UNL A   1      27.352  34.054  48.128  1.00  0.00    +0.000 C 
ATOM      4  O1  UNL A   1      27.631  32.882  48.381  1.00  0.00    +0.000 O 
BRANCH    3    2
ATOM      2  C2  UNL A   1      27.366  35.197  49.162  1.00  0.00    +0.000 C 
ATOM     95  H4  UNL A   1      27.827  36.039  48.687  1.00  0.00    +0.000 H 
BRANCH    2    1
ATOM      1  C1  UNL A   1      28.160  34.703  50.379  1.00  0.00    +0.000 C 
ATOM     92  H1  UNL A   1      27.481  34.376  51.138  1.00  0.00    +0.000 H 
ATOM     93  H2  UNL A   1      28.762  35.501  50.759  1.00  0.00    +0.000 H 
ATOM     94  H3  UNL A   1      28.789  33.887  50.088  1.00  0.00    +0.000 H 
ENDBRANCH    2    1
BRANCH    2   78
ATOM    137  H46 UNL A   1      24.518  38.494  50.911  1.00  0.00    +0.000 H 
ATOM     78  C55 UNL A   1      25.997  35.760  49.582  1.00  0.00    +0.000 C 
ATOM     79  C56 UNL A   1      24.829  34.976  49.516  1.00  0.00    +0.000 C 
ATOM     80  C57 UNL A   1      23.587  35.449  49.946  1.00  0.00    +0.000 C 
ATOM     81  C58 UNL A   1      23.451  36.740  50.447  1.00  0.00    +0.000 C 
ATOM     89  C65 UNL A   1      24.592  37.542  50.521  1.00  0.00    +0.000 C 
ATOM     90  C66 UNL A   1      25.839  37.074  50.074  1.00  0.00    +0.000 C 
ATOM     91 Br1  UNL A   1      27.249  38.356  50.112  1.00  0.00    +0.000 Br
ATOM    124  H33 UNL A   1      24.894  34.018  49.136  1.00  0.00    +0.000 H 
ATOM    125  H34 UNL A   1      22.760  34.835  49.890  1.00  0.00    +0.000 H 
BRANCH   81   82
ATOM     82  C59 UNL A   1      22.099  37.264  50.865  1.00  0.00    +0.000 C 
ATOM    126  H35 UNL A   1      21.367  36.530  50.602  1.00  0.00    +0.000 H 
ATOM    127  H36 UNL A   1      21.980  38.199  50.359  1.00  0.00    +0.000 H 
BRANCH   82   83
ATOM    129  H38 UNL A   1      20.647  39.240  51.901  1.00  0.00    +0.000 H 
ATOM    130  H39 UNL A   1      22.009  39.687  52.858  1.00  0.00    +0.000 H 
ATOM    131  H40 UNL A   1      19.404  38.703  53.740  1.00  0.00    +0.000 H 
ATOM    132  H41 UNL A   1      20.626  39.428  54.709  1.00  0.00    +0.000 H 
ATOM    133  H42 UNL A   1      20.052  36.833  55.003  1.00  0.00    +0.000 H 
ATOM    134  H43 UNL A   1      21.680  37.313  55.137  1.00  0.00    +0.000 H 
ATOM    135  H44 UNL A   1      20.258  36.202  52.675  1.00  0.00    +0.000 H 
ATOM     83  C60 UNL A   1      21.938  37.576  52.362  1.00  0.00    +0.000 C 
ATOM     84  C61 UNL A   1      21.279  38.922  52.705  1.00  0.00    +0.000 C 
ATOM     85  C62 UNL A   1      20.448  38.678  53.968  1.00  0.00    +0.000 C 
ATOM     86  C63 UNL A   1      20.851  37.296  54.461  1.00  0.00    +0.000 C 
ATOM     87  C64 UNL A   1      21.142  36.547  53.170  1.00  0.00    +0.000 C 
ATOM    128  H37 UNL A   1      22.972  37.575  52.635  1.00  0.00    +0.000 H 
BRANCH   87   88
ATOM    136  H45 UNL A   1      22.403  35.153  52.600  1.00  0.00    +0.000 H 
ATOM     88  O3  UNL A   1      21.906  35.379  53.402  1.00  0.00    +0.000 O 
ENDBRANCH   87   88
ENDBRANCH   82   83
ENDBRANCH   81   82
ENDBRANCH    2   78
ENDBRANCH    3    2
ENDBRANCH    5    3
ENDBRANCH    6    5
ENDBRANCH    7    6
ENDBRANCH    8    7
ENDBRANCH    9    8
ENDBRANCH   10    9
ENDBRANCH   11   10
ENDBRANCH   12   11
ENDBRANCH   13   12
ENDBRANCH   15   13
ENDBRANCH   19   18
BRANCH   23   24
ATOM     33  C24 UNL A   1      20.823  33.510  44.969  1.00  0.00    +0.000 C 
ATOM     34  F5  UNL A   1      20.272  34.515  44.270  1.00  0.00    +0.000 F 
ATOM     24  C19 UNL A   1      21.414  33.759  46.218  1.00  0.00    +0.000 C 
ATOM     25  C20 UNL A   1      21.971  32.671  46.908  1.00  0.00    +0.000 C 
ATOM     26  F1  UNL A   1      22.556  32.859  48.100  1.00  0.00    +0.000 F 
ATOM     27  C21 UNL A   1      21.951  31.390  46.363  1.00  0.00    +0.000 C 
ATOM     28  F2  UNL A   1      22.519  30.373  47.026  1.00  0.00    +0.000 F 
ATOM     29  C22 UNL A   1      21.350  31.166  45.133  1.00  0.00    +0.000 C 
ATOM     30  F3  UNL A   1      21.321  29.931  44.616  1.00  0.00    +0.000 F 
ATOM     31  C23 UNL A   1      20.783  32.224  44.438  1.00  0.00    +0.000 C 
ATOM     32  F4  UNL A   1      20.192  32.007  43.255  1.00  0.00    +0.000 F 
ENDBRANCH   23   24
BRANCH   40   41
ATOM     41  C30 UNL A   1      16.942  37.842  50.127  1.00  0.00    +0.000 C 
ATOM     42  C31 UNL A   1      16.792  37.743  51.518  1.00  0.00    +0.000 C 
ATOM     43  F6  UNL A   1      17.874  37.712  52.312  1.00  0.00    +0.000 F 
ATOM     44  C32 UNL A   1      15.531  37.629  52.095  1.00  0.00    +0.000 C 
ATOM     45  F7  UNL A   1      15.413  37.484  53.421  1.00  0.00    +0.000 F 
ATOM     46  C33 UNL A   1      14.397  37.645  51.297  1.00  0.00    +0.000 C 
ATOM     47  F8  UNL A   1      13.182  37.537  51.853  1.00  0.00    +0.000 F 
ATOM     48  C34 UNL A   1      14.521  37.766  49.920  1.00  0.00    +0.000 C 
ATOM     49  F9  UNL A   1      13.425  37.792  49.149  1.00  0.00    +0.000 F 
ATOM     50  C35 UNL A   1      15.782  37.853  49.339  1.00  0.00    +0.000 C 
ATOM     51  F10 UNL A   1      15.872  37.951  48.003  1.00  0.00    +0.000 F 
ENDBRANCH   40   41
BRANCH   55   56
ATOM     65  C44 UNL A   1      22.003  43.314  51.202  1.00  0.00    +0.000 C 
ATOM     66  F15 UNL A   1      22.406  42.321  52.009  1.00  0.00    +0.000 F 
ATOM     56  C39 UNL A   1      21.572  43.028  49.899  1.00  0.00    +0.000 C 
ATOM     57  C40 UNL A   1      21.155  44.101  49.099  1.00  0.00    +0.000 C 
ATOM     58  F11 UNL A   1      20.755  43.879  47.839  1.00  0.00    +0.000 F 
ATOM     59  C41 UNL A   1      21.193  45.410  49.573  1.00  0.00    +0.000 C 
ATOM     60  F12 UNL A   1      20.838  46.422  48.770  1.00  0.00    +0.000 F 
ATOM     61  C42 UNL A   1      21.620  45.669  50.867  1.00  0.00    +0.000 C 
ATOM     62  F13 UNL A   1      21.659  46.928  51.323  1.00  0.00    +0.000 F 
ATOM     63  C43 UNL A   1      22.015  44.620  51.685  1.00  0.00    +0.000 C 
ATOM     64  F14 UNL A   1      22.416  44.865  52.940  1.00  0.00    +0.000 F 
ENDBRANCH   55   56
TORSDOF 20
ENDMDL
MODEL 4
REMARK VINA RESULT:      -8.8     19.964     25.257
ROOT
ATOM     19  C15 UNL A   1      40.762  27.801  28.569  1.00  0.00    +0.000 C 
ATOM     20  C16 UNL A   1      39.842  28.940  28.907  1.00  0.00    +0.000 C 
ATOM     21  N3  UNL A   1      40.129  30.108  29.427  1.00  0.00    +0.000 N 
ATOM     22  C17 UNL A   1      38.924  30.793  29.507  1.00  0.00    +0.000 C 
ATOM     23  C18 UNL A   1      38.682  32.019  30.029  1.00  0.00    +0.000 C 
ATOM     35  C25 UNL A   1      39.685  32.869  30.615  1.00  0.00    +0.000 C 
ATOM     36  C26 UNL A   1      39.529  34.108  31.211  1.00  0.00    +0.000 C 
ATOM     37  C27 UNL A   1      40.789  34.567  31.607  1.00  0.00    +0.000 C 
ATOM     38  C28 UNL A   1      41.726  33.597  31.293  1.00  0.00    +0.000 C 
ATOM     39  N4  UNL A   1      41.037  32.563  30.679  1.00  0.00    +0.000 N 
ATOM     40  C29 UNL A   1      43.145  33.609  31.534  1.00  0.00    +0.000 C 
ATOM     52  C36 UNL A   1      43.998  32.609  31.200  1.00  0.00    +0.000 C 
ATOM     53  N5  UNL A   1      43.723  31.401  30.578  1.00  0.00    +0.000 N 
ATOM     54  C37 UNL A   1      44.876  30.791  30.452  1.00  0.00    +0.000 C 
ATOM     55  C38 UNL A   1      45.177  29.436  29.872  1.00  0.00    +0.000 C 
ATOM     67  C45 UNL A   1      44.164  28.677  29.412  1.00  0.00    +0.000 C 
ATOM     68  C46 UNL A   1      44.299  27.340  28.842  1.00  0.00    +0.000 C 
ATOM     69  C47 UNL A   1      43.089  26.899  28.467  1.00  0.00    +0.000 C 
ATOM     70  C48 UNL A   1      42.085  27.913  28.798  1.00  0.00    +0.000 C 
ATOM     71  N6  UNL A   1      42.815  28.933  29.354  1.00  0.00    +0.000 N 
ATOM     72  C49 UNL A   1      46.020  31.560  30.963  1.00  0.00    +0.000 C 
ATOM     73  C50 UNL A   1      45.425  32.640  31.446  1.00  0.00    +0.000 C 
ATOM     74  C51 UNL A   1      37.909  29.930  28.940  1.00  0.00    +0.000 C 
ATOM     75  C52 UNL A   1      38.415  28.752  28.604  1.00  0.00    +0.000 C 
ATOM    112  H21 UNL A   1      38.635  34.607  31.341  1.00  0.00    +0.000 H 
ATOM    113  H22 UNL A   1      40.987  35.475  32.057  1.00  0.00    +0.000 H 
ATOM    114  H23 UNL A   1      41.446  31.735  30.339  1.00  0.00    +0.000 H 
ATOM    115  H24 UNL A   1      45.184  26.818  28.744  1.00  0.00    +0.000 H 
ATOM    116  H25 UNL A   1      42.896  25.991  28.017  1.00  0.00    +0.000 H 
ATOM    117  H26 UNL A   1      42.412  29.770  29.681  1.00  0.00    +0.000 H 
ATOM    118  H27 UNL A   1      47.024  31.321  30.949  1.00  0.00    +0.000 H 
ATOM    119  H28 UNL A   1      45.914  33.406  31.935  1.00  0.00    +0.000 H 
ATOM    120  H29 UNL A   1      36.921  30.199  28.812  1.00  0.00    +0.000 H 
ATOM    121  H30 UNL A   1      37.934  27.920  28.229  1.00  0.00    +0.000 H 
ENDROOT
BRANCH   19   18
ATOM     76  C53 UNL A   1      40.522  26.287  26.591  1.00  0.00    +0.000 C 
ATOM     77  C54 UNL A   1      40.047  25.118  25.996  1.00  0.00    +0.000 C 
ATOM    110  H19 UNL A   1      38.479  23.785  28.646  1.00  0.00    +0.000 H 
ATOM     15  C11 UNL A   1      39.353  24.176  26.762  1.00  0.00    +0.000 C 
ATOM     16  C12 UNL A   1      39.031  24.460  28.092  1.00  0.00    +0.000 C 
ATOM     17  C13 UNL A   1      39.455  25.657  28.671  1.00  0.00    +0.000 C 
ATOM    111  H20 UNL A   1      39.196  25.877  29.646  1.00  0.00    +0.000 H 
ATOM     18  C14 UNL A   1      40.234  26.566  27.934  1.00  0.00    +0.000 C 
ATOM    122  H31 UNL A   1      41.090  26.948  26.039  1.00  0.00    +0.000 H 
ATOM    123  H32 UNL A   1      40.206  24.950  24.990  1.00  0.00    +0.000 H 
BRANCH   15   13
ATOM     13  C10 UNL A   1      38.925  22.879  26.190  1.00  0.00    +0.000 C 
ATOM     14  O2  UNL A   1      39.715  21.940  26.160  1.00  0.00    +0.000 O 
BRANCH   13   12
ATOM     12  N2  UNL A   1      37.662  22.731  25.676  1.00  0.00    +0.000 N 
ATOM    109  H18 UNL A   1      37.251  21.847  25.818  1.00  0.00    +0.000 H 
BRANCH   12   11
ATOM     11  C9  UNL A   1      36.842  23.687  24.952  1.00  0.00    +0.000 C 
ATOM    108  H17 UNL A   1      37.326  23.891  24.020  1.00  0.00    +0.000 H 
ATOM    107  H16 UNL A   1      36.741  24.572  25.546  1.00  0.00    +0.000 H 
BRANCH   11   10
ATOM    105  H14 UNL A   1      35.551  22.128  24.329  1.00  0.00    +0.000 H 
ATOM     10  C8  UNL A   1      35.448  23.146  24.642  1.00  0.00    +0.000 C 
ATOM    106  H15 UNL A   1      34.878  23.262  25.541  1.00  0.00    +0.000 H 
BRANCH   10    9
ATOM      9  C7  UNL A   1      34.681  23.900  23.554  1.00  0.00    +0.000 C 
ATOM    103  H12 UNL A   1      35.288  23.915  22.672  1.00  0.00    +0.000 H 
ATOM    104  H13 UNL A   1      33.755  23.378  23.428  1.00  0.00    +0.000 H 
BRANCH    9    8
ATOM    101  H10 UNL A   1      33.662  25.325  24.747  1.00  0.00    +0.000 H 
ATOM    102  H11 UNL A   1      35.236  25.852  24.071  1.00  0.00    +0.000 H 
ATOM      8  C6  UNL A   1      34.311  25.344  23.897  1.00  0.00    +0.000 C 
BRANCH    8    7
ATOM     99  H8  UNL A   1      34.202  26.056  21.897  1.00  0.00    +0.000 H 
ATOM    100  H9  UNL A   1      32.634  25.691  22.680  1.00  0.00    +0.000 H 
ATOM      7  C5  UNL A   1      33.605  26.128  22.782  1.00  0.00    +0.000 C 
BRANCH    7    6
ATOM     97  H6  UNL A   1      34.054  28.196  22.489  1.00  0.00    +0.000 H 
ATOM     98  H7  UNL A   1      32.360  27.852  22.832  1.00  0.00    +0.000 H 
ATOM      6  C4  UNL A   1      33.374  27.616  23.078  1.00  0.00    +0.000 C 
BRANCH    6    5
ATOM      5  N1  UNL A   1      33.585  27.922  24.480  1.00  0.00    +0.000 N 
ATOM     96  H5  UNL A   1      34.383  27.539  24.914  1.00  0.00    +0.000 H 
BRANCH    5    3
ATOM      3  C3  UNL A   1      32.758  28.703  25.246  1.00  0.00    +0.000 C 
ATOM      4  O1  UNL A   1      33.008  29.909  25.263  1.00  0.00    +0.000 O 
BRANCH    3    2
ATOM      2  C2  UNL A   1      31.577  28.047  25.986  1.00  0.00    +0.000 C 
ATOM     95  H4  UNL A   1      30.682  28.385  25.504  1.00  0.00    +0.000 H 
BRANCH    2    1
ATOM      1  C1  UNL A   1      31.656  28.487  27.453  1.00  0.00    +0.000 C 
ATOM     92  H1  UNL A   1      30.785  28.149  27.974  1.00  0.00    +0.000 H 
ATOM     93  H2  UNL A   1      31.709  29.554  27.503  1.00  0.00    +0.000 H 
ATOM     94  H3  UNL A   1      32.529  28.065  27.907  1.00  0.00    +0.000 H 
ENDBRANCH    2    1
BRANCH    2   78
ATOM    137  H46 UNL A   1      29.797  24.077  24.220  1.00  0.00    +0.000 H 
ATOM     78  C55 UNL A   1      31.458  26.517  25.868  1.00  0.00    +0.000 C 
ATOM     79  C56 UNL A   1      32.184  25.657  26.716  1.00  0.00    +0.000 C 
ATOM     80  C57 UNL A   1      32.047  24.268  26.665  1.00  0.00    +0.000 C 
ATOM     81  C58 UNL A   1      31.188  23.670  25.747  1.00  0.00    +0.000 C 
ATOM     89  C65 UNL A   1      30.457  24.498  24.891  1.00  0.00    +0.000 C 
ATOM     90  C66 UNL A   1      30.606  25.895  24.930  1.00  0.00    +0.000 C 
ATOM     91 Br1  UNL A   1      29.645  26.852  23.591  1.00  0.00    +0.000 Br
ATOM    124  H33 UNL A   1      32.840  26.069  27.398  1.00  0.00    +0.000 H 
ATOM    125  H34 UNL A   1      32.590  23.677  27.313  1.00  0.00    +0.000 H 
BRANCH   81   82
ATOM     82  C59 UNL A   1      31.079  22.168  25.662  1.00  0.00    +0.000 C 
ATOM    126  H35 UNL A   1      30.274  21.934  24.999  1.00  0.00    +0.000 H 
ATOM    127  H36 UNL A   1      30.928  21.829  26.666  1.00  0.00    +0.000 H 
BRANCH   82   83
ATOM    129  H38 UNL A   1      32.193  20.026  26.785  1.00  0.00    +0.000 H 
ATOM    130  H39 UNL A   1      33.715  20.832  26.720  1.00  0.00    +0.000 H 
ATOM    131  H40 UNL A   1      32.881  18.393  25.344  1.00  0.00    +0.000 H 
ATOM    132  H41 UNL A   1      34.482  19.001  25.508  1.00  0.00    +0.000 H 
ATOM    133  H42 UNL A   1      33.294  18.992  23.113  1.00  0.00    +0.000 H 
ATOM    134  H43 UNL A   1      34.293  20.314  23.505  1.00  0.00    +0.000 H 
ATOM    135  H44 UNL A   1      31.258  20.125  23.768  1.00  0.00    +0.000 H 
ATOM     83  C60 UNL A   1      32.333  21.435  25.159  1.00  0.00    +0.000 C 
ATOM     84  C61 UNL A   1      32.943  20.401  26.119  1.00  0.00    +0.000 C 
ATOM     85  C62 UNL A   1      33.483  19.271  25.237  1.00  0.00    +0.000 C 
ATOM     86  C63 UNL A   1      33.409  19.794  23.811  1.00  0.00    +0.000 C 
ATOM     87  C64 UNL A   1      32.172  20.678  23.838  1.00  0.00    +0.000 C 
ATOM    128  H37 UNL A   1      32.977  22.282  25.050  1.00  0.00    +0.000 H 
BRANCH   87   88
ATOM    136  H45 UNL A   1      31.239  21.910  22.626  1.00  0.00    +0.000 H 
ATOM     88  O3  UNL A   1      32.140  21.569  22.739  1.00  0.00    +0.000 O 
ENDBRANCH   87   88
ENDBRANCH   82   83
ENDBRANCH   81   82
ENDBRANCH    2   78
ENDBRANCH    3    2
ENDBRANCH    5    3
ENDBRANCH    6    5
ENDBRANCH    7    6
ENDBRANCH    8    7
ENDBRANCH    9    8
ENDBRANCH   10    9
ENDBRANCH   11   10
ENDBRANCH   12   11
ENDBRANCH   13   12
ENDBRANCH   15   13
ENDBRANCH   19   18
BRANCH   23   24
ATOM     33  C24 UNL A   1      36.807  33.323  28.954  1.00  0.00    +0.000 C 
ATOM     34  F5  UNL A   1      37.617  33.617  27.925  1.00  0.00    +0.000 F 
ATOM     24  C19 UNL A   1      37.267  32.517  30.007  1.00  0.00    +0.000 C 
ATOM     25  C20 UNL A   1      36.380  32.244  31.060  1.00  0.00    +0.000 C 
ATOM     26  F1  UNL A   1      36.769  31.470  32.084  1.00  0.00    +0.000 F 
ATOM     27  C21 UNL A   1      35.081  32.745  31.051  1.00  0.00    +0.000 C 
ATOM     28  F2  UNL A   1      34.241  32.443  32.051  1.00  0.00    +0.000 F 
ATOM     29  C22 UNL A   1      34.652  33.550  30.005  1.00  0.00    +0.000 C 
ATOM     30  F3  UNL A   1      33.406  34.041  30.004  1.00  0.00    +0.000 F 
ATOM     31  C23 UNL A   1      35.515  33.842  28.960  1.00  0.00    +0.000 C 
ATOM     32  F4  UNL A   1      35.107  34.629  27.955  1.00  0.00    +0.000 F 
ENDBRANCH   23   24
BRANCH   40   41
ATOM     41  C30 UNL A   1      43.732  34.805  32.222  1.00  0.00    +0.000 C 
ATOM     42  C31 UNL A   1      44.141  35.938  31.503  1.00  0.00    +0.000 C 
ATOM     43  F6  UNL A   1      44.048  35.956  30.164  1.00  0.00    +0.000 F 
ATOM     44  C32 UNL A   1      44.691  37.039  32.154  1.00  0.00    +0.000 C 
ATOM     45  F7  UNL A   1      45.121  38.089  31.443  1.00  0.00    +0.000 F 
ATOM     46  C33 UNL A   1      44.811  37.042  33.535  1.00  0.00    +0.000 C 
ATOM     47  F8  UNL A   1      45.339  38.103  34.161  1.00  0.00    +0.000 F 
ATOM     48  C34 UNL A   1      44.392  35.941  34.269  1.00  0.00    +0.000 C 
ATOM     49  F9  UNL A   1      44.498  35.947  35.605  1.00  0.00    +0.000 F 
ATOM     50  C35 UNL A   1      43.867  34.828  33.619  1.00  0.00    +0.000 C 
ATOM     51  F10 UNL A   1      43.486  33.771  34.352  1.00  0.00    +0.000 F 
ENDBRANCH   40   41
BRANCH   55   56
ATOM     65  C44 UNL A   1      47.396  29.164  28.714  1.00  0.00    +0.000 C 
ATOM     66  F15 UNL A   1      46.923  29.843  27.658  1.00  0.00    +0.000 F 
ATOM     56  C39 UNL A   1      46.571  28.927  29.823  1.00  0.00    +0.000 C 
ATOM     57  C40 UNL A   1      47.113  28.207  30.897  1.00  0.00    +0.000 C 
ATOM     58  F11 UNL A   1      46.369  27.974  31.988  1.00  0.00    +0.000 F 
ATOM     59  C41 UNL A   1      48.433  27.766  30.875  1.00  0.00    +0.000 C 
ATOM     60  F12 UNL A   1      48.941  27.125  31.936  1.00  0.00    +0.000 F 
ATOM     61  C42 UNL A   1      49.229  28.009  29.766  1.00  0.00    +0.000 C 
ATOM     62  F13 UNL A   1      50.500  27.586  29.746  1.00  0.00    +0.000 F 
ATOM     63  C43 UNL A   1      48.708  28.699  28.681  1.00  0.00    +0.000 C 
ATOM     64  F14 UNL A   1      49.471  28.924  27.602  1.00  0.00    +0.000 F 
ENDBRANCH   55   56
TORSDOF 20
ENDMDL
MODEL 5
REMARK VINA RESULT:      -8.8     40.977     48.242
ROOT
ATOM     19  C15 UNL A   1      53.690  19.400  11.623  1.00  0.00    +0.000 C 
ATOM     20  C16 UNL A   1      55.045  18.756  11.537  1.00  0.00    +0.000 C 
ATOM     21  N3  UNL A   1      56.032  18.787  12.399  1.00  0.00    +0.000 N 
ATOM     22  C17 UNL A   1      57.040  18.008  11.849  1.00  0.00    +0.000 C 
ATOM     23  C18 UNL A   1      58.286  17.776  12.328  1.00  0.00    +0.000 C 
ATOM     35  C25 UNL A   1      58.802  18.321  13.556  1.00  0.00    +0.000 C 
ATOM     36  C26 UNL A   1      60.066  18.181  14.101  1.00  0.00    +0.000 C 
ATOM     37  C27 UNL A   1      60.097  18.863  15.322  1.00  0.00    +0.000 C 
ATOM     38  C28 UNL A   1      58.863  19.462  15.519  1.00  0.00    +0.000 C 
ATOM     39  N4  UNL A   1      58.077  19.116  14.432  1.00  0.00    +0.000 N 
ATOM     40  C29 UNL A   1      58.433  20.288  16.615  1.00  0.00    +0.000 C 
ATOM     52  C36 UNL A   1      57.202  20.845  16.731  1.00  0.00    +0.000 C 
ATOM     53  N5  UNL A   1      56.120  20.757  15.867  1.00  0.00    +0.000 N 
ATOM     54  C37 UNL A   1      55.156  21.445  16.427  1.00  0.00    +0.000 C 
ATOM     55  C38 UNL A   1      53.763  21.713  15.925  1.00  0.00    +0.000 C 
ATOM     67  C45 UNL A   1      53.390  21.223  14.728  1.00  0.00    +0.000 C 
ATOM     68  C46 UNL A   1      52.085  21.416  14.104  1.00  0.00    +0.000 C 
ATOM     69  C47 UNL A   1      52.058  20.765  12.930  1.00  0.00    +0.000 C 
ATOM     70  C48 UNL A   1      53.359  20.130  12.706  1.00  0.00    +0.000 C 
ATOM     71  N6  UNL A   1      54.085  20.455  13.824  1.00  0.00    +0.000 N 
ATOM     72  C49 UNL A   1      55.514  22.030  17.727  1.00  0.00    +0.000 C 
ATOM     73  C50 UNL A   1      56.783  21.671  17.845  1.00  0.00    +0.000 C 
ATOM     74  C51 UNL A   1      56.532  17.477  10.602  1.00  0.00    +0.000 C 
ATOM     75  C52 UNL A   1      55.323  17.953  10.336  1.00  0.00    +0.000 C 
ATOM    112  H21 UNL A   1      60.852  17.661  13.679  1.00  0.00    +0.000 H 
ATOM    113  H22 UNL A   1      60.901  18.912  15.966  1.00  0.00    +0.000 H 
ATOM    114  H23 UNL A   1      57.141  19.394  14.300  1.00  0.00    +0.000 H 
ATOM    115  H24 UNL A   1      51.307  21.966  14.502  1.00  0.00    +0.000 H 
ATOM    116  H25 UNL A   1      51.251  20.718  12.290  1.00  0.00    +0.000 H 
ATOM    117  H26 UNL A   1      55.015  20.167  13.966  1.00  0.00    +0.000 H 
ATOM    118  H27 UNL A   1      54.929  22.577  18.378  1.00  0.00    +0.000 H 
ATOM    119  H28 UNL A   1      57.396  21.944  18.629  1.00  0.00    +0.000 H 
ATOM    120  H29 UNL A   1      57.043  16.814   9.999  1.00  0.00    +0.000 H 
ATOM    121  H30 UNL A   1      54.732  17.802   9.504  1.00  0.00    +0.000 H 
ENDROOT
BRANCH   19   18
ATOM     76  C53 UNL A   1      51.912  18.032  10.515  1.00  0.00    +0.000 C 
ATOM     77  C54 UNL A   1      50.956  17.846   9.517  1.00  0.00    +0.000 C 
ATOM    110  H19 UNL A   1      51.341  20.749   7.880  1.00  0.00    +0.000 H 
ATOM     15  C11 UNL A   1      50.704  18.864   8.592  1.00  0.00    +0.000 C 
ATOM     16  C12 UNL A   1      51.496  20.016   8.591  1.00  0.00    +0.000 C 
ATOM     17  C13 UNL A   1      52.495  20.176   9.554  1.00  0.00    +0.000 C 
ATOM    111  H20 UNL A   1      53.094  21.016   9.537  1.00  0.00    +0.000 H 
ATOM     18  C14 UNL A   1      52.689  19.199  10.544  1.00  0.00    +0.000 C 
ATOM    122  H31 UNL A   1      52.049  17.305  11.236  1.00  0.00    +0.000 H 
ATOM    123  H32 UNL A   1      50.433  16.957   9.462  1.00  0.00    +0.000 H 
BRANCH   15   13
ATOM     13  C10 UNL A   1      49.625  18.744   7.585  1.00  0.00    +0.000 C 
ATOM     14  O2  UNL A   1      48.950  19.729   7.301  1.00  0.00    +0.000 O 
BRANCH   13   12
ATOM     12  N2  UNL A   1      49.364  17.538   6.988  1.00  0.00    +0.000 N 
ATOM    109  H18 UNL A   1      49.623  16.745   7.511  1.00  0.00    +0.000 H 
BRANCH   12   11
ATOM     11  C9  UNL A   1      48.760  17.258   5.696  1.00  0.00    +0.000 C 
ATOM    108  H17 UNL A   1      48.913  18.114   5.073  1.00  0.00    +0.000 H 
ATOM    107  H16 UNL A   1      47.718  17.057   5.840  1.00  0.00    +0.000 H 
BRANCH   11   10
ATOM    105  H14 UNL A   1      49.881  16.410   4.111  1.00  0.00    +0.000 H 
ATOM     10  C8  UNL A   1      49.398  16.058   4.999  1.00  0.00    +0.000 C 
ATOM    106  H15 UNL A   1      50.071  15.626   5.710  1.00  0.00    +0.000 H 
BRANCH   10    9
ATOM      9  C7  UNL A   1      48.429  14.943   4.601  1.00  0.00    +0.000 C 
ATOM    103  H12 UNL A   1      48.978  14.210   4.048  1.00  0.00    +0.000 H 
ATOM    104  H13 UNL A   1      48.016  14.570   5.515  1.00  0.00    +0.000 H 
BRANCH    9    8
ATOM    101  H10 UNL A   1      47.381  16.413   3.491  1.00  0.00    +0.000 H 
ATOM    102  H11 UNL A   1      47.223  14.727   2.903  1.00  0.00    +0.000 H 
ATOM      8  C6  UNL A   1      47.239  15.385   3.747  1.00  0.00    +0.000 C 
BRANCH    8    7
ATOM     99  H8  UNL A   1      45.267  14.594   3.808  1.00  0.00    +0.000 H 
ATOM    100  H9  UNL A   1      46.042  14.876   5.397  1.00  0.00    +0.000 H 
ATOM      7  C5  UNL A   1      45.862  15.249   4.411  1.00  0.00    +0.000 C 
BRANCH    7    6
ATOM     97  H6  UNL A   1      44.113  16.344   4.964  1.00  0.00    +0.000 H 
ATOM     98  H7  UNL A   1      45.633  17.181   5.270  1.00  0.00    +0.000 H 
ATOM      6  C4  UNL A   1      45.090  16.563   4.586  1.00  0.00    +0.000 C 
BRANCH    6    5
ATOM      5  N1  UNL A   1      44.960  17.279   3.331  1.00  0.00    +0.000 N 
ATOM     96  H5  UNL A   1      44.561  16.795   2.571  1.00  0.00    +0.000 H 
BRANCH    5    3
ATOM      3  C3  UNL A   1      45.352  18.576   3.124  1.00  0.00    +0.000 C 
ATOM      4  O1  UNL A   1      46.499  18.862   3.469  1.00  0.00    +0.000 O 
BRANCH    3    2
ATOM      2  C2  UNL A   1      44.372  19.560   2.456  1.00  0.00    +0.000 C 
ATOM     95  H4  UNL A   1      44.492  19.447   1.398  1.00  0.00    +0.000 H 
BRANCH    2    1
ATOM      1  C1  UNL A   1      44.736  20.969   2.941  1.00  0.00    +0.000 C 
ATOM     92  H1  UNL A   1      44.851  20.961   4.005  1.00  0.00    +0.000 H 
ATOM     93  H2  UNL A   1      43.957  21.651   2.672  1.00  0.00    +0.000 H 
ATOM     94  H3  UNL A   1      45.654  21.278   2.486  1.00  0.00    +0.000 H 
ENDBRANCH    2    1
BRANCH    2   78
ATOM    137  H46 UNL A   1      39.904  19.309   1.033  1.00  0.00    +0.000 H 
ATOM     78  C55 UNL A   1      42.872  19.274   2.652  1.00  0.00    +0.000 C 
ATOM     79  C56 UNL A   1      42.352  18.913   3.909  1.00  0.00    +0.000 C 
ATOM     80  C57 UNL A   1      40.987  18.705   4.122  1.00  0.00    +0.000 C 
ATOM     81  C58 UNL A   1      40.077  18.833   3.077  1.00  0.00    +0.000 C 
ATOM     89  C65 UNL A   1      40.565  19.187   1.816  1.00  0.00    +0.000 C 
ATOM     90  C66 UNL A   1      41.939  19.379   1.597  1.00  0.00    +0.000 C 
ATOM     91 Br1  UNL A   1      42.435  19.709  -0.213  1.00  0.00    +0.000 Br
ATOM    124  H33 UNL A   1      43.003  18.798   4.702  1.00  0.00    +0.000 H 
ATOM    125  H34 UNL A   1      40.649  18.454   5.063  1.00  0.00    +0.000 H 
BRANCH   81   82
ATOM     82  C59 UNL A   1      38.609  18.560   3.298  1.00  0.00    +0.000 C 
ATOM    126  H35 UNL A   1      38.523  17.849   4.092  1.00  0.00    +0.000 H 
ATOM    127  H36 UNL A   1      38.233  18.212   2.358  1.00  0.00    +0.000 H 
BRANCH   82   83
ATOM    129  H38 UNL A   1      38.001  20.584   1.678  1.00  0.00    +0.000 H 
ATOM    130  H39 UNL A   1      38.506  21.674   2.914  1.00  0.00    +0.000 H 
ATOM    131  H40 UNL A   1      35.841  21.318   1.772  1.00  0.00    +0.000 H 
ATOM    132  H41 UNL A   1      36.381  22.609   2.772  1.00  0.00    +0.000 H 
ATOM    133  H42 UNL A   1      34.599  20.850   3.708  1.00  0.00    +0.000 H 
ATOM    134  H43 UNL A   1      35.786  21.433   4.780  1.00  0.00    +0.000 H 
ATOM    135  H44 UNL A   1      35.835  18.838   3.174  1.00  0.00    +0.000 H 
ATOM     83  C60 UNL A   1      37.751  19.783   3.664  1.00  0.00    +0.000 C 
ATOM     84  C61 UNL A   1      37.767  20.945   2.658  1.00  0.00    +0.000 C 
ATOM     85  C62 UNL A   1      36.357  21.544   2.681  1.00  0.00    +0.000 C 
ATOM     86  C63 UNL A   1      35.656  20.895   3.864  1.00  0.00    +0.000 C 
ATOM     87  C64 UNL A   1      36.264  19.501   3.896  1.00  0.00    +0.000 C 
ATOM    128  H37 UNL A   1      38.246  20.056   4.572  1.00  0.00    +0.000 H 
BRANCH   87   88
ATOM    136  H45 UNL A   1      36.907  18.595   5.516  1.00  0.00    +0.000 H 
ATOM     88  O3  UNL A   1      36.054  18.865   5.143  1.00  0.00    +0.000 O 
ENDBRANCH   87   88
ENDBRANCH   82   83
ENDBRANCH   81   82
ENDBRANCH    2   78
ENDBRANCH    3    2
ENDBRANCH    5    3
ENDBRANCH    6    5
ENDBRANCH    7    6
ENDBRANCH    8    7
ENDBRANCH    9    8
ENDBRANCH   10    9
ENDBRANCH   11   10
ENDBRANCH   12   11
ENDBRANCH   13   12
ENDBRANCH   15   13
ENDBRANCH   19   18
BRANCH   23   24
ATOM     33  C24 UNL A   1      59.223  15.514  11.715  1.00  0.00    +0.000 C 
ATOM     34  F5  UNL A   1      58.402  14.944  12.610  1.00  0.00    +0.000 F 
ATOM     24  C19 UNL A   1      59.193  16.903  11.512  1.00  0.00    +0.000 C 
ATOM     25  C20 UNL A   1      60.077  17.448  10.568  1.00  0.00    +0.000 C 
ATOM     26  F1  UNL A   1      60.078  18.767  10.330  1.00  0.00    +0.000 F 
ATOM     27  C21 UNL A   1      60.944  16.633   9.845  1.00  0.00    +0.000 C 
ATOM     28  F2  UNL A   1      61.755  17.172   8.924  1.00  0.00    +0.000 F 
ATOM     29  C22 UNL A   1      60.966  15.264  10.071  1.00  0.00    +0.000 C 
ATOM     30  F3  UNL A   1      61.809  14.484   9.384  1.00  0.00    +0.000 F 
ATOM     31  C23 UNL A   1      60.109  14.706  11.009  1.00  0.00    +0.000 C 
ATOM     32  F4  UNL A   1      60.137  13.385  11.237  1.00  0.00    +0.000 F 
ENDBRANCH   23   24
BRANCH   40   41
ATOM     41  C30 UNL A   1      59.417  20.575  17.710  1.00  0.00    +0.000 C 
ATOM     42  C31 UNL A   1      59.436  19.824  18.894  1.00  0.00    +0.000 C 
ATOM     43  F6  UNL A   1      58.537  18.846  19.088  1.00  0.00    +0.000 F 
ATOM     44  C32 UNL A   1      60.350  20.105  19.905  1.00  0.00    +0.000 C 
ATOM     45  F7  UNL A   1      60.318  19.408  21.049  1.00  0.00    +0.000 F 
ATOM     46  C33 UNL A   1      61.283  21.118  19.738  1.00  0.00    +0.000 C 
ATOM     47  F8  UNL A   1      62.164  21.387  20.711  1.00  0.00    +0.000 F 
ATOM     48  C34 UNL A   1      61.297  21.859  18.565  1.00  0.00    +0.000 C 
ATOM     49  F9  UNL A   1      62.204  22.831  18.398  1.00  0.00    +0.000 F 
ATOM     50  C35 UNL A   1      60.366  21.598  17.564  1.00  0.00    +0.000 C 
ATOM     51  F10 UNL A   1      60.392  22.341  16.447  1.00  0.00    +0.000 F 
ENDBRANCH   40   41
BRANCH   55   56
ATOM     65  C44 UNL A   1      52.074  21.962  17.774  1.00  0.00    +0.000 C 
ATOM     66  F15 UNL A   1      52.197  20.656  18.055  1.00  0.00    +0.000 F 
ATOM     56  C39 UNL A   1      52.814  22.527  16.726  1.00  0.00    +0.000 C 
ATOM     57  C40 UNL A   1      52.643  23.894  16.469  1.00  0.00    +0.000 C 
ATOM     58  F11 UNL A   1      53.346  24.483  15.490  1.00  0.00    +0.000 F 
ATOM     59  C41 UNL A   1      51.788  24.671  17.246  1.00  0.00    +0.000 C 
ATOM     60  F12 UNL A   1      51.682  25.986  17.012  1.00  0.00    +0.000 F 
ATOM     61  C42 UNL A   1      51.063  24.090  18.275  1.00  0.00    +0.000 C 
ATOM     62  F13 UNL A   1      50.241  24.838  19.024  1.00  0.00    +0.000 F 
ATOM     63  C43 UNL A   1      51.197  22.734  18.533  1.00  0.00    +0.000 C 
ATOM     64  F14 UNL A   1      50.488  22.166  19.518  1.00  0.00    +0.000 F 
ENDBRANCH   55   56
TORSDOF 20
ENDMDL
MODEL 6
REMARK VINA RESULT:      -8.8     46.208     51.074
ROOT
ATOM     19  C15 UNL A   1      15.277  24.539  -2.848  1.00  0.00    +0.000 C 
ATOM     20  C16 UNL A   1      15.146  26.011  -2.575  1.00  0.00    +0.000 C 
ATOM     21  N3  UNL A   1      16.071  26.876  -2.237  1.00  0.00    +0.000 N 
ATOM     22  C17 UNL A   1      15.425  28.101  -2.135  1.00  0.00    +0.000 C 
ATOM     23  C18 UNL A   1      15.936  29.296  -1.754  1.00  0.00    +0.000 C 
ATOM     35  C25 UNL A   1      17.308  29.513  -1.375  1.00  0.00    +0.000 C 
ATOM     36  C26 UNL A   1      17.908  30.677  -0.929  1.00  0.00    +0.000 C 
ATOM     37  C27 UNL A   1      19.265  30.417  -0.711  1.00  0.00    +0.000 C 
ATOM     38  C28 UNL A   1      19.502  29.079  -0.983  1.00  0.00    +0.000 C 
ATOM     39  N4  UNL A   1      18.295  28.538  -1.395  1.00  0.00    +0.000 N 
ATOM     40  C29 UNL A   1      20.736  28.348  -0.875  1.00  0.00    +0.000 C 
ATOM     52  C36 UNL A   1      20.885  27.030  -1.155  1.00  0.00    +0.000 C 
ATOM     53  N5  UNL A   1      19.934  26.119  -1.591  1.00  0.00    +0.000 N 
ATOM     54  C37 UNL A   1      20.568  24.982  -1.742  1.00  0.00    +0.000 C 
ATOM     55  C38 UNL A   1      20.031  23.644  -2.170  1.00  0.00    +0.000 C 
ATOM     67  C45 UNL A   1      18.717  23.516  -2.435  1.00  0.00    +0.000 C 
ATOM     68  C46 UNL A   1      18.052  22.282  -2.840  1.00  0.00    +0.000 C 
ATOM     69  C47 UNL A   1      16.750  22.532  -3.045  1.00  0.00    +0.000 C 
ATOM     70  C48 UNL A   1      16.482  23.942  -2.756  1.00  0.00    +0.000 C 
ATOM     71  N6  UNL A   1      17.708  24.448  -2.403  1.00  0.00    +0.000 N 
ATOM     72  C49 UNL A   1      22.005  25.052  -1.439  1.00  0.00    +0.000 C 
ATOM     73  C50 UNL A   1      22.137  26.310  -1.046  1.00  0.00    +0.000 C 
ATOM     74  C51 UNL A   1      14.040  27.880  -2.494  1.00  0.00    +0.000 C 
ATOM     75  C52 UNL A   1      13.804  26.596  -2.721  1.00  0.00    +0.000 C 
ATOM    112  H21 UNL A   1      17.435  31.583  -0.784  1.00  0.00    +0.000 H 
ATOM    113  H22 UNL A   1      19.970  31.104  -0.400  1.00  0.00    +0.000 H 
ATOM    114  H23 UNL A   1      18.158  27.601  -1.662  1.00  0.00    +0.000 H 
ATOM    115  H24 UNL A   1      18.510  21.363  -2.952  1.00  0.00    +0.000 H 
ATOM    116  H25 UNL A   1      16.049  21.841  -3.356  1.00  0.00    +0.000 H 
ATOM    117  H26 UNL A   1      17.852  25.388  -2.149  1.00  0.00    +0.000 H 
ATOM    118  H27 UNL A   1      22.723  24.314  -1.514  1.00  0.00    +0.000 H 
ATOM    119  H28 UNL A   1      23.018  26.725  -0.705  1.00  0.00    +0.000 H 
ATOM    120  H29 UNL A   1      13.331  28.625  -2.564  1.00  0.00    +0.000 H 
ATOM    121  H30 UNL A   1      12.911  26.127  -2.942  1.00  0.00    +0.000 H 
ENDROOT
BRANCH   19   18
ATOM     76  C53 UNL A   1      13.361  23.019  -2.319  1.00  0.00    +0.000 C 
ATOM     77  C54 UNL A   1      12.240  22.285  -2.706  1.00  0.00    +0.000 C 
ATOM    110  H19 UNL A   1      12.233  23.027  -5.977  1.00  0.00    +0.000 H 
ATOM     15  C11 UNL A   1      11.792  22.337  -4.029  1.00  0.00    +0.000 C 
ATOM     16  C12 UNL A   1      12.538  23.025  -4.991  1.00  0.00    +0.000 C 
ATOM     17  C13 UNL A   1      13.695  23.712  -4.615  1.00  0.00    +0.000 C 
ATOM    111  H20 UNL A   1      14.257  24.199  -5.330  1.00  0.00    +0.000 H 
ATOM     18  C14 UNL A   1      14.098  23.741  -3.269  1.00  0.00    +0.000 C 
ATOM    122  H31 UNL A   1      13.650  23.031  -1.329  1.00  0.00    +0.000 H 
ATOM    123  H32 UNL A   1      11.741  21.703  -2.014  1.00  0.00    +0.000 H 
BRANCH   15   13
ATOM     13  C10 UNL A   1      10.548  21.655  -4.452  1.00  0.00    +0.000 C 
ATOM     14  O2  UNL A   1      10.573  20.457  -4.714  1.00  0.00    +0.000 O 
BRANCH   13   12
ATOM     12  N2  UNL A   1       9.378  22.360  -4.574  1.00  0.00    +0.000 N 
ATOM    109  H18 UNL A   1       9.175  22.685  -5.482  1.00  0.00    +0.000 H 
BRANCH   12   11
ATOM     11  C9  UNL A   1       8.393  22.699  -3.561  1.00  0.00    +0.000 C 
ATOM    108  H17 UNL A   1       8.699  22.240  -2.644  1.00  0.00    +0.000 H 
ATOM    107  H16 UNL A   1       7.436  22.341  -3.880  1.00  0.00    +0.000 H 
BRANCH   11   10
ATOM    105  H14 UNL A   1       7.312  24.520  -3.590  1.00  0.00    +0.000 H 
ATOM     10  C8  UNL A   1       8.297  24.204  -3.317  1.00  0.00    +0.000 C 
ATOM    106  H15 UNL A   1       8.521  24.351  -2.281  1.00  0.00    +0.000 H 
BRANCH   10    9
ATOM      9  C7  UNL A   1       9.301  25.056  -4.095  1.00  0.00    +0.000 C 
ATOM    103  H12 UNL A   1       9.793  24.424  -4.803  1.00  0.00    +0.000 H 
ATOM    104  H13 UNL A   1       8.734  25.844  -4.545  1.00  0.00    +0.000 H 
BRANCH    9    8
ATOM    101  H10 UNL A   1      11.330  25.426  -3.607  1.00  0.00    +0.000 H 
ATOM    102  H11 UNL A   1      10.199  26.791  -3.342  1.00  0.00    +0.000 H 
ATOM      8  C6  UNL A   1      10.373  25.740  -3.246  1.00  0.00    +0.000 C 
BRANCH    8    7
ATOM     99  H8  UNL A   1       9.356  25.021  -1.523  1.00  0.00    +0.000 H 
ATOM    100  H9  UNL A   1      11.129  24.777  -1.539  1.00  0.00    +0.000 H 
ATOM      7  C5  UNL A   1      10.316  25.441  -1.741  1.00  0.00    +0.000 C 
BRANCH    7    6
ATOM     97  H6  UNL A   1       9.714  26.702  -0.125  1.00  0.00    +0.000 H 
ATOM     98  H7  UNL A   1      11.458  26.542  -0.324  1.00  0.00    +0.000 H 
ATOM      6  C4  UNL A   1      10.520  26.656  -0.827  1.00  0.00    +0.000 C 
BRANCH    6    5
ATOM      5  N1  UNL A   1      10.558  27.894  -1.583  1.00  0.00    +0.000 N 
ATOM     96  H5  UNL A   1      11.153  27.931  -2.367  1.00  0.00    +0.000 H 
BRANCH    5    3
ATOM      3  C3  UNL A   1       9.827  29.016  -1.286  1.00  0.00    +0.000 C 
ATOM      4  O1  UNL A   1       8.649  28.834  -0.977  1.00  0.00    +0.000 O 
BRANCH    3    2
ATOM      2  C2  UNL A   1      10.516  30.394  -1.321  1.00  0.00    +0.000 C 
ATOM     95  H4  UNL A   1      11.518  30.231  -1.665  1.00  0.00    +0.000 H 
BRANCH    2    1
ATOM      1  C1  UNL A   1      10.469  30.964   0.102  1.00  0.00    +0.000 C 
ATOM     92  H1  UNL A   1      11.404  30.784   0.590  1.00  0.00    +0.000 H 
ATOM     93  H2  UNL A   1       9.684  30.489   0.651  1.00  0.00    +0.000 H 
ATOM     94  H3  UNL A   1      10.287  32.018   0.059  1.00  0.00    +0.000 H 
ENDBRANCH    2    1
BRANCH    2   78
ATOM    137  H46 UNL A   1      10.074  32.210  -5.628  1.00  0.00    +0.000 H 
ATOM     78  C55 UNL A   1       9.975  31.407  -2.346  1.00  0.00    +0.000 C 
ATOM     79  C56 UNL A   1       9.183  32.501  -1.948  1.00  0.00    +0.000 C 
ATOM     80  C57 UNL A   1       8.730  33.463  -2.853  1.00  0.00    +0.000 C 
ATOM     81  C58 UNL A   1       9.035  33.366  -4.208  1.00  0.00    +0.000 C 
ATOM     89  C65 UNL A   1       9.817  32.289  -4.632  1.00  0.00    +0.000 C 
ATOM     90  C66 UNL A   1      10.259  31.311  -3.725  1.00  0.00    +0.000 C 
ATOM     91 Br1  UNL A   1      11.185  29.839  -4.506  1.00  0.00    +0.000 Br
ATOM    124  H33 UNL A   1       8.928  32.594  -0.952  1.00  0.00    +0.000 H 
ATOM    125  H34 UNL A   1       8.162  34.255  -2.515  1.00  0.00    +0.000 H 
BRANCH   81   82
ATOM     82  C59 UNL A   1       8.503  34.380  -5.190  1.00  0.00    +0.000 C 
ATOM    126  H35 UNL A   1       8.293  33.872  -6.107  1.00  0.00    +0.000 H 
ATOM    127  H36 UNL A   1       9.262  35.131  -5.273  1.00  0.00    +0.000 H 
BRANCH   82   83
ATOM    129  H38 UNL A   1       7.986  36.961  -5.592  1.00  0.00    +0.000 H 
ATOM    130  H39 UNL A   1       7.570  37.097  -3.926  1.00  0.00    +0.000 H 
ATOM    131  H40 UNL A   1       5.862  37.456  -6.269  1.00  0.00    +0.000 H 
ATOM    132  H41 UNL A   1       5.507  37.895  -4.644  1.00  0.00    +0.000 H 
ATOM    133  H42 UNL A   1       4.167  35.898  -5.812  1.00  0.00    +0.000 H 
ATOM    134  H43 UNL A   1       4.563  35.739  -4.164  1.00  0.00    +0.000 H 
ATOM    135  H44 UNL A   1       6.088  34.631  -6.565  1.00  0.00    +0.000 H 
ATOM     83  C60 UNL A   1       7.228  35.123  -4.759  1.00  0.00    +0.000 C 
ATOM     84  C61 UNL A   1       7.274  36.657  -4.854  1.00  0.00    +0.000 C 
ATOM     85  C62 UNL A   1       5.865  37.098  -5.261  1.00  0.00    +0.000 C 
ATOM     86  C63 UNL A   1       4.995  35.857  -5.136  1.00  0.00    +0.000 C 
ATOM     87  C64 UNL A   1       5.951  34.734  -5.509  1.00  0.00    +0.000 C 
ATOM    128  H37 UNL A   1       7.197  34.803  -3.739  1.00  0.00    +0.000 H 
BRANCH   87   88
ATOM    136  H45 UNL A   1       5.261  33.512  -4.136  1.00  0.00    +0.000 H 
ATOM     88  O3  UNL A   1       5.472  33.473  -5.081  1.00  0.00    +0.000 O 
ENDBRANCH   87   88
ENDBRANCH   82   83
ENDBRANCH   81   82
ENDBRANCH    2   78
ENDBRANCH    3    2
ENDBRANCH    5    3
ENDBRANCH    6    5
ENDBRANCH    7    6
ENDBRANCH    8    7
ENDBRANCH    9    8
ENDBRANCH   10    9
ENDBRANCH   11   10
ENDBRANCH   12   11
ENDBRANCH   13   12
ENDBRANCH   15   13
ENDBRANCH   19   18
BRANCH   23   24
ATOM     33  C24 UNL A   1      14.504  31.032  -2.895  1.00  0.00    +0.000 C 
ATOM     34  F5  UNL A   1      14.820  30.495  -4.084  1.00  0.00    +0.000 F 
ATOM     24  C19 UNL A   1      15.002  30.469  -1.710  1.00  0.00    +0.000 C 
ATOM     25  C20 UNL A   1      14.645  31.073  -0.495  1.00  0.00    +0.000 C 
ATOM     26  F1  UNL A   1      15.087  30.566   0.665  1.00  0.00    +0.000 F 
ATOM     27  C21 UNL A   1      13.810  32.188  -0.468  1.00  0.00    +0.000 C 
ATOM     28  F2  UNL A   1      13.455  32.728   0.707  1.00  0.00    +0.000 F 
ATOM     29  C22 UNL A   1      13.340  32.735  -1.652  1.00  0.00    +0.000 C 
ATOM     30  F3  UNL A   1      12.547  33.814  -1.624  1.00  0.00    +0.000 F 
ATOM     31  C23 UNL A   1      13.690  32.161  -2.865  1.00  0.00    +0.000 C 
ATOM     32  F4  UNL A   1      13.246  32.696  -4.011  1.00  0.00    +0.000 F 
ENDBRANCH   23   24
BRANCH   40   41
ATOM     41  C30 UNL A   1      21.954  29.086  -0.401  1.00  0.00    +0.000 C 
ATOM     42  C31 UNL A   1      22.880  29.627  -1.303  1.00  0.00    +0.000 C 
ATOM     43  F6  UNL A   1      22.713  29.460  -2.624  1.00  0.00    +0.000 F 
ATOM     44  C32 UNL A   1      24.009  30.304  -0.849  1.00  0.00    +0.000 C 
ATOM     45  F7  UNL A   1      24.908  30.769  -1.728  1.00  0.00    +0.000 F 
ATOM     46  C33 UNL A   1      24.215  30.481   0.511  1.00  0.00    +0.000 C 
ATOM     47  F8  UNL A   1      25.301  31.134   0.947  1.00  0.00    +0.000 F 
ATOM     48  C34 UNL A   1      23.299  29.973   1.420  1.00  0.00    +0.000 C 
ATOM     49  F9  UNL A   1      23.490  30.152   2.735  1.00  0.00    +0.000 F 
ATOM     50  C35 UNL A   1      22.183  29.273   0.971  1.00  0.00    +0.000 C 
ATOM     51  F10 UNL A   1      21.323  28.778   1.874  1.00  0.00    +0.000 F 
ENDBRANCH   40   41
BRANCH   55   56
ATOM     65  C44 UNL A   1      21.244  21.903  -3.525  1.00  0.00    +0.000 C 
ATOM     66  F15 UNL A   1      20.709  22.409  -4.645  1.00  0.00    +0.000 F 
ATOM     56  C39 UNL A   1      20.931  22.468  -2.280  1.00  0.00    +0.000 C 
ATOM     57  C40 UNL A   1      21.513  21.897  -1.139  1.00  0.00    +0.000 C 
ATOM     58  F11 UNL A   1      21.260  22.417   0.071  1.00  0.00    +0.000 F 
ATOM     59  C41 UNL A   1      22.393  20.823  -1.241  1.00  0.00    +0.000 C 
ATOM     60  F12 UNL A   1      22.975  20.329  -0.139  1.00  0.00    +0.000 F 
ATOM     61  C42 UNL A   1      22.685  20.278  -2.482  1.00  0.00    +0.000 C 
ATOM     62  F13 UNL A   1      23.533  19.245  -2.580  1.00  0.00    +0.000 F 
ATOM     63  C43 UNL A   1      22.104  20.811  -3.623  1.00  0.00    +0.000 C 
ATOM     64  F14 UNL A   1      22.373  20.278  -4.823  1.00  0.00    +0.000 F 
ENDBRANCH   55   56
TORSDOF 20
ENDMDL
MODEL 7
REMARK VINA RESULT:      -8.8     19.067     26.308
ROOT
ATOM     19  C15 UNL A   1      40.485  28.588  30.145  1.00  0.00    +0.000 C 
ATOM     20  C16 UNL A   1      39.501  29.705  30.349  1.00  0.00    +0.000 C 
ATOM     21  N3  UNL A   1      39.611  30.780  31.090  1.00  0.00    +0.000 N 
ATOM     22  C17 UNL A   1      38.435  31.493  30.900  1.00  0.00    +0.000 C 
ATOM     23  C18 UNL A   1      38.041  32.645  31.493  1.00  0.00    +0.000 C 
ATOM     35  C25 UNL A   1      38.817  33.368  32.468  1.00  0.00    +0.000 C 
ATOM     36  C26 UNL A   1      38.482  34.519  33.158  1.00  0.00    +0.000 C 
ATOM     37  C27 UNL A   1      39.561  34.871  33.976  1.00  0.00    +0.000 C 
ATOM     38  C28 UNL A   1      40.553  33.917  33.824  1.00  0.00    +0.000 C 
ATOM     39  N4  UNL A   1      40.087  33.004  32.891  1.00  0.00    +0.000 N 
ATOM     40  C29 UNL A   1      41.832  33.842  34.479  1.00  0.00    +0.000 C 
ATOM     52  C36 UNL A   1      42.750  32.865  34.279  1.00  0.00    +0.000 C 
ATOM     53  N5  UNL A   1      42.683  31.764  33.439  1.00  0.00    +0.000 N 
ATOM     54  C37 UNL A   1      43.822  31.133  33.580  1.00  0.00    +0.000 C 
ATOM     55  C38 UNL A   1      44.291  29.859  32.931  1.00  0.00    +0.000 C 
ATOM     67  C45 UNL A   1      43.468  29.209  32.086  1.00  0.00    +0.000 C 
ATOM     68  C46 UNL A   1      43.775  27.958  31.400  1.00  0.00    +0.000 C 
ATOM     69  C47 UNL A   1      42.737  27.619  30.620  1.00  0.00    +0.000 C 
ATOM     70  C48 UNL A   1      41.677  28.617  30.774  1.00  0.00    +0.000 C 
ATOM     71  N6  UNL A   1      42.199  29.523  31.662  1.00  0.00    +0.000 N 
ATOM     72  C49 UNL A   1      44.754  31.780  34.514  1.00  0.00    +0.000 C 
ATOM     73  C50 UNL A   1      44.036  32.807  34.944  1.00  0.00    +0.000 C 
ATOM     74  C51 UNL A   1      37.644  30.756  29.939  1.00  0.00    +0.000 C 
ATOM     75  C52 UNL A   1      38.234  29.616  29.607  1.00  0.00    +0.000 C 
ATOM    112  H21 UNL A   1      37.588  35.030  33.083  1.00  0.00    +0.000 H 
ATOM    113  H22 UNL A   1      39.609  35.701  34.588  1.00  0.00    +0.000 H 
ATOM    114  H23 UNL A   1      40.583  32.215  32.577  1.00  0.00    +0.000 H 
ATOM    115  H24 UNL A   1      44.651  27.420  31.499  1.00  0.00    +0.000 H 
ATOM    116  H25 UNL A   1      42.694  26.789  30.009  1.00  0.00    +0.000 H 
ATOM    117  H26 UNL A   1      41.712  30.322  31.968  1.00  0.00    +0.000 H 
ATOM    118  H27 UNL A   1      45.716  31.507  34.769  1.00  0.00    +0.000 H 
ATOM    119  H28 UNL A   1      44.351  33.479  35.660  1.00  0.00    +0.000 H 
ATOM    120  H29 UNL A   1      36.740  31.077  29.559  1.00  0.00    +0.000 H 
ATOM    121  H30 UNL A   1      37.892  28.861  28.992  1.00  0.00    +0.000 H 
ENDROOT
BRANCH   19   18
ATOM     76  C53 UNL A   1      40.721  27.467  27.920  1.00  0.00    +0.000 C 
ATOM     77  C54 UNL A   1      40.454  26.412  27.048  1.00  0.00    +0.000 C 
ATOM    110  H19 UNL A   1      38.562  24.526  29.076  1.00  0.00    +0.000 H 
ATOM     15  C11 UNL A   1      39.717  25.309  27.489  1.00  0.00    +0.000 C 
ATOM     16  C12 UNL A   1      39.144  25.319  28.764  1.00  0.00    +0.000 C 
ATOM     17  C13 UNL A   1      39.361  26.404  29.617  1.00  0.00    +0.000 C 
ATOM    111  H20 UNL A   1      38.918  26.421  30.549  1.00  0.00    +0.000 H 
ATOM     18  C14 UNL A   1      40.179  27.472  29.213  1.00  0.00    +0.000 C 
ATOM    122  H31 UNL A   1      41.320  28.249  27.611  1.00  0.00    +0.000 H 
ATOM    123  H32 UNL A   1      40.801  26.446  26.076  1.00  0.00    +0.000 H 
BRANCH   15   13
ATOM     13  C10 UNL A   1      39.503  24.125  26.626  1.00  0.00    +0.000 C 
ATOM     14  O2  UNL A   1      38.451  24.012  26.004  1.00  0.00    +0.000 O 
BRANCH   13   12
ATOM     12  N2  UNL A   1      40.462  23.148  26.538  1.00  0.00    +0.000 N 
ATOM    109  H18 UNL A   1      40.910  23.076  25.664  1.00  0.00    +0.000 H 
BRANCH   12   11
ATOM     11  C9  UNL A   1      40.914  22.204  27.546  1.00  0.00    +0.000 C 
ATOM    108  H17 UNL A   1      40.848  21.223  27.125  1.00  0.00    +0.000 H 
ATOM    107  H16 UNL A   1      40.291  22.303  28.412  1.00  0.00    +0.000 H 
BRANCH   11   10
ATOM    105  H14 UNL A   1      42.773  21.500  28.276  1.00  0.00    +0.000 H 
ATOM     10  C8  UNL A   1      42.366  22.437  27.958  1.00  0.00    +0.000 C 
ATOM    106  H15 UNL A   1      42.855  22.848  27.099  1.00  0.00    +0.000 H 
BRANCH   10    9
ATOM      9  C7  UNL A   1      42.570  23.450  29.087  1.00  0.00    +0.000 C 
ATOM    103  H12 UNL A   1      41.621  23.887  29.314  1.00  0.00    +0.000 H 
ATOM    104  H13 UNL A   1      42.996  22.902  29.902  1.00  0.00    +0.000 H 
BRANCH    9    8
ATOM    101  H10 UNL A   1      43.353  24.930  27.787  1.00  0.00    +0.000 H 
ATOM    102  H11 UNL A   1      43.392  25.322  29.536  1.00  0.00    +0.000 H 
ATOM      8  C6  UNL A   1      43.551  24.582  28.779  1.00  0.00    +0.000 C 
BRANCH    8    7
ATOM     99  H8  UNL A   1      45.170  23.556  29.697  1.00  0.00    +0.000 H 
ATOM    100  H9  UNL A   1      45.284  23.760  27.923  1.00  0.00    +0.000 H 
ATOM      7  C5  UNL A   1      45.038  24.210  28.861  1.00  0.00    +0.000 C 
BRANCH    7    6
ATOM     97  H6  UNL A   1      46.279  25.469  30.060  1.00  0.00    +0.000 H 
ATOM     98  H7  UNL A   1      46.854  25.223  28.413  1.00  0.00    +0.000 H 
ATOM      6  C4  UNL A   1      45.998  25.395  29.030  1.00  0.00    +0.000 C 
BRANCH    6    5
ATOM      5  N1  UNL A   1      45.384  26.644  28.618  1.00  0.00    +0.000 N 
ATOM     96  H5  UNL A   1      44.556  26.917  29.077  1.00  0.00    +0.000 H 
BRANCH    5    3
ATOM      3  C3  UNL A   1      45.871  27.471  27.638  1.00  0.00    +0.000 C 
ATOM      4  O1  UNL A   1      46.777  28.236  27.969  1.00  0.00    +0.000 O 
BRANCH    3    2
ATOM      2  C2  UNL A   1      45.294  27.367  26.213  1.00  0.00    +0.000 C 
ATOM     95  H4  UNL A   1      46.024  27.789  25.552  1.00  0.00    +0.000 H 
BRANCH    2    1
ATOM      1  C1  UNL A   1      43.970  28.142  26.198  1.00  0.00    +0.000 C 
ATOM     92  H1  UNL A   1      43.280  27.655  25.540  1.00  0.00    +0.000 H 
ATOM     93  H2  UNL A   1      44.145  29.140  25.854  1.00  0.00    +0.000 H 
ATOM     94  H3  UNL A   1      43.562  28.171  27.186  1.00  0.00    +0.000 H 
ENDBRANCH    2    1
BRANCH    2   78
ATOM    137  H46 UNL A   1      46.846  23.315  24.420  1.00  0.00    +0.000 H 
ATOM     78  C55 UNL A   1      45.116  25.947  25.646  1.00  0.00    +0.000 C 
ATOM     79  C56 UNL A   1      43.837  25.398  25.432  1.00  0.00    +0.000 C 
ATOM     80  C57 UNL A   1      43.651  24.135  24.865  1.00  0.00    +0.000 C 
ATOM     81  C58 UNL A   1      44.742  23.351  24.501  1.00  0.00    +0.000 C 
ATOM     89  C65 UNL A   1      46.024  23.869  24.704  1.00  0.00    +0.000 C 
ATOM     90  C66 UNL A   1      46.212  25.132  25.290  1.00  0.00    +0.000 C 
ATOM     91 Br1  UNL A   1      48.027  25.609  25.627  1.00  0.00    +0.000 Br
ATOM    124  H33 UNL A   1      43.007  25.949  25.704  1.00  0.00    +0.000 H 
ATOM    125  H34 UNL A   1      42.695  23.777  24.716  1.00  0.00    +0.000 H 
BRANCH   81   82
ATOM     82  C59 UNL A   1      44.540  21.968  23.934  1.00  0.00    +0.000 C 
ATOM    126  H35 UNL A   1      45.227  21.840  23.125  1.00  0.00    +0.000 H 
ATOM    127  H36 UNL A   1      43.511  21.920  23.642  1.00  0.00    +0.000 H 
BRANCH   82   83
ATOM    129  H38 UNL A   1      42.694  20.198  24.676  1.00  0.00    +0.000 H 
ATOM    130  H39 UNL A   1      43.117  20.503  26.318  1.00  0.00    +0.000 H 
ATOM    131  H40 UNL A   1      43.389  18.026  24.793  1.00  0.00    +0.000 H 
ATOM    132  H41 UNL A   1      43.527  18.221  26.496  1.00  0.00    +0.000 H 
ATOM    133  H42 UNL A   1      45.686  17.614  25.041  1.00  0.00    +0.000 H 
ATOM    134  H43 UNL A   1      45.880  18.684  26.351  1.00  0.00    +0.000 H 
ATOM    135  H44 UNL A   1      45.473  19.390  23.409  1.00  0.00    +0.000 H 
ATOM     83  C60 UNL A   1      44.748  20.806  24.918  1.00  0.00    +0.000 C 
ATOM     84  C61 UNL A   1      43.475  20.090  25.399  1.00  0.00    +0.000 C 
ATOM     85  C62 UNL A   1      43.852  18.614  25.556  1.00  0.00    +0.000 C 
ATOM     86  C63 UNL A   1      45.366  18.563  25.420  1.00  0.00    +0.000 C 
ATOM     87  C64 UNL A   1      45.655  19.675  24.425  1.00  0.00    +0.000 C 
ATOM    128  H37 UNL A   1      45.203  21.355  25.716  1.00  0.00    +0.000 H 
BRANCH   87   88
ATOM    136  H45 UNL A   1      47.261  20.318  25.356  1.00  0.00    +0.000 H 
ATOM     88  O3  UNL A   1      47.016  20.064  24.453  1.00  0.00    +0.000 O 
ENDBRANCH   87   88
ENDBRANCH   82   83
ENDBRANCH   81   82
ENDBRANCH    2   78
ENDBRANCH    3    2
ENDBRANCH    5    3
ENDBRANCH    6    5
ENDBRANCH    7    6
ENDBRANCH    8    7
ENDBRANCH    9    8
ENDBRANCH   10    9
ENDBRANCH   11   10
ENDBRANCH   12   11
ENDBRANCH   13   12
ENDBRANCH   15   13
ENDBRANCH   19   18
BRANCH   23   24
ATOM     33  C24 UNL A   1      36.503  33.832  29.883  1.00  0.00    +0.000 C 
ATOM     34  F5  UNL A   1      37.509  33.911  28.998  1.00  0.00    +0.000 F 
ATOM     24  C19 UNL A   1      36.697  33.196  31.118  1.00  0.00    +0.000 C 
ATOM     25  C20 UNL A   1      35.613  33.145  32.008  1.00  0.00    +0.000 C 
ATOM     26  F1  UNL A   1      35.745  32.538  33.197  1.00  0.00    +0.000 F 
ATOM     27  C21 UNL A   1      34.380  33.695  31.667  1.00  0.00    +0.000 C 
ATOM     28  F2  UNL A   1      33.349  33.605  32.519  1.00  0.00    +0.000 F 
ATOM     29  C22 UNL A   1      34.215  34.330  30.445  1.00  0.00    +0.000 C 
ATOM     30  F3  UNL A   1      33.032  34.870  30.123  1.00  0.00    +0.000 F 
ATOM     31  C23 UNL A   1      35.276  34.403  29.555  1.00  0.00    +0.000 C 
ATOM     32  F4  UNL A   1      35.122  35.026  28.379  1.00  0.00    +0.000 F 
ENDBRANCH   23   24
BRANCH   40   41
ATOM     41  C30 UNL A   1      42.178  34.910  35.474  1.00  0.00    +0.000 C 
ATOM     42  C31 UNL A   1      41.911  34.753  36.841  1.00  0.00    +0.000 C 
ATOM     43  F6  UNL A   1      41.296  33.646  37.286  1.00  0.00    +0.000 F 
ATOM     44  C32 UNL A   1      42.232  35.755  37.752  1.00  0.00    +0.000 C 
ATOM     45  F7  UNL A   1      41.921  35.606  39.047  1.00  0.00    +0.000 F 
ATOM     46  C33 UNL A   1      42.856  36.916  37.319  1.00  0.00    +0.000 C 
ATOM     47  F8  UNL A   1      43.166  37.879  38.197  1.00  0.00    +0.000 F 
ATOM     48  C34 UNL A   1      43.150  37.082  35.974  1.00  0.00    +0.000 C 
ATOM     49  F9  UNL A   1      43.763  38.198  35.556  1.00  0.00    +0.000 F 
ATOM     50  C35 UNL A   1      42.806  36.094  35.057  1.00  0.00    +0.000 C 
ATOM     51  F10 UNL A   1      43.088  36.289  33.760  1.00  0.00    +0.000 F 
ENDBRANCH   40   41
BRANCH   55   56
ATOM     65  C44 UNL A   1      45.839  28.418  34.296  1.00  0.00    +0.000 C 
ATOM     66  F15 UNL A   1      44.811  28.066  35.082  1.00  0.00    +0.000 F 
ATOM     56  C39 UNL A   1      45.637  29.307  33.232  1.00  0.00    +0.000 C 
ATOM     57  C40 UNL A   1      46.746  29.647  32.444  1.00  0.00    +0.000 C 
ATOM     58  F11 UNL A   1      46.597  30.477  31.402  1.00  0.00    +0.000 F 
ATOM     59  C41 UNL A   1      48.001  29.098  32.694  1.00  0.00    +0.000 C 
ATOM     60  F12 UNL A   1      49.033  29.399  31.895  1.00  0.00    +0.000 F 
ATOM     61  C42 UNL A   1      48.179  28.223  33.755  1.00  0.00    +0.000 C 
ATOM     62  F13 UNL A   1      49.385  27.693  33.994  1.00  0.00    +0.000 F 
ATOM     63  C43 UNL A   1      47.100  27.890  34.562  1.00  0.00    +0.000 C 
ATOM     64  F14 UNL A   1      47.271  27.055  35.596  1.00  0.00    +0.000 F 
ENDBRANCH   55   56
TORSDOF 20
ENDMDL
MODEL 8
REMARK VINA RESULT:      -8.7     44.005     47.133
ROOT
ATOM     19  C15 UNL A   1      13.229  49.848   3.698  1.00  0.00    +0.000 C 
ATOM     20  C16 UNL A   1      13.247  51.304   4.070  1.00  0.00    +0.000 C 
ATOM     21  N3  UNL A   1      13.934  52.285   3.538  1.00  0.00    +0.000 N 
ATOM     22  C17 UNL A   1      13.562  53.428   4.232  1.00  0.00    +0.000 C 
ATOM     23  C18 UNL A   1      14.035  54.690   4.098  1.00  0.00    +0.000 C 
ATOM     35  C25 UNL A   1      15.054  55.084   3.160  1.00  0.00    +0.000 C 
ATOM     36  C26 UNL A   1      15.632  56.329   2.982  1.00  0.00    +0.000 C 
ATOM     37  C27 UNL A   1      16.553  56.240   1.934  1.00  0.00    +0.000 C 
ATOM     38  C28 UNL A   1      16.578  54.930   1.484  1.00  0.00    +0.000 C 
ATOM     39  N4  UNL A   1      15.650  54.233   2.241  1.00  0.00    +0.000 N 
ATOM     40  C29 UNL A   1      17.388  54.355   0.443  1.00  0.00    +0.000 C 
ATOM     52  C36 UNL A   1      17.358  53.053   0.065  1.00  0.00    +0.000 C 
ATOM     53  N5  UNL A   1      16.580  52.019   0.564  1.00  0.00    +0.000 N 
ATOM     54  C37 UNL A   1      16.895  50.960  -0.141  1.00  0.00    +0.000 C 
ATOM     55  C38 UNL A   1      16.382  49.551  -0.021  1.00  0.00    +0.000 C 
ATOM     67  C45 UNL A   1      15.482  49.257   0.936  1.00  0.00    +0.000 C 
ATOM     68  C46 UNL A   1      14.911  47.937   1.185  1.00  0.00    +0.000 C 
ATOM     69  C47 UNL A   1      14.031  48.023   2.194  1.00  0.00    +0.000 C 
ATOM     70  C48 UNL A   1      13.997  49.402   2.684  1.00  0.00    +0.000 C 
ATOM     71  N6  UNL A   1      14.889  50.063   1.878  1.00  0.00    +0.000 N 
ATOM     72  C49 UNL A   1      17.898  51.212  -1.185  1.00  0.00    +0.000 C 
ATOM     73  C50 UNL A   1      18.177  52.492  -0.989  1.00  0.00    +0.000 C 
ATOM     74  C51 UNL A   1      12.554  53.030   5.192  1.00  0.00    +0.000 C 
ATOM     75  C52 UNL A   1      12.363  51.719   5.170  1.00  0.00    +0.000 C 
ATOM    112  H21 UNL A   1      15.418  57.177   3.530  1.00  0.00    +0.000 H 
ATOM    113  H22 UNL A   1      17.118  57.018   1.559  1.00  0.00    +0.000 H 
ATOM    114  H23 UNL A   1      15.444  53.275   2.140  1.00  0.00    +0.000 H 
ATOM    115  H24 UNL A   1      15.147  47.076   0.667  1.00  0.00    +0.000 H 
ATOM    116  H25 UNL A   1      13.468  47.242   2.566  1.00  0.00    +0.000 H 
ATOM    117  H26 UNL A   1      15.087  51.024   1.965  1.00  0.00    +0.000 H 
ATOM    118  H27 UNL A   1      18.283  50.562  -1.889  1.00  0.00    +0.000 H 
ATOM    119  H28 UNL A   1      18.887  53.022  -1.518  1.00  0.00    +0.000 H 
ATOM    120  H29 UNL A   1      12.049  53.683   5.812  1.00  0.00    +0.000 H 
ATOM    121  H30 UNL A   1      11.754  51.139   5.769  1.00  0.00    +0.000 H 
ENDROOT
BRANCH   19   18
ATOM     76  C53 UNL A   1      10.976  48.821   4.059  1.00  0.00    +0.000 C 
ATOM     77  C54 UNL A   1      10.134  47.916   4.706  1.00  0.00    +0.000 C 
ATOM    110  H19 UNL A   1      12.377  46.483   6.747  1.00  0.00    +0.000 H 
ATOM     15  C11 UNL A   1      10.657  47.020   5.643  1.00  0.00    +0.000 C 
ATOM     16  C12 UNL A   1      12.000  47.114   6.022  1.00  0.00    +0.000 C 
ATOM     17  C13 UNL A   1      12.830  48.060   5.417  1.00  0.00    +0.000 C 
ATOM    111  H20 UNL A   1      13.815  48.143   5.715  1.00  0.00    +0.000 H 
ATOM     18  C14 UNL A   1      12.332  48.899   4.406  1.00  0.00    +0.000 C 
ATOM    122  H31 UNL A   1      10.599  49.435   3.320  1.00  0.00    +0.000 H 
ATOM    123  H32 UNL A   1       9.124  47.909   4.492  1.00  0.00    +0.000 H 
BRANCH   15   13
ATOM     13  C10 UNL A   1       9.814  45.979   6.272  1.00  0.00    +0.000 C 
ATOM     14  O2  UNL A   1       8.847  45.533   5.662  1.00  0.00    +0.000 O 
BRANCH   13   12
ATOM     12  N2  UNL A   1      10.095  45.529   7.537  1.00  0.00    +0.000 N 
ATOM    109  H18 UNL A   1      10.178  44.552   7.627  1.00  0.00    +0.000 H 
BRANCH   12   11
ATOM     11  C9  UNL A   1      10.288  46.283   8.764  1.00  0.00    +0.000 C 
ATOM    108  H17 UNL A   1      11.233  46.781   8.694  1.00  0.00    +0.000 H 
ATOM    107  H16 UNL A   1      10.261  45.605   9.591  1.00  0.00    +0.000 H 
BRANCH   11   10
ATOM    105  H14 UNL A   1       8.433  47.174   8.262  1.00  0.00    +0.000 H 
ATOM     10  C8  UNL A   1       9.216  47.351   8.970  1.00  0.00    +0.000 C 
ATOM    106  H15 UNL A   1       8.900  47.260   9.988  1.00  0.00    +0.000 H 
BRANCH   10    9
ATOM      9  C7  UNL A   1       9.690  48.795   8.800  1.00  0.00    +0.000 C 
ATOM    103  H12 UNL A   1       9.314  49.159   7.867  1.00  0.00    +0.000 H 
ATOM    104  H13 UNL A   1       9.320  49.330   9.650  1.00  0.00    +0.000 H 
BRANCH    9    8
ATOM    101  H10 UNL A   1      11.664  48.026   8.722  1.00  0.00    +0.000 H 
ATOM    102  H11 UNL A   1      11.423  49.643   7.987  1.00  0.00    +0.000 H 
ATOM      8  C6  UNL A   1      11.207  48.990   8.806  1.00  0.00    +0.000 C 
BRANCH    8    7
ATOM     99  H8  UNL A   1      11.873  48.940  10.824  1.00  0.00    +0.000 H 
ATOM    100  H9  UNL A   1      12.716  50.101   9.755  1.00  0.00    +0.000 H 
ATOM      7  C5  UNL A   1      11.781  49.677  10.053  1.00  0.00    +0.000 C 
BRANCH    7    6
ATOM     97  H6  UNL A   1      10.585  51.425   9.784  1.00  0.00    +0.000 H 
ATOM     98  H7  UNL A   1      10.127  50.425  11.161  1.00  0.00    +0.000 H 
ATOM      6  C4  UNL A   1      10.942  50.837  10.603  1.00  0.00    +0.000 C 
BRANCH    6    5
ATOM      5  N1  UNL A   1      11.717  51.685  11.490  1.00  0.00    +0.000 N 
ATOM     96  H5  UNL A   1      12.263  51.243  12.180  1.00  0.00    +0.000 H 
BRANCH    5    3
ATOM      3  C3  UNL A   1      11.745  53.055  11.437  1.00  0.00    +0.000 C 
ATOM      4  O1  UNL A   1      10.781  53.640  11.930  1.00  0.00    +0.000 O 
BRANCH    3    2
ATOM      2  C2  UNL A   1      12.967  53.759  10.816  1.00  0.00    +0.000 C 
ATOM     95  H4  UNL A   1      13.552  54.141  11.628  1.00  0.00    +0.000 H 
BRANCH    2    1
ATOM      1  C1  UNL A   1      12.438  54.870   9.900  1.00  0.00    +0.000 C 
ATOM     92  H1  UNL A   1      11.897  54.434   9.087  1.00  0.00    +0.000 H 
ATOM     93  H2  UNL A   1      13.261  55.437   9.516  1.00  0.00    +0.000 H 
ATOM     94  H3  UNL A   1      11.789  55.513  10.457  1.00  0.00    +0.000 H 
ENDBRANCH    2    1
BRANCH    2   78
ATOM    137  H46 UNL A   1      16.807  51.070  10.534  1.00  0.00    +0.000 H 
ATOM     78  C55 UNL A   1      13.975  52.860  10.077  1.00  0.00    +0.000 C 
ATOM     79  C56 UNL A   1      13.877  52.634   8.691  1.00  0.00    +0.000 C 
ATOM     80  C57 UNL A   1      14.814  51.869   7.991  1.00  0.00    +0.000 C 
ATOM     81  C58 UNL A   1      15.886  51.277   8.651  1.00  0.00    +0.000 C 
ATOM     89  C65 UNL A   1      16.006  51.481  10.028  1.00  0.00    +0.000 C 
ATOM     90  C66 UNL A   1      15.056  52.236  10.737  1.00  0.00    +0.000 C 
ATOM     91 Br1  UNL A   1      15.299  52.281  12.627  1.00  0.00    +0.000 Br
ATOM    124  H33 UNL A   1      13.086  53.049   8.174  1.00  0.00    +0.000 H 
ATOM    125  H34 UNL A   1      14.709  51.740   6.973  1.00  0.00    +0.000 H 
BRANCH   81   82
ATOM     82  C59 UNL A   1      16.868  50.411   7.901  1.00  0.00    +0.000 C 
ATOM    126  H35 UNL A   1      17.241  49.673   8.579  1.00  0.00    +0.000 H 
ATOM    127  H36 UNL A   1      17.618  51.078   7.528  1.00  0.00    +0.000 H 
BRANCH   82   83
ATOM    129  H38 UNL A   1      17.871  50.512   5.437  1.00  0.00    +0.000 H 
ATOM    130  H39 UNL A   1      16.290  50.863   4.849  1.00  0.00    +0.000 H 
ATOM    131  H40 UNL A   1      17.956  48.524   4.317  1.00  0.00    +0.000 H 
ATOM    132  H41 UNL A   1      16.526  48.996   3.484  1.00  0.00    +0.000 H 
ATOM    133  H42 UNL A   1      16.521  46.802   5.013  1.00  0.00    +0.000 H 
ATOM    134  H43 UNL A   1      15.122  47.773   5.001  1.00  0.00    +0.000 H 
ATOM    135  H44 UNL A   1      17.409  47.818   7.022  1.00  0.00    +0.000 H 
ATOM     83  C60 UNL A   1      16.309  49.681   6.669  1.00  0.00    +0.000 C 
ATOM     84  C61 UNL A   1      16.888  50.107   5.310  1.00  0.00    +0.000 C 
ATOM     85  C62 UNL A   1      16.943  48.837   4.456  1.00  0.00    +0.000 C 
ATOM     86  C63 UNL A   1      16.166  47.787   5.235  1.00  0.00    +0.000 C 
ATOM     87  C64 UNL A   1      16.452  48.157   6.682  1.00  0.00    +0.000 C 
ATOM    128  H37 UNL A   1      15.286  49.980   6.760  1.00  0.00    +0.000 H 
BRANCH   87   88
ATOM    136  H45 UNL A   1      15.720  47.842   8.477  1.00  0.00    +0.000 H 
ATOM     88  O3  UNL A   1      15.522  47.564   7.569  1.00  0.00    +0.000 O 
ENDBRANCH   87   88
ENDBRANCH   82   83
ENDBRANCH   81   82
ENDBRANCH    2   78
ENDBRANCH    3    2
ENDBRANCH    5    3
ENDBRANCH    6    5
ENDBRANCH    7    6
ENDBRANCH    8    7
ENDBRANCH    9    8
ENDBRANCH   10    9
ENDBRANCH   11   10
ENDBRANCH   12   11
ENDBRANCH   13   12
ENDBRANCH   15   13
ENDBRANCH   19   18
BRANCH   23   24
ATOM     33  C24 UNL A   1      12.390  56.541   4.584  1.00  0.00    +0.000 C 
ATOM     34  F5  UNL A   1      11.819  56.332   3.387  1.00  0.00    +0.000 F 
ATOM     24  C19 UNL A   1      13.468  55.745   5.001  1.00  0.00    +0.000 C 
ATOM     25  C20 UNL A   1      14.030  56.009   6.260  1.00  0.00    +0.000 C 
ATOM     26  F1  UNL A   1      15.055  55.270   6.708  1.00  0.00    +0.000 F 
ATOM     27  C21 UNL A   1      13.523  57.018   7.074  1.00  0.00    +0.000 C 
ATOM     28  F2  UNL A   1      14.054  57.230   8.286  1.00  0.00    +0.000 F 
ATOM     29  C22 UNL A   1      12.464  57.800   6.636  1.00  0.00    +0.000 C 
ATOM     30  F3  UNL A   1      11.984  58.779   7.415  1.00  0.00    +0.000 F 
ATOM     31  C23 UNL A   1      11.900  57.565   5.390  1.00  0.00    +0.000 C 
ATOM     32  F4  UNL A   1      10.885  58.327   4.961  1.00  0.00    +0.000 F 
ENDBRANCH   23   24
BRANCH   40   41
ATOM     41  C30 UNL A   1      18.355  55.250  -0.273  1.00  0.00    +0.000 C 
ATOM     42  C31 UNL A   1      19.557  55.658   0.323  1.00  0.00    +0.000 C 
ATOM     43  F6  UNL A   1      19.849  55.282   1.577  1.00  0.00    +0.000 F 
ATOM     44  C32 UNL A   1      20.442  56.495  -0.351  1.00  0.00    +0.000 C 
ATOM     45  F7  UNL A   1      21.560  56.914   0.256  1.00  0.00    +0.000 F 
ATOM     46  C33 UNL A   1      20.159  56.910  -1.644  1.00  0.00    +0.000 C 
ATOM     47  F8  UNL A   1      21.012  57.715  -2.293  1.00  0.00    +0.000 F 
ATOM     48  C34 UNL A   1      18.986  56.500  -2.262  1.00  0.00    +0.000 C 
ATOM     49  F9  UNL A   1      18.717  56.892  -3.515  1.00  0.00    +0.000 F 
ATOM     50  C35 UNL A   1      18.087  55.686  -1.580  1.00  0.00    +0.000 C 
ATOM     51  F10 UNL A   1      16.953  55.319  -2.196  1.00  0.00    +0.000 F 
ENDBRANCH   40   41
BRANCH   55   56
ATOM     65  C44 UNL A   1      18.070  47.800  -0.670  1.00  0.00    +0.000 C 
ATOM     66  F15 UNL A   1      18.806  48.116   0.406  1.00  0.00    +0.000 F 
ATOM     56  C39 UNL A   1      16.876  48.486  -0.931  1.00  0.00    +0.000 C 
ATOM     57  C40 UNL A   1      16.149  48.121  -2.072  1.00  0.00    +0.000 C 
ATOM     58  F11 UNL A   1      14.989  48.734  -2.351  1.00  0.00    +0.000 F 
ATOM     59  C41 UNL A   1      16.584  47.093  -2.905  1.00  0.00    +0.000 C 
ATOM     60  F12 UNL A   1      15.844  46.729  -3.961  1.00  0.00    +0.000 F 
ATOM     61  C42 UNL A   1      17.771  46.430  -2.629  1.00  0.00    +0.000 C 
ATOM     62  F13 UNL A   1      18.189  45.440  -3.429  1.00  0.00    +0.000 F 
ATOM     63  C43 UNL A   1      18.520  46.790  -1.518  1.00  0.00    +0.000 C 
ATOM     64  F14 UNL A   1      19.673  46.161  -1.256  1.00  0.00    +0.000 F 
ENDBRANCH   55   56
TORSDOF 20
ENDMDL
MODEL 9
REMARK VINA RESULT:      -8.7     32.497     38.213
ROOT
ATOM     19  C15 UNL A   1      10.766  13.933  23.260  1.00  0.00    +0.000 C 
ATOM     20  C16 UNL A   1      11.084  12.902  22.214  1.00  0.00    +0.000 C 
ATOM     21  N3  UNL A   1      11.345  13.069  20.941  1.00  0.00    +0.000 N 
ATOM     22  C17 UNL A   1      11.596  11.800  20.436  1.00  0.00    +0.000 C 
ATOM     23  C18 UNL A   1      11.856  11.436  19.158  1.00  0.00    +0.000 C 
ATOM     35  C25 UNL A   1      11.925  12.349  18.047  1.00  0.00    +0.000 C 
ATOM     36  C26 UNL A   1      12.136  12.069  16.709  1.00  0.00    +0.000 C 
ATOM     37  C27 UNL A   1      12.153  13.277  16.004  1.00  0.00    +0.000 C 
ATOM     38  C28 UNL A   1      11.913  14.307  16.898  1.00  0.00    +0.000 C 
ATOM     39  N4  UNL A   1      11.781  13.725  18.148  1.00  0.00    +0.000 N 
ATOM     40  C29 UNL A   1      11.811  15.718  16.633  1.00  0.00    +0.000 C 
ATOM     52  C36 UNL A   1      11.565  16.668  17.568  1.00  0.00    +0.000 C 
ATOM     53  N5  UNL A   1      11.366  16.516  18.933  1.00  0.00    +0.000 N 
ATOM     54  C37 UNL A   1      11.191  17.725  19.407  1.00  0.00    +0.000 C 
ATOM     55  C38 UNL A   1      10.910  18.161  20.819  1.00  0.00    +0.000 C 
ATOM     67  C45 UNL A   1      10.788  17.230  21.783  1.00  0.00    +0.000 C 
ATOM     68  C46 UNL A   1      10.498  17.500  23.188  1.00  0.00    +0.000 C 
ATOM     69  C47 UNL A   1      10.477  16.339  23.862  1.00  0.00    +0.000 C 
ATOM     70  C48 UNL A   1      10.725  15.239  22.929  1.00  0.00    +0.000 C 
ATOM     71  N6  UNL A   1      10.899  15.862  21.719  1.00  0.00    +0.000 N 
ATOM     72  C49 UNL A   1      11.284  18.786  18.393  1.00  0.00    +0.000 C 
ATOM     73  C50 UNL A   1      11.470  18.084  17.285  1.00  0.00    +0.000 C 
ATOM     74  C51 UNL A   1      11.503  10.878  21.548  1.00  0.00    +0.000 C 
ATOM     75  C52 UNL A   1      11.136  11.501  22.658  1.00  0.00    +0.000 C 
ATOM    112  H21 UNL A   1      12.260  11.128  16.301  1.00  0.00    +0.000 H 
ATOM    113  H22 UNL A   1      12.317  13.382  14.990  1.00  0.00    +0.000 H 
ATOM    114  H23 UNL A   1      11.611  14.216  18.984  1.00  0.00    +0.000 H 
ATOM    115  H24 UNL A   1      10.335  18.433  23.598  1.00  0.00    +0.000 H 
ATOM    116  H25 UNL A   1      10.314  16.239  24.876  1.00  0.00    +0.000 H 
ATOM    117  H26 UNL A   1      11.085  15.376  20.883  1.00  0.00    +0.000 H 
ATOM    118  H27 UNL A   1      11.221  19.809  18.514  1.00  0.00    +0.000 H 
ATOM    119  H28 UNL A   1      11.539  18.495  16.340  1.00  0.00    +0.000 H 
ATOM    120  H29 UNL A   1      11.700   9.867  21.484  1.00  0.00    +0.000 H 
ATOM    121  H30 UNL A   1      10.936  11.106  23.591  1.00  0.00    +0.000 H 
ENDROOT
BRANCH   19   18
ATOM     76  C53 UNL A   1       9.272  13.129  25.100  1.00  0.00    +0.000 C 
ATOM     77  C54 UNL A   1       9.064  12.731  26.420  1.00  0.00    +0.000 C 
ATOM    110  H19 UNL A   1      12.200  13.058  27.564  1.00  0.00    +0.000 H 
ATOM     15  C11 UNL A   1      10.144  12.646  27.304  1.00  0.00    +0.000 C 
ATOM     16  C12 UNL A   1      11.410  13.078  26.899  1.00  0.00    +0.000 C 
ATOM     17  C13 UNL A   1      11.608  13.533  25.594  1.00  0.00    +0.000 C 
ATOM    111  H20 UNL A   1      12.537  13.874  25.304  1.00  0.00    +0.000 H 
ATOM     18  C14 UNL A   1      10.546  13.532  24.673  1.00  0.00    +0.000 C 
ATOM    122  H31 UNL A   1       8.484  13.127  24.433  1.00  0.00    +0.000 H 
ATOM    123  H32 UNL A   1       8.111  12.499  26.745  1.00  0.00    +0.000 H 
BRANCH   15   13
ATOM     13  C10 UNL A   1       9.978  12.129  28.681  1.00  0.00    +0.000 C 
ATOM     14  O2  UNL A   1      10.954  11.694  29.286  1.00  0.00    +0.000 O 
BRANCH   13   12
ATOM     12  N2  UNL A   1       8.741  12.111  29.271  1.00  0.00    +0.000 N 
ATOM    109  H18 UNL A   1       8.233  12.952  29.209  1.00  0.00    +0.000 H 
BRANCH   12   11
ATOM     11  C9  UNL A   1       8.068  11.031  29.975  1.00  0.00    +0.000 C 
ATOM    108  H17 UNL A   1       7.563  11.456  30.816  1.00  0.00    +0.000 H 
ATOM    107  H16 UNL A   1       8.800  10.311  30.277  1.00  0.00    +0.000 H 
BRANCH   11   10
ATOM    105  H14 UNL A   1       6.419   9.721  29.750  1.00  0.00    +0.000 H 
ATOM     10  C8  UNL A   1       7.021  10.332  29.110  1.00  0.00    +0.000 C 
ATOM    106  H15 UNL A   1       6.473  11.110  28.622  1.00  0.00    +0.000 H 
BRANCH   10    9
ATOM      9  C7  UNL A   1       7.581   9.444  27.997  1.00  0.00    +0.000 C 
ATOM    103  H12 UNL A   1       6.755   9.030  27.458  1.00  0.00    +0.000 H 
ATOM    104  H13 UNL A   1       8.208  10.075  27.402  1.00  0.00    +0.000 H 
BRANCH    9    8
ATOM    101  H10 UNL A   1       8.387   8.222  29.531  1.00  0.00    +0.000 H 
ATOM    102  H11 UNL A   1       8.111   7.419  27.952  1.00  0.00    +0.000 H 
ATOM      8  C6  UNL A   1       8.466   8.288  28.466  1.00  0.00    +0.000 C 
BRANCH    8    7
ATOM     99  H8  UNL A   1      10.199   7.608  27.440  1.00  0.00    +0.000 H 
ATOM    100  H9  UNL A   1      10.080   9.377  27.678  1.00  0.00    +0.000 H 
ATOM      7  C5  UNL A   1       9.954   8.407  28.109  1.00  0.00    +0.000 C 
BRANCH    7    6
ATOM     97  H6  UNL A   1      11.435   9.274  29.381  1.00  0.00    +0.000 H 
ATOM     98  H7  UNL A   1      10.346   8.144  30.182  1.00  0.00    +0.000 H 
ATOM      6  C4  UNL A   1      10.918   8.340  29.300  1.00  0.00    +0.000 C 
BRANCH    6    5
ATOM      5  N1  UNL A   1      11.891   7.275  29.142  1.00  0.00    +0.000 N 
ATOM     96  H5  UNL A   1      12.164   7.041  28.226  1.00  0.00    +0.000 H 
BRANCH    5    3
ATOM      3  C3  UNL A   1      12.457   6.571  30.174  1.00  0.00    +0.000 C 
ATOM      4  O1  UNL A   1      11.695   6.212  31.073  1.00  0.00    +0.000 O 
BRANCH    3    2
ATOM      2  C2  UNL A   1      13.963   6.249  30.128  1.00  0.00    +0.000 C 
ATOM     95  H4  UNL A   1      14.274   6.076  31.138  1.00  0.00    +0.000 H 
BRANCH    2    1
ATOM      1  C1  UNL A   1      14.669   7.455  29.495  1.00  0.00    +0.000 C 
ATOM     92  H1  UNL A   1      14.760   8.236  30.221  1.00  0.00    +0.000 H 
ATOM     93  H2  UNL A   1      14.095   7.808  28.663  1.00  0.00    +0.000 H 
ATOM     94  H3  UNL A   1      15.642   7.164  29.160  1.00  0.00    +0.000 H 
ENDBRANCH    2    1
BRANCH    2   78
ATOM    137  H46 UNL A   1      14.942   1.659  30.009  1.00  0.00    +0.000 H 
ATOM     78  C55 UNL A   1      14.364   4.938  29.428  1.00  0.00    +0.000 C 
ATOM     79  C56 UNL A   1      14.711   4.912  28.063  1.00  0.00    +0.000 C 
ATOM     80  C57 UNL A   1      15.133   3.745  27.422  1.00  0.00    +0.000 C 
ATOM     81  C58 UNL A   1      15.210   2.540  28.115  1.00  0.00    +0.000 C 
ATOM     89  C65 UNL A   1      14.869   2.536  29.470  1.00  0.00    +0.000 C 
ATOM     90  C66 UNL A   1      14.428   3.706  30.112  1.00  0.00    +0.000 C 
ATOM     91 Br1  UNL A   1      13.864   3.478  31.918  1.00  0.00    +0.000 Br
ATOM    124  H33 UNL A   1      14.651   5.786  27.518  1.00  0.00    +0.000 H 
ATOM    125  H34 UNL A   1      15.389   3.775  26.424  1.00  0.00    +0.000 H 
BRANCH   81   82
ATOM     82  C59 UNL A   1      15.620   1.272  27.409  1.00  0.00    +0.000 C 
ATOM    126  H35 UNL A   1      15.676   0.492  28.139  1.00  0.00    +0.000 H 
ATOM    127  H36 UNL A   1      16.554   1.492  26.934  1.00  0.00    +0.000 H 
BRANCH   82   83
ATOM    129  H38 UNL A   1      15.863  -0.982  26.012  1.00  0.00    +0.000 H 
ATOM    130  H39 UNL A   1      15.689  -0.060  24.567  1.00  0.00    +0.000 H 
ATOM    131  H40 UNL A   1      13.926  -2.131  25.634  1.00  0.00    +0.000 H 
ATOM    132  H41 UNL A   1      13.896  -1.450  24.055  1.00  0.00    +0.000 H 
ATOM    133  H42 UNL A   1      11.900  -0.952  25.762  1.00  0.00    +0.000 H 
ATOM    134  H43 UNL A   1      12.406   0.306  24.733  1.00  0.00    +0.000 H 
ATOM    135  H44 UNL A   1      13.258  -0.200  27.620  1.00  0.00    +0.000 H 
ATOM     83  C60 UNL A   1      14.681   0.800  26.286  1.00  0.00    +0.000 C 
ATOM     84  C61 UNL A   1      15.176  -0.388  25.446  1.00  0.00    +0.000 C 
ATOM     85  C62 UNL A   1      13.930  -1.207  25.095  1.00  0.00    +0.000 C 
ATOM     86  C63 UNL A   1      12.746  -0.347  25.509  1.00  0.00    +0.000 C 
ATOM     87  C64 UNL A   1      13.274   0.392  26.729  1.00  0.00    +0.000 C 
ATOM    128  H37 UNL A   1      14.666   1.699  25.706  1.00  0.00    +0.000 H 
BRANCH   87   88
ATOM    136  H45 UNL A   1      12.282   2.009  26.219  1.00  0.00    +0.000 H 
ATOM     88  O3  UNL A   1      12.486   1.527  27.036  1.00  0.00    +0.000 O 
ENDBRANCH   87   88
ENDBRANCH   82   83
ENDBRANCH   81   82
ENDBRANCH    2   78
ENDBRANCH    3    2
ENDBRANCH    5    3
ENDBRANCH    6    5
ENDBRANCH    7    6
ENDBRANCH    8    7
ENDBRANCH    9    8
ENDBRANCH   10    9
ENDBRANCH   11   10
ENDBRANCH   12   11
ENDBRANCH   13   12
ENDBRANCH   15   13
ENDBRANCH   19   18
BRANCH   23   24
ATOM     33  C24 UNL A   1      11.014   9.171  18.430  1.00  0.00    +0.000 C 
ATOM     34  F5  UNL A   1       9.807   9.708  18.192  1.00  0.00    +0.000 F 
ATOM     24  C19 UNL A   1      12.070   9.977  18.881  1.00  0.00    +0.000 C 
ATOM     25  C20 UNL A   1      13.310   9.363  19.118  1.00  0.00    +0.000 C 
ATOM     26  F1  UNL A   1      14.353  10.093  19.540  1.00  0.00    +0.000 F 
ATOM     27  C21 UNL A   1      13.488   8.000  18.898  1.00  0.00    +0.000 C 
ATOM     28  F2  UNL A   1      14.690   7.442  19.099  1.00  0.00    +0.000 F 
ATOM     29  C22 UNL A   1      12.426   7.220  18.463  1.00  0.00    +0.000 C 
ATOM     30  F3  UNL A   1      12.596   5.906  18.263  1.00  0.00    +0.000 F 
ATOM     31  C23 UNL A   1      11.189   7.804  18.234  1.00  0.00    +0.000 C 
ATOM     32  F4  UNL A   1      10.159   7.050  17.826  1.00  0.00    +0.000 F 
ENDBRANCH   23   24
BRANCH   40   41
ATOM     41  C30 UNL A   1      11.969  16.182  15.215  1.00  0.00    +0.000 C 
ATOM     42  C31 UNL A   1      13.233  16.429  14.661  1.00  0.00    +0.000 C 
ATOM     43  F6  UNL A   1      14.337  16.291  15.412  1.00  0.00    +0.000 F 
ATOM     44  C32 UNL A   1      13.365  16.866  13.346  1.00  0.00    +0.000 C 
ATOM     45  F7  UNL A   1      14.579  17.146  12.853  1.00  0.00    +0.000 F 
ATOM     46  C33 UNL A   1      12.240  17.031  12.551  1.00  0.00    +0.000 C 
ATOM     47  F8  UNL A   1      12.368  17.450  11.285  1.00  0.00    +0.000 F 
ATOM     48  C34 UNL A   1      10.981  16.769  13.072  1.00  0.00    +0.000 C 
ATOM     49  F9  UNL A   1       9.894  16.918  12.302  1.00  0.00    +0.000 F 
ATOM     50  C35 UNL A   1      10.845  16.359  14.395  1.00  0.00    +0.000 C 
ATOM     51  F10 UNL A   1       9.613  16.130  14.876  1.00  0.00    +0.000 F 
ENDBRANCH   40   41
BRANCH   55   56
ATOM     65  C44 UNL A   1      11.839  20.392  21.525  1.00  0.00    +0.000 C 
ATOM     66  F15 UNL A   1      13.061  19.848  21.620  1.00  0.00    +0.000 F 
ATOM     56  C39 UNL A   1      10.745  19.600  21.147  1.00  0.00    +0.000 C 
ATOM     57  C40 UNL A   1       9.488  20.217  21.070  1.00  0.00    +0.000 C 
ATOM     58  F11 UNL A   1       8.417  19.505  20.692  1.00  0.00    +0.000 F 
ATOM     59  C41 UNL A   1       9.336  21.576  21.333  1.00  0.00    +0.000 C 
ATOM     60  F12 UNL A   1       8.133  22.151  21.202  1.00  0.00    +0.000 F 
ATOM     61  C42 UNL A   1      10.431  22.339  21.709  1.00  0.00    +0.000 C 
ATOM     62  F13 UNL A   1      10.285  23.646  21.961  1.00  0.00    +0.000 F 
ATOM     63  C43 UNL A   1      11.681  21.745  21.815  1.00  0.00    +0.000 C 
ATOM     64  F14 UNL A   1      12.739  22.476  22.191  1.00  0.00    +0.000 F 
ENDBRANCH   55   56
TORSDOF 20
ENDMDL
MODEL 10
REMARK VINA RESULT:      -8.7      4.672      9.015
ROOT
ATOM     19  C15 UNL A   1      25.828  36.792  45.689  1.00  0.00    +0.000 C 
ATOM     20  C16 UNL A   1      25.812  37.988  46.599  1.00  0.00    +0.000 C 
ATOM     21  N3  UNL A   1      26.788  38.809  46.903  1.00  0.00    +0.000 N 
ATOM     22  C17 UNL A   1      26.236  39.753  47.758  1.00  0.00    +0.000 C 
ATOM     23  C18 UNL A   1      26.851  40.778  48.396  1.00  0.00    +0.000 C 
ATOM     35  C25 UNL A   1      28.254  41.082  48.285  1.00  0.00    +0.000 C 
ATOM     36  C26 UNL A   1      28.977  42.072  48.928  1.00  0.00    +0.000 C 
ATOM     37  C27 UNL A   1      30.302  42.006  48.485  1.00  0.00    +0.000 C 
ATOM     38  C28 UNL A   1      30.413  40.951  47.594  1.00  0.00    +0.000 C 
ATOM     39  N4  UNL A   1      29.148  40.397  47.476  1.00  0.00    +0.000 N 
ATOM     40  C29 UNL A   1      31.583  40.481  46.902  1.00  0.00    +0.000 C 
ATOM     52  C36 UNL A   1      31.610  39.430  46.047  1.00  0.00    +0.000 C 
ATOM     53  N5  UNL A   1      30.571  38.600  45.653  1.00  0.00    +0.000 N 
ATOM     54  C37 UNL A   1      31.091  37.753  44.799  1.00  0.00    +0.000 C 
ATOM     55  C38 UNL A   1      30.433  36.612  44.070  1.00  0.00    +0.000 C 
ATOM     67  C45 UNL A   1      29.130  36.354  44.292  1.00  0.00    +0.000 C 
ATOM     68  C46 UNL A   1      28.365  35.275  43.676  1.00  0.00    +0.000 C 
ATOM     69  C47 UNL A   1      27.096  35.335  44.106  1.00  0.00    +0.000 C 
ATOM     70  C48 UNL A   1      26.964  36.444  45.053  1.00  0.00    +0.000 C 
ATOM     71  N6  UNL A   1      28.221  36.992  45.100  1.00  0.00    +0.000 N 
ATOM     72  C49 UNL A   1      32.521  37.967  44.537  1.00  0.00    +0.000 C 
ATOM     73  C50 UNL A   1      32.797  38.973  45.354  1.00  0.00    +0.000 C 
ATOM     74  C51 UNL A   1      24.830  39.434  47.890  1.00  0.00    +0.000 C 
ATOM     75  C52 UNL A   1      24.529  38.320  47.236  1.00  0.00    +0.000 C 
ATOM    112  H21 UNL A   1      28.602  42.742  49.618  1.00  0.00    +0.000 H 
ATOM    113  H22 UNL A   1      31.067  42.637  48.772  1.00  0.00    +0.000 H 
ATOM    114  H23 UNL A   1      28.918  39.630  46.903  1.00  0.00    +0.000 H 
ATOM    115  H24 UNL A   1      28.741  34.576  43.015  1.00  0.00    +0.000 H 
ATOM    116  H25 UNL A   1      26.334  34.703  43.816  1.00  0.00    +0.000 H 
ATOM    117  H26 UNL A   1      28.451  37.768  45.661  1.00  0.00    +0.000 H 
ATOM    118  H27 UNL A   1      33.146  37.466  43.887  1.00  0.00    +0.000 H 
ATOM    119  H28 UNL A   1      33.737  39.379  45.482  1.00  0.00    +0.000 H 
ATOM    120  H29 UNL A   1      24.151  40.000  48.421  1.00  0.00    +0.000 H 
ATOM    121  H30 UNL A   1      23.630  37.816  47.189  1.00  0.00    +0.000 H 
ENDROOT
BRANCH   19   18
ATOM     76  C53 UNL A   1      24.297  34.885  46.219  1.00  0.00    +0.000 C 
ATOM     77  C54 UNL A   1      23.122  34.165  46.006  1.00  0.00    +0.000 C 
ATOM    110  H19 UNL A   1      21.804  36.031  43.550  1.00  0.00    +0.000 H 
ATOM     15  C11 UNL A   1      22.183  34.618  45.075  1.00  0.00    +0.000 C 
ATOM     16  C12 UNL A   1      22.477  35.722  44.270  1.00  0.00    +0.000 C 
ATOM     17  C13 UNL A   1      23.680  36.410  44.442  1.00  0.00    +0.000 C 
ATOM    111  H20 UNL A   1      23.906  37.210  43.832  1.00  0.00    +0.000 H 
ATOM     18  C14 UNL A   1      24.586  36.016  45.442  1.00  0.00    +0.000 C 
ATOM    122  H31 UNL A   1      24.957  34.585  46.954  1.00  0.00    +0.000 H 
ATOM    123  H32 UNL A   1      22.946  33.296  46.536  1.00  0.00    +0.000 H 
BRANCH   15   13
ATOM     13  C10 UNL A   1      20.880  33.938  44.896  1.00  0.00    +0.000 C 
ATOM     14  O2  UNL A   1      19.846  34.599  44.900  1.00  0.00    +0.000 O 
BRANCH   13   12
ATOM     12  N2  UNL A   1      20.823  32.575  44.752  1.00  0.00    +0.000 N 
ATOM    109  H18 UNL A   1      21.301  32.058  45.441  1.00  0.00    +0.000 H 
BRANCH   12   11
ATOM     11  C9  UNL A   1      20.159  31.781  43.731  1.00  0.00    +0.000 C 
ATOM    108  H17 UNL A   1      20.812  30.976  43.470  1.00  0.00    +0.000 H 
ATOM    107  H16 UNL A   1      19.952  32.410  42.889  1.00  0.00    +0.000 H 
BRANCH   11   10
ATOM    105  H14 UNL A   1      18.601  31.632  45.158  1.00  0.00    +0.000 H 
ATOM     10  C8  UNL A   1      18.846  31.175  44.222  1.00  0.00    +0.000 C 
ATOM    106  H15 UNL A   1      18.127  31.363  43.452  1.00  0.00    +0.000 H 
BRANCH   10    9
ATOM      9  C7  UNL A   1      18.864  29.659  44.425  1.00  0.00    +0.000 C 
ATOM    103  H12 UNL A   1      19.808  29.290  44.085  1.00  0.00    +0.000 H 
ATOM    104  H13 UNL A   1      18.692  29.498  45.470  1.00  0.00    +0.000 H 
BRANCH    9    8
ATOM    101  H10 UNL A   1      17.892  29.049  42.643  1.00  0.00    +0.000 H 
ATOM    102  H11 UNL A   1      17.873  27.866  43.990  1.00  0.00    +0.000 H 
ATOM      8  C6  UNL A   1      17.764  28.888  43.693  1.00  0.00    +0.000 C 
BRANCH    8    7
ATOM     99  H8  UNL A   1      16.178  29.066  45.097  1.00  0.00    +0.000 H 
ATOM    100  H9  UNL A   1      16.229  30.317  43.818  1.00  0.00    +0.000 H 
ATOM      7  C5  UNL A   1      16.325  29.280  44.058  1.00  0.00    +0.000 C 
BRANCH    7    6
ATOM     97  H6  UNL A   1      14.283  28.757  43.718  1.00  0.00    +0.000 H 
ATOM     98  H7  UNL A   1      15.256  28.911  42.257  1.00  0.00    +0.000 H 
ATOM      6  C4  UNL A   1      15.231  28.554  43.265  1.00  0.00    +0.000 C 
BRANCH    6    5
ATOM      5  N1  UNL A   1      15.447  27.119  43.246  1.00  0.00    +0.000 N 
ATOM     96  H5  UNL A   1      16.293  26.782  43.619  1.00  0.00    +0.000 H 
BRANCH    5    3
ATOM      3  C3  UNL A   1      14.560  26.200  42.746  1.00  0.00    +0.000 C 
ATOM      4  O1  UNL A   1      13.530  26.025  43.397  1.00  0.00    +0.000 O 
BRANCH    3    2
ATOM      2  C2  UNL A   1      14.883  25.490  41.417  1.00  0.00    +0.000 C 
ATOM     95  H4  UNL A   1      15.950  25.469  41.328  1.00  0.00    +0.000 H 
BRANCH    2    1
ATOM      1  C1  UNL A   1      14.215  26.294  40.295  1.00  0.00    +0.000 C 
ATOM     92  H1  UNL A   1      13.375  25.750  39.917  1.00  0.00    +0.000 H 
ATOM     93  H2  UNL A   1      14.918  26.457  39.505  1.00  0.00    +0.000 H 
ATOM     94  H3  UNL A   1      13.885  27.237  40.679  1.00  0.00    +0.000 H 
ENDBRANCH    2    1
BRANCH    2   78
ATOM    137  H46 UNL A   1      13.887  21.519  39.117  1.00  0.00    +0.000 H 
ATOM     78  C55 UNL A   1      14.514  23.998  41.329  1.00  0.00    +0.000 C 
ATOM     79  C56 UNL A   1      14.241  23.240  42.484  1.00  0.00    +0.000 C 
ATOM     80  C57 UNL A   1      13.849  21.901  42.423  1.00  0.00    +0.000 C 
ATOM     81  C58 UNL A   1      13.727  21.249  41.199  1.00  0.00    +0.000 C 
ATOM     89  C65 UNL A   1      13.994  21.976  40.036  1.00  0.00    +0.000 C 
ATOM     90  C66 UNL A   1      14.405  23.318  40.096  1.00  0.00    +0.000 C 
ATOM     91 Br1  UNL A   1      14.869  24.102  38.422  1.00  0.00    +0.000 Br
ATOM    124  H33 UNL A   1      14.336  23.690  43.408  1.00  0.00    +0.000 H 
ATOM    125  H34 UNL A   1      13.648  21.387  43.295  1.00  0.00    +0.000 H 
BRANCH   81   82
ATOM     82  C59 UNL A   1      13.350  19.790  41.139  1.00  0.00    +0.000 C 
ATOM    126  H35 UNL A   1      13.483  19.375  42.116  1.00  0.00    +0.000 H 
ATOM    127  H36 UNL A   1      13.982  19.356  40.392  1.00  0.00    +0.000 H 
BRANCH   82   83
ATOM    129  H38 UNL A   1      12.617  17.942  39.368  1.00  0.00    +0.000 H 
ATOM    130  H39 UNL A   1      11.679  19.142  38.562  1.00  0.00    +0.000 H 
ATOM    131  H40 UNL A   1      10.767  16.719  39.915  1.00  0.00    +0.000 H 
ATOM    132  H41 UNL A   1       9.856  17.730  38.863  1.00  0.00    +0.000 H 
ATOM    133  H42 UNL A   1       9.261  17.630  41.467  1.00  0.00    +0.000 H 
ATOM    134  H43 UNL A   1       9.134  19.131  40.675  1.00  0.00    +0.000 H 
ATOM    135  H44 UNL A   1      11.484  18.079  42.314  1.00  0.00    +0.000 H 
ATOM     83  C60 UNL A   1      11.910  19.490  40.691  1.00  0.00    +0.000 C 
ATOM     84  C61 UNL A   1      11.759  18.575  39.465  1.00  0.00    +0.000 C 
ATOM     85  C62 UNL A   1      10.503  17.735  39.714  1.00  0.00    +0.000 C 
ATOM     86  C63 UNL A   1       9.829  18.358  40.927  1.00  0.00    +0.000 C 
ATOM     87  C64 UNL A   1      11.007  18.854  41.752  1.00  0.00    +0.000 C 
ATOM    128  H37 UNL A   1      11.605  20.490  40.463  1.00  0.00    +0.000 H 
BRANCH   87   88
ATOM    136  H45 UNL A   1       9.644  19.761  42.838  1.00  0.00    +0.000 H 
ATOM     88  O3  UNL A   1      10.605  19.807  42.718  1.00  0.00    +0.000 O 
ENDBRANCH   87   88
ENDBRANCH   82   83
ENDBRANCH   81   82
ENDBRANCH    2   78
ENDBRANCH    3    2
ENDBRANCH    5    3
ENDBRANCH    6    5
ENDBRANCH    7    6
ENDBRANCH    8    7
ENDBRANCH    9    8
ENDBRANCH   10    9
ENDBRANCH   11   10
ENDBRANCH   12   11
ENDBRANCH   13   12
ENDBRANCH   15   13
ENDBRANCH   19   18
BRANCH   23   24
ATOM     33  C24 UNL A   1      25.831  41.311  50.642  1.00  0.00    +0.000 C 
ATOM     34  F5  UNL A   1      26.448  40.239  51.164  1.00  0.00    +0.000 F 
ATOM     24  C19 UNL A   1      26.013  41.643  49.290  1.00  0.00    +0.000 C 
ATOM     25  C20 UNL A   1      25.342  42.771  48.795  1.00  0.00    +0.000 C 
ATOM     26  F1  UNL A   1      25.492  43.136  47.513  1.00  0.00    +0.000 F 
ATOM     27  C21 UNL A   1      24.533  43.545  49.624  1.00  0.00    +0.000 C 
ATOM     28  F2  UNL A   1      23.929  44.638  49.137  1.00  0.00    +0.000 F 
ATOM     29  C22 UNL A   1      24.358  43.191  50.954  1.00  0.00    +0.000 C 
ATOM     30  F3  UNL A   1      23.570  43.929  51.747  1.00  0.00    +0.000 F 
ATOM     31  C23 UNL A   1      25.003  42.073  51.461  1.00  0.00    +0.000 C 
ATOM     32  F4  UNL A   1      24.825  41.723  52.743  1.00  0.00    +0.000 F 
ENDBRANCH   23   24
BRANCH   40   41
ATOM     41  C30 UNL A   1      32.882  41.190  47.152  1.00  0.00    +0.000 C 
ATOM     42  C31 UNL A   1      33.826  40.692  48.061  1.00  0.00    +0.000 C 
ATOM     43  F6  UNL A   1      33.564  39.578  48.763  1.00  0.00    +0.000 F 
ATOM     44  C32 UNL A   1      35.024  41.363  48.288  1.00  0.00    +0.000 C 
ATOM     45  F7  UNL A   1      35.889  40.897  49.199  1.00  0.00    +0.000 F 
ATOM     46  C33 UNL A   1      35.315  42.523  47.587  1.00  0.00    +0.000 C 
ATOM     47  F8  UNL A   1      36.469  43.168  47.805  1.00  0.00    +0.000 F 
ATOM     48  C34 UNL A   1      34.405  43.022  46.666  1.00  0.00    +0.000 C 
ATOM     49  F9  UNL A   1      34.689  44.137  45.980  1.00  0.00    +0.000 F 
ATOM     50  C35 UNL A   1      33.195  42.367  46.457  1.00  0.00    +0.000 C 
ATOM     51  F10 UNL A   1      32.327  42.882  45.572  1.00  0.00    +0.000 F 
ENDBRANCH   40   41
BRANCH   55   56
ATOM     65  C44 UNL A   1      31.360  36.114  41.784  1.00  0.00    +0.000 C 
ATOM     66  F15 UNL A   1      30.772  37.223  41.309  1.00  0.00    +0.000 F 
ATOM     56  C39 UNL A   1      31.212  35.764  43.133  1.00  0.00    +0.000 C 
ATOM     57  C40 UNL A   1      31.842  34.593  43.576  1.00  0.00    +0.000 C 
ATOM     58  F11 UNL A   1      31.746  34.229  44.863  1.00  0.00    +0.000 F 
ATOM     59  C41 UNL A   1      32.610  33.818  42.712  1.00  0.00    +0.000 C 
ATOM     60  F12 UNL A   1      33.244  32.731  43.173  1.00  0.00    +0.000 F 
ATOM     61  C42 UNL A   1      32.740  34.181  41.380  1.00  0.00    +0.000 C 
ATOM     62  F13 UNL A   1      33.481  33.437  40.549  1.00  0.00    +0.000 F 
ATOM     63  C43 UNL A   1      32.107  35.324  40.913  1.00  0.00    +0.000 C 
ATOM     64  F14 UNL A   1      32.219  35.672  39.624  1.00  0.00    +0.000 F 
ENDBRANCH   55   56
TORSDOF 20
ENDMDL
