MODEL 1
REMARK VINA RESULT:      -8.8      0.000      0.000
ROOT
ATOM     28  C23 UNL A   1      13.297  53.659   5.410  1.00  0.00    +0.000 C 
ATOM     29  C24 UNL A   1      12.922  52.206   5.353  1.00  0.00    +0.000 C 
ATOM     30  N4  UNL A   1      13.347  51.268   4.544  1.00  0.00    +0.000 N 
ATOM     31  C25 UNL A   1      12.727  50.099   4.963  1.00  0.00    +0.000 C 
ATOM     32  C26 UNL A   1      12.804  48.860   4.419  1.00  0.00    +0.000 C 
ATOM     44  C33 UNL A   1      13.574  48.535   3.248  1.00  0.00    +0.000 C 
ATOM     45  C34 UNL A   1      13.680  47.320   2.593  1.00  0.00    +0.000 C 
ATOM     46  C35 UNL A   1      14.563  47.477   1.520  1.00  0.00    +0.000 C 
ATOM     47  C36 UNL A   1      14.975  48.800   1.481  1.00  0.00    +0.000 C 
ATOM     48  N5  UNL A   1      14.367  49.435   2.551  1.00  0.00    +0.000 N 
ATOM     49  C37 UNL A   1      15.859  49.435   0.539  1.00  0.00    +0.000 C 
ATOM     61  C44 UNL A   1      16.224  50.739   0.573  1.00  0.00    +0.000 C 
ATOM     62  N6  UNL A   1      15.836  51.730   1.464  1.00  0.00    +0.000 N 
ATOM     63  C45 UNL A   1      16.452  52.821   1.081  1.00  0.00    +0.000 C 
ATOM     64  C46 UNL A   1      16.379  54.207   1.664  1.00  0.00    +0.000 C 
ATOM     76  C53 UNL A   1      15.564  54.441   2.711  1.00  0.00    +0.000 C 
ATOM     77  C54 UNL A   1      15.402  55.725   3.387  1.00  0.00    +0.000 C 
ATOM     78  C55 UNL A   1      14.578  55.568   4.435  1.00  0.00    +0.000 C 
ATOM     79  C56 UNL A   1      14.119  54.179   4.479  1.00  0.00    +0.000 C 
ATOM     80  N7  UNL A   1      14.733  53.592   3.399  1.00  0.00    +0.000 N 
ATOM     81  C57 UNL A   1      17.335  52.636  -0.080  1.00  0.00    +0.000 C 
ATOM     82  C58 UNL A   1      17.132  51.358  -0.371  1.00  0.00    +0.000 C 
ATOM     83  C59 UNL A   1      11.925  50.435   6.120  1.00  0.00    +0.000 C 
ATOM     84  C60 UNL A   1      11.959  51.737   6.362  1.00  0.00    +0.000 C 
ATOM    119  H27 UNL A   1      13.190  46.449   2.852  1.00  0.00    +0.000 H 
ATOM    120  H28 UNL A   1      14.858  46.733   0.868  1.00  0.00    +0.000 H 
ATOM    121  H29 UNL A   1      14.479  50.385   2.782  1.00  0.00    +0.000 H 
ATOM    122  H30 UNL A   1      15.851  56.611   3.106  1.00  0.00    +0.000 H 
ATOM    123  H31 UNL A   1      14.310  56.308   5.103  1.00  0.00    +0.000 H 
ATOM    124  H32 UNL A   1      14.590  52.652   3.143  1.00  0.00    +0.000 H 
ATOM    125  H33 UNL A   1      17.950  53.320  -0.547  1.00  0.00    +0.000 H 
ATOM    126  H34 UNL A   1      17.566  50.867  -1.168  1.00  0.00    +0.000 H 
ATOM    127  H35 UNL A   1      11.396  49.751   6.682  1.00  0.00    +0.000 H 
ATOM    128  H36 UNL A   1      11.444  52.281   7.072  1.00  0.00    +0.000 H 
ENDROOT
BRANCH   28   27
ATOM    129  H37 UNL A   1      10.934  54.875   5.687  1.00  0.00    +0.000 H 
ATOM    130  H38 UNL A   1      10.167  56.327   7.471  1.00  0.00    +0.000 H 
ATOM     27  C22 UNL A   1      12.831  54.498   6.544  1.00  0.00    +0.000 C 
ATOM    117  H25 UNL A   1      13.767  55.681   9.549  1.00  0.00    +0.000 H 
ATOM     86  C62 UNL A   1      11.085  55.861   7.542  1.00  0.00    +0.000 C 
ATOM     85  C61 UNL A   1      11.545  55.059   6.499  1.00  0.00    +0.000 C 
ATOM     24  C19 UNL A   1      11.870  56.032   8.685  1.00  0.00    +0.000 C 
ATOM     25  C20 UNL A   1      13.168  55.511   8.727  1.00  0.00    +0.000 C 
ATOM     26  C21 UNL A   1      13.652  54.759   7.652  1.00  0.00    +0.000 C 
ATOM    118  H26 UNL A   1      14.617  54.395   7.674  1.00  0.00    +0.000 H 
BRANCH   24   22
ATOM     22  C18 UNL A   1      11.362  56.768   9.867  1.00  0.00    +0.000 C 
ATOM     23  O2  UNL A   1      11.506  57.984   9.928  1.00  0.00    +0.000 O 
BRANCH   22   21
ATOM    116  H24 UNL A   1       9.785  56.049  10.872  1.00  0.00    +0.000 H 
ATOM     21  N3  UNL A   1      10.768  56.088  10.905  1.00  0.00    +0.000 N 
BRANCH   21   20
ATOM    114  H22 UNL A   1      12.077  56.091  12.492  1.00  0.00    +0.000 H 
ATOM    115  H23 UNL A   1      10.585  55.149  12.707  1.00  0.00    +0.000 H 
ATOM     20  C17 UNL A   1      11.377  55.420  12.040  1.00  0.00    +0.000 C 
BRANCH   20   19
ATOM    113  H21 UNL A   1      12.662  53.867  12.549  1.00  0.00    +0.000 H 
ATOM     19  C16 UNL A   1      12.110  54.136  11.672  1.00  0.00    +0.000 C 
ATOM    112  H20 UNL A   1      12.712  54.340  10.811  1.00  0.00    +0.000 H 
BRANCH   19   18
ATOM     18  C15 UNL A   1      11.242  52.918  11.354  1.00  0.00    +0.000 C 
ATOM    110  H18 UNL A   1      11.520  52.140  12.035  1.00  0.00    +0.000 H 
ATOM    111  H19 UNL A   1      10.236  53.267  11.447  1.00  0.00    +0.000 H 
BRANCH   18   17
ATOM     17  C14 UNL A   1      11.330  52.344   9.938  1.00  0.00    +0.000 C 
ATOM    108  H16 UNL A   1      11.445  53.168   9.266  1.00  0.00    +0.000 H 
ATOM    109  H17 UNL A   1      12.151  51.660   9.975  1.00  0.00    +0.000 H 
BRANCH   17   16
ATOM    106  H14 UNL A   1       9.254  51.954   9.798  1.00  0.00    +0.000 H 
ATOM    107  H15 UNL A   1      10.258  51.497   8.367  1.00  0.00    +0.000 H 
ATOM     16  C13 UNL A   1      10.152  51.503   9.432  1.00  0.00    +0.000 C 
BRANCH   16   15
ATOM    105  H13 UNL A   1       9.239  49.616   9.384  1.00  0.00    +0.000 H 
ATOM     15  C12 UNL A   1      10.120  50.029   9.832  1.00  0.00    +0.000 C 
ATOM    104  H12 UNL A   1      10.116  49.974  10.900  1.00  0.00    +0.000 H 
BRANCH   15   14
ATOM     14  N2  UNL A   1      11.229  49.244   9.344  1.00  0.00    +0.000 N 
ATOM    103  H11 UNL A   1      11.203  49.044   8.381  1.00  0.00    +0.000 H 
BRANCH   14   12
ATOM     12  C11 UNL A   1      12.320  48.730  10.013  1.00  0.00    +0.000 C 
ATOM     13  O1  UNL A   1      12.619  47.565   9.755  1.00  0.00    +0.000 O 
BRANCH   12   11
ATOM      3  C2  UNL A   1      14.828  50.923  11.662  1.00  0.00    +0.000 C 
ATOM      4  C3  UNL A   1      14.348  50.233  10.553  1.00  0.00    +0.000 C 
ATOM    131  H39 UNL A   1      11.616  48.348  13.134  1.00  0.00    +0.000 H 
ATOM    134  H42 UNL A   1      14.536  52.078  14.187  1.00  0.00    +0.000 H 
ATOM    133  H41 UNL A   1      12.903  51.371  15.777  1.00  0.00    +0.000 H 
ATOM    132  H40 UNL A   1      11.524  49.371  15.264  1.00  0.00    +0.000 H 
ATOM     11  C10 UNL A   1      13.130  49.550  10.920  1.00  0.00    +0.000 C 
ATOM     87  C63 UNL A   1      13.011  49.737  12.294  1.00  0.00    +0.000 C 
ATOM     88  C64 UNL A   1      12.188  49.186  13.326  1.00  0.00    +0.000 C 
ATOM     89  C65 UNL A   1      12.156  49.754  14.545  1.00  0.00    +0.000 C 
ATOM     90  C66 UNL A   1      12.993  50.893  14.867  1.00  0.00    +0.000 C 
ATOM     91  C67 UNL A   1      13.884  51.312  13.957  1.00  0.00    +0.000 C 
ATOM     92  N8  UNL A   1      13.930  50.710  12.691  1.00  0.00    +0.000 N 
BRANCH    3    2
ATOM     97  H5  UNL A   1      16.122  52.079  12.844  1.00  0.00    +0.000 H 
ATOM      2  C1  UNL A   1      16.074  51.729  11.834  1.00  0.00    +0.000 C 
ATOM     96  H4  UNL A   1      16.056  52.556  11.156  1.00  0.00    +0.000 H 
BRANCH    2    1
ATOM      1  N1  UNL A   1      17.250  50.916  11.564  1.00  0.00    +0.000 N 
ATOM     93  H1  UNL A   1      17.586  50.505  12.434  1.00  0.00    +0.000 H 
ATOM     94  H2  UNL A   1      17.981  51.499  11.159  1.00  0.00    +0.000 H 
ATOM     95  H3  UNL A   1      17.006  50.173  10.909  1.00  0.00    +0.000 H 
ENDBRANCH    2    1
ENDBRANCH    3    2
BRANCH    4    5
ATOM     98  H6  UNL A   1      14.498  52.209   8.752  1.00  0.00    +0.000 H 
ATOM     99  H7  UNL A   1      15.669  52.197   6.626  1.00  0.00    +0.000 H 
ATOM    100  H8  UNL A   1      16.893  50.225   5.920  1.00  0.00    +0.000 H 
ATOM      5  C4  UNL A   1      15.041  50.236   9.273  1.00  0.00    +0.000 C 
ATOM    102  H10 UNL A   1      15.751  48.253   9.449  1.00  0.00    +0.000 H 
ATOM      6  C5  UNL A   1      15.015  51.368   8.454  1.00  0.00    +0.000 C 
ATOM      7  C6  UNL A   1      15.690  51.361   7.230  1.00  0.00    +0.000 C 
ATOM      9  C8  UNL A   1      16.417  49.093   7.633  1.00  0.00    +0.000 C 
ATOM     10  C9  UNL A   1      15.739  49.095   8.853  1.00  0.00    +0.000 C 
ATOM    101  H9  UNL A   1      16.935  48.253   7.332  1.00  0.00    +0.000 H 
ATOM      8  C7  UNL A   1      16.392  50.225   6.822  1.00  0.00    +0.000 C 
ENDBRANCH    4    5
ENDBRANCH   12   11
ENDBRANCH   14   12
ENDBRANCH   15   14
ENDBRANCH   16   15
ENDBRANCH   17   16
ENDBRANCH   18   17
ENDBRANCH   19   18
ENDBRANCH   20   19
ENDBRANCH   21   20
ENDBRANCH   22   21
ENDBRANCH   24   22
ENDBRANCH   28   27
BRANCH   32   33
ATOM     33  C27 UNL A   1      12.038  47.761   5.094  1.00  0.00    +0.000 C 
ATOM     34  C28 UNL A   1      12.597  47.008   6.137  1.00  0.00    +0.000 C 
ATOM     35  F1  UNL A   1      13.858  47.234   6.532  1.00  0.00    +0.000 F 
ATOM     36  C29 UNL A   1      11.875  45.986   6.750  1.00  0.00    +0.000 C 
ATOM     37  F2  UNL A   1      12.449  45.245   7.708  1.00  0.00    +0.000 F 
ATOM     38  C30 UNL A   1      10.572  45.723   6.358  1.00  0.00    +0.000 C 
ATOM     39  F3  UNL A   1       9.877  44.743   6.951  1.00  0.00    +0.000 F 
ATOM     40  C31 UNL A   1       9.990  46.471   5.346  1.00  0.00    +0.000 C 
ATOM     41  F4  UNL A   1       8.726  46.226   4.974  1.00  0.00    +0.000 F 
ATOM     42  C32 UNL A   1      10.719  47.474   4.711  1.00  0.00    +0.000 C 
ATOM     43  F5  UNL A   1      10.135  48.170   3.723  1.00  0.00    +0.000 F 
ENDBRANCH   32   33
BRANCH   49   50
ATOM     50  C38 UNL A   1      16.396  48.595  -0.581  1.00  0.00    +0.000 C 
ATOM     51  C39 UNL A   1      17.661  47.995  -0.510  1.00  0.00    +0.000 C 
ATOM     52  F6  UNL A   1      18.457  48.222   0.546  1.00  0.00    +0.000 F 
ATOM     53  C40 UNL A   1      18.124  47.180  -1.539  1.00  0.00    +0.000 C 
ATOM     54  F7  UNL A   1      19.349  46.642  -1.467  1.00  0.00    +0.000 F 
ATOM     55  C41 UNL A   1      17.322  46.929  -2.643  1.00  0.00    +0.000 C 
ATOM     56  F8  UNL A   1      17.764  46.134  -3.627  1.00  0.00    +0.000 F 
ATOM     57  C42 UNL A   1      16.063  47.505  -2.729  1.00  0.00    +0.000 C 
ATOM     58  F9  UNL A   1      15.282  47.254  -3.789  1.00  0.00    +0.000 F 
ATOM     59  C43 UNL A   1      15.607  48.340  -1.713  1.00  0.00    +0.000 C 
ATOM     60  F10 UNL A   1      14.388  48.888  -1.825  1.00  0.00    +0.000 F 
ENDBRANCH   49   50
BRANCH   64   65
ATOM     65  C47 UNL A   1      17.170  55.319   1.079  1.00  0.00    +0.000 C 
ATOM     66  C48 UNL A   1      16.631  56.126   0.067  1.00  0.00    +0.000 C 
ATOM     67  F11 UNL A   1      15.398  55.878  -0.400  1.00  0.00    +0.000 F 
ATOM     68  C49 UNL A   1      17.369  57.166  -0.495  1.00  0.00    +0.000 C 
ATOM     69  F12 UNL A   1      16.844  57.897  -1.487  1.00  0.00    +0.000 F 
ATOM     70  C50 UNL A   1      18.650  57.434  -0.038  1.00  0.00    +0.000 C 
ATOM     71  F13 UNL A   1      19.358  58.438  -0.575  1.00  0.00    +0.000 F 
ATOM     72  C51 UNL A   1      19.200  56.659   0.972  1.00  0.00    +0.000 C 
ATOM     73  F14 UNL A   1      20.433  56.923   1.425  1.00  0.00    +0.000 F 
ATOM     74  C52 UNL A   1      18.471  55.603   1.518  1.00  0.00    +0.000 C 
ATOM     75  F15 UNL A   1      19.031  54.863   2.486  1.00  0.00    +0.000 F 
ENDBRANCH   64   65
TORSDOF 18
ENDMDL
MODEL 2
REMARK VINA RESULT:      -8.5     33.796     38.219
ROOT
ATOM     28  C23 UNL A   1      46.551  50.607  18.243  1.00  0.00    +0.000 C 
ATOM     29  C24 UNL A   1      46.836  51.902  17.536  1.00  0.00    +0.000 C 
ATOM     30  N4  UNL A   1      47.858  52.710  17.662  1.00  0.00    +0.000 N 
ATOM     31  C25 UNL A   1      47.653  53.724  16.736  1.00  0.00    +0.000 C 
ATOM     32  C26 UNL A   1      48.407  54.827  16.510  1.00  0.00    +0.000 C 
ATOM     44  C33 UNL A   1      49.603  55.155  17.239  1.00  0.00    +0.000 C 
ATOM     45  C34 UNL A   1      50.411  56.272  17.116  1.00  0.00    +0.000 C 
ATOM     46  C35 UNL A   1      51.476  56.143  18.013  1.00  0.00    +0.000 C 
ATOM     47  C36 UNL A   1      51.309  54.966  18.725  1.00  0.00    +0.000 C 
ATOM     48  N5  UNL A   1      50.160  54.366  18.234  1.00  0.00    +0.000 N 
ATOM     49  C37 UNL A   1      52.136  54.428  19.773  1.00  0.00    +0.000 C 
ATOM     61  C44 UNL A   1      51.911  53.258  20.419  1.00  0.00    +0.000 C 
ATOM     62  N6  UNL A   1      50.870  52.356  20.250  1.00  0.00    +0.000 N 
ATOM     63  C45 UNL A   1      51.090  51.387  21.104  1.00  0.00    +0.000 C 
ATOM     64  C46 UNL A   1      50.267  50.157  21.377  1.00  0.00    +0.000 C 
ATOM     76  C53 UNL A   1      49.113  49.972  20.707  1.00  0.00    +0.000 C 
ATOM     77  C54 UNL A   1      48.222  48.824  20.855  1.00  0.00    +0.000 C 
ATOM     78  C55 UNL A   1      47.217  48.934  19.973  1.00  0.00    +0.000 C 
ATOM     79  C56 UNL A   1      47.369  50.182  19.225  1.00  0.00    +0.000 C 
ATOM     80  N7  UNL A   1      48.506  50.747  19.750  1.00  0.00    +0.000 N 
ATOM     81  C57 UNL A   1      52.323  51.548  21.889  1.00  0.00    +0.000 C 
ATOM     82  C58 UNL A   1      52.766  52.721  21.458  1.00  0.00    +0.000 C 
ATOM     83  C59 UNL A   1      46.430  53.411  16.029  1.00  0.00    +0.000 C 
ATOM     84  C60 UNL A   1      45.851  52.330  16.530  1.00  0.00    +0.000 C 
ATOM    119  H27 UNL A   1      50.254  57.064  16.472  1.00  0.00    +0.000 H 
ATOM    120  H28 UNL A   1      52.254  56.811  18.126  1.00  0.00    +0.000 H 
ATOM    121  H29 UNL A   1      49.793  53.508  18.547  1.00  0.00    +0.000 H 
ATOM    122  H30 UNL A   1      48.347  48.052  21.529  1.00  0.00    +0.000 H 
ATOM    123  H31 UNL A   1      46.457  48.247  19.842  1.00  0.00    +0.000 H 
ATOM    124  H32 UNL A   1      48.852  51.624  19.466  1.00  0.00    +0.000 H 
ATOM    125  H33 UNL A   1      52.735  50.916  22.593  1.00  0.00    +0.000 H 
ATOM    126  H34 UNL A   1      53.612  53.191  21.816  1.00  0.00    +0.000 H 
ATOM    127  H35 UNL A   1      46.057  53.958  15.237  1.00  0.00    +0.000 H 
ATOM    128  H36 UNL A   1      44.947  51.900  16.281  1.00  0.00    +0.000 H 
ENDROOT
BRANCH   28   27
ATOM    129  H37 UNL A   1      46.611  48.589  16.493  1.00  0.00    +0.000 H 
ATOM    130  H38 UNL A   1      44.778  47.236  15.664  1.00  0.00    +0.000 H 
ATOM     27  C22 UNL A   1      45.419  49.755  17.795  1.00  0.00    +0.000 C 
ATOM    117  H25 UNL A   1      42.129  49.235  18.248  1.00  0.00    +0.000 H 
ATOM     86  C62 UNL A   1      44.611  47.933  16.407  1.00  0.00    +0.000 C 
ATOM     85  C61 UNL A   1      45.655  48.740  16.855  1.00  0.00    +0.000 C 
ATOM     24  C19 UNL A   1      43.338  48.069  16.965  1.00  0.00    +0.000 C 
ATOM     25  C20 UNL A   1      43.081  49.101  17.874  1.00  0.00    +0.000 C 
ATOM     26  C21 UNL A   1      44.115  49.952  18.276  1.00  0.00    +0.000 C 
ATOM    118  H26 UNL A   1      43.919  50.727  18.929  1.00  0.00    +0.000 H 
BRANCH   24   22
ATOM     22  C18 UNL A   1      42.236  47.145  16.610  1.00  0.00    +0.000 C 
ATOM     23  O2  UNL A   1      41.333  47.535  15.879  1.00  0.00    +0.000 O 
BRANCH   22   21
ATOM    116  H24 UNL A   1      41.783  45.786  18.012  1.00  0.00    +0.000 H 
ATOM     21  N3  UNL A   1      42.207  45.870  17.127  1.00  0.00    +0.000 N 
BRANCH   21   20
ATOM    114  H22 UNL A   1      42.031  44.312  15.796  1.00  0.00    +0.000 H 
ATOM    115  H23 UNL A   1      43.686  44.835  16.177  1.00  0.00    +0.000 H 
ATOM     20  C17 UNL A   1      42.708  44.632  16.560  1.00  0.00    +0.000 C 
BRANCH   20   19
ATOM    113  H21 UNL A   1      43.811  43.656  18.027  1.00  0.00    +0.000 H 
ATOM     19  C16 UNL A   1      42.851  43.508  17.578  1.00  0.00    +0.000 C 
ATOM    112  H20 UNL A   1      42.741  42.580  17.056  1.00  0.00    +0.000 H 
BRANCH   19   18
ATOM     18  C15 UNL A   1      41.859  43.506  18.742  1.00  0.00    +0.000 C 
ATOM    110  H18 UNL A   1      41.231  44.366  18.628  1.00  0.00    +0.000 H 
ATOM    111  H19 UNL A   1      41.358  42.564  18.674  1.00  0.00    +0.000 H 
BRANCH   18   17
ATOM     17  C14 UNL A   1      42.437  43.544  20.158  1.00  0.00    +0.000 C 
ATOM    108  H16 UNL A   1      43.380  44.048  20.105  1.00  0.00    +0.000 H 
ATOM    109  H17 UNL A   1      41.685  44.030  20.743  1.00  0.00    +0.000 H 
BRANCH   17   16
ATOM    106  H14 UNL A   1      42.157  41.452  20.317  1.00  0.00    +0.000 H 
ATOM    107  H15 UNL A   1      43.738  42.099  20.904  1.00  0.00    +0.000 H 
ATOM     16  C13 UNL A   1      42.674  42.207  20.870  1.00  0.00    +0.000 C 
BRANCH   16   15
ATOM    105  H13 UNL A   1      42.164  41.052  22.544  1.00  0.00    +0.000 H 
ATOM     15  C12 UNL A   1      42.222  42.098  22.326  1.00  0.00    +0.000 C 
ATOM    104  H12 UNL A   1      41.283  42.602  22.421  1.00  0.00    +0.000 H 
BRANCH   15   14
ATOM     14  N2  UNL A   1      43.137  42.665  23.289  1.00  0.00    +0.000 N 
ATOM    103  H11 UNL A   1      43.641  42.005  23.818  1.00  0.00    +0.000 H 
BRANCH   14   12
ATOM     12  C11 UNL A   1      43.417  43.981  23.585  1.00  0.00    +0.000 C 
ATOM     13  O1  UNL A   1      42.464  44.759  23.569  1.00  0.00    +0.000 O 
BRANCH   12   11
ATOM      3  C2  UNL A   1      46.918  45.215  23.794  1.00  0.00    +0.000 C 
ATOM      4  C3  UNL A   1      45.787  44.863  23.064  1.00  0.00    +0.000 C 
ATOM    131  H39 UNL A   1      44.234  43.212  26.605  1.00  0.00    +0.000 H 
ATOM    134  H42 UNL A   1      48.228  45.930  26.153  1.00  0.00    +0.000 H 
ATOM    133  H41 UNL A   1      47.444  45.337  28.327  1.00  0.00    +0.000 H 
ATOM    132  H40 UNL A   1      45.482  43.827  28.518  1.00  0.00    +0.000 H 
ATOM     11  C10 UNL A   1      44.762  44.419  23.978  1.00  0.00    +0.000 C 
ATOM     87  C63 UNL A   1      45.381  44.376  25.222  1.00  0.00    +0.000 C 
ATOM     88  C64 UNL A   1      45.041  43.849  26.508  1.00  0.00    +0.000 C 
ATOM     89  C65 UNL A   1      45.767  44.180  27.592  1.00  0.00    +0.000 C 
ATOM     90  C66 UNL A   1      46.941  45.023  27.482  1.00  0.00    +0.000 C 
ATOM     91  C67 UNL A   1      47.358  45.387  26.261  1.00  0.00    +0.000 C 
ATOM     92  N8  UNL A   1      46.612  45.028  25.129  1.00  0.00    +0.000 N 
BRANCH    3    2
ATOM     97  H5  UNL A   1      48.679  46.323  24.073  1.00  0.00    +0.000 H 
ATOM      2  C1  UNL A   1      48.263  45.673  23.332  1.00  0.00    +0.000 C 
ATOM     96  H4  UNL A   1      48.160  46.189  22.401  1.00  0.00    +0.000 H 
BRANCH    2    1
ATOM      1  N1  UNL A   1      49.155  44.537  23.151  1.00  0.00    +0.000 N 
ATOM     93  H1  UNL A   1      48.954  44.087  22.259  1.00  0.00    +0.000 H 
ATOM     94  H2  UNL A   1      49.013  43.869  23.908  1.00  0.00    +0.000 H 
ATOM     95  H3  UNL A   1      50.122  44.860  23.159  1.00  0.00    +0.000 H 
ENDBRANCH    2    1
ENDBRANCH    3    2
BRANCH    4    5
ATOM     98  H6  UNL A   1      44.819  46.836  21.536  1.00  0.00    +0.000 H 
ATOM     99  H7  UNL A   1      44.763  46.950  19.112  1.00  0.00    +0.000 H 
ATOM    100  H8  UNL A   1      45.657  45.125  17.786  1.00  0.00    +0.000 H 
ATOM      5  C4  UNL A   1      45.742  44.939  21.611  1.00  0.00    +0.000 C 
ATOM    102  H10 UNL A   1      46.638  43.049  21.304  1.00  0.00    +0.000 H 
ATOM      6  C5  UNL A   1      45.198  46.058  20.975  1.00  0.00    +0.000 C 
ATOM      7  C6  UNL A   1      45.166  46.123  19.579  1.00  0.00    +0.000 C 
ATOM      9  C8  UNL A   1      46.217  43.952  19.445  1.00  0.00    +0.000 C 
ATOM     10  C9  UNL A   1      46.245  43.882  20.839  1.00  0.00    +0.000 C 
ATOM    101  H9  UNL A   1      46.596  43.175  18.882  1.00  0.00    +0.000 H 
ATOM      8  C7  UNL A   1      45.678  45.072  18.815  1.00  0.00    +0.000 C 
ENDBRANCH    4    5
ENDBRANCH   12   11
ENDBRANCH   14   12
ENDBRANCH   15   14
ENDBRANCH   16   15
ENDBRANCH   17   16
ENDBRANCH   18   17
ENDBRANCH   19   18
ENDBRANCH   20   19
ENDBRANCH   21   20
ENDBRANCH   22   21
ENDBRANCH   24   22
ENDBRANCH   28   27
BRANCH   32   33
ATOM     33  C27 UNL A   1      47.959  55.758  15.422  1.00  0.00    +0.000 C 
ATOM     34  C28 UNL A   1      48.283  55.527  14.077  1.00  0.00    +0.000 C 
ATOM     35  F1  UNL A   1      49.040  54.474  13.737  1.00  0.00    +0.000 F 
ATOM     36  C29 UNL A   1      47.865  56.403  13.078  1.00  0.00    +0.000 C 
ATOM     37  F2  UNL A   1      48.230  56.190  11.807  1.00  0.00    +0.000 F 
ATOM     38  C30 UNL A   1      47.088  57.505  13.400  1.00  0.00    +0.000 C 
ATOM     39  F3  UNL A   1      46.684  58.346  12.438  1.00  0.00    +0.000 F 
ATOM     40  C31 UNL A   1      46.735  57.740  14.720  1.00  0.00    +0.000 C 
ATOM     41  F4  UNL A   1      45.973  58.799  15.032  1.00  0.00    +0.000 F 
ATOM     42  C32 UNL A   1      47.176  56.882  15.724  1.00  0.00    +0.000 C 
ATOM     43  F5  UNL A   1      46.833  57.145  16.995  1.00  0.00    +0.000 F 
ENDBRANCH   32   33
BRANCH   49   50
ATOM     50  C38 UNL A   1      53.324  55.237  20.202  1.00  0.00    +0.000 C 
ATOM     51  C39 UNL A   1      54.596  55.024  19.652  1.00  0.00    +0.000 C 
ATOM     52  F6  UNL A   1      54.793  54.032  18.772  1.00  0.00    +0.000 F 
ATOM     53  C40 UNL A   1      55.677  55.817  20.027  1.00  0.00    +0.000 C 
ATOM     54  F7  UNL A   1      56.892  55.577  19.515  1.00  0.00    +0.000 F 
ATOM     55  C41 UNL A   1      55.501  56.850  20.936  1.00  0.00    +0.000 C 
ATOM     56  F8  UNL A   1      56.541  57.620  21.287  1.00  0.00    +0.000 F 
ATOM     57  C42 UNL A   1      54.249  57.084  21.485  1.00  0.00    +0.000 C 
ATOM     58  F9  UNL A   1      54.075  58.089  22.355  1.00  0.00    +0.000 F 
ATOM     59  C43 UNL A   1      53.172  56.278  21.130  1.00  0.00    +0.000 C 
ATOM     60  F10 UNL A   1      51.973  56.522  21.680  1.00  0.00    +0.000 F 
ENDBRANCH   49   50
BRANCH   64   65
ATOM     65  C47 UNL A   1      50.698  49.166  22.395  1.00  0.00    +0.000 C 
ATOM     66  C48 UNL A   1      51.584  48.133  22.058  1.00  0.00    +0.000 C 
ATOM     67  F11 UNL A   1      52.029  48.018  20.798  1.00  0.00    +0.000 F 
ATOM     68  C49 UNL A   1      51.986  47.192  23.003  1.00  0.00    +0.000 C 
ATOM     69  F12 UNL A   1      52.803  46.193  22.645  1.00  0.00    +0.000 F 
ATOM     70  C50 UNL A   1      51.531  47.281  24.310  1.00  0.00    +0.000 C 
ATOM     71  F13 UNL A   1      51.922  46.379  25.221  1.00  0.00    +0.000 F 
ATOM     72  C51 UNL A   1      50.665  48.302  24.671  1.00  0.00    +0.000 C 
ATOM     73  F14 UNL A   1      50.232  48.399  25.935  1.00  0.00    +0.000 F 
ATOM     74  C52 UNL A   1      50.242  49.230  23.719  1.00  0.00    +0.000 C 
ATOM     75  F15 UNL A   1      49.397  50.201  24.094  1.00  0.00    +0.000 F 
ENDBRANCH   64   65
TORSDOF 18
ENDMDL
MODEL 3
REMARK VINA RESULT:      -8.4     65.039     70.389
ROOT
ATOM     28  C23 UNL A   1      29.309 -13.827  31.059  1.00  0.00    +0.000 C 
ATOM     29  C24 UNL A   1      29.050 -13.958  32.533  1.00  0.00    +0.000 C 
ATOM     30  N4  UNL A   1      28.016 -13.565  33.233  1.00  0.00    +0.000 N 
ATOM     31  C25 UNL A   1      28.260 -13.986  34.534  1.00  0.00    +0.000 C 
ATOM     32  C26 UNL A   1      27.510 -13.781  35.643  1.00  0.00    +0.000 C 
ATOM     44  C33 UNL A   1      26.276 -13.041  35.662  1.00  0.00    +0.000 C 
ATOM     45  C34 UNL A   1      25.466 -12.738  36.743  1.00  0.00    +0.000 C 
ATOM     46  C35 UNL A   1      24.358 -12.024  36.274  1.00  0.00    +0.000 C 
ATOM     47  C36 UNL A   1      24.499 -11.846  34.907  1.00  0.00    +0.000 C 
ATOM     48  N5  UNL A   1      25.675 -12.481  34.544  1.00  0.00    +0.000 N 
ATOM     49  C37 UNL A   1      23.624 -11.150  34.000  1.00  0.00    +0.000 C 
ATOM     61  C44 UNL A   1      23.826 -11.026  32.666  1.00  0.00    +0.000 C 
ATOM     62  N6  UNL A   1      24.881 -11.497  31.896  1.00  0.00    +0.000 N 
ATOM     63  C45 UNL A   1      24.626 -11.123  30.667  1.00  0.00    +0.000 C 
ATOM     64  C46 UNL A   1      25.444 -11.335  29.421  1.00  0.00    +0.000 C 
ATOM     76  C53 UNL A   1      26.631 -11.965  29.510  1.00  0.00    +0.000 C 
ATOM     77  C54 UNL A   1      27.522 -12.253  28.390  1.00  0.00    +0.000 C 
ATOM     78  C55 UNL A   1      28.570 -12.964  28.835  1.00  0.00    +0.000 C 
ATOM     79  C56 UNL A   1      28.446 -13.145  30.282  1.00  0.00    +0.000 C 
ATOM     80  N7  UNL A   1      27.279 -12.492  30.600  1.00  0.00    +0.000 N 
ATOM     81  C57 UNL A   1      23.354 -10.402  30.511  1.00  0.00    +0.000 C 
ATOM     82  C58 UNL A   1      22.924 -10.340  31.763  1.00  0.00    +0.000 C 
ATOM     83  C59 UNL A   1      29.519 -14.699  34.519  1.00  0.00    +0.000 C 
ATOM     84  C60 UNL A   1      30.080 -14.653  33.320  1.00  0.00    +0.000 C 
ATOM    119  H27 UNL A   1      25.649 -12.995  37.726  1.00  0.00    +0.000 H 
ATOM    120  H28 UNL A   1      23.570 -11.688  36.849  1.00  0.00    +0.000 H 
ATOM    121  H29 UNL A   1      26.033 -12.528  33.628  1.00  0.00    +0.000 H 
ATOM    122  H30 UNL A   1      27.370 -11.959  27.412  1.00  0.00    +0.000 H 
ATOM    123  H31 UNL A   1      29.341 -13.325  28.251  1.00  0.00    +0.000 H 
ATOM    124  H32 UNL A   1      26.942 -12.410  31.520  1.00  0.00    +0.000 H 
ATOM    125  H33 UNL A   1      22.912 -10.038  29.652  1.00  0.00    +0.000 H 
ATOM    126  H34 UNL A   1      22.057  -9.864  32.058  1.00  0.00    +0.000 H 
ATOM    127  H35 UNL A   1      29.927 -15.180  35.336  1.00  0.00    +0.000 H 
ATOM    128  H36 UNL A   1      30.999 -15.011  33.016  1.00  0.00    +0.000 H 
ENDROOT
BRANCH   28   27
ATOM    129  H37 UNL A   1      29.443 -16.365  30.234  1.00  0.00    +0.000 H 
ATOM    130  H38 UNL A   1      31.336 -17.572  29.320  1.00  0.00    +0.000 H 
ATOM     27  C22 UNL A   1      30.468 -14.527  30.448  1.00  0.00    +0.000 C 
ATOM    117  H25 UNL A   1      33.644 -14.058  29.448  1.00  0.00    +0.000 H 
ATOM     86  C62 UNL A   1      31.415 -16.563  29.520  1.00  0.00    +0.000 C 
ATOM     85  C61 UNL A   1      30.341 -15.877  30.084  1.00  0.00    +0.000 C 
ATOM     24  C19 UNL A   1      32.598 -15.881  29.226  1.00  0.00    +0.000 C 
ATOM     25  C20 UNL A   1      32.752 -14.547  29.618  1.00  0.00    +0.000 C 
ATOM     26  C21 UNL A   1      31.695 -13.877  30.242  1.00  0.00    +0.000 C 
ATOM    118  H26 UNL A   1      31.817 -12.900  30.551  1.00  0.00    +0.000 H 
BRANCH   24   22
ATOM     22  C18 UNL A   1      33.713 -16.543  28.509  1.00  0.00    +0.000 C 
ATOM     23  O2  UNL A   1      34.541 -17.185  29.144  1.00  0.00    +0.000 O 
BRANCH   22   21
ATOM    116  H24 UNL A   1      34.678 -15.993  26.841  1.00  0.00    +0.000 H 
ATOM     21  N3  UNL A   1      33.838 -16.407  27.146  1.00  0.00    +0.000 N 
BRANCH   21   20
ATOM    114  H22 UNL A   1      33.469 -16.898  25.183  1.00  0.00    +0.000 H 
ATOM    115  H23 UNL A   1      32.442 -17.692  26.396  1.00  0.00    +0.000 H 
ATOM     20  C17 UNL A   1      32.915 -16.782  26.091  1.00  0.00    +0.000 C 
BRANCH   20   19
ATOM    113  H21 UNL A   1      31.463 -15.491  26.830  1.00  0.00    +0.000 H 
ATOM     19  C16 UNL A   1      31.810 -15.761  25.854  1.00  0.00    +0.000 C 
ATOM    112  H20 UNL A   1      31.072 -16.220  25.229  1.00  0.00    +0.000 H 
BRANCH   19   18
ATOM     18  C15 UNL A   1      32.223 -14.444  25.196  1.00  0.00    +0.000 C 
ATOM    110  H18 UNL A   1      33.130 -14.626  24.657  1.00  0.00    +0.000 H 
ATOM    111  H19 UNL A   1      31.384 -14.164  24.594  1.00  0.00    +0.000 H 
BRANCH   18   17
ATOM     17  C14 UNL A   1      32.466 -13.246  26.115  1.00  0.00    +0.000 C 
ATOM    108  H16 UNL A   1      32.020 -12.391  25.650  1.00  0.00    +0.000 H 
ATOM    109  H17 UNL A   1      32.042 -13.536  27.054  1.00  0.00    +0.000 H 
BRANCH   17   16
ATOM    106  H14 UNL A   1      34.375 -13.742  26.883  1.00  0.00    +0.000 H 
ATOM    107  H15 UNL A   1      34.339 -12.562  25.515  1.00  0.00    +0.000 H 
ATOM     16  C13 UNL A   1      33.917 -12.880  26.446  1.00  0.00    +0.000 C 
BRANCH   16   15
ATOM    105  H13 UNL A   1      34.811 -12.064  28.159  1.00  0.00    +0.000 H 
ATOM     15  C12 UNL A   1      34.146 -11.708  27.400  1.00  0.00    +0.000 C 
ATOM    104  H12 UNL A   1      33.195 -11.400  27.782  1.00  0.00    +0.000 H 
BRANCH   15   14
ATOM     14  N2  UNL A   1      34.785 -10.558  26.805  1.00  0.00    +0.000 N 
ATOM    103  H11 UNL A   1      35.769 -10.590  26.795  1.00  0.00    +0.000 H 
BRANCH   14   12
ATOM     12  C11 UNL A   1      34.238  -9.422  26.248  1.00  0.00    +0.000 C 
ATOM     13  O1  UNL A   1      34.997  -8.464  26.105  1.00  0.00    +0.000 O 
BRANCH   12   11
ATOM      3  C2  UNL A   1      30.557  -9.131  25.814  1.00  0.00    +0.000 C 
ATOM      4  C3  UNL A   1      31.701  -9.103  26.606  1.00  0.00    +0.000 C 
ATOM    131  H39 UNL A   1      33.789 -10.718  23.333  1.00  0.00    +0.000 H 
ATOM    134  H42 UNL A   1      29.233  -9.044  23.357  1.00  0.00    +0.000 H 
ATOM    133  H41 UNL A   1      30.249  -9.673  21.292  1.00  0.00    +0.000 H 
ATOM    132  H40 UNL A   1      32.527 -10.659  21.332  1.00  0.00    +0.000 H 
ATOM     11  C10 UNL A   1      32.849  -9.381  25.776  1.00  0.00    +0.000 C 
ATOM     87  C63 UNL A   1      32.323  -9.721  24.534  1.00  0.00    +0.000 C 
ATOM     88  C64 UNL A   1      32.847 -10.294  23.332  1.00  0.00    +0.000 C 
ATOM     89  C65 UNL A   1      32.118 -10.282  22.201  1.00  0.00    +0.000 C 
ATOM     90  C66 UNL A   1      30.770  -9.752  22.179  1.00  0.00    +0.000 C 
ATOM     91  C67 UNL A   1      30.214  -9.363  23.337  1.00  0.00    +0.000 C 
ATOM     92  N8  UNL A   1      30.967  -9.390  24.520  1.00  0.00    +0.000 N 
BRANCH    3    2
ATOM     97  H5  UNL A   1      28.961  -9.409  27.150  1.00  0.00    +0.000 H 
ATOM      2  C1  UNL A   1      29.119  -8.971  26.187  1.00  0.00    +0.000 C 
ATOM     96  H4  UNL A   1      28.509  -9.458  25.454  1.00  0.00    +0.000 H 
BRANCH    2    1
ATOM      1  N1  UNL A   1      28.759  -7.563  26.246  1.00  0.00    +0.000 N 
ATOM     93  H1  UNL A   1      29.570  -6.995  26.003  1.00  0.00    +0.000 H 
ATOM     94  H2  UNL A   1      28.452  -7.330  27.190  1.00  0.00    +0.000 H 
ATOM     95  H3  UNL A   1      28.004  -7.377  25.588  1.00  0.00    +0.000 H 
ENDBRANCH    2    1
ENDBRANCH    3    2
BRANCH    4    5
ATOM     98  H6  UNL A   1      32.189  -6.811  27.901  1.00  0.00    +0.000 H 
ATOM     99  H7  UNL A   1      32.091  -6.405  30.293  1.00  0.00    +0.000 H 
ATOM    100  H8  UNL A   1      31.493  -8.200  31.810  1.00  0.00    +0.000 H 
ATOM      5  C4  UNL A   1      31.652  -8.849  28.038  1.00  0.00    +0.000 C 
ATOM    102  H10 UNL A   1      31.120 -10.828  28.554  1.00  0.00    +0.000 H 
ATOM      6  C5  UNL A   1      31.936  -7.577  28.544  1.00  0.00    +0.000 C 
ATOM      7  C6  UNL A   1      31.880  -7.344  29.921  1.00  0.00    +0.000 C 
ATOM      9  C8  UNL A   1      31.258  -9.648  30.296  1.00  0.00    +0.000 C 
ATOM     10  C9  UNL A   1      31.320  -9.885  28.922  1.00  0.00    +0.000 C 
ATOM    101  H9  UNL A   1      31.006 -10.413  30.941  1.00  0.00    +0.000 H 
ATOM      8  C7  UNL A   1      31.538  -8.377  30.795  1.00  0.00    +0.000 C 
ENDBRANCH    4    5
ENDBRANCH   12   11
ENDBRANCH   14   12
ENDBRANCH   15   14
ENDBRANCH   16   15
ENDBRANCH   17   16
ENDBRANCH   18   17
ENDBRANCH   19   18
ENDBRANCH   20   19
ENDBRANCH   21   20
ENDBRANCH   22   21
ENDBRANCH   24   22
ENDBRANCH   28   27
BRANCH   32   33
ATOM     33  C27 UNL A   1      28.004 -14.372  36.930  1.00  0.00    +0.000 C 
ATOM     34  C28 UNL A   1      28.990 -13.738  37.700  1.00  0.00    +0.000 C 
ATOM     35  F1  UNL A   1      29.545 -12.593  37.275  1.00  0.00    +0.000 F 
ATOM     36  C29 UNL A   1      29.443 -14.302  38.890  1.00  0.00    +0.000 C 
ATOM     37  F2  UNL A   1      30.424 -13.705  39.581  1.00  0.00    +0.000 F 
ATOM     38  C30 UNL A   1      28.895 -15.488  39.351  1.00  0.00    +0.000 C 
ATOM     39  F3  UNL A   1      29.330 -16.028  40.497  1.00  0.00    +0.000 F 
ATOM     40  C31 UNL A   1      27.901 -16.121  38.619  1.00  0.00    +0.000 C 
ATOM     41  F4  UNL A   1      27.361 -17.262  39.069  1.00  0.00    +0.000 F 
ATOM     42  C32 UNL A   1      27.467 -15.574  37.414  1.00  0.00    +0.000 C 
ATOM     43  F5  UNL A   1      26.516 -16.218  36.719  1.00  0.00    +0.000 F 
ENDBRANCH   32   33
BRANCH   49   50
ATOM     50  C38 UNL A   1      22.410 -10.488  34.580  1.00  0.00    +0.000 C 
ATOM     51  C39 UNL A   1      22.474  -9.217  35.167  1.00  0.00    +0.000 C 
ATOM     52  F6  UNL A   1      23.653  -8.587  35.286  1.00  0.00    +0.000 F 
ATOM     53  C40 UNL A   1      21.327  -8.598  35.657  1.00  0.00    +0.000 C 
ATOM     54  F7  UNL A   1      21.415  -7.396  36.243  1.00  0.00    +0.000 F 
ATOM     55  C41 UNL A   1      20.096  -9.226  35.548  1.00  0.00    +0.000 C 
ATOM     56  F8  UNL A   1      18.991  -8.623  36.010  1.00  0.00    +0.000 F 
ATOM     57  C42 UNL A   1      20.009 -10.481  34.963  1.00  0.00    +0.000 C 
ATOM     58  F9  UNL A   1      18.818 -11.084  34.846  1.00  0.00    +0.000 F 
ATOM     59  C43 UNL A   1      21.156 -11.112  34.493  1.00  0.00    +0.000 C 
ATOM     60  F10 UNL A   1      21.044 -12.327  33.937  1.00  0.00    +0.000 F 
ENDBRANCH   49   50
BRANCH   64   65
ATOM     65  C47 UNL A   1      24.970 -10.831  28.107  1.00  0.00    +0.000 C 
ATOM     66  C48 UNL A   1      23.949 -11.495  27.413  1.00  0.00    +0.000 C 
ATOM     67  F11 UNL A   1      23.410 -12.612  27.923  1.00  0.00    +0.000 F 
ATOM     68  C49 UNL A   1      23.504 -11.036  26.175  1.00  0.00    +0.000 C 
ATOM     69  F12 UNL A   1      22.554 -11.711  25.515  1.00  0.00    +0.000 F 
ATOM     70  C50 UNL A   1      24.054  -9.890  25.619  1.00  0.00    +0.000 C 
ATOM     71  F13 UNL A   1      23.622  -9.446  24.431  1.00  0.00    +0.000 F 
ATOM     72  C51 UNL A   1      25.055  -9.209  26.294  1.00  0.00    +0.000 C 
ATOM     73  F14 UNL A   1      25.580  -8.094  25.768  1.00  0.00    +0.000 F 
ATOM     74  C52 UNL A   1      25.518  -9.681  27.522  1.00  0.00    +0.000 C 
ATOM     75  F15 UNL A   1      26.494  -9.008  28.149  1.00  0.00    +0.000 F 
ENDBRANCH   64   65
TORSDOF 18
ENDMDL
MODEL 4
REMARK VINA RESULT:      -8.4     42.520     46.183
ROOT
ATOM     28  C23 UNL A   1      25.885  35.514  45.387  1.00  0.00    +0.000 C 
ATOM     29  C24 UNL A   1      27.216  35.496  44.692  1.00  0.00    +0.000 C 
ATOM     30  N4  UNL A   1      28.258  36.267  44.872  1.00  0.00    +0.000 N 
ATOM     31  C25 UNL A   1      29.238  35.784  44.015  1.00  0.00    +0.000 C 
ATOM     32  C26 UNL A   1      30.484  36.271  43.795  1.00  0.00    +0.000 C 
ATOM     44  C33 UNL A   1      31.023  37.440  44.438  1.00  0.00    +0.000 C 
ATOM     45  C34 UNL A   1      32.256  38.038  44.249  1.00  0.00    +0.000 C 
ATOM     46  C35 UNL A   1      32.348  39.134  45.114  1.00  0.00    +0.000 C 
ATOM     47  C36 UNL A   1      31.156  39.241  45.813  1.00  0.00    +0.000 C 
ATOM     48  N5  UNL A   1      30.356  38.191  45.394  1.00  0.00    +0.000 N 
ATOM     49  C37 UNL A   1      30.778  40.228  46.791  1.00  0.00    +0.000 C 
ATOM     61  C44 UNL A   1      29.590  40.262  47.442  1.00  0.00    +0.000 C 
ATOM     62  N6  UNL A   1      28.501  39.411  47.313  1.00  0.00    +0.000 N 
ATOM     63  C45 UNL A   1      27.595  39.855  48.148  1.00  0.00    +0.000 C 
ATOM     64  C46 UNL A   1      26.206  39.336  48.407  1.00  0.00    +0.000 C 
ATOM     76  C53 UNL A   1      25.750  38.286  47.696  1.00  0.00    +0.000 C 
ATOM     77  C54 UNL A   1      24.436  37.668  47.847  1.00  0.00    +0.000 C 
ATOM     78  C55 UNL A   1      24.359  36.599  47.038  1.00  0.00    +0.000 C 
ATOM     79  C56 UNL A   1      25.604  36.482  46.279  1.00  0.00    +0.000 C 
ATOM     80  N7  UNL A   1      26.359  37.545  46.714  1.00  0.00    +0.000 N 
ATOM     81  C57 UNL A   1      28.023  41.021  48.934  1.00  0.00    +0.000 C 
ATOM     82  C58 UNL A   1      29.233  41.249  48.440  1.00  0.00    +0.000 C 
ATOM     83  C59 UNL A   1      28.681  34.630  43.343  1.00  0.00    +0.000 C 
ATOM     84  C60 UNL A   1      27.412  34.449  43.677  1.00  0.00    +0.000 C 
ATOM    119  H27 UNL A   1      32.982  37.730  43.583  1.00  0.00    +0.000 H 
ATOM    120  H28 UNL A   1      33.165  39.755  45.215  1.00  0.00    +0.000 H 
ATOM    121  H29 UNL A   1      29.447  38.007  45.725  1.00  0.00    +0.000 H 
ATOM    122  H30 UNL A   1      23.687  37.998  48.476  1.00  0.00    +0.000 H 
ATOM    123  H31 UNL A   1      23.550  35.962  46.963  1.00  0.00    +0.000 H 
ATOM    124  H32 UNL A   1      27.252  37.754  46.355  1.00  0.00    +0.000 H 
ATOM    125  H33 UNL A   1      27.517  41.531  49.674  1.00  0.00    +0.000 H 
ATOM    126  H34 UNL A   1      29.842  42.030  48.728  1.00  0.00    +0.000 H 
ATOM    127  H35 UNL A   1      29.204  34.027  42.689  1.00  0.00    +0.000 H 
ATOM    128  H36 UNL A   1      26.737  33.756  43.319  1.00  0.00    +0.000 H 
ENDROOT
BRANCH   28   27
ATOM    129  H37 UNL A   1      25.589  33.267  46.801  1.00  0.00    +0.000 H 
ATOM    130  H38 UNL A   1      24.091  31.402  46.406  1.00  0.00    +0.000 H 
ATOM     27  C22 UNL A   1      24.916  34.411  45.155  1.00  0.00    +0.000 C 
ATOM    117  H25 UNL A   1      22.392  33.454  43.151  1.00  0.00    +0.000 H 
ATOM     86  C62 UNL A   1      24.034  32.246  45.814  1.00  0.00    +0.000 C 
ATOM     85  C61 UNL A   1      24.922  33.301  46.014  1.00  0.00    +0.000 C 
ATOM     24  C19 UNL A   1      23.066  32.333  44.811  1.00  0.00    +0.000 C 
ATOM     25  C20 UNL A   1      23.074  33.415  43.924  1.00  0.00    +0.000 C 
ATOM     26  C21 UNL A   1      24.007  34.443  44.086  1.00  0.00    +0.000 C 
ATOM    118  H26 UNL A   1      24.026  35.229  43.418  1.00  0.00    +0.000 H 
BRANCH   24   22
ATOM     22  C18 UNL A   1      22.023  31.292  44.652  1.00  0.00    +0.000 C 
ATOM     23  O2  UNL A   1      22.332  30.110  44.745  1.00  0.00    +0.000 O 
BRANCH   22   21
ATOM    116  H24 UNL A   1      20.607  32.570  44.039  1.00  0.00    +0.000 H 
ATOM     21  N3  UNL A   1      20.726  31.649  44.364  1.00  0.00    +0.000 N 
BRANCH   21   20
ATOM    114  H22 UNL A   1      19.259  30.496  43.498  1.00  0.00    +0.000 H 
ATOM    115  H23 UNL A   1      19.699  30.080  45.169  1.00  0.00    +0.000 H 
ATOM     20  C17 UNL A   1      19.508  30.867  44.471  1.00  0.00    +0.000 C 
BRANCH   20   19
ATOM    113  H21 UNL A   1      18.563  31.879  46.022  1.00  0.00    +0.000 H 
ATOM     19  C16 UNL A   1      18.319  31.658  45.003  1.00  0.00    +0.000 C 
ATOM    112  H20 UNL A   1      17.444  31.055  44.875  1.00  0.00    +0.000 H 
BRANCH   19   18
ATOM     18  C15 UNL A   1      18.050  33.014  44.350  1.00  0.00    +0.000 C 
ATOM    110  H18 UNL A   1      18.585  33.752  44.911  1.00  0.00    +0.000 H 
ATOM    111  H19 UNL A   1      18.365  32.896  43.335  1.00  0.00    +0.000 H 
BRANCH   18   17
ATOM     17  C14 UNL A   1      16.592  33.472  44.259  1.00  0.00    +0.000 C 
ATOM    108  H16 UNL A   1      16.193  33.086  43.345  1.00  0.00    +0.000 H 
ATOM    109  H17 UNL A   1      16.138  33.104  45.155  1.00  0.00    +0.000 H 
BRANCH   17   16
ATOM    106  H14 UNL A   1      16.379  35.332  43.271  1.00  0.00    +0.000 H 
ATOM    107  H15 UNL A   1      15.349  35.073  44.733  1.00  0.00    +0.000 H 
ATOM     16  C13 UNL A   1      16.313  34.979  44.279  1.00  0.00    +0.000 C 
BRANCH   16   15
ATOM    105  H13 UNL A   1      17.770  36.479  44.446  1.00  0.00    +0.000 H 
ATOM     15  C12 UNL A   1      17.234  35.853  45.129  1.00  0.00    +0.000 C 
ATOM    104  H12 UNL A   1      17.871  35.208  45.699  1.00  0.00    +0.000 H 
BRANCH   15   14
ATOM     14  N2  UNL A   1      16.554  36.738  46.045  1.00  0.00    +0.000 N 
ATOM    103  H11 UNL A   1      16.490  37.673  45.745  1.00  0.00    +0.000 H 
BRANCH   14   12
ATOM     12  C11 UNL A   1      15.980  36.482  47.272  1.00  0.00    +0.000 C 
ATOM     13  O1  UNL A   1      14.931  35.839  47.260  1.00  0.00    +0.000 O 
BRANCH   12   11
ATOM      3  C2  UNL A   1      18.269  37.187  50.115  1.00  0.00    +0.000 C 
ATOM      4  C3  UNL A   1      18.013  36.660  48.853  1.00  0.00    +0.000 C 
ATOM    131  H39 UNL A   1      13.925  37.269  49.625  1.00  0.00    +0.000 H 
ATOM    134  H42 UNL A   1      17.667  38.833  52.289  1.00  0.00    +0.000 H 
ATOM    133  H41 UNL A   1      15.454  39.542  52.831  1.00  0.00    +0.000 H 
ATOM    132  H40 UNL A   1      13.551  38.610  51.537  1.00  0.00    +0.000 H 
ATOM     11  C10 UNL A   1      16.624  36.882  48.528  1.00  0.00    +0.000 C 
ATOM     87  C63 UNL A   1      16.060  37.403  49.688  1.00  0.00    +0.000 C 
ATOM     88  C64 UNL A   1      14.728  37.657  50.144  1.00  0.00    +0.000 C 
ATOM     89  C65 UNL A   1      14.518  38.399  51.247  1.00  0.00    +0.000 C 
ATOM     90  C66 UNL A   1      15.623  38.908  52.034  1.00  0.00    +0.000 C 
ATOM     91  C67 UNL A   1      16.870  38.538  51.704  1.00  0.00    +0.000 C 
ATOM     92  N8  UNL A   1      17.090  37.751  50.566  1.00  0.00    +0.000 N 
BRANCH    3    2
ATOM     97  H5  UNL A   1      20.047  36.260  50.737  1.00  0.00    +0.000 H 
ATOM      2  C1  UNL A   1      19.516  37.166  50.937  1.00  0.00    +0.000 C 
ATOM     96  H4  UNL A   1      19.256  37.223  51.974  1.00  0.00    +0.000 H 
BRANCH    2    1
ATOM      1  N1  UNL A   1      20.370  38.294  50.598  1.00  0.00    +0.000 N 
ATOM     93  H1  UNL A   1      20.905  38.075  49.758  1.00  0.00    +0.000 H 
ATOM     94  H2  UNL A   1      21.010  38.481  51.370  1.00  0.00    +0.000 H 
ATOM     95  H3  UNL A   1      19.794  39.118  50.429  1.00  0.00    +0.000 H 
ENDBRANCH    2    1
ENDBRANCH    3    2
BRANCH    4    5
ATOM     98  H6  UNL A   1      19.858  37.753  47.250  1.00  0.00    +0.000 H 
ATOM     99  H7  UNL A   1      21.565  36.613  45.955  1.00  0.00    +0.000 H 
ATOM    100  H8  UNL A   1      21.737  34.194  46.026  1.00  0.00    +0.000 H 
ATOM      5  C4  UNL A   1      19.037  35.987  48.067  1.00  0.00    +0.000 C 
ATOM    102  H10 UNL A   1      18.471  34.040  48.663  1.00  0.00    +0.000 H 
ATOM      6  C5  UNL A   1      19.927  36.724  47.281  1.00  0.00    +0.000 C 
ATOM      7  C6  UNL A   1      20.910  36.067  46.535  1.00  0.00    +0.000 C 
ATOM      9  C8  UNL A   1      20.119  33.936  47.352  1.00  0.00    +0.000 C 
ATOM     10  C9  UNL A   1      19.133  34.589  48.093  1.00  0.00    +0.000 C 
ATOM    101  H9  UNL A   1      20.190  32.907  47.381  1.00  0.00    +0.000 H 
ATOM      8  C7  UNL A   1      21.007  34.675  46.573  1.00  0.00    +0.000 C 
ENDBRANCH    4    5
ENDBRANCH   12   11
ENDBRANCH   14   12
ENDBRANCH   15   14
ENDBRANCH   16   15
ENDBRANCH   17   16
ENDBRANCH   18   17
ENDBRANCH   19   18
ENDBRANCH   20   19
ENDBRANCH   21   20
ENDBRANCH   22   21
ENDBRANCH   24   22
ENDBRANCH   28   27
BRANCH   32   33
ATOM     33  C27 UNL A   1      31.352  35.532  42.820  1.00  0.00    +0.000 C 
ATOM     34  C28 UNL A   1      31.429  35.909  41.472  1.00  0.00    +0.000 C 
ATOM     35  F1  UNL A   1      30.689  36.930  41.014  1.00  0.00    +0.000 F 
ATOM     36  C29 UNL A   1      32.234  35.210  40.576  1.00  0.00    +0.000 C 
ATOM     37  F2  UNL A   1      32.251  35.556  39.282  1.00  0.00    +0.000 F 
ATOM     38  C30 UNL A   1      33.004  34.146  41.018  1.00  0.00    +0.000 C 
ATOM     39  F3  UNL A   1      33.781  33.475  40.157  1.00  0.00    +0.000 F 
ATOM     40  C31 UNL A   1      32.962  33.769  42.352  1.00  0.00    +0.000 C 
ATOM     41  F4  UNL A   1      33.715  32.747  42.784  1.00  0.00    +0.000 F 
ATOM     42  C32 UNL A   1      32.136  34.448  43.244  1.00  0.00    +0.000 C 
ATOM     43  F5  UNL A   1      32.104  34.050  44.525  1.00  0.00    +0.000 F 
ENDBRANCH   32   33
BRANCH   49   50
ATOM     50  C38 UNL A   1      31.763  41.317  47.093  1.00  0.00    +0.000 C 
ATOM     51  C39 UNL A   1      32.903  41.082  47.874  1.00  0.00    +0.000 C 
ATOM     52  F6  UNL A   1      33.100  39.880  48.435  1.00  0.00    +0.000 F 
ATOM     53  C40 UNL A   1      33.831  42.094  48.105  1.00  0.00    +0.000 C 
ATOM     54  F7  UNL A   1      34.898  41.859  48.881  1.00  0.00    +0.000 F 
ATOM     55  C41 UNL A   1      33.650  43.347  47.538  1.00  0.00    +0.000 C 
ATOM     56  F8  UNL A   1      34.552  44.317  47.750  1.00  0.00    +0.000 F 
ATOM     57  C42 UNL A   1      32.535  43.598  46.753  1.00  0.00    +0.000 C 
ATOM     58  F9  UNL A   1      32.365  44.805  46.195  1.00  0.00    +0.000 F 
ATOM     59  C43 UNL A   1      31.593  42.596  46.541  1.00  0.00    +0.000 C 
ATOM     60  F10 UNL A   1      30.520  42.867  45.783  1.00  0.00    +0.000 F 
ENDBRANCH   49   50
BRANCH   64   65
ATOM     65  C47 UNL A   1      25.327  39.986  49.412  1.00  0.00    +0.000 C 
ATOM     66  C48 UNL A   1      24.489  41.050  49.049  1.00  0.00    +0.000 C 
ATOM     67  F11 UNL A   1      24.498  41.507  47.788  1.00  0.00    +0.000 F 
ATOM     68  C49 UNL A   1      23.669  41.672  49.987  1.00  0.00    +0.000 C 
ATOM     69  F12 UNL A   1      22.907  42.712  49.622  1.00  0.00    +0.000 F 
ATOM     70  C50 UNL A   1      23.652  41.227  51.300  1.00  0.00    +0.000 C 
ATOM     71  F13 UNL A   1      22.858  41.823  52.201  1.00  0.00    +0.000 F 
ATOM     72  C51 UNL A   1      24.461  40.167  51.680  1.00  0.00    +0.000 C 
ATOM     73  F14 UNL A   1      24.438  39.725  52.944  1.00  0.00    +0.000 F 
ATOM     74  C52 UNL A   1      25.301  39.559  50.747  1.00  0.00    +0.000 C 
ATOM     75  F15 UNL A   1      26.080  38.542  51.144  1.00  0.00    +0.000 F 
ENDBRANCH   64   65
TORSDOF 18
ENDMDL
MODEL 5
REMARK VINA RESULT:      -8.2     65.141     70.384
ROOT
ATOM     28  C23 UNL A   1      29.223 -13.892  31.053  1.00  0.00    +0.000 C 
ATOM     29  C24 UNL A   1      28.943 -13.991  32.525  1.00  0.00    +0.000 C 
ATOM     30  N4  UNL A   1      27.905 -13.574  33.204  1.00  0.00    +0.000 N 
ATOM     31  C25 UNL A   1      28.127 -13.971  34.516  1.00  0.00    +0.000 C 
ATOM     32  C26 UNL A   1      27.364 -13.736  35.610  1.00  0.00    +0.000 C 
ATOM     44  C33 UNL A   1      26.137 -12.984  35.598  1.00  0.00    +0.000 C 
ATOM     45  C34 UNL A   1      25.316 -12.652  36.661  1.00  0.00    +0.000 C 
ATOM     46  C35 UNL A   1      24.221 -11.937  36.163  1.00  0.00    +0.000 C 
ATOM     47  C36 UNL A   1      24.382 -11.788  34.795  1.00  0.00    +0.000 C 
ATOM     48  N5  UNL A   1      25.557 -12.442  34.461  1.00  0.00    +0.000 N 
ATOM     49  C37 UNL A   1      23.526 -11.102  33.863  1.00  0.00    +0.000 C 
ATOM     61  C44 UNL A   1      23.747 -11.007  32.529  1.00  0.00    +0.000 C 
ATOM     62  N6  UNL A   1      24.808 -11.503  31.784  1.00  0.00    +0.000 N 
ATOM     63  C45 UNL A   1      24.573 -11.152  30.544  1.00  0.00    +0.000 C 
ATOM     64  C46 UNL A   1      25.405 -11.396  29.314  1.00  0.00    +0.000 C 
ATOM     76  C53 UNL A   1      26.585 -12.035  29.431  1.00  0.00    +0.000 C 
ATOM     77  C54 UNL A   1      27.488 -12.355  28.329  1.00  0.00    +0.000 C 
ATOM     78  C55 UNL A   1      28.523 -13.066  28.803  1.00  0.00    +0.000 C 
ATOM     79  C56 UNL A   1      28.377 -13.217  30.251  1.00  0.00    +0.000 C 
ATOM     80  N7  UNL A   1      27.213 -12.547  30.540  1.00  0.00    +0.000 N 
ATOM     81  C57 UNL A   1      23.310 -10.422  30.356  1.00  0.00    +0.000 C 
ATOM     82  C58 UNL A   1      22.864 -10.330  31.601  1.00  0.00    +0.000 C 
ATOM     83  C59 UNL A   1      29.379 -14.696  34.532  1.00  0.00    +0.000 C 
ATOM     84  C60 UNL A   1      29.956 -14.680  33.340  1.00  0.00    +0.000 C 
ATOM    119  H27 UNL A   1      25.483 -12.891  37.652  1.00  0.00    +0.000 H 
ATOM    120  H28 UNL A   1      23.429 -11.582  36.720  1.00  0.00    +0.000 H 
ATOM    121  H29 UNL A   1      25.926 -12.510  33.551  1.00  0.00    +0.000 H 
ATOM    122  H30 UNL A   1      27.352 -12.079  27.343  1.00  0.00    +0.000 H 
ATOM    123  H31 UNL A   1      29.298 -13.447  28.236  1.00  0.00    +0.000 H 
ATOM    124  H32 UNL A   1      26.864 -12.443  31.454  1.00  0.00    +0.000 H 
ATOM    125  H33 UNL A   1      22.883 -10.071  29.484  1.00  0.00    +0.000 H 
ATOM    126  H34 UNL A   1      21.998  -9.840  31.875  1.00  0.00    +0.000 H 
ATOM    127  H35 UNL A   1      29.772 -15.164  35.364  1.00  0.00    +0.000 H 
ATOM    128  H36 UNL A   1      30.876 -15.052  33.056  1.00  0.00    +0.000 H 
ENDROOT
BRANCH   28   27
ATOM    129  H37 UNL A   1      29.325 -16.428  30.218  1.00  0.00    +0.000 H 
ATOM    130  H38 UNL A   1      31.215 -17.674  29.353  1.00  0.00    +0.000 H 
ATOM     27  C22 UNL A   1      30.384 -14.615  30.471  1.00  0.00    +0.000 C 
ATOM    117  H25 UNL A   1      33.597 -14.213  29.566  1.00  0.00    +0.000 H 
ATOM     86  C62 UNL A   1      31.311 -16.667  29.560  1.00  0.00    +0.000 C 
ATOM     85  C61 UNL A   1      30.237 -15.960  30.097  1.00  0.00    +0.000 C 
ATOM     24  C19 UNL A   1      32.517 -16.011  29.304  1.00  0.00    +0.000 C 
ATOM     25  C20 UNL A   1      32.689 -14.682  29.708  1.00  0.00    +0.000 C 
ATOM     26  C21 UNL A   1      31.630 -13.992  30.304  1.00  0.00    +0.000 C 
ATOM    118  H26 UNL A   1      31.766 -13.019  30.622  1.00  0.00    +0.000 H 
BRANCH   24   22
ATOM     22  C18 UNL A   1      33.637 -16.695  28.616  1.00  0.00    +0.000 C 
ATOM     23  O2  UNL A   1      34.534 -17.201  29.280  1.00  0.00    +0.000 O 
BRANCH   22   21
ATOM    116  H24 UNL A   1      34.392 -16.170  26.835  1.00  0.00    +0.000 H 
ATOM     21  N3  UNL A   1      33.689 -16.727  27.242  1.00  0.00    +0.000 N 
BRANCH   21   20
ATOM    114  H22 UNL A   1      33.499 -18.073  25.697  1.00  0.00    +0.000 H 
ATOM    115  H23 UNL A   1      32.172 -18.042  26.879  1.00  0.00    +0.000 H 
ATOM     20  C17 UNL A   1      32.862 -17.463  26.303  1.00  0.00    +0.000 C 
BRANCH   20   19
ATOM    113  H21 UNL A   1      31.169 -17.144  25.139  1.00  0.00    +0.000 H 
ATOM     19  C16 UNL A   1      32.037 -16.569  25.385  1.00  0.00    +0.000 C 
ATOM    112  H20 UNL A   1      32.651 -16.307  24.549  1.00  0.00    +0.000 H 
BRANCH   19   18
ATOM     18  C15 UNL A   1      31.501 -15.272  25.992  1.00  0.00    +0.000 C 
ATOM    110  H18 UNL A   1      31.818 -15.242  27.014  1.00  0.00    +0.000 H 
ATOM    111  H19 UNL A   1      31.894 -14.495  25.370  1.00  0.00    +0.000 H 
BRANCH   18   17
ATOM     17  C14 UNL A   1      29.986 -15.061  25.974  1.00  0.00    +0.000 C 
ATOM    108  H16 UNL A   1      29.550 -15.917  25.501  1.00  0.00    +0.000 H 
ATOM    109  H17 UNL A   1      29.722 -14.916  27.000  1.00  0.00    +0.000 H 
BRANCH   17   16
ATOM    106  H14 UNL A   1      29.501 -14.004  24.205  1.00  0.00    +0.000 H 
ATOM    107  H15 UNL A   1      28.454 -13.690  25.644  1.00  0.00    +0.000 H 
ATOM     16  C13 UNL A   1      29.443 -13.820  25.257  1.00  0.00    +0.000 C 
BRANCH   16   15
ATOM    105  H13 UNL A   1      30.888 -12.382  24.762  1.00  0.00    +0.000 H 
ATOM     15  C12 UNL A   1      30.147 -12.490  25.527  1.00  0.00    +0.000 C 
ATOM    104  H12 UNL A   1      30.561 -12.528  26.513  1.00  0.00    +0.000 H 
BRANCH   15   14
ATOM     14  N2  UNL A   1      29.298 -11.326  25.439  1.00  0.00    +0.000 N 
ATOM    103  H11 UNL A   1      28.347 -11.519  25.273  1.00  0.00    +0.000 H 
BRANCH   14   12
ATOM     12  C11 UNL A   1      29.606  -9.987  25.552  1.00  0.00    +0.000 C 
ATOM     13  O1  UNL A   1      28.691  -9.195  25.326  1.00  0.00    +0.000 O 
BRANCH   12   11
ATOM      3  C2  UNL A   1      32.607  -8.805  27.400  1.00  0.00    +0.000 C 
ATOM      4  C3  UNL A   1      31.265  -9.171  27.353  1.00  0.00    +0.000 C 
ATOM    131  H39 UNL A   1      31.584  -9.121  23.161  1.00  0.00    +0.000 H 
ATOM    134  H42 UNL A   1      35.203  -8.742  26.372  1.00  0.00    +0.000 H 
ATOM    133  H41 UNL A   1      35.703  -8.936  24.047  1.00  0.00    +0.000 H 
ATOM    132  H40 UNL A   1      33.826  -8.984  22.421  1.00  0.00    +0.000 H 
ATOM     11  C10 UNL A   1      30.927  -9.530  25.996  1.00  0.00    +0.000 C 
ATOM     87  C63 UNL A   1      32.055  -9.213  25.247  1.00  0.00    +0.000 C 
ATOM     88  C64 UNL A   1      32.352  -9.114  23.851  1.00  0.00    +0.000 C 
ATOM     89  C65 UNL A   1      33.627  -9.010  23.433  1.00  0.00    +0.000 C 
ATOM     90  C66 UNL A   1      34.724  -8.935  24.376  1.00  0.00    +0.000 C 
ATOM     91  C67 UNL A   1      34.442  -8.864  25.685  1.00  0.00    +0.000 C 
ATOM     92  N8  UNL A   1      33.113  -8.954  26.122  1.00  0.00    +0.000 N 
BRANCH    3    2
ATOM     97  H5  UNL A   1      34.457  -8.266  28.234  1.00  0.00    +0.000 H 
ATOM      2  C1  UNL A   1      33.431  -8.295  28.537  1.00  0.00    +0.000 C 
ATOM     96  H4  UNL A   1      33.311  -8.944  29.379  1.00  0.00    +0.000 H 
BRANCH    2    1
ATOM      1  N1  UNL A   1      33.014  -6.951  28.908  1.00  0.00    +0.000 N 
ATOM     93  H1  UNL A   1      32.273  -7.007  29.607  1.00  0.00    +0.000 H 
ATOM     94  H2  UNL A   1      32.667  -6.463  28.083  1.00  0.00    +0.000 H 
ATOM     95  H3  UNL A   1      33.808  -6.443  29.295  1.00  0.00    +0.000 H 
ENDBRANCH    2    1
ENDBRANCH    3    2
BRANCH    4    5
ATOM     98  H6  UNL A   1      31.238 -10.864  29.426  1.00  0.00    +0.000 H 
ATOM     99  H7  UNL A   1      29.807 -10.794  31.385  1.00  0.00    +0.000 H 
ATOM    100  H8  UNL A   1      28.156  -9.032  31.625  1.00  0.00    +0.000 H 
ATOM      5  C4  UNL A   1      30.408  -9.142  28.529  1.00  0.00    +0.000 C 
ATOM    102  H10 UNL A   1      29.337  -7.421  27.930  1.00  0.00    +0.000 H 
ATOM      6  C5  UNL A   1      30.536 -10.115  29.524  1.00  0.00    +0.000 C 
ATOM      7  C6  UNL A   1      29.711 -10.074  30.652  1.00  0.00    +0.000 C 
ATOM      9  C8  UNL A   1      28.625  -8.093  29.797  1.00  0.00    +0.000 C 
ATOM     10  C9  UNL A   1      29.443  -8.135  28.667  1.00  0.00    +0.000 C 
ATOM    101  H9  UNL A   1      27.922  -7.345  29.898  1.00  0.00    +0.000 H 
ATOM      8  C7  UNL A   1      28.759  -9.062  30.790  1.00  0.00    +0.000 C 
ENDBRANCH    4    5
ENDBRANCH   12   11
ENDBRANCH   14   12
ENDBRANCH   15   14
ENDBRANCH   16   15
ENDBRANCH   17   16
ENDBRANCH   18   17
ENDBRANCH   19   18
ENDBRANCH   20   19
ENDBRANCH   21   20
ENDBRANCH   22   21
ENDBRANCH   24   22
ENDBRANCH   28   27
BRANCH   32   33
ATOM     33  C27 UNL A   1      27.835 -14.306  36.916  1.00  0.00    +0.000 C 
ATOM     34  C28 UNL A   1      28.860 -13.699  37.655  1.00  0.00    +0.000 C 
ATOM     35  F1  UNL A   1      29.473 -12.603  37.186  1.00  0.00    +0.000 F 
ATOM     36  C29 UNL A   1      29.291 -14.243  38.863  1.00  0.00    +0.000 C 
ATOM     37  F2  UNL A   1      30.308 -13.676  39.526  1.00  0.00    +0.000 F 
ATOM     38  C30 UNL A   1      28.683 -15.380  39.370  1.00  0.00    +0.000 C 
ATOM     39  F3  UNL A   1      29.096 -15.901  40.534  1.00  0.00    +0.000 F 
ATOM     40  C31 UNL A   1      27.650 -15.984  38.668  1.00  0.00    +0.000 C 
ATOM     41  F4  UNL A   1      27.052 -17.076  39.164  1.00  0.00    +0.000 F 
ATOM     42  C32 UNL A   1      27.237 -15.459  37.447  1.00  0.00    +0.000 C 
ATOM     43  F5  UNL A   1      26.246 -16.074  36.782  1.00  0.00    +0.000 F 
ENDBRANCH   32   33
BRANCH   49   50
ATOM     50  C38 UNL A   1      22.311 -10.417  34.413  1.00  0.00    +0.000 C 
ATOM     51  C39 UNL A   1      21.041 -11.006  34.346  1.00  0.00    +0.000 C 
ATOM     52  F6  UNL A   1      20.873 -12.179  33.716  1.00  0.00    +0.000 F 
ATOM     53  C40 UNL A   1      19.932 -10.377  34.905  1.00  0.00    +0.000 C 
ATOM     54  F7  UNL A   1      18.720 -10.941  34.802  1.00  0.00    +0.000 F 
ATOM     55  C41 UNL A   1      20.077  -9.164  35.562  1.00  0.00    +0.000 C 
ATOM     56  F8  UNL A   1      19.010  -8.565  36.110  1.00  0.00    +0.000 F 
ATOM     57  C42 UNL A   1      21.326  -8.568  35.648  1.00  0.00    +0.000 C 
ATOM     58  F9  UNL A   1      21.470  -7.401  36.292  1.00  0.00    +0.000 F 
ATOM     59  C43 UNL A   1      22.433  -9.183  35.069  1.00  0.00    +0.000 C 
ATOM     60  F10 UNL A   1      23.628  -8.582  35.162  1.00  0.00    +0.000 F 
ENDBRANCH   49   50
BRANCH   64   65
ATOM     65  C47 UNL A   1      24.953 -10.915  27.984  1.00  0.00    +0.000 C 
ATOM     66  C48 UNL A   1      24.026 -11.651  27.233  1.00  0.00    +0.000 C 
ATOM     67  F11 UNL A   1      23.559 -12.816  27.705  1.00  0.00    +0.000 F 
ATOM     68  C49 UNL A   1      23.604 -11.212  25.980  1.00  0.00    +0.000 C 
ATOM     69  F12 UNL A   1      22.746 -11.954  25.267  1.00  0.00    +0.000 F 
ATOM     70  C50 UNL A   1      24.081 -10.017  25.464  1.00  0.00    +0.000 C 
ATOM     71  F13 UNL A   1      23.671  -9.593  24.261  1.00  0.00    +0.000 F 
ATOM     72  C51 UNL A   1      24.989  -9.264  26.194  1.00  0.00    +0.000 C 
ATOM     73  F14 UNL A   1      25.443  -8.103  25.705  1.00  0.00    +0.000 F 
ATOM     74  C52 UNL A   1      25.431  -9.715  27.438  1.00  0.00    +0.000 C 
ATOM     75  F15 UNL A   1      26.316  -8.971  28.118  1.00  0.00    +0.000 F 
ENDBRANCH   64   65
TORSDOF 18
ENDMDL
MODEL 6
REMARK VINA RESULT:      -8.2     44.532     50.307
ROOT
ATOM     28  C23 UNL A   1      10.694   2.763  21.208  1.00  0.00    +0.000 C 
ATOM     29  C24 UNL A   1       9.808   3.677  22.004  1.00  0.00    +0.000 C 
ATOM     30  N4  UNL A   1       9.395   4.887  21.722  1.00  0.00    +0.000 N 
ATOM     31  C25 UNL A   1       8.553   5.251  22.764  1.00  0.00    +0.000 C 
ATOM     32  C26 UNL A   1       7.911   6.428  22.961  1.00  0.00    +0.000 C 
ATOM     44  C33 UNL A   1       8.012   7.563  22.082  1.00  0.00    +0.000 C 
ATOM     45  C34 UNL A   1       7.438   8.815  22.219  1.00  0.00    +0.000 C 
ATOM     46  C35 UNL A   1       7.792   9.583  21.105  1.00  0.00    +0.000 C 
ATOM     47  C36 UNL A   1       8.621   8.823  20.295  1.00  0.00    +0.000 C 
ATOM     48  N5  UNL A   1       8.741   7.584  20.903  1.00  0.00    +0.000 N 
ATOM     49  C37 UNL A   1       9.254   9.200  19.058  1.00  0.00    +0.000 C 
ATOM     61  C44 UNL A   1      10.048   8.393  18.314  1.00  0.00    +0.000 C 
ATOM     62  N6  UNL A   1      10.440   7.084  18.564  1.00  0.00    +0.000 N 
ATOM     63  C45 UNL A   1      11.207   6.739  17.559  1.00  0.00    +0.000 C 
ATOM     64  C46 UNL A   1      11.932   5.443  17.320  1.00  0.00    +0.000 C 
ATOM     76  C53 UNL A   1      11.852   4.461  18.240  1.00  0.00    +0.000 C 
ATOM     77  C54 UNL A   1      12.487   3.151  18.138  1.00  0.00    +0.000 C 
ATOM     78  C55 UNL A   1      12.123   2.404  19.192  1.00  0.00    +0.000 C 
ATOM     79  C56 UNL A   1      11.261   3.199  20.067  1.00  0.00    +0.000 C 
ATOM     80  N7  UNL A   1      11.180   4.417  19.437  1.00  0.00    +0.000 N 
ATOM     81  C57 UNL A   1      11.358   7.783  16.534  1.00  0.00    +0.000 C 
ATOM     82  C58 UNL A   1      10.661   8.780  17.060  1.00  0.00    +0.000 C 
ATOM     83  C59 UNL A   1       8.482   4.121  23.666  1.00  0.00    +0.000 C 
ATOM     84  C60 UNL A   1       9.291   3.147  23.275  1.00  0.00    +0.000 C 
ATOM    119  H27 UNL A   1       6.850   9.128  23.008  1.00  0.00    +0.000 H 
ATOM    120  H28 UNL A   1       7.487  10.551  20.918  1.00  0.00    +0.000 H 
ATOM    121  H29 UNL A   1       9.266   6.830  20.550  1.00  0.00    +0.000 H 
ATOM    122  H30 UNL A   1      13.114   2.847  17.376  1.00  0.00    +0.000 H 
ATOM    123  H31 UNL A   1      12.405   1.425  19.359  1.00  0.00    +0.000 H 
ATOM    124  H32 UNL A   1      10.688   5.184  19.809  1.00  0.00    +0.000 H 
ATOM    125  H33 UNL A   1      11.873   7.749  15.640  1.00  0.00    +0.000 H 
ATOM    126  H34 UNL A   1      10.567   9.714  16.631  1.00  0.00    +0.000 H 
ATOM    127  H35 UNL A   1       7.880   4.079  24.503  1.00  0.00    +0.000 H 
ATOM    128  H36 UNL A   1       9.504   2.251  23.741  1.00  0.00    +0.000 H 
ENDROOT
BRANCH   28   27
ATOM    129  H37 UNL A   1      12.661   1.734  22.695  1.00  0.00    +0.000 H 
ATOM    130  H38 UNL A   1      13.041  -0.573  23.335  1.00  0.00    +0.000 H 
ATOM     27  C22 UNL A   1      10.871   1.350  21.635  1.00  0.00    +0.000 C 
ATOM    117  H25 UNL A   1       9.445  -1.689  21.460  1.00  0.00    +0.000 H 
ATOM     86  C62 UNL A   1      12.184  -0.314  22.821  1.00  0.00    +0.000 C 
ATOM     85  C61 UNL A   1      11.985   1.005  22.417  1.00  0.00    +0.000 C 
ATOM     24  C19 UNL A   1      11.222  -1.284  22.530  1.00  0.00    +0.000 C 
ATOM     25  C20 UNL A   1      10.128  -0.961  21.719  1.00  0.00    +0.000 C 
ATOM     26  C21 UNL A   1       9.962   0.349  21.260  1.00  0.00    +0.000 C 
ATOM    118  H26 UNL A   1       9.167   0.581  20.644  1.00  0.00    +0.000 H 
BRANCH   24   22
ATOM     22  C18 UNL A   1      11.335  -2.665  23.054  1.00  0.00    +0.000 C 
ATOM     23  O2  UNL A   1      12.310  -2.977  23.728  1.00  0.00    +0.000 O 
BRANCH   22   21
ATOM    116  H24 UNL A   1      10.494  -4.068  21.896  1.00  0.00    +0.000 H 
ATOM     21  N3  UNL A   1      10.372  -3.601  22.754  1.00  0.00    +0.000 N 
BRANCH   21   20
ATOM    114  H22 UNL A   1       8.378  -3.389  23.212  1.00  0.00    +0.000 H 
ATOM    115  H23 UNL A   1       9.036  -5.037  23.315  1.00  0.00    +0.000 H 
ATOM     20  C17 UNL A   1       9.203  -3.999  23.516  1.00  0.00    +0.000 C 
BRANCH   20   19
ATOM    113  H21 UNL A   1      10.374  -4.194  25.222  1.00  0.00    +0.000 H 
ATOM     19  C16 UNL A   1       9.377  -3.858  25.022  1.00  0.00    +0.000 C 
ATOM    112  H20 UNL A   1       8.609  -4.433  25.495  1.00  0.00    +0.000 H 
BRANCH   19   18
ATOM     18  C15 UNL A   1       9.310  -2.439  25.590  1.00  0.00    +0.000 C 
ATOM    110  H18 UNL A   1       9.819  -1.795  24.903  1.00  0.00    +0.000 H 
ATOM    111  H19 UNL A   1       8.266  -2.242  25.711  1.00  0.00    +0.000 H 
BRANCH   18   17
ATOM     17  C14 UNL A   1       9.917  -2.208  26.975  1.00  0.00    +0.000 C 
ATOM    108  H16 UNL A   1       9.971  -3.158  27.463  1.00  0.00    +0.000 H 
ATOM    109  H17 UNL A   1      10.857  -1.733  26.781  1.00  0.00    +0.000 H 
BRANCH   17   16
ATOM    106  H14 UNL A   1       8.680  -1.842  28.653  1.00  0.00    +0.000 H 
ATOM    107  H15 UNL A   1       9.960  -0.612  28.312  1.00  0.00    +0.000 H 
ATOM     16  C13 UNL A   1       9.191  -1.248  27.924  1.00  0.00    +0.000 C 
BRANCH   16   15
ATOM    105  H13 UNL A   1       7.383  -0.191  28.033  1.00  0.00    +0.000 H 
ATOM     15  C12 UNL A   1       8.167  -0.295  27.310  1.00  0.00    +0.000 C 
ATOM    104  H12 UNL A   1       7.834  -0.716  26.385  1.00  0.00    +0.000 H 
BRANCH   15   14
ATOM     14  N2  UNL A   1       8.659   1.037  27.048  1.00  0.00    +0.000 N 
ATOM    103  H11 UNL A   1       8.051   1.763  27.319  1.00  0.00    +0.000 H 
BRANCH   14   12
ATOM     12  C11 UNL A   1       9.843   1.454  26.481  1.00  0.00    +0.000 C 
ATOM     13  O1  UNL A   1      10.032   1.128  25.309  1.00  0.00    +0.000 O 
BRANCH   12   11
ATOM      3  C2  UNL A   1      12.794   3.123  28.006  1.00  0.00    +0.000 C 
ATOM      4  C3  UNL A   1      12.220   2.111  27.243  1.00  0.00    +0.000 C 
ATOM    131  H39 UNL A   1       8.476   3.442  28.616  1.00  0.00    +0.000 H 
ATOM    134  H42 UNL A   1      12.763   5.632  29.231  1.00  0.00    +0.000 H 
ATOM    133  H41 UNL A   1      10.762   6.744  29.903  1.00  0.00    +0.000 H 
ATOM    132  H40 UNL A   1       8.601   5.538  29.706  1.00  0.00    +0.000 H 
ATOM     11  C10 UNL A   1      10.791   2.310  27.203  1.00  0.00    +0.000 C 
ATOM     87  C63 UNL A   1      10.548   3.359  28.084  1.00  0.00    +0.000 C 
ATOM     88  C64 UNL A   1       9.382   3.935  28.679  1.00  0.00    +0.000 C 
ATOM     89  C65 UNL A   1       9.459   5.115  29.321  1.00  0.00    +0.000 C 
ATOM     90  C66 UNL A   1      10.724   5.803  29.481  1.00  0.00    +0.000 C 
ATOM     91  C67 UNL A   1      11.844   5.192  29.068  1.00  0.00    +0.000 C 
ATOM     92  N8  UNL A   1      11.767   3.954  28.414  1.00  0.00    +0.000 N 
BRANCH    3    2
ATOM     97  H5  UNL A   1      14.711   2.397  28.460  1.00  0.00    +0.000 H 
ATOM      2  C1  UNL A   1      14.216   3.344  28.408  1.00  0.00    +0.000 C 
ATOM     96  H4  UNL A   1      14.241   3.828  29.362  1.00  0.00    +0.000 H 
BRANCH    2    1
ATOM      1  N1  UNL A   1      14.900   4.177  27.432  1.00  0.00    +0.000 N 
ATOM     93  H1  UNL A   1      15.130   5.076  27.854  1.00  0.00    +0.000 H 
ATOM     94  H2  UNL A   1      14.292   4.326  26.627  1.00  0.00    +0.000 H 
ATOM     95  H3  UNL A   1      15.756   3.714  27.129  1.00  0.00    +0.000 H 
ENDBRANCH    2    1
ENDBRANCH    3    2
BRANCH    4    5
ATOM     98  H6  UNL A   1      12.113  -0.519  27.735  1.00  0.00    +0.000 H 
ATOM     99  H7  UNL A   1      13.433  -2.279  26.709  1.00  0.00    +0.000 H 
ATOM    100  H8  UNL A   1      15.086  -1.734  25.018  1.00  0.00    +0.000 H 
ATOM      5  C4  UNL A   1      13.010   1.048  26.639  1.00  0.00    +0.000 C 
ATOM    102  H10 UNL A   1      14.131   2.339  25.396  1.00  0.00    +0.000 H 
ATOM      6  C5  UNL A   1      12.817  -0.284  27.018  1.00  0.00    +0.000 C 
ATOM      7  C6  UNL A   1      13.577  -1.297  26.427  1.00  0.00    +0.000 C 
ATOM      9  C8  UNL A   1      14.730   0.343  25.078  1.00  0.00    +0.000 C 
ATOM     10  C9  UNL A   1      13.976   1.357  25.671  1.00  0.00    +0.000 C 
ATOM    101  H9  UNL A   1      15.434   0.575  24.361  1.00  0.00    +0.000 H 
ATOM      8  C7  UNL A   1      14.530  -0.984  25.456  1.00  0.00    +0.000 C 
ENDBRANCH    4    5
ENDBRANCH   12   11
ENDBRANCH   14   12
ENDBRANCH   15   14
ENDBRANCH   16   15
ENDBRANCH   17   16
ENDBRANCH   18   17
ENDBRANCH   19   18
ENDBRANCH   20   19
ENDBRANCH   21   20
ENDBRANCH   22   21
ENDBRANCH   24   22
ENDBRANCH   28   27
BRANCH   32   33
ATOM     33  C27 UNL A   1       7.038   6.544  24.175  1.00  0.00    +0.000 C 
ATOM     34  C28 UNL A   1       7.459   7.234  25.321  1.00  0.00    +0.000 C 
ATOM     35  F1  UNL A   1       8.683   7.780  25.368  1.00  0.00    +0.000 F 
ATOM     36  C29 UNL A   1       6.639   7.328  26.443  1.00  0.00    +0.000 C 
ATOM     37  F2  UNL A   1       7.083   7.947  27.545  1.00  0.00    +0.000 F 
ATOM     38  C30 UNL A   1       5.372   6.767  26.428  1.00  0.00    +0.000 C 
ATOM     39  F3  UNL A   1       4.582   6.861  27.506  1.00  0.00    +0.000 F 
ATOM     40  C31 UNL A   1       4.924   6.101  25.297  1.00  0.00    +0.000 C 
ATOM     41  F4  UNL A   1       3.694   5.568  25.276  1.00  0.00    +0.000 F 
ATOM     42  C32 UNL A   1       5.753   5.980  24.184  1.00  0.00    +0.000 C 
ATOM     43  F5  UNL A   1       5.299   5.315  23.110  1.00  0.00    +0.000 F 
ENDBRANCH   32   33
BRANCH   49   50
ATOM     50  C38 UNL A   1       9.040  10.601  18.569  1.00  0.00    +0.000 C 
ATOM     51  C39 UNL A   1       7.947  10.939  17.760  1.00  0.00    +0.000 C 
ATOM     52  F6  UNL A   1       7.097   9.989  17.343  1.00  0.00    +0.000 F 
ATOM     53  C40 UNL A   1       7.738  12.255  17.355  1.00  0.00    +0.000 C 
ATOM     54  F7  UNL A   1       6.705  12.553  16.555  1.00  0.00    +0.000 F 
ATOM     55  C41 UNL A   1       8.602  13.257  17.772  1.00  0.00    +0.000 C 
ATOM     56  F8  UNL A   1       8.392  14.526  17.392  1.00  0.00    +0.000 F 
ATOM     57  C42 UNL A   1       9.685  12.946  18.581  1.00  0.00    +0.000 C 
ATOM     58  F9  UNL A   1      10.514  13.915  18.994  1.00  0.00    +0.000 F 
ATOM     59  C43 UNL A   1       9.910  11.628  18.968  1.00  0.00    +0.000 C 
ATOM     60  F10 UNL A   1      10.968  11.354  19.745  1.00  0.00    +0.000 F 
ENDBRANCH   49   50
BRANCH   64   65
ATOM     65  C47 UNL A   1      12.756   5.247  16.101  1.00  0.00    +0.000 C 
ATOM     66  C48 UNL A   1      14.106   5.627  16.080  1.00  0.00    +0.000 C 
ATOM     67  F11 UNL A   1      14.656   6.198  17.161  1.00  0.00    +0.000 F 
ATOM     68  C49 UNL A   1      14.884   5.456  14.937  1.00  0.00    +0.000 C 
ATOM     69  F12 UNL A   1      16.160   5.863  14.932  1.00  0.00    +0.000 F 
ATOM     70  C50 UNL A   1      14.335   4.880  13.801  1.00  0.00    +0.000 C 
ATOM     71  F13 UNL A   1      15.086   4.711  12.704  1.00  0.00    +0.000 F 
ATOM     72  C51 UNL A   1      13.006   4.484  13.802  1.00  0.00    +0.000 C 
ATOM     73  F14 UNL A   1      12.476   3.915  12.712  1.00  0.00    +0.000 F 
ATOM     74  C52 UNL A   1      12.220   4.676  14.938  1.00  0.00    +0.000 C 
ATOM     75  F15 UNL A   1      10.935   4.292  14.908  1.00  0.00    +0.000 F 
ENDBRANCH   64   65
TORSDOF 18
ENDMDL
MODEL 7
REMARK VINA RESULT:      -8.2      1.508      2.546
ROOT
ATOM     28  C23 UNL A   1      14.241  54.073   4.184  1.00  0.00    +0.000 C 
ATOM     29  C24 UNL A   1      13.807  52.636   4.131  1.00  0.00    +0.000 C 
ATOM     30  N4  UNL A   1      14.200  51.678   3.330  1.00  0.00    +0.000 N 
ATOM     31  C25 UNL A   1      13.528  50.537   3.749  1.00  0.00    +0.000 C 
ATOM     32  C26 UNL A   1      13.558  49.294   3.212  1.00  0.00    +0.000 C 
ATOM     44  C33 UNL A   1      14.323  48.932   2.048  1.00  0.00    +0.000 C 
ATOM     45  C34 UNL A   1      14.384  47.711   1.400  1.00  0.00    +0.000 C 
ATOM     46  C35 UNL A   1      15.281  47.825   0.333  1.00  0.00    +0.000 C 
ATOM     47  C36 UNL A   1      15.747  49.130   0.291  1.00  0.00    +0.000 C 
ATOM     48  N5  UNL A   1      15.157  49.795   1.354  1.00  0.00    +0.000 N 
ATOM     49  C37 UNL A   1      16.664  49.723  -0.647  1.00  0.00    +0.000 C 
ATOM     61  C44 UNL A   1      17.083  51.012  -0.616  1.00  0.00    +0.000 C 
ATOM     62  N6  UNL A   1      16.729  52.022   0.268  1.00  0.00    +0.000 N 
ATOM     63  C45 UNL A   1      17.392  53.085  -0.115  1.00  0.00    +0.000 C 
ATOM     64  C46 UNL A   1      17.372  54.475   0.461  1.00  0.00    +0.000 C 
ATOM     76  C53 UNL A   1      16.560  54.748   1.500  1.00  0.00    +0.000 C 
ATOM     77  C54 UNL A   1      16.446  56.041   2.170  1.00  0.00    +0.000 C 
ATOM     78  C55 UNL A   1      15.607  55.923   3.211  1.00  0.00    +0.000 C 
ATOM     79  C56 UNL A   1      15.092  54.554   3.258  1.00  0.00    +0.000 C 
ATOM     80  N7  UNL A   1      15.689  53.937   2.185  1.00  0.00    +0.000 N 
ATOM     81  C57 UNL A   1      18.276  52.858  -1.268  1.00  0.00    +0.000 C 
ATOM     82  C58 UNL A   1      18.023  51.588  -1.556  1.00  0.00    +0.000 C 
ATOM     83  C59 UNL A   1      12.732  50.912   4.898  1.00  0.00    +0.000 C 
ATOM     84  C60 UNL A   1      12.817  52.213   5.135  1.00  0.00    +0.000 C 
ATOM    119  H27 UNL A   1      13.856  46.861   1.659  1.00  0.00    +0.000 H 
ATOM    120  H28 UNL A   1      15.550  47.067  -0.313  1.00  0.00    +0.000 H 
ATOM    121  H29 UNL A   1      15.308  50.741   1.581  1.00  0.00    +0.000 H 
ATOM    122  H30 UNL A   1      16.933  56.906   1.888  1.00  0.00    +0.000 H 
ATOM    123  H31 UNL A   1      15.365  56.677   3.874  1.00  0.00    +0.000 H 
ATOM    124  H32 UNL A   1      15.509  53.003   1.933  1.00  0.00    +0.000 H 
ATOM    125  H33 UNL A   1      18.922  53.513  -1.734  1.00  0.00    +0.000 H 
ATOM    126  H34 UNL A   1      18.442  51.075  -2.347  1.00  0.00    +0.000 H 
ATOM    127  H35 UNL A   1      12.171  50.253   5.460  1.00  0.00    +0.000 H 
ATOM    128  H36 UNL A   1      12.321  52.781   5.838  1.00  0.00    +0.000 H 
ENDROOT
BRANCH   28   27
ATOM    129  H37 UNL A   1      11.847  55.203   4.548  1.00  0.00    +0.000 H 
ATOM    130  H38 UNL A   1      11.116  56.690   6.316  1.00  0.00    +0.000 H 
ATOM     27  C22 UNL A   1      13.802  54.936   5.311  1.00  0.00    +0.000 C 
ATOM    117  H25 UNL A   1      14.847  56.272   8.214  1.00  0.00    +0.000 H 
ATOM     86  C62 UNL A   1      12.056  56.265   6.354  1.00  0.00    +0.000 C 
ATOM     85  C61 UNL A   1      12.492  55.443   5.317  1.00  0.00    +0.000 C 
ATOM     24  C19 UNL A   1      12.893  56.512   7.445  1.00  0.00    +0.000 C 
ATOM     25  C20 UNL A   1      14.212  56.046   7.433  1.00  0.00    +0.000 C 
ATOM     26  C21 UNL A   1      14.669  55.274   6.362  1.00  0.00    +0.000 C 
ATOM    118  H26 UNL A   1      15.649  54.950   6.343  1.00  0.00    +0.000 H 
BRANCH   24   22
ATOM     22  C18 UNL A   1      12.419  57.273   8.625  1.00  0.00    +0.000 C 
ATOM     23  O2  UNL A   1      12.559  58.490   8.655  1.00  0.00    +0.000 O 
BRANCH   22   21
ATOM    116  H24 UNL A   1      11.652  57.179  10.474  1.00  0.00    +0.000 H 
ATOM     21  N3  UNL A   1      11.860  56.614   9.695  1.00  0.00    +0.000 N 
BRANCH   21   20
ATOM    114  H22 UNL A   1      10.764  55.118  10.586  1.00  0.00    +0.000 H 
ATOM    115  H23 UNL A   1      11.213  54.856   8.887  1.00  0.00    +0.000 H 
ATOM     20  C17 UNL A   1      11.531  55.208   9.846  1.00  0.00    +0.000 C 
BRANCH   20   19
ATOM    113  H21 UNL A   1      12.697  54.354  11.340  1.00  0.00    +0.000 H 
ATOM     19  C16 UNL A   1      12.713  54.346  10.270  1.00  0.00    +0.000 C 
ATOM    112  H20 UNL A   1      13.595  54.766   9.834  1.00  0.00    +0.000 H 
BRANCH   19   18
ATOM     18  C15 UNL A   1      12.659  52.869   9.878  1.00  0.00    +0.000 C 
ATOM    110  H18 UNL A   1      13.212  52.322  10.615  1.00  0.00    +0.000 H 
ATOM    111  H19 UNL A   1      11.617  52.637   9.825  1.00  0.00    +0.000 H 
BRANCH   18   17
ATOM     17  C14 UNL A   1      13.218  52.485   8.506  1.00  0.00    +0.000 C 
ATOM    108  H16 UNL A   1      12.844  51.511   8.270  1.00  0.00    +0.000 H 
ATOM    109  H17 UNL A   1      12.899  53.273   7.856  1.00  0.00    +0.000 H 
BRANCH   17   16
ATOM    106  H14 UNL A   1      15.028  53.305   7.775  1.00  0.00    +0.000 H 
ATOM    107  H15 UNL A   1      15.125  52.403   9.337  1.00  0.00    +0.000 H 
ATOM     16  C13 UNL A   1      14.741  52.443   8.339  1.00  0.00    +0.000 C 
BRANCH   16   15
ATOM    105  H13 UNL A   1      16.389  51.248   7.835  1.00  0.00    +0.000 H 
ATOM     15  C12 UNL A   1      15.337  51.221   7.641  1.00  0.00    +0.000 C 
ATOM    104  H12 UNL A   1      15.097  51.284   6.600  1.00  0.00    +0.000 H 
BRANCH   15   14
ATOM     14  N2  UNL A   1      14.864  49.949   8.135  1.00  0.00    +0.000 N 
ATOM    103  H11 UNL A   1      14.213  49.495   7.553  1.00  0.00    +0.000 H 
BRANCH   14   12
ATOM     12  C11 UNL A   1      15.179  49.270   9.292  1.00  0.00    +0.000 C 
ATOM     13  O1  UNL A   1      16.109  48.467   9.218  1.00  0.00    +0.000 O 
BRANCH   12   11
ATOM      3  C2  UNL A   1      12.957  49.392  12.269  1.00  0.00    +0.000 C 
ATOM      4  C3  UNL A   1      13.297  48.889  11.017  1.00  0.00    +0.000 C 
ATOM    131  H39 UNL A   1      16.128  51.986  10.743  1.00  0.00    +0.000 H 
ATOM    134  H42 UNL A   1      13.534  50.735  14.649  1.00  0.00    +0.000 H 
ATOM    133  H41 UNL A   1      15.255  52.375  14.850  1.00  0.00    +0.000 H 
ATOM    132  H40 UNL A   1      16.465  53.095  12.805  1.00  0.00    +0.000 H 
ATOM     11  C10 UNL A   1      14.500  49.545  10.563  1.00  0.00    +0.000 C 
ATOM     87  C63 UNL A   1      14.748  50.538  11.506  1.00  0.00    +0.000 C 
ATOM     88  C64 UNL A   1      15.625  51.666  11.586  1.00  0.00    +0.000 C 
ATOM     89  C65 UNL A   1      15.796  52.311  12.754  1.00  0.00    +0.000 C 
ATOM     90  C66 UNL A   1      15.059  51.928  13.941  1.00  0.00    +0.000 C 
ATOM     91  C67 UNL A   1      14.118  50.978  13.833  1.00  0.00    +0.000 C 
ATOM     92  N8  UNL A   1      13.926  50.316  12.612  1.00  0.00    +0.000 N 
BRANCH    3    2
ATOM     97  H5  UNL A   1      10.933  48.892  12.522  1.00  0.00    +0.000 H 
ATOM      2  C1  UNL A   1      11.779  49.100  13.142  1.00  0.00    +0.000 C 
ATOM     96  H4  UNL A   1      11.583  49.948  13.765  1.00  0.00    +0.000 H 
BRANCH    2    1
ATOM      1  N1  UNL A   1      12.041  47.942  13.982  1.00  0.00    +0.000 N 
ATOM     93  H1  UNL A   1      12.373  47.170  13.404  1.00  0.00    +0.000 H 
ATOM     94  H2  UNL A   1      11.182  47.665  14.458  1.00  0.00    +0.000 H 
ATOM     95  H3  UNL A   1      12.751  48.178  14.675  1.00  0.00    +0.000 H 
ENDBRANCH    2    1
ENDBRANCH    3    2
BRANCH    4    5
ATOM     98  H6  UNL A   1      11.222  49.257   9.366  1.00  0.00    +0.000 H 
ATOM     99  H7  UNL A   1       9.904  47.562   8.235  1.00  0.00    +0.000 H 
ATOM    100  H8  UNL A   1      10.416  45.211   8.546  1.00  0.00    +0.000 H 
ATOM      5  C4  UNL A   1      12.496  47.882  10.338  1.00  0.00    +0.000 C 
ATOM    102  H10 UNL A   1      13.548  46.238  11.150  1.00  0.00    +0.000 H 
ATOM      6  C5  UNL A   1      11.441  48.258   9.502  1.00  0.00    +0.000 C 
ATOM      7  C6  UNL A   1      10.682  47.282   8.851  1.00  0.00    +0.000 C 
ATOM      9  C8  UNL A   1      12.022  45.548   9.868  1.00  0.00    +0.000 C 
ATOM     10  C9  UNL A   1      12.778  46.521  10.525  1.00  0.00    +0.000 C 
ATOM    101  H9  UNL A   1      12.239  44.549  10.003  1.00  0.00    +0.000 H 
ATOM      8  C7  UNL A   1      10.975  45.929   9.032  1.00  0.00    +0.000 C 
ENDBRANCH    4    5
ENDBRANCH   12   11
ENDBRANCH   14   12
ENDBRANCH   15   14
ENDBRANCH   16   15
ENDBRANCH   17   16
ENDBRANCH   18   17
ENDBRANCH   19   18
ENDBRANCH   20   19
ENDBRANCH   21   20
ENDBRANCH   22   21
ENDBRANCH   24   22
ENDBRANCH   28   27
BRANCH   32   33
ATOM     33  C27 UNL A   1      12.742  48.231   3.886  1.00  0.00    +0.000 C 
ATOM     34  C28 UNL A   1      13.214  47.547   5.015  1.00  0.00    +0.000 C 
ATOM     35  F1  UNL A   1      14.436  47.808   5.501  1.00  0.00    +0.000 F 
ATOM     36  C29 UNL A   1      12.447  46.558   5.627  1.00  0.00    +0.000 C 
ATOM     37  F2  UNL A   1      12.940  45.882   6.673  1.00  0.00    +0.000 F 
ATOM     38  C30 UNL A   1      11.182  46.260   5.143  1.00  0.00    +0.000 C 
ATOM     39  F3  UNL A   1      10.444  45.310   5.734  1.00  0.00    +0.000 F 
ATOM     40  C31 UNL A   1      10.685  46.940   4.042  1.00  0.00    +0.000 C 
ATOM     41  F4  UNL A   1       9.458  46.662   3.580  1.00  0.00    +0.000 F 
ATOM     42  C32 UNL A   1      11.461  47.909   3.411  1.00  0.00    +0.000 C 
ATOM     43  F5  UNL A   1      10.960  48.538   2.337  1.00  0.00    +0.000 F 
ENDBRANCH   32   33
BRANCH   49   50
ATOM     50  C38 UNL A   1      17.175  48.857  -1.759  1.00  0.00    +0.000 C 
ATOM     51  C39 UNL A   1      18.208  47.931  -1.555  1.00  0.00    +0.000 C 
ATOM     52  F6  UNL A   1      18.817  47.852  -0.363  1.00  0.00    +0.000 F 
ATOM     53  C40 UNL A   1      18.637  47.101  -2.588  1.00  0.00    +0.000 C 
ATOM     54  F7  UNL A   1      19.647  46.246  -2.382  1.00  0.00    +0.000 F 
ATOM     55  C41 UNL A   1      18.024  47.164  -3.831  1.00  0.00    +0.000 C 
ATOM     56  F8  UNL A   1      18.430  46.355  -4.820  1.00  0.00    +0.000 F 
ATOM     57  C42 UNL A   1      16.994  48.065  -4.051  1.00  0.00    +0.000 C 
ATOM     58  F9  UNL A   1      16.394  48.119  -5.248  1.00  0.00    +0.000 F 
ATOM     59  C43 UNL A   1      16.579  48.913  -3.028  1.00  0.00    +0.000 C 
ATOM     60  F10 UNL A   1      15.584  49.779  -3.270  1.00  0.00    +0.000 F 
ENDBRANCH   49   50
BRANCH   64   65
ATOM     65  C47 UNL A   1      18.213  55.551  -0.123  1.00  0.00    +0.000 C 
ATOM     66  C48 UNL A   1      17.810  56.224  -1.284  1.00  0.00    +0.000 C 
ATOM     67  F11 UNL A   1      16.666  55.878  -1.894  1.00  0.00    +0.000 F 
ATOM     68  C49 UNL A   1      18.596  57.228  -1.845  1.00  0.00    +0.000 C 
ATOM     69  F12 UNL A   1      18.206  57.828  -2.977  1.00  0.00    +0.000 F 
ATOM     70  C50 UNL A   1      19.789  57.595  -1.241  1.00  0.00    +0.000 C 
ATOM     71  F13 UNL A   1      20.543  58.565  -1.777  1.00  0.00    +0.000 F 
ATOM     72  C51 UNL A   1      20.202  56.954  -0.083  1.00  0.00    +0.000 C 
ATOM     73  F14 UNL A   1      21.348  57.314   0.511  1.00  0.00    +0.000 F 
ATOM     74  C52 UNL A   1      19.427  55.932   0.465  1.00  0.00    +0.000 C 
ATOM     75  F15 UNL A   1      19.856  55.322   1.580  1.00  0.00    +0.000 F 
ENDBRANCH   64   65
TORSDOF 18
ENDMDL
MODEL 8
REMARK VINA RESULT:      -8.1     65.090     70.274
ROOT
ATOM     28  C23 UNL A   1      29.238 -13.804  31.023  1.00  0.00    +0.000 C 
ATOM     29  C24 UNL A   1      28.965 -13.930  32.494  1.00  0.00    +0.000 C 
ATOM     30  N4  UNL A   1      27.928 -13.529  33.185  1.00  0.00    +0.000 N 
ATOM     31  C25 UNL A   1      28.158 -13.948  34.488  1.00  0.00    +0.000 C 
ATOM     32  C26 UNL A   1      27.399 -13.736  35.590  1.00  0.00    +0.000 C 
ATOM     44  C33 UNL A   1      26.169 -12.989  35.596  1.00  0.00    +0.000 C 
ATOM     45  C34 UNL A   1      25.351 -12.679  36.669  1.00  0.00    +0.000 C 
ATOM     46  C35 UNL A   1      24.252 -11.960  36.189  1.00  0.00    +0.000 C 
ATOM     47  C36 UNL A   1      24.405 -11.787  34.822  1.00  0.00    +0.000 C 
ATOM     48  N5  UNL A   1      25.581 -12.429  34.472  1.00  0.00    +0.000 N 
ATOM     49  C37 UNL A   1      23.542 -11.088  33.906  1.00  0.00    +0.000 C 
ATOM     61  C44 UNL A   1      23.757 -10.969  32.573  1.00  0.00    +0.000 C 
ATOM     62  N6  UNL A   1      24.816 -11.447  31.815  1.00  0.00    +0.000 N 
ATOM     63  C45 UNL A   1      24.574 -11.075  30.582  1.00  0.00    +0.000 C 
ATOM     64  C46 UNL A   1      25.402 -11.295  29.344  1.00  0.00    +0.000 C 
ATOM     76  C53 UNL A   1      26.585 -11.931  29.445  1.00  0.00    +0.000 C 
ATOM     77  C54 UNL A   1      27.484 -12.227  28.334  1.00  0.00    +0.000 C 
ATOM     78  C55 UNL A   1      28.524 -12.942  28.790  1.00  0.00    +0.000 C 
ATOM     79  C56 UNL A   1      28.386 -13.119  30.236  1.00  0.00    +0.000 C 
ATOM     80  N7  UNL A   1      27.220 -12.459  30.542  1.00  0.00    +0.000 N 
ATOM     81  C57 UNL A   1      23.307 -10.348  30.413  1.00  0.00    +0.000 C 
ATOM     82  C58 UNL A   1      22.866 -10.280  31.661  1.00  0.00    +0.000 C 
ATOM     83  C59 UNL A   1      29.413 -14.668  34.487  1.00  0.00    +0.000 C 
ATOM     84  C60 UNL A   1      29.985 -14.629  33.292  1.00  0.00    +0.000 C 
ATOM    119  H27 UNL A   1      25.524 -12.934  37.655  1.00  0.00    +0.000 H 
ATOM    120  H28 UNL A   1      23.461 -11.618  36.756  1.00  0.00    +0.000 H 
ATOM    121  H29 UNL A   1      25.947 -12.480  33.559  1.00  0.00    +0.000 H 
ATOM    122  H30 UNL A   1      27.342 -11.935  27.354  1.00  0.00    +0.000 H 
ATOM    123  H31 UNL A   1      29.298 -13.309  28.213  1.00  0.00    +0.000 H 
ATOM    124  H32 UNL A   1      26.875 -12.373  31.459  1.00  0.00    +0.000 H 
ATOM    125  H33 UNL A   1      22.875  -9.983  29.550  1.00  0.00    +0.000 H 
ATOM    126  H34 UNL A   1      22.000  -9.798  31.948  1.00  0.00    +0.000 H 
ATOM    127  H35 UNL A   1      29.811 -15.149  35.308  1.00  0.00    +0.000 H 
ATOM    128  H36 UNL A   1      30.905 -14.992  32.998  1.00  0.00    +0.000 H 
ENDROOT
BRANCH   28   27
ATOM    129  H37 UNL A   1      29.305 -16.273  30.003  1.00  0.00    +0.000 H 
ATOM    130  H38 UNL A   1      31.192 -17.500  29.103  1.00  0.00    +0.000 H 
ATOM     27  C22 UNL A   1      30.399 -14.512  30.423  1.00  0.00    +0.000 C 
ATOM    117  H25 UNL A   1      33.648 -14.128  29.647  1.00  0.00    +0.000 H 
ATOM     86  C62 UNL A   1      31.305 -16.514  29.388  1.00  0.00    +0.000 C 
ATOM     85  C61 UNL A   1      30.232 -15.821  29.944  1.00  0.00    +0.000 C 
ATOM     24  C19 UNL A   1      32.534 -15.872  29.218  1.00  0.00    +0.000 C 
ATOM     25  C20 UNL A   1      32.726 -14.583  29.726  1.00  0.00    +0.000 C 
ATOM     26  C21 UNL A   1      31.665 -13.911  30.341  1.00  0.00    +0.000 C 
ATOM    118  H26 UNL A   1      31.813 -12.968  30.735  1.00  0.00    +0.000 H 
BRANCH   24   22
ATOM     22  C18 UNL A   1      33.659 -16.532  28.515  1.00  0.00    +0.000 C 
ATOM     23  O2  UNL A   1      34.531 -17.095  29.166  1.00  0.00    +0.000 O 
BRANCH   22   21
ATOM    116  H24 UNL A   1      33.368 -17.257  26.670  1.00  0.00    +0.000 H 
ATOM     21  N3  UNL A   1      33.744 -16.480  27.143  1.00  0.00    +0.000 N 
BRANCH   21   20
ATOM    114  H22 UNL A   1      35.231 -15.124  26.717  1.00  0.00    +0.000 H 
ATOM    115  H23 UNL A   1      34.435 -15.880  25.319  1.00  0.00    +0.000 H 
ATOM     20  C17 UNL A   1      34.306 -15.449  26.290  1.00  0.00    +0.000 C 
BRANCH   20   19
ATOM    113  H21 UNL A   1      33.748 -13.745  25.236  1.00  0.00    +0.000 H 
ATOM     19  C16 UNL A   1      33.401 -14.234  26.123  1.00  0.00    +0.000 C 
ATOM    112  H20 UNL A   1      33.476 -13.648  27.015  1.00  0.00    +0.000 H 
BRANCH   19   18
ATOM     18  C15 UNL A   1      31.918 -14.513  25.873  1.00  0.00    +0.000 C 
ATOM    110  H18 UNL A   1      31.817 -14.816  24.852  1.00  0.00    +0.000 H 
ATOM    111  H19 UNL A   1      31.653 -15.254  26.597  1.00  0.00    +0.000 H 
BRANCH   18   17
ATOM     17  C14 UNL A   1      30.938 -13.363  26.111  1.00  0.00    +0.000 C 
ATOM    108  H16 UNL A   1      30.610 -13.427  27.128  1.00  0.00    +0.000 H 
ATOM    109  H17 UNL A   1      31.490 -12.482  25.859  1.00  0.00    +0.000 H 
BRANCH   17   16
ATOM    106  H14 UNL A   1      29.805 -14.012  24.445  1.00  0.00    +0.000 H 
ATOM    107  H15 UNL A   1      28.870 -13.485  25.899  1.00  0.00    +0.000 H 
ATOM     16  C13 UNL A   1      29.684 -13.296  25.231  1.00  0.00    +0.000 C 
BRANCH   16   15
ATOM    105  H13 UNL A   1      28.567 -12.145  23.881  1.00  0.00    +0.000 H 
ATOM     15  C12 UNL A   1      29.354 -11.954  24.580  1.00  0.00    +0.000 C 
ATOM    104  H12 UNL A   1      30.245 -11.579  24.121  1.00  0.00    +0.000 H 
BRANCH   15   14
ATOM     14  N2  UNL A   1      28.857 -10.946  25.487  1.00  0.00    +0.000 N 
ATOM    103  H11 UNL A   1      28.089 -11.226  26.035  1.00  0.00    +0.000 H 
BRANCH   14   12
ATOM     12  C11 UNL A   1      29.286  -9.655  25.708  1.00  0.00    +0.000 C 
ATOM     13  O1  UNL A   1      28.574  -8.758  25.258  1.00  0.00    +0.000 O 
BRANCH   12   11
ATOM      3  C2  UNL A   1      32.695  -8.973  27.025  1.00  0.00    +0.000 C 
ATOM      4  C3  UNL A   1      31.827  -9.290  25.985  1.00  0.00    +0.000 C 
ATOM    131  H39 UNL A   1      28.847  -9.880  28.892  1.00  0.00    +0.000 H 
ATOM    134  H42 UNL A   1      33.262  -7.986  29.575  1.00  0.00    +0.000 H 
ATOM    133  H41 UNL A   1      31.681  -7.969  31.362  1.00  0.00    +0.000 H 
ATOM    132  H40 UNL A   1      29.483  -9.074  31.023  1.00  0.00    +0.000 H 
ATOM     11  C10 UNL A   1      30.482  -9.361  26.506  1.00  0.00    +0.000 C 
ATOM     87  C63 UNL A   1      30.621  -9.234  27.884  1.00  0.00    +0.000 C 
ATOM     88  C64 UNL A   1      29.760  -9.413  29.012  1.00  0.00    +0.000 C 
ATOM     89  C65 UNL A   1      30.134  -8.977  30.229  1.00  0.00    +0.000 C 
ATOM     90  C66 UNL A   1      31.434  -8.373  30.444  1.00  0.00    +0.000 C 
ATOM     91  C67 UNL A   1      32.308  -8.349  29.427  1.00  0.00    +0.000 C 
ATOM     92  N8  UNL A   1      31.925  -8.819  28.163  1.00  0.00    +0.000 N 
BRANCH    3    2
ATOM     97  H5  UNL A   1      34.477  -8.321  27.923  1.00  0.00    +0.000 H 
ATOM      2  C1  UNL A   1      34.184  -8.843  27.037  1.00  0.00    +0.000 C 
ATOM     96  H4  UNL A   1      34.497  -8.303  26.168  1.00  0.00    +0.000 H 
BRANCH    2    1
ATOM      1  N1  UNL A   1      34.811 -10.155  27.036  1.00  0.00    +0.000 N 
ATOM     93  H1  UNL A   1      34.146 -10.850  26.696  1.00  0.00    +0.000 H 
ATOM     94  H2  UNL A   1      35.100 -10.395  27.984  1.00  0.00    +0.000 H 
ATOM     95  H3  UNL A   1      35.628 -10.141  26.425  1.00  0.00    +0.000 H 
ENDBRANCH    2    1
ENDBRANCH    3    2
BRANCH    4    5
ATOM     98  H6  UNL A   1      32.774 -11.556  24.918  1.00  0.00    +0.000 H 
ATOM     99  H7  UNL A   1      33.535 -11.923  22.643  1.00  0.00    +0.000 H 
ATOM    100  H8  UNL A   1      33.489 -10.108  21.034  1.00  0.00    +0.000 H 
ATOM      5  C4  UNL A   1      32.291  -9.521  24.625  1.00  0.00    +0.000 C 
ATOM    102  H10 UNL A   1      31.950  -7.538  23.979  1.00  0.00    +0.000 H 
ATOM      6  C5  UNL A   1      32.755 -10.781  24.237  1.00  0.00    +0.000 C 
ATOM      7  C6  UNL A   1      33.193 -10.992  22.927  1.00  0.00    +0.000 C 
ATOM      9  C8  UNL A   1      32.713  -8.688  22.385  1.00  0.00    +0.000 C 
ATOM     10  C9  UNL A   1      32.280  -8.473  23.695  1.00  0.00    +0.000 C 
ATOM    101  H9  UNL A   1      32.695  -7.915  21.702  1.00  0.00    +0.000 H 
ATOM      8  C7  UNL A   1      33.169  -9.947  22.002  1.00  0.00    +0.000 C 
ENDBRANCH    4    5
ENDBRANCH   12   11
ENDBRANCH   14   12
ENDBRANCH   15   14
ENDBRANCH   16   15
ENDBRANCH   17   16
ENDBRANCH   18   17
ENDBRANCH   19   18
ENDBRANCH   20   19
ENDBRANCH   21   20
ENDBRANCH   22   21
ENDBRANCH   24   22
ENDBRANCH   28   27
BRANCH   32   33
ATOM     33  C27 UNL A   1      27.878 -14.326  36.883  1.00  0.00    +0.000 C 
ATOM     34  C28 UNL A   1      28.887 -13.714  37.642  1.00  0.00    +0.000 C 
ATOM     35  F1  UNL A   1      29.476 -12.593  37.202  1.00  0.00    +0.000 F 
ATOM     36  C29 UNL A   1      29.326 -14.278  38.838  1.00  0.00    +0.000 C 
ATOM     37  F2  UNL A   1      30.326 -13.704  39.519  1.00  0.00    +0.000 F 
ATOM     38  C30 UNL A   1      28.742 -15.441  39.315  1.00  0.00    +0.000 C 
ATOM     39  F3  UNL A   1      29.163 -15.980  40.467  1.00  0.00    +0.000 F 
ATOM     40  C31 UNL A   1      27.726 -16.050  38.594  1.00  0.00    +0.000 C 
ATOM     41  F4  UNL A   1      27.152 -17.169  39.059  1.00  0.00    +0.000 F 
ATOM     42  C32 UNL A   1      27.305 -15.506  37.383  1.00  0.00    +0.000 C 
ATOM     43  F5  UNL A   1      26.332 -16.127  36.699  1.00  0.00    +0.000 F 
ENDBRANCH   32   33
BRANCH   49   50
ATOM     50  C38 UNL A   1      22.327 -10.418  34.474  1.00  0.00    +0.000 C 
ATOM     51  C39 UNL A   1      21.063 -11.022  34.425  1.00  0.00    +0.000 C 
ATOM     52  F6  UNL A   1      20.901 -12.197  33.797  1.00  0.00    +0.000 F 
ATOM     53  C40 UNL A   1      19.954 -10.407  35.000  1.00  0.00    +0.000 C 
ATOM     54  F7  UNL A   1      18.749 -10.985  34.914  1.00  0.00    +0.000 F 
ATOM     55  C41 UNL A   1      20.094  -9.192  35.655  1.00  0.00    +0.000 C 
ATOM     56  F8  UNL A   1      19.028  -8.607  36.218  1.00  0.00    +0.000 F 
ATOM     57  C42 UNL A   1      21.337  -8.581  35.723  1.00  0.00    +0.000 C 
ATOM     58  F9  UNL A   1      21.476  -7.413  36.365  1.00  0.00    +0.000 F 
ATOM     59  C43 UNL A   1      22.443  -9.182  35.129  1.00  0.00    +0.000 C 
ATOM     60  F10 UNL A   1      23.632  -8.567  35.205  1.00  0.00    +0.000 F 
ENDBRANCH   49   50
BRANCH   64   65
ATOM     65  C47 UNL A   1      24.942 -10.792  28.025  1.00  0.00    +0.000 C 
ATOM     66  C48 UNL A   1      25.545  -9.672  27.436  1.00  0.00    +0.000 C 
ATOM     67  F11 UNL A   1      26.530  -9.028  28.079  1.00  0.00    +0.000 F 
ATOM     68  C49 UNL A   1      25.114  -9.187  26.203  1.00  0.00    +0.000 C 
ATOM     69  F12 UNL A   1      25.682  -8.093  25.680  1.00  0.00    +0.000 F 
ATOM     70  C50 UNL A   1      24.089  -9.828  25.524  1.00  0.00    +0.000 C 
ATOM     71  F13 UNL A   1      23.678  -9.365  24.335  1.00  0.00    +0.000 F 
ATOM     72  C51 UNL A   1      23.486 -10.946  26.080  1.00  0.00    +0.000 C 
ATOM     73  F14 UNL A   1      22.504 -11.576  25.421  1.00  0.00    +0.000 F 
ATOM     74  C52 UNL A   1      23.900 -11.418  27.325  1.00  0.00    +0.000 C 
ATOM     75  F15 UNL A   1      23.293 -12.495  27.844  1.00  0.00    +0.000 F 
ENDBRANCH   64   65
TORSDOF 18
ENDMDL
MODEL 9
REMARK VINA RESULT:      -8.1     33.867     38.301
ROOT
ATOM     28  C23 UNL A   1      46.474  50.700  18.286  1.00  0.00    +0.000 C 
ATOM     29  C24 UNL A   1      46.712  51.985  17.546  1.00  0.00    +0.000 C 
ATOM     30  N4  UNL A   1      47.725  52.812  17.620  1.00  0.00    +0.000 N 
ATOM     31  C25 UNL A   1      47.469  53.805  16.684  1.00  0.00    +0.000 C 
ATOM     32  C26 UNL A   1      48.197  54.915  16.409  1.00  0.00    +0.000 C 
ATOM     44  C33 UNL A   1      49.413  55.276  17.089  1.00  0.00    +0.000 C 
ATOM     45  C34 UNL A   1      50.198  56.402  16.915  1.00  0.00    +0.000 C 
ATOM     46  C35 UNL A   1      51.297  56.308  17.776  1.00  0.00    +0.000 C 
ATOM     47  C36 UNL A   1      51.174  55.141  18.515  1.00  0.00    +0.000 C 
ATOM     48  N5  UNL A   1      50.019  54.515  18.077  1.00  0.00    +0.000 N 
ATOM     49  C37 UNL A   1      52.048  54.637  19.542  1.00  0.00    +0.000 C 
ATOM     61  C44 UNL A   1      51.865  53.476  20.217  1.00  0.00    +0.000 C 
ATOM     62  N6  UNL A   1      50.833  52.554  20.102  1.00  0.00    +0.000 N 
ATOM     63  C45 UNL A   1      51.100  51.605  20.965  1.00  0.00    +0.000 C 
ATOM     64  C46 UNL A   1      50.308  50.368  21.290  1.00  0.00    +0.000 C 
ATOM     76  C53 UNL A   1      49.133  50.152  20.666  1.00  0.00    +0.000 C 
ATOM     77  C54 UNL A   1      48.268  48.994  20.867  1.00  0.00    +0.000 C 
ATOM     78  C55 UNL A   1      47.229  49.070  20.021  1.00  0.00    +0.000 C 
ATOM     79  C56 UNL A   1      47.334  50.307  19.245  1.00  0.00    +0.000 C 
ATOM     80  N7  UNL A   1      48.480  50.900  19.718  1.00  0.00    +0.000 N 
ATOM     81  C57 UNL A   1      52.358  51.800  21.702  1.00  0.00    +0.000 C 
ATOM     82  C58 UNL A   1      52.766  52.971  21.233  1.00  0.00    +0.000 C 
ATOM     83  C59 UNL A   1      46.227  53.459  16.027  1.00  0.00    +0.000 C 
ATOM     84  C60 UNL A   1      45.685  52.379  16.569  1.00  0.00    +0.000 C 
ATOM    119  H27 UNL A   1      50.005  57.180  16.264  1.00  0.00    +0.000 H 
ATOM    120  H28 UNL A   1      52.067  56.990  17.848  1.00  0.00    +0.000 H 
ATOM    121  H29 UNL A   1      49.677  53.657  18.419  1.00  0.00    +0.000 H 
ATOM    122  H30 UNL A   1      48.429  48.236  21.550  1.00  0.00    +0.000 H 
ATOM    123  H31 UNL A   1      46.476  48.369  19.931  1.00  0.00    +0.000 H 
ATOM    124  H32 UNL A   1      48.801  51.776  19.406  1.00  0.00    +0.000 H 
ATOM    125  H33 UNL A   1      52.805  51.188  22.401  1.00  0.00    +0.000 H 
ATOM    126  H34 UNL A   1      53.616  53.461  21.551  1.00  0.00    +0.000 H 
ATOM    127  H35 UNL A   1      45.817  53.985  15.240  1.00  0.00    +0.000 H 
ATOM    128  H36 UNL A   1      44.779  51.930  16.361  1.00  0.00    +0.000 H 
ENDROOT
BRANCH   28   27
ATOM    129  H37 UNL A   1      43.984  50.710  19.254  1.00  0.00    +0.000 H 
ATOM    130  H38 UNL A   1      42.134  49.239  18.717  1.00  0.00    +0.000 H 
ATOM     27  C22 UNL A   1      45.341  49.822  17.896  1.00  0.00    +0.000 C 
ATOM    117  H25 UNL A   1      44.492  47.331  15.803  1.00  0.00    +0.000 H 
ATOM     86  C62 UNL A   1      43.022  49.164  18.197  1.00  0.00    +0.000 C 
ATOM     85  C61 UNL A   1      44.100  49.981  18.532  1.00  0.00    +0.000 C 
ATOM     24  C19 UNL A   1      43.146  48.243  17.154  1.00  0.00    +0.000 C 
ATOM     25  C20 UNL A   1      44.387  48.048  16.538  1.00  0.00    +0.000 C 
ATOM     26  C21 UNL A   1      45.485  48.825  16.919  1.00  0.00    +0.000 C 
ATOM    118  H26 UNL A   1      46.406  48.664  16.480  1.00  0.00    +0.000 H 
BRANCH   24   22
ATOM     22  C18 UNL A   1      41.987  47.450  16.682  1.00  0.00    +0.000 C 
ATOM     23  O2  UNL A   1      41.305  47.870  15.755  1.00  0.00    +0.000 O 
BRANCH   22   21
ATOM    116  H24 UNL A   1      41.154  46.365  18.146  1.00  0.00    +0.000 H 
ATOM     21  N3  UNL A   1      41.656  46.269  17.305  1.00  0.00    +0.000 N 
BRANCH   21   20
ATOM    114  H22 UNL A   1      41.009  44.414  16.693  1.00  0.00    +0.000 H 
ATOM    115  H23 UNL A   1      42.575  44.951  16.047  1.00  0.00    +0.000 H 
ATOM     20  C17 UNL A   1      41.937  44.903  16.905  1.00  0.00    +0.000 C 
BRANCH   20   19
ATOM    113  H21 UNL A   1      43.497  44.711  18.266  1.00  0.00    +0.000 H 
ATOM     19  C16 UNL A   1      42.675  44.095  17.965  1.00  0.00    +0.000 C 
ATOM    112  H20 UNL A   1      42.955  43.160  17.526  1.00  0.00    +0.000 H 
BRANCH   19   18
ATOM     18  C15 UNL A   1      41.908  43.792  19.253  1.00  0.00    +0.000 C 
ATOM    110  H18 UNL A   1      41.664  44.730  19.708  1.00  0.00    +0.000 H 
ATOM    111  H19 UNL A   1      41.070  43.205  18.941  1.00  0.00    +0.000 H 
BRANCH   18   17
ATOM     17  C14 UNL A   1      42.616  42.938  20.307  1.00  0.00    +0.000 C 
ATOM    108  H16 UNL A   1      42.796  41.977  19.871  1.00  0.00    +0.000 H 
ATOM    109  H17 UNL A   1      43.489  43.499  20.566  1.00  0.00    +0.000 H 
BRANCH   17   16
ATOM    106  H14 UNL A   1      40.847  42.794  21.460  1.00  0.00    +0.000 H 
ATOM    107  H15 UNL A   1      42.226  41.741  21.965  1.00  0.00    +0.000 H 
ATOM     16  C13 UNL A   1      41.897  42.706  21.641  1.00  0.00    +0.000 C 
BRANCH   16   15
ATOM    105  H13 UNL A   1      41.429  43.579  23.490  1.00  0.00    +0.000 H 
ATOM     15  C12 UNL A   1      42.242  43.646  22.796  1.00  0.00    +0.000 C 
ATOM    104  H12 UNL A   1      42.377  44.629  22.396  1.00  0.00    +0.000 H 
BRANCH   15   14
ATOM     14  N2  UNL A   1      43.434  43.292  23.530  1.00  0.00    +0.000 N 
ATOM    103  H11 UNL A   1      43.355  42.480  24.081  1.00  0.00    +0.000 H 
BRANCH   14   12
ATOM     12  C11 UNL A   1      44.665  43.909  23.583  1.00  0.00    +0.000 C 
ATOM     13  O1  UNL A   1      44.951  44.469  24.641  1.00  0.00    +0.000 O 
BRANCH   12   11
ATOM      3  C2  UNL A   1      47.436  43.166  21.218  1.00  0.00    +0.000 C 
ATOM      4  C3  UNL A   1      46.782  42.982  22.433  1.00  0.00    +0.000 C 
ATOM    131  H39 UNL A   1      44.422  46.325  21.464  1.00  0.00    +0.000 H 
ATOM    134  H42 UNL A   1      47.545  44.010  18.559  1.00  0.00    +0.000 H 
ATOM    133  H41 UNL A   1      46.151  45.727  17.664  1.00  0.00    +0.000 H 
ATOM    132  H40 UNL A   1      44.669  46.987  19.207  1.00  0.00    +0.000 H 
ATOM     11  C10 UNL A   1      45.618  43.835  22.470  1.00  0.00    +0.000 C 
ATOM     87  C63 UNL A   1      45.708  44.619  21.324  1.00  0.00    +0.000 C 
ATOM     88  C64 UNL A   1      45.035  45.782  20.834  1.00  0.00    +0.000 C 
ATOM     89  C65 UNL A   1      45.195  46.172  19.557  1.00  0.00    +0.000 C 
ATOM     90  C66 UNL A   1      46.094  45.471  18.663  1.00  0.00    +0.000 C 
ATOM     91  C67 UNL A   1      46.850  44.480  19.159  1.00  0.00    +0.000 C 
ATOM     92  N8  UNL A   1      46.696  44.083  20.495  1.00  0.00    +0.000 N 
BRANCH    3    2
ATOM     97  H5  UNL A   1      48.676  42.553  19.639  1.00  0.00    +0.000 H 
ATOM      2  C1  UNL A   1      48.711  42.578  20.707  1.00  0.00    +0.000 C 
ATOM     96  H4  UNL A   1      48.824  41.588  21.098  1.00  0.00    +0.000 H 
BRANCH    2    1
ATOM      1  N1  UNL A   1      49.848  43.387  21.121  1.00  0.00    +0.000 N 
ATOM     93  H1  UNL A   1      49.521  44.166  21.691  1.00  0.00    +0.000 H 
ATOM     94  H2  UNL A   1      50.328  43.746  20.296  1.00  0.00    +0.000 H 
ATOM     95  H3  UNL A   1      50.492  42.814  21.666  1.00  0.00    +0.000 H 
ENDBRANCH    2    1
ENDBRANCH    3    2
BRANCH    4    5
ATOM     98  H6  UNL A   1      46.316  40.358  22.686  1.00  0.00    +0.000 H 
ATOM     99  H7  UNL A   1      47.162  38.855  24.393  1.00  0.00    +0.000 H 
ATOM    100  H8  UNL A   1      48.617  39.695  26.144  1.00  0.00    +0.000 H 
ATOM      5  C4  UNL A   1      47.279  42.073  23.455  1.00  0.00    +0.000 C 
ATOM    102  H10 UNL A   1      48.358  43.555  24.507  1.00  0.00    +0.000 H 
ATOM      6  C5  UNL A   1      46.932  40.719  23.430  1.00  0.00    +0.000 C 
ATOM      7  C6  UNL A   1      47.420  39.853  24.413  1.00  0.00    +0.000 C 
ATOM      9  C8  UNL A   1      48.599  41.687  25.455  1.00  0.00    +0.000 C 
ATOM     10  C9  UNL A   1      48.108  42.554  24.478  1.00  0.00    +0.000 C 
ATOM    101  H9  UNL A   1      49.215  42.045  26.200  1.00  0.00    +0.000 H 
ATOM      8  C7  UNL A   1      48.255  40.337  25.423  1.00  0.00    +0.000 C 
ENDBRANCH    4    5
ENDBRANCH   12   11
ENDBRANCH   14   12
ENDBRANCH   15   14
ENDBRANCH   16   15
ENDBRANCH   17   16
ENDBRANCH   18   17
ENDBRANCH   19   18
ENDBRANCH   20   19
ENDBRANCH   21   20
ENDBRANCH   22   21
ENDBRANCH   24   22
ENDBRANCH   28   27
BRANCH   32   33
ATOM     33  C27 UNL A   1      47.695  55.818  15.322  1.00  0.00    +0.000 C 
ATOM     34  C28 UNL A   1      47.884  55.512  13.966  1.00  0.00    +0.000 C 
ATOM     35  F1  UNL A   1      48.558  54.409  13.611  1.00  0.00    +0.000 F 
ATOM     36  C29 UNL A   1      47.417  56.363  12.968  1.00  0.00    +0.000 C 
ATOM     37  F2  UNL A   1      47.655  56.077  11.681  1.00  0.00    +0.000 F 
ATOM     38  C30 UNL A   1      46.723  57.515  13.303  1.00  0.00    +0.000 C 
ATOM     39  F3  UNL A   1      46.272  58.332  12.341  1.00  0.00    +0.000 F 
ATOM     40  C31 UNL A   1      46.504  57.826  14.636  1.00  0.00    +0.000 C 
ATOM     41  F4  UNL A   1      45.822  58.934  14.963  1.00  0.00    +0.000 F 
ATOM     42  C32 UNL A   1      46.994  56.992  15.638  1.00  0.00    +0.000 C 
ATOM     43  F5  UNL A   1      46.781  57.328  16.920  1.00  0.00    +0.000 F 
ENDBRANCH   32   33
BRANCH   49   50
ATOM     50  C38 UNL A   1      53.237  55.472  19.912  1.00  0.00    +0.000 C 
ATOM     51  C39 UNL A   1      54.490  55.272  19.317  1.00  0.00    +0.000 C 
ATOM     52  F6  UNL A   1      54.671  54.269  18.445  1.00  0.00    +0.000 F 
ATOM     53  C40 UNL A   1      55.571  56.089  19.638  1.00  0.00    +0.000 C 
ATOM     54  F7  UNL A   1      56.769  55.861  19.083  1.00  0.00    +0.000 F 
ATOM     55  C41 UNL A   1      55.412  57.133  20.537  1.00  0.00    +0.000 C 
ATOM     56  F8  UNL A   1      56.451  57.926  20.836  1.00  0.00    +0.000 F 
ATOM     57  C42 UNL A   1      54.178  57.354  21.130  1.00  0.00    +0.000 C 
ATOM     58  F9  UNL A   1      54.020  58.370  21.990  1.00  0.00    +0.000 F 
ATOM     59  C43 UNL A   1      53.102  56.525  20.830  1.00  0.00    +0.000 C 
ATOM     60  F10 UNL A   1      51.921  56.758  21.422  1.00  0.00    +0.000 F 
ENDBRANCH   49   50
BRANCH   64   65
ATOM     65  C47 UNL A   1      50.792  49.402  22.310  1.00  0.00    +0.000 C 
ATOM     66  C48 UNL A   1      51.669  48.368  21.957  1.00  0.00    +0.000 C 
ATOM     67  F11 UNL A   1      52.057  48.228  20.681  1.00  0.00    +0.000 F 
ATOM     68  C49 UNL A   1      52.121  47.452  22.904  1.00  0.00    +0.000 C 
ATOM     69  F12 UNL A   1      52.928  46.450  22.532  1.00  0.00    +0.000 F 
ATOM     70  C50 UNL A   1      51.724  47.567  24.227  1.00  0.00    +0.000 C 
ATOM     71  F13 UNL A   1      52.163  46.689  25.140  1.00  0.00    +0.000 F 
ATOM     72  C51 UNL A   1      50.867  48.591  24.604  1.00  0.00    +0.000 C 
ATOM     73  F14 UNL A   1      50.492  48.714  25.884  1.00  0.00    +0.000 F 
ATOM     74  C52 UNL A   1      50.395  49.494  23.652  1.00  0.00    +0.000 C 
ATOM     75  F15 UNL A   1      49.560  50.468  24.042  1.00  0.00    +0.000 F 
ENDBRANCH   64   65
TORSDOF 18
ENDMDL
MODEL 10
REMARK VINA RESULT:      -8.1     33.878     38.292
ROOT
ATOM     28  C23 UNL A   1      46.539  50.721  18.192  1.00  0.00    +0.000 C 
ATOM     29  C24 UNL A   1      46.754  52.013  17.458  1.00  0.00    +0.000 C 
ATOM     30  N4  UNL A   1      47.745  52.864  17.546  1.00  0.00    +0.000 N 
ATOM     31  C25 UNL A   1      47.478  53.853  16.609  1.00  0.00    +0.000 C 
ATOM     32  C26 UNL A   1      48.181  54.981  16.346  1.00  0.00    +0.000 C 
ATOM     44  C33 UNL A   1      49.379  55.370  17.042  1.00  0.00    +0.000 C 
ATOM     45  C34 UNL A   1      50.138  56.516  16.881  1.00  0.00    +0.000 C 
ATOM     46  C35 UNL A   1      51.228  56.446  17.756  1.00  0.00    +0.000 C 
ATOM     47  C36 UNL A   1      51.125  55.275  18.491  1.00  0.00    +0.000 C 
ATOM     48  N5  UNL A   1      49.991  54.622  18.037  1.00  0.00    +0.000 N 
ATOM     49  C37 UNL A   1      51.997  54.790  19.528  1.00  0.00    +0.000 C 
ATOM     61  C44 UNL A   1      51.834  53.623  20.199  1.00  0.00    +0.000 C 
ATOM     62  N6  UNL A   1      50.827  52.677  20.069  1.00  0.00    +0.000 N 
ATOM     63  C45 UNL A   1      51.106  51.732  20.933  1.00  0.00    +0.000 C 
ATOM     64  C46 UNL A   1      50.340  50.475  21.245  1.00  0.00    +0.000 C 
ATOM     76  C53 UNL A   1      49.179  50.232  20.605  1.00  0.00    +0.000 C 
ATOM     77  C54 UNL A   1      48.340  49.052  20.793  1.00  0.00    +0.000 C 
ATOM     78  C55 UNL A   1      47.311  49.106  19.933  1.00  0.00    +0.000 C 
ATOM     79  C56 UNL A   1      47.395  50.346  19.161  1.00  0.00    +0.000 C 
ATOM     80  N7  UNL A   1      48.520  50.966  19.650  1.00  0.00    +0.000 N 
ATOM     81  C57 UNL A   1      52.348  51.957  21.687  1.00  0.00    +0.000 C 
ATOM     82  C58 UNL A   1      52.734  53.139  21.226  1.00  0.00    +0.000 C 
ATOM     83  C59 UNL A   1      46.253  53.478  15.935  1.00  0.00    +0.000 C 
ATOM     84  C60 UNL A   1      45.731  52.383  16.468  1.00  0.00    +0.000 C 
ATOM    119  H27 UNL A   1      49.935  57.290  16.229  1.00  0.00    +0.000 H 
ATOM    120  H28 UNL A   1      51.981  57.146  17.839  1.00  0.00    +0.000 H 
ATOM    121  H29 UNL A   1      49.666  53.755  18.372  1.00  0.00    +0.000 H 
ATOM    122  H30 UNL A   1      48.511  48.298  21.477  1.00  0.00    +0.000 H 
ATOM    123  H31 UNL A   1      46.577  48.387  19.832  1.00  0.00    +0.000 H 
ATOM    124  H32 UNL A   1      48.823  51.851  19.344  1.00  0.00    +0.000 H 
ATOM    125  H33 UNL A   1      52.801  51.354  22.391  1.00  0.00    +0.000 H 
ATOM    126  H34 UNL A   1      53.567  53.649  21.556  1.00  0.00    +0.000 H 
ATOM    127  H35 UNL A   1      45.840  53.995  15.144  1.00  0.00    +0.000 H 
ATOM    128  H36 UNL A   1      44.839  51.913  16.247  1.00  0.00    +0.000 H 
ENDROOT
BRANCH   28   27
ATOM    129  H37 UNL A   1      46.665  48.606  16.563  1.00  0.00    +0.000 H 
ATOM    130  H38 UNL A   1      44.875  47.162  15.799  1.00  0.00    +0.000 H 
ATOM     27  C22 UNL A   1      45.433  49.816  17.785  1.00  0.00    +0.000 C 
ATOM    117  H25 UNL A   1      42.151  49.241  18.238  1.00  0.00    +0.000 H 
ATOM     86  C62 UNL A   1      44.684  47.896  16.498  1.00  0.00    +0.000 C 
ATOM     85  C61 UNL A   1      45.703  48.754  16.907  1.00  0.00    +0.000 C 
ATOM     24  C19 UNL A   1      43.402  48.033  17.037  1.00  0.00    +0.000 C 
ATOM     25  C20 UNL A   1      43.110  49.109  17.881  1.00  0.00    +0.000 C 
ATOM     26  C21 UNL A   1      44.119  50.007  18.242  1.00  0.00    +0.000 C 
ATOM    118  H26 UNL A   1      43.898  50.814  18.847  1.00  0.00    +0.000 H 
BRANCH   24   22
ATOM     22  C18 UNL A   1      42.326  47.062  16.726  1.00  0.00    +0.000 C 
ATOM     23  O2  UNL A   1      41.432  47.380  15.952  1.00  0.00    +0.000 O 
BRANCH   22   21
ATOM    116  H24 UNL A   1      43.046  45.225  17.075  1.00  0.00    +0.000 H 
ATOM     21  N3  UNL A   1      42.311  45.827  17.332  1.00  0.00    +0.000 N 
BRANCH   21   20
ATOM    114  H22 UNL A   1      41.622  45.662  19.263  1.00  0.00    +0.000 H 
ATOM    115  H23 UNL A   1      40.393  45.579  17.982  1.00  0.00    +0.000 H 
ATOM     20  C17 UNL A   1      41.372  45.282  18.295  1.00  0.00    +0.000 C 
BRANCH   20   19
ATOM    113  H21 UNL A   1      41.749  43.440  17.407  1.00  0.00    +0.000 H 
ATOM     19  C16 UNL A   1      41.377  43.760  18.359  1.00  0.00    +0.000 C 
ATOM    112  H20 UNL A   1      40.380  43.440  18.579  1.00  0.00    +0.000 H 
BRANCH   19   18
ATOM     18  C15 UNL A   1      42.308  43.120  19.390  1.00  0.00    +0.000 C 
ATOM    110  H18 UNL A   1      42.598  42.162  19.009  1.00  0.00    +0.000 H 
ATOM    111  H19 UNL A   1      43.106  43.823  19.512  1.00  0.00    +0.000 H 
BRANCH   18   17
ATOM     17  C14 UNL A   1      41.753  42.907  20.800  1.00  0.00    +0.000 C 
ATOM    108  H16 UNL A   1      40.997  43.647  20.961  1.00  0.00    +0.000 H 
ATOM    109  H17 UNL A   1      41.415  41.892  20.805  1.00  0.00    +0.000 H 
BRANCH   17   16
ATOM    106  H14 UNL A   1      42.778  42.022  22.427  1.00  0.00    +0.000 H 
ATOM    107  H15 UNL A   1      43.649  43.336  21.545  1.00  0.00    +0.000 H 
ATOM     16  C13 UNL A   1      42.733  42.991  21.976  1.00  0.00    +0.000 C 
BRANCH   16   15
ATOM    105  H13 UNL A   1      41.636  43.559  23.670  1.00  0.00    +0.000 H 
ATOM     15  C12 UNL A   1      42.416  43.996  23.082  1.00  0.00    +0.000 C 
ATOM    104  H12 UNL A   1      42.132  44.919  22.621  1.00  0.00    +0.000 H 
BRANCH   15   14
ATOM     14  N2  UNL A   1      43.508  44.263  23.988  1.00  0.00    +0.000 N 
ATOM    103  H11 UNL A   1      43.390  45.059  24.555  1.00  0.00    +0.000 H 
BRANCH   14   12
ATOM     12  C11 UNL A   1      44.690  43.582  24.187  1.00  0.00    +0.000 C 
ATOM     13  O1  UNL A   1      44.604  42.358  24.283  1.00  0.00    +0.000 O 
BRANCH   12   11
ATOM      3  C2  UNL A   1      47.824  45.438  23.444  1.00  0.00    +0.000 C 
ATOM      4  C3  UNL A   1      46.616  44.869  23.050  1.00  0.00    +0.000 C 
ATOM    131  H39 UNL A   1      46.448  43.040  26.832  1.00  0.00    +0.000 H 
ATOM    134  H42 UNL A   1      49.593  46.432  25.362  1.00  0.00    +0.000 H 
ATOM    133  H41 UNL A   1      49.572  45.752  27.649  1.00  0.00    +0.000 H 
ATOM    132  H40 UNL A   1      48.050  43.915  28.336  1.00  0.00    +0.000 H 
ATOM     11  C10 UNL A   1      45.988  44.266  24.200  1.00  0.00    +0.000 C 
ATOM     87  C63 UNL A   1      46.929  44.364  25.220  1.00  0.00    +0.000 C 
ATOM     88  C64 UNL A   1      47.065  43.812  26.532  1.00  0.00    +0.000 C 
ATOM     89  C65 UNL A   1      47.994  44.293  27.379  1.00  0.00    +0.000 C 
ATOM     90  C66 UNL A   1      48.917  45.333  26.970  1.00  0.00    +0.000 C 
ATOM     91  C67 UNL A   1      48.901  45.741  25.692  1.00  0.00    +0.000 C 
ATOM     92  N8  UNL A   1      47.945  45.228  24.805  1.00  0.00    +0.000 N 
BRANCH    3    2
ATOM     97  H5  UNL A   1      49.409  46.804  23.271  1.00  0.00    +0.000 H 
ATOM      2  C1  UNL A   1      48.879  46.123  22.638  1.00  0.00    +0.000 C 
ATOM     96  H4  UNL A   1      48.418  46.651  21.829  1.00  0.00    +0.000 H 
BRANCH    2    1
ATOM      1  N1  UNL A   1      49.821  45.154  22.100  1.00  0.00    +0.000 N 
ATOM     93  H1  UNL A   1      50.774  45.465  22.288  1.00  0.00    +0.000 H 
ATOM     94  H2  UNL A   1      49.683  45.069  21.093  1.00  0.00    +0.000 H 
ATOM     95  H3  UNL A   1      49.666  44.248  22.542  1.00  0.00    +0.000 H 
ENDBRANCH    2    1
ENDBRANCH    3    2
BRANCH    4    5
ATOM     98  H6  UNL A   1      45.288  46.827  21.797  1.00  0.00    +0.000 H 
ATOM     99  H7  UNL A   1      44.530  46.871  19.491  1.00  0.00    +0.000 H 
ATOM    100  H8  UNL A   1      44.960  44.982  18.031  1.00  0.00    +0.000 H 
ATOM      5  C4  UNL A   1      46.152  44.905  21.671  1.00  0.00    +0.000 C 
ATOM    102  H10 UNL A   1      46.878  42.979  21.186  1.00  0.00    +0.000 H 
ATOM      6  C5  UNL A   1      45.470  46.021  21.179  1.00  0.00    +0.000 C 
ATOM      7  C6  UNL A   1      45.034  46.046  19.851  1.00  0.00    +0.000 C 
ATOM      9  C8  UNL A   1      45.954  43.841  19.498  1.00  0.00    +0.000 C 
ATOM     10  C9  UNL A   1      46.385  43.811  20.825  1.00  0.00    +0.000 C 
ATOM    101  H9  UNL A   1      46.135  43.036  18.879  1.00  0.00    +0.000 H 
ATOM      8  C7  UNL A   1      45.279  44.958  19.011  1.00  0.00    +0.000 C 
ENDBRANCH    4    5
ENDBRANCH   12   11
ENDBRANCH   14   12
ENDBRANCH   15   14
ENDBRANCH   16   15
ENDBRANCH   17   16
ENDBRANCH   18   17
ENDBRANCH   19   18
ENDBRANCH   20   19
ENDBRANCH   21   20
ENDBRANCH   22   21
ENDBRANCH   24   22
ENDBRANCH   28   27
BRANCH   32   33
ATOM     33  C27 UNL A   1      47.672  55.874  15.254  1.00  0.00    +0.000 C 
ATOM     34  C28 UNL A   1      46.978  57.059  15.537  1.00  0.00    +0.000 C 
ATOM     35  F1  UNL A   1      46.721  57.404  16.807  1.00  0.00    +0.000 F 
ATOM     36  C29 UNL A   1      46.506  57.875  14.512  1.00  0.00    +0.000 C 
ATOM     37  F2  UNL A   1      45.800  58.976  14.806  1.00  0.00    +0.000 F 
ATOM     38  C30 UNL A   1      46.749  57.542  13.189  1.00  0.00    +0.000 C 
ATOM     39  F3  UNL A   1      46.297  58.329  12.203  1.00  0.00    +0.000 F 
ATOM     40  C31 UNL A   1      47.454  56.387  12.886  1.00  0.00    +0.000 C 
ATOM     41  F4  UNL A   1      47.700  56.069  11.607  1.00  0.00    +0.000 F 
ATOM     42  C32 UNL A   1      47.902  55.554  13.907  1.00  0.00    +0.000 C 
ATOM     43  F5  UNL A   1      48.567  54.434  13.582  1.00  0.00    +0.000 F 
ENDBRANCH   32   33
BRANCH   49   50
ATOM     50  C38 UNL A   1      53.160  55.653  19.915  1.00  0.00    +0.000 C 
ATOM     51  C39 UNL A   1      53.042  56.653  20.891  1.00  0.00    +0.000 C 
ATOM     52  F6  UNL A   1      51.852  56.908  21.455  1.00  0.00    +0.000 F 
ATOM     53  C40 UNL A   1      54.145  57.413  21.271  1.00  0.00    +0.000 C 
ATOM     54  F7  UNL A   1      54.004  58.386  22.182  1.00  0.00    +0.000 F 
ATOM     55  C41 UNL A   1      55.387  57.170  20.704  1.00  0.00    +0.000 C 
ATOM     56  F8  UNL A   1      56.450  57.895  21.080  1.00  0.00    +0.000 F 
ATOM     57  C42 UNL A   1      55.528  56.180  19.743  1.00  0.00    +0.000 C 
ATOM     58  F9  UNL A   1      56.730  55.936  19.202  1.00  0.00    +0.000 F 
ATOM     59  C43 UNL A   1      54.423  55.434  19.344  1.00  0.00    +0.000 C 
ATOM     60  F10 UNL A   1      54.586  54.487  18.409  1.00  0.00    +0.000 F 
ENDBRANCH   49   50
BRANCH   64   65
ATOM     65  C47 UNL A   1      50.834  49.520  22.269  1.00  0.00    +0.000 C 
ATOM     66  C48 UNL A   1      50.383  49.593  23.594  1.00  0.00    +0.000 C 
ATOM     67  F11 UNL A   1      49.516  50.552  23.953  1.00  0.00    +0.000 F 
ATOM     68  C49 UNL A   1      50.848  48.708  24.564  1.00  0.00    +0.000 C 
ATOM     69  F12 UNL A   1      50.430  48.825  25.831  1.00  0.00    +0.000 F 
ATOM     70  C50 UNL A   1      51.754  47.715  24.221  1.00  0.00    +0.000 C 
ATOM     71  F13 UNL A   1      52.197  46.860  25.153  1.00  0.00    +0.000 F 
ATOM     72  C51 UNL A   1      52.204  47.614  22.914  1.00  0.00    +0.000 C 
ATOM     73  F14 UNL A   1      53.070  46.648  22.576  1.00  0.00    +0.000 F 
ATOM     74  C52 UNL A   1      51.758  48.515  21.948  1.00  0.00    +0.000 C 
ATOM     75  F15 UNL A   1      52.217  48.399  20.693  1.00  0.00    +0.000 F 
ENDBRANCH   64   65
TORSDOF 18
ENDMDL
