MODEL 1
REMARK VINA RESULT:      -8.5      0.000      0.000
ROOT
ATOM     27  C21 UNL A   1      14.047  53.956   4.903  1.00  0.00    +0.000 C 
ATOM     28  C22 UNL A   1      14.973  54.379   3.800  1.00  0.00    +0.000 C 
ATOM     29  N3  UNL A   1      15.434  53.681   2.792  1.00  0.00    +0.000 N 
ATOM     30  C23 UNL A   1      16.218  54.556   2.053  1.00  0.00    +0.000 C 
ATOM     31  C24 UNL A   1      16.961  54.299   0.950  1.00  0.00    +0.000 C 
ATOM     43  C31 UNL A   1      17.058  53.010   0.316  1.00  0.00    +0.000 C 
ATOM     44  C32 UNL A   1      17.836  52.635  -0.765  1.00  0.00    +0.000 C 
ATOM     45  C33 UNL A   1      17.559  51.295  -1.061  1.00  0.00    +0.000 C 
ATOM     46  C34 UNL A   1      16.640  50.823  -0.138  1.00  0.00    +0.000 C 
ATOM     47  N4  UNL A   1      16.343  51.885   0.702  1.00  0.00    +0.000 N 
ATOM     48  C35 UNL A   1      16.072  49.503  -0.028  1.00  0.00    +0.000 C 
ATOM     60  C42 UNL A   1      15.212  49.106   0.941  1.00  0.00    +0.000 C 
ATOM     61  N5  UNL A   1      14.686  49.842   1.993  1.00  0.00    +0.000 N 
ATOM     62  C43 UNL A   1      13.893  49.025   2.643  1.00  0.00    +0.000 C 
ATOM     63  C44 UNL A   1      13.069  49.285   3.872  1.00  0.00    +0.000 C 
ATOM     75  C51 UNL A   1      13.137  50.489   4.472  1.00  0.00    +0.000 C 
ATOM     76  C52 UNL A   1      12.397  50.878   5.668  1.00  0.00    +0.000 C 
ATOM     77  C53 UNL A   1      12.648  52.168   5.938  1.00  0.00    +0.000 C 
ATOM     78  C54 UNL A   1      13.596  52.687   4.951  1.00  0.00    +0.000 C 
ATOM     79  N6  UNL A   1      13.853  51.611   4.138  1.00  0.00    +0.000 N 
ATOM     80  C55 UNL A   1      13.816  47.676   2.066  1.00  0.00    +0.000 C 
ATOM     81  C56 UNL A   1      14.661  47.770   1.049  1.00  0.00    +0.000 C 
ATOM     82  C57 UNL A   1      16.129  55.849   2.700  1.00  0.00    +0.000 C 
ATOM     83  C58 UNL A   1      15.421  55.779   3.818  1.00  0.00    +0.000 C 
ATOM    109  H24 UNL A   1      18.506  53.239  -1.267  1.00  0.00    +0.000 H 
ATOM    110  H25 UNL A   1      17.970  50.751  -1.836  1.00  0.00    +0.000 H 
ATOM    111  H26 UNL A   1      15.717  51.847   1.461  1.00  0.00    +0.000 H 
ATOM    112  H27 UNL A   1      11.780  50.259   6.218  1.00  0.00    +0.000 H 
ATOM    113  H28 UNL A   1      12.238  52.708   6.716  1.00  0.00    +0.000 H 
ATOM    114  H29 UNL A   1      14.491  51.642   3.388  1.00  0.00    +0.000 H 
ATOM    115  H30 UNL A   1      13.252  46.867   2.371  1.00  0.00    +0.000 H 
ATOM    116  H31 UNL A   1      14.897  46.991   0.415  1.00  0.00    +0.000 H 
ATOM    117  H32 UNL A   1      16.562  56.712   2.337  1.00  0.00    +0.000 H 
ATOM    118  H33 UNL A   1      15.232  56.514   4.517  1.00  0.00    +0.000 H 
ENDROOT
BRANCH   27   26
ATOM    107  H22 UNL A   1      14.218  56.199   8.940  1.00  0.00    +0.000 H 
ATOM    108  H23 UNL A   1      15.185  54.776   7.226  1.00  0.00    +0.000 H 
ATOM     84  C59 UNL A   1      12.330  55.599   5.667  1.00  0.00    +0.000 C 
ATOM     85  C60 UNL A   1      11.812  56.475   6.618  1.00  0.00    +0.000 C 
ATOM    120  H35 UNL A   1      10.950  57.005   6.419  1.00  0.00    +0.000 H 
ATOM     23  C17 UNL A   1      12.465  56.635   7.843  1.00  0.00    +0.000 C 
ATOM     24  C18 UNL A   1      13.708  56.031   8.059  1.00  0.00    +0.000 C 
ATOM     25  C19 UNL A   1      14.256  55.201   7.079  1.00  0.00    +0.000 C 
ATOM    119  H34 UNL A   1      11.813  55.432   4.789  1.00  0.00    +0.000 H 
ATOM     26  C20 UNL A   1      13.549  54.943   5.893  1.00  0.00    +0.000 C 
BRANCH   23   21
ATOM     21  C16 UNL A   1      11.867  57.438   8.933  1.00  0.00    +0.000 C 
ATOM     22  O4  UNL A   1      12.082  58.646   8.984  1.00  0.00    +0.000 O 
BRANCH   21   20
ATOM    106  H21 UNL A   1      10.903  57.394  10.686  1.00  0.00    +0.000 H 
ATOM     20  N2  UNL A   1      11.101  56.835   9.900  1.00  0.00    +0.000 N 
BRANCH   20   19
ATOM    105  H20 UNL A   1      10.671  55.060   8.969  1.00  0.00    +0.000 H 
ATOM     19  C15 UNL A   1      10.537  55.494   9.938  1.00  0.00    +0.000 C 
ATOM    104  H19 UNL A   1       9.502  55.565  10.200  1.00  0.00    +0.000 H 
BRANCH   19   18
ATOM     18  C14 UNL A   1      11.236  54.589  10.949  1.00  0.00    +0.000 C 
ATOM    102  H17 UNL A   1      11.803  55.208  11.611  1.00  0.00    +0.000 H 
ATOM    103  H18 UNL A   1      10.459  54.037  11.437  1.00  0.00    +0.000 H 
BRANCH   18   17
ATOM     17  C13 UNL A   1      12.182  53.546  10.349  1.00  0.00    +0.000 C 
ATOM    100  H15 UNL A   1      11.775  52.577  10.550  1.00  0.00    +0.000 H 
ATOM    101  H16 UNL A   1      12.251  53.778   9.307  1.00  0.00    +0.000 H 
BRANCH   17   16
ATOM     98  H13 UNL A   1      13.884  54.597  11.056  1.00  0.00    +0.000 H 
ATOM     99  H14 UNL A   1      13.617  52.971  11.765  1.00  0.00    +0.000 H 
ATOM     16  C12 UNL A   1      13.618  53.575  10.881  1.00  0.00    +0.000 C 
BRANCH   16   15
ATOM     97  H12 UNL A   1      15.627  53.309  10.316  1.00  0.00    +0.000 H 
ATOM     15  C11 UNL A   1      14.680  52.963   9.958  1.00  0.00    +0.000 C 
ATOM     96  H11 UNL A   1      14.469  53.274   8.955  1.00  0.00    +0.000 H 
BRANCH   15   14
ATOM     94  H9  UNL A   1      14.645  51.099  10.989  1.00  0.00    +0.000 H 
ATOM     14  C10 UNL A   1      14.742  51.435   9.978  1.00  0.00    +0.000 C 
ATOM     95  H10 UNL A   1      13.943  51.062   9.370  1.00  0.00    +0.000 H 
BRANCH   14   13
ATOM     13  N1  UNL A   1      15.990  50.939   9.437  1.00  0.00    +0.000 N 
ATOM     93  H8  UNL A   1      16.655  51.584   9.105  1.00  0.00    +0.000 H 
BRANCH   13    2
ATOM      1  O1  UNL A   1      16.558  48.907  10.341  1.00  0.00    +0.000 O 
ATOM      2  C1  UNL A   1      16.273  49.602   9.372  1.00  0.00    +0.000 C 
BRANCH    2    3
ATOM      3  C2  UNL A   1      16.177  48.972   8.030  1.00  0.00    +0.000 C 
ATOM     86  H1  UNL A   1      16.492  47.993   7.946  1.00  0.00    +0.000 H 
BRANCH    3    4
ATOM      4  C3  UNL A   1      15.717  49.565   6.916  1.00  0.00    +0.000 C 
ATOM     87  H2  UNL A   1      14.783  50.002   6.935  1.00  0.00    +0.000 H 
BRANCH    4    5
ATOM      5  C4  UNL A   1      16.496  49.613   5.669  1.00  0.00    +0.000 C 
ATOM      6  C5  UNL A   1      16.809  48.455   4.935  1.00  0.00    +0.000 C 
ATOM      7  C6  UNL A   1      17.573  48.532   3.765  1.00  0.00    +0.000 C 
ATOM      8  C7  UNL A   1      18.012  49.772   3.323  1.00  0.00    +0.000 C 
ATOM     10  C8  UNL A   1      17.681  50.925   4.030  1.00  0.00    +0.000 C 
ATOM     12  C9  UNL A   1      16.923  50.858   5.191  1.00  0.00    +0.000 C 
ATOM     88  H3  UNL A   1      16.471  47.537   5.263  1.00  0.00    +0.000 H 
ATOM     89  H4  UNL A   1      17.806  47.677   3.236  1.00  0.00    +0.000 H 
ATOM     92  H7  UNL A   1      16.674  51.722   5.699  1.00  0.00    +0.000 H 
BRANCH    8    9
ATOM      9  O2  UNL A   1      18.777  49.912   2.200  1.00  0.00    +0.000 O 
ATOM     90  H5  UNL A   1      18.873  50.754   1.799  1.00  0.00    +0.000 H 
ENDBRANCH    8    9
BRANCH   10   11
ATOM     11  O3  UNL A   1      18.113  52.142   3.587  1.00  0.00    +0.000 O 
ATOM     91  H6  UNL A   1      18.995  52.414   3.748  1.00  0.00    +0.000 H 
ENDBRANCH   10   11
ENDBRANCH    4    5
ENDBRANCH    3    4
ENDBRANCH    2    3
ENDBRANCH   13    2
ENDBRANCH   14   13
ENDBRANCH   15   14
ENDBRANCH   16   15
ENDBRANCH   17   16
ENDBRANCH   18   17
ENDBRANCH   19   18
ENDBRANCH   20   19
ENDBRANCH   21   20
ENDBRANCH   23   21
ENDBRANCH   27   26
BRANCH   31   32
ATOM     33  C26 UNL A   1      19.006  55.793   0.829  1.00  0.00    +0.000 C 
ATOM     34  F1  UNL A   1      19.556  55.118   1.850  1.00  0.00    +0.000 F 
ATOM     35  C27 UNL A   1      19.704  56.867   0.283  1.00  0.00    +0.000 C 
ATOM     36  F2  UNL A   1      20.896  57.214   0.786  1.00  0.00    +0.000 F 
ATOM     37  C28 UNL A   1      19.159  57.588  -0.768  1.00  0.00    +0.000 C 
ATOM     38  F3  UNL A   1      19.832  58.621  -1.294  1.00  0.00    +0.000 F 
ATOM     39  C29 UNL A   1      17.912  57.244  -1.269  1.00  0.00    +0.000 C 
ATOM     40  F4  UNL A   1      17.389  57.934  -2.293  1.00  0.00    +0.000 F 
ATOM     41  C30 UNL A   1      17.199  56.189  -0.705  1.00  0.00    +0.000 C 
ATOM     42  F5  UNL A   1      15.987  55.893  -1.199  1.00  0.00    +0.000 F 
ATOM     32  C25 UNL A   1      17.730  55.444   0.357  1.00  0.00    +0.000 C 
ENDBRANCH   31   32
BRANCH   48   49
ATOM     49  C36 UNL A   1      16.472  48.480  -1.050  1.00  0.00    +0.000 C 
ATOM     50  C37 UNL A   1      15.701  48.256  -2.199  1.00  0.00    +0.000 C 
ATOM     51  F6  UNL A   1      14.551  48.922  -2.381  1.00  0.00    +0.000 F 
ATOM     52  C38 UNL A   1      16.092  47.317  -3.152  1.00  0.00    +0.000 C 
ATOM     53  F7  UNL A   1      15.319  47.090  -4.223  1.00  0.00    +0.000 F 
ATOM     54  C39 UNL A   1      17.272  46.609  -2.987  1.00  0.00    +0.000 C 
ATOM     55  F8  UNL A   1      17.650  45.711  -3.907  1.00  0.00    +0.000 F 
ATOM     56  C40 UNL A   1      18.057  46.825  -1.863  1.00  0.00    +0.000 C 
ATOM     57  F9  UNL A   1      19.203  46.148  -1.708  1.00  0.00    +0.000 F 
ATOM     58  C41 UNL A   1      17.657  47.743  -0.897  1.00  0.00    +0.000 C 
ATOM     59  F10 UNL A   1      18.430  47.923   0.183  1.00  0.00    +0.000 F 
ENDBRANCH   48   49
BRANCH   63   64
ATOM     65  C46 UNL A   1      10.835  48.164   4.105  1.00  0.00    +0.000 C 
ATOM     66  F11 UNL A   1      10.302  49.086   3.290  1.00  0.00    +0.000 F 
ATOM     67  C47 UNL A   1      10.016  47.163   4.622  1.00  0.00    +0.000 C 
ATOM     68  F12 UNL A   1       8.714  47.136   4.304  1.00  0.00    +0.000 F 
ATOM     69  C48 UNL A   1      10.542  46.200   5.470  1.00  0.00    +0.000 C 
ATOM     70  F13 UNL A   1       9.756  45.230   5.956  1.00  0.00    +0.000 F 
ATOM     71  C49 UNL A   1      11.885  46.245   5.814  1.00  0.00    +0.000 C 
ATOM     72  F14 UNL A   1      12.401  45.308   6.621  1.00  0.00    +0.000 F 
ATOM     73  C50 UNL A   1      12.700  47.259   5.318  1.00  0.00    +0.000 C 
ATOM     74  F15 UNL A   1      13.994  47.280   5.668  1.00  0.00    +0.000 F 
ATOM     64  C45 UNL A   1      12.193  48.233   4.446  1.00  0.00    +0.000 C 
ENDBRANCH   63   64
TORSDOF 19
ENDMDL
MODEL 2
REMARK VINA RESULT:      -8.1      1.370      2.595
ROOT
ATOM     27  C21 UNL A   1      14.253  53.938   5.053  1.00  0.00    +0.000 C 
ATOM     28  C22 UNL A   1      15.185  54.380   3.962  1.00  0.00    +0.000 C 
ATOM     29  N3  UNL A   1      15.667  53.694   2.956  1.00  0.00    +0.000 N 
ATOM     30  C23 UNL A   1      16.446  54.584   2.230  1.00  0.00    +0.000 C 
ATOM     31  C24 UNL A   1      17.204  54.343   1.134  1.00  0.00    +0.000 C 
ATOM     43  C31 UNL A   1      17.327  53.059   0.495  1.00  0.00    +0.000 C 
ATOM     44  C32 UNL A   1      18.122  52.701  -0.580  1.00  0.00    +0.000 C 
ATOM     45  C33 UNL A   1      17.868  51.359  -0.885  1.00  0.00    +0.000 C 
ATOM     46  C34 UNL A   1      16.946  50.868   0.026  1.00  0.00    +0.000 C 
ATOM     47  N4  UNL A   1      16.624  51.922   0.867  1.00  0.00    +0.000 N 
ATOM     48  C35 UNL A   1      16.396  49.540   0.123  1.00  0.00    +0.000 C 
ATOM     60  C42 UNL A   1      15.531  49.126   1.080  1.00  0.00    +0.000 C 
ATOM     61  N5  UNL A   1      14.983  49.849   2.131  1.00  0.00    +0.000 N 
ATOM     62  C43 UNL A   1      14.195  49.017   2.767  1.00  0.00    +0.000 C 
ATOM     63  C44 UNL A   1      13.354  49.259   3.989  1.00  0.00    +0.000 C 
ATOM     75  C51 UNL A   1      13.398  50.461   4.595  1.00  0.00    +0.000 C 
ATOM     76  C52 UNL A   1      12.640  50.833   5.785  1.00  0.00    +0.000 C 
ATOM     77  C53 UNL A   1      12.868  52.126   6.064  1.00  0.00    +0.000 C 
ATOM     78  C54 UNL A   1      13.819  52.663   5.090  1.00  0.00    +0.000 C 
ATOM     79  N6  UNL A   1      14.102  51.595   4.274  1.00  0.00    +0.000 N 
ATOM     80  C55 UNL A   1      14.143  47.670   2.183  1.00  0.00    +0.000 C 
ATOM     81  C56 UNL A   1      14.999  47.781   1.176  1.00  0.00    +0.000 C 
ATOM     82  C57 UNL A   1      16.331  55.872   2.882  1.00  0.00    +0.000 C 
ATOM     83  C58 UNL A   1      15.612  55.787   3.992  1.00  0.00    +0.000 C 
ATOM    109  H24 UNL A   1      18.789  53.316  -1.071  1.00  0.00    +0.000 H 
ATOM    110  H25 UNL A   1      18.295  50.824  -1.658  1.00  0.00    +0.000 H 
ATOM    111  H26 UNL A   1      15.990  51.871   1.619  1.00  0.00    +0.000 H 
ATOM    112  H27 UNL A   1      12.026  50.203   6.325  1.00  0.00    +0.000 H 
ATOM    113  H28 UNL A   1      12.443  52.655   6.840  1.00  0.00    +0.000 H 
ATOM    114  H29 UNL A   1      14.747  51.639   3.531  1.00  0.00    +0.000 H 
ATOM    115  H30 UNL A   1      13.588  46.852   2.478  1.00  0.00    +0.000 H 
ATOM    116  H31 UNL A   1      15.253  47.009   0.541  1.00  0.00    +0.000 H 
ATOM    117  H32 UNL A   1      16.756  56.744   2.528  1.00  0.00    +0.000 H 
ATOM    118  H33 UNL A   1      15.405  56.515   4.692  1.00  0.00    +0.000 H 
ENDROOT
BRANCH   27   26
ATOM    107  H22 UNL A   1      14.367  56.190   9.087  1.00  0.00    +0.000 H 
ATOM    108  H23 UNL A   1      15.370  54.790   7.375  1.00  0.00    +0.000 H 
ATOM     84  C59 UNL A   1      12.494  55.537   5.816  1.00  0.00    +0.000 C 
ATOM     85  C60 UNL A   1      11.954  56.400   6.766  1.00  0.00    +0.000 C 
ATOM    120  H35 UNL A   1      11.078  56.907   6.567  1.00  0.00    +0.000 H 
ATOM     23  C17 UNL A   1      12.603  56.578   7.991  1.00  0.00    +0.000 C 
ATOM     24  C18 UNL A   1      13.861  56.008   8.206  1.00  0.00    +0.000 C 
ATOM     25  C19 UNL A   1      14.431  55.191   7.227  1.00  0.00    +0.000 C 
ATOM    119  H34 UNL A   1      11.981  55.355   4.938  1.00  0.00    +0.000 H 
ATOM     26  C20 UNL A   1      13.730  54.913   6.042  1.00  0.00    +0.000 C 
BRANCH   23   21
ATOM     21  C16 UNL A   1      11.984  57.367   9.080  1.00  0.00    +0.000 C 
ATOM     22  O4  UNL A   1      12.059  58.593   9.058  1.00  0.00    +0.000 O 
BRANCH   21   20
ATOM    106  H21 UNL A   1      11.391  57.215  10.984  1.00  0.00    +0.000 H 
ATOM     20  N2  UNL A   1      11.358  56.735  10.126  1.00  0.00    +0.000 N 
BRANCH   20   19
ATOM    105  H20 UNL A   1      10.357  55.234   9.152  1.00  0.00    +0.000 H 
ATOM     19  C15 UNL A   1      10.652  55.463  10.155  1.00  0.00    +0.000 C 
ATOM    104  H19 UNL A   1       9.806  55.555  10.804  1.00  0.00    +0.000 H 
BRANCH   19   18
ATOM     18  C14 UNL A   1      11.526  54.314  10.652  1.00  0.00    +0.000 C 
ATOM    102  H17 UNL A   1      12.427  54.732  11.049  1.00  0.00    +0.000 H 
ATOM    103  H18 UNL A   1      10.939  53.790  11.378  1.00  0.00    +0.000 H 
BRANCH   18   17
ATOM     17  C13 UNL A   1      11.912  53.279   9.592  1.00  0.00    +0.000 C 
ATOM    100  H15 UNL A   1      11.192  52.488   9.627  1.00  0.00    +0.000 H 
ATOM    101  H16 UNL A   1      11.929  53.806   8.661  1.00  0.00    +0.000 H 
BRANCH   17   16
ATOM     98  H13 UNL A   1      13.926  53.045   8.969  1.00  0.00    +0.000 H 
ATOM     99  H14 UNL A   1      13.632  52.922  10.734  1.00  0.00    +0.000 H 
ATOM     16  C12 UNL A   1      13.303  52.660   9.750  1.00  0.00    +0.000 C 
BRANCH   16   15
ATOM     97  H12 UNL A   1      14.273  50.838  10.160  1.00  0.00    +0.000 H 
ATOM     15  C11 UNL A   1      13.359  51.128   9.684  1.00  0.00    +0.000 C 
ATOM     96  H11 UNL A   1      13.309  50.836   8.656  1.00  0.00    +0.000 H 
BRANCH   15   14
ATOM     94  H9  UNL A   1      12.258  50.717  11.462  1.00  0.00    +0.000 H 
ATOM     14  C10 UNL A   1      12.235  50.414  10.437  1.00  0.00    +0.000 C 
ATOM     95  H10 UNL A   1      11.306  50.681   9.977  1.00  0.00    +0.000 H 
BRANCH   14   13
ATOM     13  N1  UNL A   1      12.372  48.974  10.371  1.00  0.00    +0.000 N 
ATOM     93  H8  UNL A   1      12.541  48.473  11.202  1.00  0.00    +0.000 H 
BRANCH   13    2
ATOM      1  O1  UNL A   1      11.503  48.576   8.285  1.00  0.00    +0.000 O 
ATOM      2  C1  UNL A   1      12.275  48.287   9.192  1.00  0.00    +0.000 C 
BRANCH    2    3
ATOM      3  C2  UNL A   1      13.212  47.149   9.013  1.00  0.00    +0.000 C 
ATOM     86  H1  UNL A   1      12.850  46.312   8.530  1.00  0.00    +0.000 H 
BRANCH    3    4
ATOM      4  C3  UNL A   1      14.490  47.112   9.424  1.00  0.00    +0.000 C 
ATOM     87  H2  UNL A   1      14.810  46.306   9.982  1.00  0.00    +0.000 H 
BRANCH    4    5
ATOM      5  C4  UNL A   1      15.451  48.181   9.109  1.00  0.00    +0.000 C 
ATOM      6  C5  UNL A   1      15.647  48.650   7.797  1.00  0.00    +0.000 C 
ATOM      7  C6  UNL A   1      16.587  49.651   7.527  1.00  0.00    +0.000 C 
ATOM      8  C7  UNL A   1      17.321  50.191   8.573  1.00  0.00    +0.000 C 
ATOM     10  C8  UNL A   1      17.111  49.752   9.877  1.00  0.00    +0.000 C 
ATOM     12  C9  UNL A   1      16.180  48.760  10.155  1.00  0.00    +0.000 C 
ATOM     88  H3  UNL A   1      15.091  48.251   7.025  1.00  0.00    +0.000 H 
ATOM     89  H4  UNL A   1      16.732  49.984   6.561  1.00  0.00    +0.000 H 
ATOM     92  H7  UNL A   1      16.025  48.451  11.128  1.00  0.00    +0.000 H 
BRANCH    8    9
ATOM      9  O2  UNL A   1      18.267  51.157   8.372  1.00  0.00    +0.000 O 
ATOM     90  H5  UNL A   1      19.175  50.927   8.352  1.00  0.00    +0.000 H 
ENDBRANCH    8    9
BRANCH   10   11
ATOM     11  O3  UNL A   1      17.834  50.291  10.903  1.00  0.00    +0.000 O 
ATOM     91  H6  UNL A   1      17.415  50.850  11.528  1.00  0.00    +0.000 H 
ENDBRANCH   10   11
ENDBRANCH    4    5
ENDBRANCH    3    4
ENDBRANCH    2    3
ENDBRANCH   13    2
ENDBRANCH   14   13
ENDBRANCH   15   14
ENDBRANCH   16   15
ENDBRANCH   17   16
ENDBRANCH   18   17
ENDBRANCH   19   18
ENDBRANCH   20   19
ENDBRANCH   21   20
ENDBRANCH   23   21
ENDBRANCH   27   26
BRANCH   31   32
ATOM     33  C26 UNL A   1      17.477  56.222  -0.547  1.00  0.00    +0.000 C 
ATOM     34  F1  UNL A   1      16.322  55.864  -1.130  1.00  0.00    +0.000 F 
ATOM     35  C27 UNL A   1      18.197  57.285  -1.085  1.00  0.00    +0.000 C 
ATOM     36  F2  UNL A   1      17.738  57.922  -2.171  1.00  0.00    +0.000 F 
ATOM     37  C28 UNL A   1      19.397  57.674  -0.510  1.00  0.00    +0.000 C 
ATOM     38  F3  UNL A   1      20.090  58.698  -1.027  1.00  0.00    +0.000 F 
ATOM     39  C29 UNL A   1      19.884  56.995   0.598  1.00  0.00    +0.000 C 
ATOM     40  F4  UNL A   1      21.039  57.378   1.162  1.00  0.00    +0.000 F 
ATOM     41  C30 UNL A   1      19.180  55.913   1.120  1.00  0.00    +0.000 C 
ATOM     42  F5  UNL A   1      19.687  55.265   2.180  1.00  0.00    +0.000 F 
ATOM     32  C25 UNL A   1      17.964  55.503   0.555  1.00  0.00    +0.000 C 
ENDBRANCH   31   32
BRANCH   48   49
ATOM     49  C36 UNL A   1      16.822  48.528  -0.900  1.00  0.00    +0.000 C 
ATOM     50  C37 UNL A   1      18.001  47.785  -0.746  1.00  0.00    +0.000 C 
ATOM     51  F6  UNL A   1      18.806  48.006   0.305  1.00  0.00    +0.000 F 
ATOM     52  C38 UNL A   1      18.376  46.834  -1.692  1.00  0.00    +0.000 C 
ATOM     53  F7  UNL A   1      19.528  46.164  -1.546  1.00  0.00    +0.000 F 
ATOM     54  C39 UNL A   1      17.567  46.589  -2.791  1.00  0.00    +0.000 C 
ATOM     55  F8  UNL A   1      17.926  45.669  -3.697  1.00  0.00    +0.000 F 
ATOM     56  C40 UNL A   1      16.389  47.303  -2.955  1.00  0.00    +0.000 C 
ATOM     57  F9  UNL A   1      15.602  47.060  -4.013  1.00  0.00    +0.000 F 
ATOM     58  C41 UNL A   1      16.024  48.273  -2.026  1.00  0.00    +0.000 C 
ATOM     59  F10 UNL A   1      14.885  48.954  -2.216  1.00  0.00    +0.000 F 
ENDBRANCH   48   49
BRANCH   63   64
ATOM     65  C46 UNL A   1      11.106  48.188   4.306  1.00  0.00    +0.000 C 
ATOM     66  F11 UNL A   1      10.547  49.183   3.605  1.00  0.00    +0.000 F 
ATOM     67  C47 UNL A   1      10.293  47.174   4.808  1.00  0.00    +0.000 C 
ATOM     68  F12 UNL A   1       8.972  47.208   4.588  1.00  0.00    +0.000 F 
ATOM     69  C48 UNL A   1      10.847  46.134   5.540  1.00  0.00    +0.000 C 
ATOM     70  F13 UNL A   1      10.066  45.153   6.011  1.00  0.00    +0.000 F 
ATOM     71  C49 UNL A   1      12.213  46.114   5.784  1.00  0.00    +0.000 C 
ATOM     72  F14 UNL A   1      12.754  45.104   6.479  1.00  0.00    +0.000 F 
ATOM     73  C50 UNL A   1      13.023  47.140   5.304  1.00  0.00    +0.000 C 
ATOM     74  F15 UNL A   1      14.339  47.097   5.556  1.00  0.00    +0.000 F 
ATOM     64  C45 UNL A   1      12.487  48.192   4.548  1.00  0.00    +0.000 C 
ENDBRANCH   63   64
TORSDOF 19
ENDMDL
MODEL 3
REMARK VINA RESULT:      -8.0      1.469      3.050
ROOT
ATOM     27  C21 UNL A   1      14.432  53.971   4.725  1.00  0.00    +0.000 C 
ATOM     28  C22 UNL A   1      15.359  54.407   3.627  1.00  0.00    +0.000 C 
ATOM     29  N3  UNL A   1      15.823  53.720   2.614  1.00  0.00    +0.000 N 
ATOM     30  C23 UNL A   1      16.606  54.603   1.885  1.00  0.00    +0.000 C 
ATOM     31  C24 UNL A   1      17.350  54.358   0.780  1.00  0.00    +0.000 C 
ATOM     43  C31 UNL A   1      17.451  53.075   0.134  1.00  0.00    +0.000 C 
ATOM     44  C32 UNL A   1      18.231  52.712  -0.950  1.00  0.00    +0.000 C 
ATOM     45  C33 UNL A   1      17.958  51.375  -1.259  1.00  0.00    +0.000 C 
ATOM     46  C34 UNL A   1      17.039  50.891  -0.341  1.00  0.00    +0.000 C 
ATOM     47  N4  UNL A   1      16.738  51.945   0.508  1.00  0.00    +0.000 N 
ATOM     48  C35 UNL A   1      16.473  49.570  -0.244  1.00  0.00    +0.000 C 
ATOM     60  C42 UNL A   1      15.613  49.162   0.720  1.00  0.00    +0.000 C 
ATOM     61  N5  UNL A   1      15.084  49.887   1.778  1.00  0.00    +0.000 N 
ATOM     62  C43 UNL A   1      14.292  49.062   2.419  1.00  0.00    +0.000 C 
ATOM     63  C44 UNL A   1      13.466  49.309   3.649  1.00  0.00    +0.000 C 
ATOM     75  C51 UNL A   1      13.530  50.507   4.261  1.00  0.00    +0.000 C 
ATOM     76  C52 UNL A   1      12.788  50.883   5.459  1.00  0.00    +0.000 C 
ATOM     77  C53 UNL A   1      13.035  52.171   5.742  1.00  0.00    +0.000 C 
ATOM     78  C54 UNL A   1      13.983  52.702   4.761  1.00  0.00    +0.000 C 
ATOM     79  N6  UNL A   1      14.244  51.634   3.938  1.00  0.00    +0.000 N 
ATOM     80  C55 UNL A   1      14.218  47.718   1.829  1.00  0.00    +0.000 C 
ATOM     81  C56 UNL A   1      15.065  47.824   0.814  1.00  0.00    +0.000 C 
ATOM     82  C57 UNL A   1      16.513  55.889   2.543  1.00  0.00    +0.000 C 
ATOM     83  C58 UNL A   1      15.804  55.808   3.659  1.00  0.00    +0.000 C 
ATOM    109  H24 UNL A   1      18.901  53.322  -1.445  1.00  0.00    +0.000 H 
ATOM    110  H25 UNL A   1      18.371  50.838  -2.038  1.00  0.00    +0.000 H 
ATOM    111  H26 UNL A   1      16.111  51.899   1.266  1.00  0.00    +0.000 H 
ATOM    112  H27 UNL A   1      12.171  50.258   6.003  1.00  0.00    +0.000 H 
ATOM    113  H28 UNL A   1      12.623  52.703   6.524  1.00  0.00    +0.000 H 
ATOM    114  H29 UNL A   1      14.883  51.673   3.189  1.00  0.00    +0.000 H 
ATOM    115  H30 UNL A   1      13.655  46.906   2.126  1.00  0.00    +0.000 H 
ATOM    116  H31 UNL A   1      15.303  47.051   0.174  1.00  0.00    +0.000 H 
ATOM    117  H32 UNL A   1      16.945  56.758   2.189  1.00  0.00    +0.000 H 
ATOM    118  H33 UNL A   1      15.612  56.536   4.365  1.00  0.00    +0.000 H 
ENDROOT
BRANCH   27   26
ATOM    107  H22 UNL A   1      14.627  56.221   8.757  1.00  0.00    +0.000 H 
ATOM    108  H23 UNL A   1      15.593  54.818   7.027  1.00  0.00    +0.000 H 
ATOM     84  C59 UNL A   1      12.693  55.577   5.519  1.00  0.00    +0.000 C 
ATOM     85  C60 UNL A   1      12.174  56.443   6.479  1.00  0.00    +0.000 C 
ATOM    120  H35 UNL A   1      11.297  56.954   6.295  1.00  0.00    +0.000 H 
ATOM     23  C17 UNL A   1      12.845  56.618   7.693  1.00  0.00    +0.000 C 
ATOM     24  C18 UNL A   1      14.104  56.041   7.886  1.00  0.00    +0.000 C 
ATOM     25  C19 UNL A   1      14.653  55.223   6.897  1.00  0.00    +0.000 C 
ATOM    119  H34 UNL A   1      12.164  55.398   4.651  1.00  0.00    +0.000 H 
ATOM     26  C20 UNL A   1      13.931  54.948   5.724  1.00  0.00    +0.000 C 
BRANCH   23   21
ATOM     21  C16 UNL A   1      12.249  57.409   8.793  1.00  0.00    +0.000 C 
ATOM     22  O4  UNL A   1      12.379  58.630   8.800  1.00  0.00    +0.000 O 
BRANCH   21   20
ATOM    106  H21 UNL A   1      11.226  57.380  10.512  1.00  0.00    +0.000 H 
ATOM     20  N2  UNL A   1      11.581  56.782   9.816  1.00  0.00    +0.000 N 
BRANCH   20   19
ATOM    105  H20 UNL A   1      11.630  54.846   9.144  1.00  0.00    +0.000 H 
ATOM     19  C15 UNL A   1      11.321  55.366  10.026  1.00  0.00    +0.000 C 
ATOM    104  H19 UNL A   1      10.276  55.235  10.217  1.00  0.00    +0.000 H 
BRANCH   19   18
ATOM     18  C14 UNL A   1      12.107  54.789  11.201  1.00  0.00    +0.000 C 
ATOM    102  H17 UNL A   1      12.276  55.576  11.905  1.00  0.00    +0.000 H 
ATOM    103  H18 UNL A   1      11.514  53.986  11.587  1.00  0.00    +0.000 H 
BRANCH   18   17
ATOM     17  C13 UNL A   1      13.464  54.177  10.842  1.00  0.00    +0.000 C 
ATOM    100  H15 UNL A   1      14.094  54.962  10.481  1.00  0.00    +0.000 H 
ATOM    101  H16 UNL A   1      13.822  53.713  11.738  1.00  0.00    +0.000 H 
BRANCH   17   16
ATOM     98  H13 UNL A   1      12.723  52.333  10.099  1.00  0.00    +0.000 H 
ATOM     99  H14 UNL A   1      13.170  53.554   8.863  1.00  0.00    +0.000 H 
ATOM     16  C12 UNL A   1      13.430  53.072   9.782  1.00  0.00    +0.000 C 
BRANCH   16   15
ATOM     97  H12 UNL A   1      15.480  53.133   9.314  1.00  0.00    +0.000 H 
ATOM     15  C11 UNL A   1      14.766  52.363   9.520  1.00  0.00    +0.000 C 
ATOM     96  H11 UNL A   1      14.629  51.686   8.703  1.00  0.00    +0.000 H 
BRANCH   15   14
ATOM     94  H9  UNL A   1      15.166  52.142  11.601  1.00  0.00    +0.000 H 
ATOM     14  C10 UNL A   1      15.314  51.572  10.708  1.00  0.00    +0.000 C 
ATOM     95  H10 UNL A   1      14.790  50.639  10.755  1.00  0.00    +0.000 H 
BRANCH   14   13
ATOM     13  N1  UNL A   1      16.726  51.288  10.562  1.00  0.00    +0.000 N 
ATOM     93  H8  UNL A   1      17.357  51.653  11.225  1.00  0.00    +0.000 H 
BRANCH   13    2
ATOM      1  O1  UNL A   1      18.059  50.914   8.731  1.00  0.00    +0.000 O 
ATOM      2  C1  UNL A   1      17.213  50.531   9.532  1.00  0.00    +0.000 C 
BRANCH    2    3
ATOM      3  C2  UNL A   1      16.694  49.143   9.431  1.00  0.00    +0.000 C 
ATOM     86  H1  UNL A   1      16.981  48.479  10.167  1.00  0.00    +0.000 H 
BRANCH    3    4
ATOM      4  C3  UNL A   1      15.884  48.676   8.467  1.00  0.00    +0.000 C 
ATOM     87  H2  UNL A   1      16.263  48.556   7.515  1.00  0.00    +0.000 H 
BRANCH    4    5
ATOM      5  C4  UNL A   1      14.476  48.331   8.718  1.00  0.00    +0.000 C 
ATOM      6  C5  UNL A   1      13.418  49.175   8.336  1.00  0.00    +0.000 C 
ATOM      7  C6  UNL A   1      12.089  48.829   8.611  1.00  0.00    +0.000 C 
ATOM      8  C7  UNL A   1      11.822  47.630   9.257  1.00  0.00    +0.000 C 
ATOM     10  C8  UNL A   1      12.863  46.777   9.611  1.00  0.00    +0.000 C 
ATOM     12  C9  UNL A   1      14.184  47.111   9.341  1.00  0.00    +0.000 C 
ATOM     88  H3  UNL A   1      13.623  50.060   7.847  1.00  0.00    +0.000 H 
ATOM     89  H4  UNL A   1      11.319  49.457   8.336  1.00  0.00    +0.000 H 
ATOM     92  H7  UNL A   1      14.946  46.465   9.598  1.00  0.00    +0.000 H 
BRANCH    8    9
ATOM      9  O2  UNL A   1      10.549  47.244   9.570  1.00  0.00    +0.000 O 
ATOM     90  H5  UNL A   1      10.283  47.192  10.467  1.00  0.00    +0.000 H 
ENDBRANCH    8    9
BRANCH   10   11
ATOM     11  O3  UNL A   1      12.593  45.597  10.242  1.00  0.00    +0.000 O 
ATOM     91  H6  UNL A   1      12.038  45.586  10.998  1.00  0.00    +0.000 H 
ENDBRANCH   10   11
ENDBRANCH    4    5
ENDBRANCH    3    4
ENDBRANCH    2    3
ENDBRANCH   13    2
ENDBRANCH   14   13
ENDBRANCH   15   14
ENDBRANCH   16   15
ENDBRANCH   17   16
ENDBRANCH   18   17
ENDBRANCH   19   18
ENDBRANCH   20   19
ENDBRANCH   21   20
ENDBRANCH   23   21
ENDBRANCH   27   26
BRANCH   31   32
ATOM     33  C26 UNL A   1      17.642  56.225  -0.911  1.00  0.00    +0.000 C 
ATOM     34  F1  UNL A   1      16.490  55.868  -1.500  1.00  0.00    +0.000 F 
ATOM     35  C27 UNL A   1      18.370  57.282  -1.451  1.00  0.00    +0.000 C 
ATOM     36  F2  UNL A   1      17.922  57.913  -2.544  1.00  0.00    +0.000 F 
ATOM     37  C28 UNL A   1      19.568  57.669  -0.870  1.00  0.00    +0.000 C 
ATOM     38  F3  UNL A   1      20.268  58.687  -1.389  1.00  0.00    +0.000 F 
ATOM     39  C29 UNL A   1      20.045  56.996   0.245  1.00  0.00    +0.000 C 
ATOM     40  F4  UNL A   1      21.197  57.377   0.815  1.00  0.00    +0.000 F 
ATOM     41  C30 UNL A   1      19.333  55.919   0.769  1.00  0.00    +0.000 C 
ATOM     42  F5  UNL A   1      19.829  55.276   1.837  1.00  0.00    +0.000 F 
ATOM     32  C25 UNL A   1      18.119  55.511   0.199  1.00  0.00    +0.000 C 
ENDBRANCH   31   32
BRANCH   48   49
ATOM     49  C36 UNL A   1      16.877  48.557  -1.276  1.00  0.00    +0.000 C 
ATOM     50  C37 UNL A   1      16.155  48.401  -2.467  1.00  0.00    +0.000 C 
ATOM     51  F6  UNL A   1      15.047  49.125  -2.685  1.00  0.00    +0.000 F 
ATOM     52  C38 UNL A   1      16.550  47.471  -3.426  1.00  0.00    +0.000 C 
ATOM     53  F7  UNL A   1      15.822  47.310  -4.540  1.00  0.00    +0.000 F 
ATOM     54  C39 UNL A   1      17.687  46.704  -3.225  1.00  0.00    +0.000 C 
ATOM     55  F8  UNL A   1      18.069  45.815  -4.152  1.00  0.00    +0.000 F 
ATOM     56  C40 UNL A   1      18.424  46.852  -2.059  1.00  0.00    +0.000 C 
ATOM     57  F9  UNL A   1      19.528  46.118  -1.868  1.00  0.00    +0.000 F 
ATOM     58  C41 UNL A   1      18.017  47.761  -1.086  1.00  0.00    +0.000 C 
ATOM     59  F10 UNL A   1      18.743  47.876   0.035  1.00  0.00    +0.000 F 
ENDBRANCH   48   49
BRANCH   63   64
ATOM     65  C46 UNL A   1      13.071  47.361   5.183  1.00  0.00    +0.000 C 
ATOM     66  F11 UNL A   1      14.350  47.429   5.579  1.00  0.00    +0.000 F 
ATOM     67  C47 UNL A   1      12.246  46.382   5.732  1.00  0.00    +0.000 C 
ATOM     68  F12 UNL A   1      12.736  45.525   6.638  1.00  0.00    +0.000 F 
ATOM     69  C48 UNL A   1      10.919  46.288   5.337  1.00  0.00    +0.000 C 
ATOM     70  F13 UNL A   1      10.123  45.354   5.875  1.00  0.00    +0.000 F 
ATOM     71  C49 UNL A   1      10.421  47.162   4.383  1.00  0.00    +0.000 C 
ATOM     72  F14 UNL A   1       9.136  47.084   4.009  1.00  0.00    +0.000 F 
ATOM     73  C50 UNL A   1      11.252  48.126   3.815  1.00  0.00    +0.000 C 
ATOM     74  F15 UNL A   1      10.744  48.957   2.894  1.00  0.00    +0.000 F 
ATOM     64  C45 UNL A   1      12.591  48.250   4.212  1.00  0.00    +0.000 C 
ENDBRANCH   63   64
TORSDOF 19
ENDMDL
MODEL 4
REMARK VINA RESULT:      -8.0     49.279     55.678
ROOT
ATOM     27  C21 UNL A   1       2.369  11.164  37.673  1.00  0.00    +0.000 C 
ATOM     28  C22 UNL A   1       1.044  10.722  37.123  1.00  0.00    +0.000 C 
ATOM     29  N3  UNL A   1       0.669   9.534  36.721  1.00  0.00    +0.000 N 
ATOM     30  C23 UNL A   1      -0.659   9.664  36.341  1.00  0.00    +0.000 C 
ATOM     31  C24 UNL A   1      -1.479   8.732  35.799  1.00  0.00    +0.000 C 
ATOM     43  C31 UNL A   1      -1.094   7.372  35.522  1.00  0.00    +0.000 C 
ATOM     44  C32 UNL A   1      -1.832   6.372  34.913  1.00  0.00    +0.000 C 
ATOM     45  C33 UNL A   1      -1.065   5.202  34.909  1.00  0.00    +0.000 C 
ATOM     46  C34 UNL A   1       0.167   5.482  35.477  1.00  0.00    +0.000 C 
ATOM     47  N4  UNL A   1       0.136   6.818  35.847  1.00  0.00    +0.000 N 
ATOM     48  C35 UNL A   1       1.291   4.601  35.672  1.00  0.00    +0.000 C 
ATOM     60  C42 UNL A   1       2.485   4.969  36.194  1.00  0.00    +0.000 C 
ATOM     61  N5  UNL A   1       2.887   6.214  36.658  1.00  0.00    +0.000 N 
ATOM     62  C43 UNL A   1       4.118   6.062  37.079  1.00  0.00    +0.000 C 
ATOM     63  C44 UNL A   1       5.048   7.083  37.673  1.00  0.00    +0.000 C 
ATOM     75  C51 UNL A   1       4.644   8.363  37.779  1.00  0.00    +0.000 C 
ATOM     76  C52 UNL A   1       5.439   9.454  38.332  1.00  0.00    +0.000 C 
ATOM     77  C53 UNL A   1       4.695  10.571  38.354  1.00  0.00    +0.000 C 
ATOM     78  C54 UNL A   1       3.379  10.279  37.783  1.00  0.00    +0.000 C 
ATOM     79  N6  UNL A   1       3.450   8.951  37.442  1.00  0.00    +0.000 N 
ATOM     80  C55 UNL A   1       4.636   4.694  36.941  1.00  0.00    +0.000 C 
ATOM     81  C56 UNL A   1       3.613   4.076  36.369  1.00  0.00    +0.000 C 
ATOM     82  C57 UNL A   1      -1.040  11.036  36.609  1.00  0.00    +0.000 C 
ATOM     83  C58 UNL A   1      -0.007  11.747  37.035  1.00  0.00    +0.000 C 
ATOM    109  H24 UNL A   1      -2.784   6.472  34.527  1.00  0.00    +0.000 H 
ATOM    110  H25 UNL A   1      -1.366   4.284  34.545  1.00  0.00    +0.000 H 
ATOM    111  H26 UNL A   1       0.877   7.303  36.277  1.00  0.00    +0.000 H 
ATOM    112  H27 UNL A   1       6.417   9.379  38.655  1.00  0.00    +0.000 H 
ATOM    113  H28 UNL A   1       5.001  11.487  38.715  1.00  0.00    +0.000 H 
ATOM    114  H29 UNL A   1       2.716   8.468  36.998  1.00  0.00    +0.000 H 
ATOM    115  H30 UNL A   1       5.555   4.314  37.217  1.00  0.00    +0.000 H 
ATOM    116  H31 UNL A   1       3.618   3.084  36.085  1.00  0.00    +0.000 H 
ATOM    117  H32 UNL A   1      -1.993  11.411  36.482  1.00  0.00    +0.000 H 
ATOM    118  H33 UNL A   1       0.047  12.754  37.251  1.00  0.00    +0.000 H 
ENDROOT
BRANCH   27   26
ATOM    107  H22 UNL A   1       3.869  15.522  37.341  1.00  0.00    +0.000 H 
ATOM    108  H23 UNL A   1       3.347  13.349  36.394  1.00  0.00    +0.000 H 
ATOM     84  C59 UNL A   1       2.185  12.853  39.503  1.00  0.00    +0.000 C 
ATOM     85  C60 UNL A   1       2.415  14.125  40.022  1.00  0.00    +0.000 C 
ATOM    120  H35 UNL A   1       2.083  14.365  40.968  1.00  0.00    +0.000 H 
ATOM     23  C17 UNL A   1       3.098  15.074  39.256  1.00  0.00    +0.000 C 
ATOM     24  C18 UNL A   1       3.420  14.799  37.924  1.00  0.00    +0.000 C 
ATOM     25  C19 UNL A   1       3.133  13.544  37.384  1.00  0.00    +0.000 C 
ATOM    119  H34 UNL A   1       1.738  12.132  40.092  1.00  0.00    +0.000 H 
ATOM     26  C20 UNL A   1       2.553  12.546  38.184  1.00  0.00    +0.000 C 
BRANCH   23   21
ATOM     21  C16 UNL A   1       3.493  16.381  39.828  1.00  0.00    +0.000 C 
ATOM     22  O4  UNL A   1       2.827  17.380  39.572  1.00  0.00    +0.000 O 
BRANCH   21   20
ATOM    106  H21 UNL A   1       4.505  17.025  41.429  1.00  0.00    +0.000 H 
ATOM     20  N2  UNL A   1       4.614  16.484  40.614  1.00  0.00    +0.000 N 
BRANCH   20   19
ATOM    105  H20 UNL A   1       6.622  16.726  40.278  1.00  0.00    +0.000 H 
ATOM     19  C15 UNL A   1       5.939  15.915  40.423  1.00  0.00    +0.000 C 
ATOM    104  H19 UNL A   1       5.913  15.263  39.575  1.00  0.00    +0.000 H 
BRANCH   19   18
ATOM     18  C14 UNL A   1       6.421  15.120  41.635  1.00  0.00    +0.000 C 
ATOM    102  H17 UNL A   1       7.465  14.925  41.509  1.00  0.00    +0.000 H 
ATOM    103  H18 UNL A   1       6.195  15.721  42.491  1.00  0.00    +0.000 H 
BRANCH   18   17
ATOM     17  C13 UNL A   1       5.715  13.780  41.861  1.00  0.00    +0.000 C 
ATOM    100  H15 UNL A   1       6.131  13.333  42.739  1.00  0.00    +0.000 H 
ATOM    101  H16 UNL A   1       4.673  14.009  41.947  1.00  0.00    +0.000 H 
BRANCH   17   16
ATOM     98  H13 UNL A   1       5.071  12.028  40.853  1.00  0.00    +0.000 H 
ATOM     99  H14 UNL A   1       5.721  13.338  39.813  1.00  0.00    +0.000 H 
ATOM     16  C12 UNL A   1       5.830  12.772  40.714  1.00  0.00    +0.000 C 
BRANCH   16   15
ATOM     97  H12 UNL A   1       6.966  11.004  40.626  1.00  0.00    +0.000 H 
ATOM     15  C11 UNL A   1       7.180  12.052  40.598  1.00  0.00    +0.000 C 
ATOM     96  H11 UNL A   1       7.802  12.376  41.406  1.00  0.00    +0.000 H 
BRANCH   15   14
ATOM     94  H9  UNL A   1       8.948  12.540  39.513  1.00  0.00    +0.000 H 
ATOM     14  C10 UNL A   1       7.928  12.304  39.288  1.00  0.00    +0.000 C 
ATOM     95  H10 UNL A   1       7.860  11.419  38.691  1.00  0.00    +0.000 H 
BRANCH   14   13
ATOM     13  N1  UNL A   1       7.350  13.399  38.538  1.00  0.00    +0.000 N 
ATOM     93  H8  UNL A   1       6.686  13.979  38.977  1.00  0.00    +0.000 H 
BRANCH   13    2
ATOM      1  O1  UNL A   1       8.844  13.833  36.852  1.00  0.00    +0.000 O 
ATOM      2  C1  UNL A   1       7.695  13.653  37.239  1.00  0.00    +0.000 C 
BRANCH    2    3
ATOM      3  C2  UNL A   1       6.586  13.661  36.251  1.00  0.00    +0.000 C 
ATOM     86  H1  UNL A   1       5.677  14.035  36.566  1.00  0.00    +0.000 H 
BRANCH    3    4
ATOM      4  C3  UNL A   1       6.661  13.223  34.984  1.00  0.00    +0.000 C 
ATOM     87  H2  UNL A   1       6.609  12.209  34.804  1.00  0.00    +0.000 H 
BRANCH    4    5
ATOM      5  C4  UNL A   1       6.817  14.137  33.842  1.00  0.00    +0.000 C 
ATOM      6  C5  UNL A   1       6.244  13.871  32.585  1.00  0.00    +0.000 C 
ATOM      7  C6  UNL A   1       6.431  14.748  31.510  1.00  0.00    +0.000 C 
ATOM      8  C7  UNL A   1       7.181  15.900  31.700  1.00  0.00    +0.000 C 
ATOM     10  C8  UNL A   1       7.726  16.184  32.949  1.00  0.00    +0.000 C 
ATOM     12  C9  UNL A   1       7.545  15.320  34.020  1.00  0.00    +0.000 C 
ATOM     88  H3  UNL A   1       5.678  13.017  32.453  1.00  0.00    +0.000 H 
ATOM     89  H4  UNL A   1       6.015  14.542  30.589  1.00  0.00    +0.000 H 
ATOM     92  H7  UNL A   1       7.945  15.547  34.945  1.00  0.00    +0.000 H 
BRANCH    8    9
ATOM      9  O2  UNL A   1       7.416  16.787  30.687  1.00  0.00    +0.000 O 
ATOM     90  H5  UNL A   1       7.391  17.708  30.855  1.00  0.00    +0.000 H 
ENDBRANCH    8    9
BRANCH   10   11
ATOM     11  O3  UNL A   1       8.460  17.322  33.130  1.00  0.00    +0.000 O 
ATOM     91  H6  UNL A   1       9.002  17.644  32.437  1.00  0.00    +0.000 H 
ENDBRANCH   10   11
ENDBRANCH    4    5
ENDBRANCH    3    4
ENDBRANCH    2    3
ENDBRANCH   13    2
ENDBRANCH   14   13
ENDBRANCH   15   14
ENDBRANCH   16   15
ENDBRANCH   17   16
ENDBRANCH   18   17
ENDBRANCH   19   18
ENDBRANCH   20   19
ENDBRANCH   21   20
ENDBRANCH   23   21
ENDBRANCH   27   26
BRANCH   31   32
ATOM     33  C26 UNL A   1      -3.208   9.690  34.212  1.00  0.00    +0.000 C 
ATOM     34  F1  UNL A   1      -2.256   9.859  33.281  1.00  0.00    +0.000 F 
ATOM     35  C27 UNL A   1      -4.508  10.097  33.922  1.00  0.00    +0.000 C 
ATOM     36  F2  UNL A   1      -4.785  10.653  32.735  1.00  0.00    +0.000 F 
ATOM     37  C28 UNL A   1      -5.512   9.943  34.866  1.00  0.00    +0.000 C 
ATOM     38  F3  UNL A   1      -6.763  10.333  34.586  1.00  0.00    +0.000 F 
ATOM     39  C29 UNL A   1      -5.217   9.392  36.105  1.00  0.00    +0.000 C 
ATOM     40  F4  UNL A   1      -6.189   9.232  37.014  1.00  0.00    +0.000 F 
ATOM     41  C30 UNL A   1      -3.911   9.012  36.408  1.00  0.00    +0.000 C 
ATOM     42  F5  UNL A   1      -3.654   8.501  37.621  1.00  0.00    +0.000 F 
ATOM     32  C25 UNL A   1      -2.880   9.157  35.468  1.00  0.00    +0.000 C 
ENDBRANCH   31   32
BRANCH   48   49
ATOM     49  C36 UNL A   1       1.139   3.168  35.252  1.00  0.00    +0.000 C 
ATOM     50  C37 UNL A   1       0.644   2.197  36.134  1.00  0.00    +0.000 C 
ATOM     51  F6  UNL A   1       0.344   2.525  37.400  1.00  0.00    +0.000 F 
ATOM     52  C38 UNL A   1       0.489   0.874  35.727  1.00  0.00    +0.000 C 
ATOM     53  F7  UNL A   1       0.053  -0.046  36.598  1.00  0.00    +0.000 F 
ATOM     54  C39 UNL A   1       0.798   0.505  34.427  1.00  0.00    +0.000 C 
ATOM     55  F8  UNL A   1       0.642  -0.767  34.035  1.00  0.00    +0.000 F 
ATOM     56  C40 UNL A   1       1.276   1.453  33.534  1.00  0.00    +0.000 C 
ATOM     57  F9  UNL A   1       1.566   1.099  32.274  1.00  0.00    +0.000 F 
ATOM     58  C41 UNL A   1       1.457   2.771  33.945  1.00  0.00    +0.000 C 
ATOM     59  F10 UNL A   1       1.930   3.663  33.063  1.00  0.00    +0.000 F 
ENDBRANCH   48   49
BRANCH   63   64
ATOM     65  C46 UNL A   1       6.595   6.000  39.327  1.00  0.00    +0.000 C 
ATOM     66  F11 UNL A   1       5.540   5.700  40.098  1.00  0.00    +0.000 F 
ATOM     67  C47 UNL A   1       7.869   5.624  39.747  1.00  0.00    +0.000 C 
ATOM     68  F12 UNL A   1       8.024   4.975  40.909  1.00  0.00    +0.000 F 
ATOM     69  C48 UNL A   1       8.977   5.926  38.969  1.00  0.00    +0.000 C 
ATOM     70  F13 UNL A   1      10.200   5.553  39.368  1.00  0.00    +0.000 F 
ATOM     71  C49 UNL A   1       8.815   6.619  37.778  1.00  0.00    +0.000 C 
ATOM     72  F14 UNL A   1       9.881   6.900  37.017  1.00  0.00    +0.000 F 
ATOM     73  C50 UNL A   1       7.544   7.017  37.369  1.00  0.00    +0.000 C 
ATOM     74  F15 UNL A   1       7.416   7.686  36.214  1.00  0.00    +0.000 F 
ATOM     64  C45 UNL A   1       6.409   6.707  38.131  1.00  0.00    +0.000 C 
ENDBRANCH   63   64
TORSDOF 19
ENDMDL
MODEL 5
REMARK VINA RESULT:      -7.9     46.322     51.071
ROOT
ATOM     27  C21 UNL A   1      52.649  20.323  11.648  1.00  0.00    +0.000 C 
ATOM     28  C22 UNL A   1      52.516  20.909  13.023  1.00  0.00    +0.000 C 
ATOM     29  N3  UNL A   1      53.394  20.953  13.993  1.00  0.00    +0.000 N 
ATOM     30  C23 UNL A   1      52.775  21.632  15.033  1.00  0.00    +0.000 C 
ATOM     31  C24 UNL A   1      53.249  21.886  16.277  1.00  0.00    +0.000 C 
ATOM     43  C31 UNL A   1      54.546  21.482  16.752  1.00  0.00    +0.000 C 
ATOM     44  C32 UNL A   1      55.089  21.632  18.016  1.00  0.00    +0.000 C 
ATOM     45  C33 UNL A   1      56.398  21.136  17.993  1.00  0.00    +0.000 C 
ATOM     46  C34 UNL A   1      56.656  20.637  16.727  1.00  0.00    +0.000 C 
ATOM     47  N4  UNL A   1      55.511  20.854  15.976  1.00  0.00    +0.000 N 
ATOM     48  C35 UNL A   1      57.856  20.010  16.233  1.00  0.00    +0.000 C 
ATOM     60  C42 UNL A   1      58.011  19.501  14.987  1.00  0.00    +0.000 C 
ATOM     61  N5  UNL A   1      57.104  19.479  13.937  1.00  0.00    +0.000 N 
ATOM     62  C43 UNL A   1      57.723  18.897  12.939  1.00  0.00    +0.000 C 
ATOM     63  C44 UNL A   1      57.215  18.598  11.557  1.00  0.00    +0.000 C 
ATOM     75  C51 UNL A   1      55.942  18.901  11.239  1.00  0.00    +0.000 C 
ATOM     76  C52 UNL A   1      55.318  18.665   9.941  1.00  0.00    +0.000 C 
ATOM     77  C53 UNL A   1      54.071  19.160   9.959  1.00  0.00    +0.000 C 
ATOM     78  C54 UNL A   1      53.797  19.718  11.284  1.00  0.00    +0.000 C 
ATOM     79  N6  UNL A   1      54.954  19.492  11.987  1.00  0.00    +0.000 N 
ATOM     80  C55 UNL A   1      59.104  18.495  13.240  1.00  0.00    +0.000 C 
ATOM     81  C56 UNL A   1      59.218  18.858  14.510  1.00  0.00    +0.000 C 
ATOM     82  C57 UNL A   1      51.466  22.027  14.557  1.00  0.00    +0.000 C 
ATOM     83  C58 UNL A   1      51.233  21.551  13.343  1.00  0.00    +0.000 C 
ATOM    109  H24 UNL A   1      54.612  22.040  18.835  1.00  0.00    +0.000 H 
ATOM    110  H25 UNL A   1      57.060  21.141  18.786  1.00  0.00    +0.000 H 
ATOM    111  H26 UNL A   1      55.398  20.600  15.032  1.00  0.00    +0.000 H 
ATOM    112  H27 UNL A   1      55.765  18.194   9.139  1.00  0.00    +0.000 H 
ATOM    113  H28 UNL A   1      53.412  19.150   9.166  1.00  0.00    +0.000 H 
ATOM    114  H29 UNL A   1      55.065  19.731  12.936  1.00  0.00    +0.000 H 
ATOM    115  H30 UNL A   1      59.801  18.047  12.625  1.00  0.00    +0.000 H 
ATOM    116  H31 UNL A   1      60.060  18.703  15.085  1.00  0.00    +0.000 H 
ATOM    117  H32 UNL A   1      50.800  22.604  15.095  1.00  0.00    +0.000 H 
ATOM    118  H33 UNL A   1      50.376  21.616  12.771  1.00  0.00    +0.000 H 
ENDROOT
BRANCH   27   26
ATOM    107  H22 UNL A   1      48.940  18.855   9.314  1.00  0.00    +0.000 H 
ATOM    108  H23 UNL A   1      50.548  18.686  11.125  1.00  0.00    +0.000 H 
ATOM     84  C59 UNL A   1      51.538  21.617   9.824  1.00  0.00    +0.000 C 
ATOM     85  C60 UNL A   1      50.568  21.749   8.834  1.00  0.00    +0.000 C 
ATOM    120  H35 UNL A   1      50.513  22.615   8.275  1.00  0.00    +0.000 H 
ATOM     23  C17 UNL A   1      49.667  20.706   8.600  1.00  0.00    +0.000 C 
ATOM     24  C18 UNL A   1      49.645  19.596   9.450  1.00  0.00    +0.000 C 
ATOM     25  C19 UNL A   1      50.580  19.492  10.482  1.00  0.00    +0.000 C 
ATOM    119  H34 UNL A   1      52.244  22.360   9.953  1.00  0.00    +0.000 H 
ATOM     26  C20 UNL A   1      51.563  20.482  10.649  1.00  0.00    +0.000 C 
BRANCH   23   21
ATOM     21  C16 UNL A   1      48.723  20.748   7.461  1.00  0.00    +0.000 C 
ATOM     22  O4  UNL A   1      48.392  21.832   6.988  1.00  0.00    +0.000 O 
BRANCH   21   20
ATOM    106  H21 UNL A   1      47.267  19.397   7.223  1.00  0.00    +0.000 H 
ATOM     20  N2  UNL A   1      48.195  19.587   6.954  1.00  0.00    +0.000 N 
BRANCH   20   19
ATOM    105  H20 UNL A   1      49.857  18.622   6.240  1.00  0.00    +0.000 H 
ATOM     19  C15 UNL A   1      48.799  18.595   6.078  1.00  0.00    +0.000 C 
ATOM    104  H19 UNL A   1      48.549  18.835   5.065  1.00  0.00    +0.000 H 
BRANCH   19   18
ATOM     18  C14 UNL A   1      48.323  17.175   6.375  1.00  0.00    +0.000 C 
ATOM    102  H17 UNL A   1      49.181  16.536   6.398  1.00  0.00    +0.000 H 
ATOM    103  H18 UNL A   1      47.802  17.229   7.308  1.00  0.00    +0.000 H 
BRANCH   18   17
ATOM     17  C13 UNL A   1      47.329  16.594   5.367  1.00  0.00    +0.000 C 
ATOM    100  H15 UNL A   1      47.571  16.986   4.402  1.00  0.00    +0.000 H 
ATOM    101  H16 UNL A   1      47.428  15.530   5.437  1.00  0.00    +0.000 H 
BRANCH   17   16
ATOM     98  H13 UNL A   1      45.382  15.986   5.952  1.00  0.00    +0.000 H 
ATOM     99  H14 UNL A   1      45.846  17.661   6.394  1.00  0.00    +0.000 H 
ATOM     16  C12 UNL A   1      45.854  16.897   5.645  1.00  0.00    +0.000 C 
BRANCH   16   15
ATOM     97  H12 UNL A   1      44.151  17.857   4.868  1.00  0.00    +0.000 H 
ATOM     15  C11 UNL A   1      45.059  17.463   4.461  1.00  0.00    +0.000 C 
ATOM     96  H11 UNL A   1      44.896  16.671   3.759  1.00  0.00    +0.000 H 
BRANCH   15   14
ATOM     94  H9  UNL A   1      46.694  18.799   4.176  1.00  0.00    +0.000 H 
ATOM     14  C10 UNL A   1      45.740  18.618   3.726  1.00  0.00    +0.000 C 
ATOM     95  H10 UNL A   1      45.846  18.340   2.698  1.00  0.00    +0.000 H 
BRANCH   14   13
ATOM     13  N1  UNL A   1      44.955  19.833   3.785  1.00  0.00    +0.000 N 
ATOM     93  H8  UNL A   1      44.843  20.286   4.653  1.00  0.00    +0.000 H 
BRANCH   13    2
ATOM      1  O1  UNL A   1      44.567  21.510   2.267  1.00  0.00    +0.000 O 
ATOM      2  C1  UNL A   1      44.364  20.372   2.675  1.00  0.00    +0.000 C 
BRANCH    2    3
ATOM      3  C2  UNL A   1      43.457  19.477   1.912  1.00  0.00    +0.000 C 
ATOM     86  H1  UNL A   1      43.857  18.981   1.101  1.00  0.00    +0.000 H 
BRANCH    3    4
ATOM      4  C3  UNL A   1      42.160  19.258   2.184  1.00  0.00    +0.000 C 
ATOM     87  H2  UNL A   1      41.914  18.547   2.890  1.00  0.00    +0.000 H 
BRANCH    4    5
ATOM      5  C4  UNL A   1      41.077  19.992   1.513  1.00  0.00    +0.000 C 
ATOM      6  C5  UNL A   1      41.303  20.784   0.372  1.00  0.00    +0.000 C 
ATOM      7  C6  UNL A   1      40.255  21.491  -0.229  1.00  0.00    +0.000 C 
ATOM      8  C7  UNL A   1      38.978  21.393   0.305  1.00  0.00    +0.000 C 
ATOM     10  C8  UNL A   1      38.742  20.588   1.416  1.00  0.00    +0.000 C 
ATOM     12  C9  UNL A   1      39.775  19.883   2.019  1.00  0.00    +0.000 C 
ATOM     88  H3  UNL A   1      42.253  20.844  -0.026  1.00  0.00    +0.000 H 
ATOM     89  H4  UNL A   1      40.430  22.077  -1.061  1.00  0.00    +0.000 H 
ATOM     92  H7  UNL A   1      39.586  19.280   2.835  1.00  0.00    +0.000 H 
BRANCH    8    9
ATOM      9  O2  UNL A   1      37.917  22.073  -0.224  1.00  0.00    +0.000 O 
ATOM     90  H5  UNL A   1      37.874  22.230  -1.147  1.00  0.00    +0.000 H 
ENDBRANCH    8    9
BRANCH   10   11
ATOM     11  O3  UNL A   1      37.483  20.493   1.934  1.00  0.00    +0.000 O 
ATOM     91  H6  UNL A   1      36.817  21.093   1.660  1.00  0.00    +0.000 H 
ENDBRANCH   10   11
ENDBRANCH    4    5
ENDBRANCH    3    4
ENDBRANCH    2    3
ENDBRANCH   13    2
ENDBRANCH   14   13
ENDBRANCH   15   14
ENDBRANCH   16   15
ENDBRANCH   17   16
ENDBRANCH   18   17
ENDBRANCH   19   18
ENDBRANCH   20   19
ENDBRANCH   21   20
ENDBRANCH   23   21
ENDBRANCH   27   26
BRANCH   31   32
ATOM     33  C26 UNL A   1      51.559  21.974  18.165  1.00  0.00    +0.000 C 
ATOM     34  F1  UNL A   1      51.571  20.633  18.235  1.00  0.00    +0.000 F 
ATOM     35  C27 UNL A   1      50.716  22.681  19.019  1.00  0.00    +0.000 C 
ATOM     36  F2  UNL A   1      49.931  22.021  19.881  1.00  0.00    +0.000 F 
ATOM     37  C28 UNL A   1      50.676  24.066  18.965  1.00  0.00    +0.000 C 
ATOM     38  F3  UNL A   1      49.865  24.746  19.788  1.00  0.00    +0.000 F 
ATOM     39  C29 UNL A   1      51.469  24.746  18.053  1.00  0.00    +0.000 C 
ATOM     40  F4  UNL A   1      51.439  26.085  18.009  1.00  0.00    +0.000 F 
ATOM     41  C30 UNL A   1      52.290  24.039  17.178  1.00  0.00    +0.000 C 
ATOM     42  F5  UNL A   1      53.031  24.724  16.294  1.00  0.00    +0.000 F 
ATOM     32  C25 UNL A   1      52.349  22.639  17.215  1.00  0.00    +0.000 C 
ENDBRANCH   31   32
BRANCH   48   49
ATOM     49  C36 UNL A   1      59.022  19.894  17.170  1.00  0.00    +0.000 C 
ATOM     50  C37 UNL A   1      59.841  20.995  17.458  1.00  0.00    +0.000 C 
ATOM     51  F6  UNL A   1      59.626  22.173  16.853  1.00  0.00    +0.000 F 
ATOM     52  C38 UNL A   1      60.909  20.880  18.345  1.00  0.00    +0.000 C 
ATOM     53  F7  UNL A   1      61.704  21.934  18.574  1.00  0.00    +0.000 F 
ATOM     54  C39 UNL A   1      61.160  19.673  18.980  1.00  0.00    +0.000 C 
ATOM     55  F8  UNL A   1      62.184  19.566  19.837  1.00  0.00    +0.000 F 
ATOM     56  C40 UNL A   1      60.353  18.575  18.720  1.00  0.00    +0.000 C 
ATOM     57  F9  UNL A   1      60.589  17.410  19.341  1.00  0.00    +0.000 F 
ATOM     58  C41 UNL A   1      59.301  18.679  17.815  1.00  0.00    +0.000 C 
ATOM     59  F10 UNL A   1      58.545  17.597  17.576  1.00  0.00    +0.000 F 
ENDBRANCH   48   49
BRANCH   63   64
ATOM     65  C46 UNL A   1      58.137  16.566  10.406  1.00  0.00    +0.000 C 
ATOM     66  F11 UNL A   1      57.427  15.789  11.236  1.00  0.00    +0.000 F 
ATOM     67  C47 UNL A   1      58.936  15.966   9.435  1.00  0.00    +0.000 C 
ATOM     68  F12 UNL A   1      58.988  14.629   9.346  1.00  0.00    +0.000 F 
ATOM     69  C48 UNL A   1      59.683  16.747   8.566  1.00  0.00    +0.000 C 
ATOM     70  F13 UNL A   1      60.441  16.169   7.625  1.00  0.00    +0.000 F 
ATOM     71  C49 UNL A   1      59.643  18.129   8.676  1.00  0.00    +0.000 C 
ATOM     72  F14 UNL A   1      60.352  18.888   7.829  1.00  0.00    +0.000 F 
ATOM     73  C50 UNL A   1      58.864  18.730   9.661  1.00  0.00    +0.000 C 
ATOM     74  F15 UNL A   1      58.845  20.068   9.746  1.00  0.00    +0.000 F 
ATOM     64  C45 UNL A   1      58.088  17.961  10.539  1.00  0.00    +0.000 C 
ENDBRANCH   63   64
TORSDOF 19
ENDMDL
MODEL 6
REMARK VINA RESULT:      -7.9     46.883     51.547
ROOT
ATOM     27  C21 UNL A   1      53.605  19.721  11.774  1.00  0.00    +0.000 C 
ATOM     28  C22 UNL A   1      54.976  19.122  11.649  1.00  0.00    +0.000 C 
ATOM     29  N3  UNL A   1      55.971  19.147  12.500  1.00  0.00    +0.000 N 
ATOM     30  C23 UNL A   1      56.992  18.416  11.910  1.00  0.00    +0.000 C 
ATOM     31  C24 UNL A   1      58.249  18.198  12.367  1.00  0.00    +0.000 C 
ATOM     43  C31 UNL A   1      58.761  18.705  13.613  1.00  0.00    +0.000 C 
ATOM     44  C32 UNL A   1      60.039  18.595  14.131  1.00  0.00    +0.000 C 
ATOM     45  C33 UNL A   1      60.054  19.196  15.395  1.00  0.00    +0.000 C 
ATOM     46  C34 UNL A   1      58.796  19.719  15.647  1.00  0.00    +0.000 C 
ATOM     47  N4  UNL A   1      58.013  19.411  14.545  1.00  0.00    +0.000 N 
ATOM     48  C35 UNL A   1      58.337  20.442  16.806  1.00  0.00    +0.000 C 
ATOM     60  C42 UNL A   1      57.096  20.966  16.954  1.00  0.00    +0.000 C 
ATOM     61  N5  UNL A   1      56.021  20.918  16.078  1.00  0.00    +0.000 N 
ATOM     62  C43 UNL A   1      55.041  21.551  16.676  1.00  0.00    +0.000 C 
ATOM     63  C44 UNL A   1      53.645  21.812  16.185  1.00  0.00    +0.000 C 
ATOM     75  C51 UNL A   1      53.291  21.407  14.950  1.00  0.00    +0.000 C 
ATOM     76  C52 UNL A   1      51.977  21.595  14.346  1.00  0.00    +0.000 C 
ATOM     77  C53 UNL A   1      51.958  21.000  13.143  1.00  0.00    +0.000 C 
ATOM     78  C54 UNL A   1      53.275  20.418  12.877  1.00  0.00    +0.000 C 
ATOM     79  N6  UNL A   1      54.010  20.736  13.992  1.00  0.00    +0.000 N 
ATOM     80  C55 UNL A   1      55.381  22.063  18.010  1.00  0.00    +0.000 C 
ATOM     81  C56 UNL A   1      56.653  21.706  18.118  1.00  0.00    +0.000 C 
ATOM     82  C57 UNL A   1      56.479  17.918  10.651  1.00  0.00    +0.000 C 
ATOM     83  C58 UNL A   1      55.259  18.377  10.414  1.00  0.00    +0.000 C 
ATOM    109  H24 UNL A   1      60.844  18.148  13.666  1.00  0.00    +0.000 H 
ATOM    110  H25 UNL A   1      60.865  19.243  16.032  1.00  0.00    +0.000 H 
ATOM    111  H26 UNL A   1      57.066  19.658  14.439  1.00  0.00    +0.000 H 
ATOM    112  H27 UNL A   1      51.187  22.104  14.775  1.00  0.00    +0.000 H 
ATOM    113  H28 UNL A   1      51.147  20.959  12.507  1.00  0.00    +0.000 H 
ATOM    114  H29 UNL A   1      54.962  20.504  14.095  1.00  0.00    +0.000 H 
ATOM    115  H30 UNL A   1      54.787  22.567  18.686  1.00  0.00    +0.000 H 
ATOM    116  H31 UNL A   1      57.253  21.927  18.928  1.00  0.00    +0.000 H 
ATOM    117  H32 UNL A   1      56.998  17.287  10.019  1.00  0.00    +0.000 H 
ATOM    118  H33 UNL A   1      54.663  18.244   9.582  1.00  0.00    +0.000 H 
ENDROOT
BRANCH   27   26
ATOM    107  H22 UNL A   1      50.483  17.109   9.585  1.00  0.00    +0.000 H 
ATOM    108  H23 UNL A   1      51.970  17.580  11.446  1.00  0.00    +0.000 H 
ATOM     84  C59 UNL A   1      52.346  20.447   9.744  1.00  0.00    +0.000 C 
ATOM     85  C60 UNL A   1      51.435  20.207   8.718  1.00  0.00    +0.000 C 
ATOM    120  H35 UNL A   1      51.220  20.947   8.033  1.00  0.00    +0.000 H 
ATOM     23  C17 UNL A   1      50.812  18.959   8.619  1.00  0.00    +0.000 C 
ATOM     24  C18 UNL A   1      50.991  18.006   9.627  1.00  0.00    +0.000 C 
ATOM     25  C19 UNL A   1      51.857  18.272  10.689  1.00  0.00    +0.000 C 
ATOM    119  H34 UNL A   1      52.854  21.345   9.779  1.00  0.00    +0.000 H 
ATOM     26  C20 UNL A   1      52.576  19.477  10.732  1.00  0.00    +0.000 C 
BRANCH   23   21
ATOM     21  C16 UNL A   1      49.957  18.617   7.461  1.00  0.00    +0.000 C 
ATOM     22  O4  UNL A   1      49.533  17.472   7.338  1.00  0.00    +0.000 O 
BRANCH   21   20
ATOM    106  H21 UNL A   1      49.995  20.470   6.707  1.00  0.00    +0.000 H 
ATOM     20  N2  UNL A   1      49.665  19.565   6.510  1.00  0.00    +0.000 N 
BRANCH   20   19
ATOM    105  H20 UNL A   1      49.087  18.431   4.903  1.00  0.00    +0.000 H 
ATOM     19  C15 UNL A   1      48.939  19.430   5.256  1.00  0.00    +0.000 C 
ATOM    104  H19 UNL A   1      49.315  20.154   4.564  1.00  0.00    +0.000 H 
BRANCH   19   18
ATOM     18  C14 UNL A   1      47.436  19.643   5.418  1.00  0.00    +0.000 C 
ATOM    102  H17 UNL A   1      47.279  20.241   6.291  1.00  0.00    +0.000 H 
ATOM    103  H18 UNL A   1      47.106  20.110   4.513  1.00  0.00    +0.000 H 
BRANCH   18   17
ATOM     17  C13 UNL A   1      46.605  18.366   5.563  1.00  0.00    +0.000 C 
ATOM    100  H15 UNL A   1      46.652  18.058   6.587  1.00  0.00    +0.000 H 
ATOM    101  H16 UNL A   1      45.619  18.619   5.233  1.00  0.00    +0.000 H 
BRANCH   17   16
ATOM     98  H13 UNL A   1      48.119  17.206   4.634  1.00  0.00    +0.000 H 
ATOM     99  H14 UNL A   1      46.659  16.310   5.165  1.00  0.00    +0.000 H 
ATOM     16  C12 UNL A   1      47.050  17.187   4.693  1.00  0.00    +0.000 C 
BRANCH   16   15
ATOM     97  H12 UNL A   1      46.481  16.149   2.954  1.00  0.00    +0.000 H 
ATOM     15  C11 UNL A   1      46.498  17.174   3.262  1.00  0.00    +0.000 C 
ATOM     96  H11 UNL A   1      47.133  17.785   2.654  1.00  0.00    +0.000 H 
BRANCH   15   14
ATOM     94  H9  UNL A   1      44.489  16.969   2.583  1.00  0.00    +0.000 H 
ATOM     14  C10 UNL A   1      45.066  17.691   3.123  1.00  0.00    +0.000 C 
ATOM     95  H10 UNL A   1      44.671  17.841   4.107  1.00  0.00    +0.000 H 
BRANCH   14   13
ATOM     13  N1  UNL A   1      45.014  18.954   2.419  1.00  0.00    +0.000 N 
ATOM     93  H8  UNL A   1      45.677  19.134   1.714  1.00  0.00    +0.000 H 
BRANCH   13    2
ATOM      1  O1  UNL A   1      44.234  20.821   3.503  1.00  0.00    +0.000 O 
ATOM      2  C1  UNL A   1      44.073  19.907   2.702  1.00  0.00    +0.000 C 
BRANCH    2    3
ATOM      3  C2  UNL A   1      42.801  19.824   1.941  1.00  0.00    +0.000 C 
ATOM     86  H1  UNL A   1      42.300  18.922   1.957  1.00  0.00    +0.000 H 
BRANCH    3    4
ATOM      4  C3  UNL A   1      42.244  20.820   1.232  1.00  0.00    +0.000 C 
ATOM     87  H2  UNL A   1      42.843  21.597   0.912  1.00  0.00    +0.000 H 
BRANCH    4    5
ATOM      5  C4  UNL A   1      40.813  20.845   0.896  1.00  0.00    +0.000 C 
ATOM      6  C5  UNL A   1      39.824  20.403   1.793  1.00  0.00    +0.000 C 
ATOM      7  C6  UNL A   1      38.471  20.416   1.433  1.00  0.00    +0.000 C 
ATOM      8  C7  UNL A   1      38.109  20.886   0.179  1.00  0.00    +0.000 C 
ATOM     10  C8  UNL A   1      39.080  21.352  -0.703  1.00  0.00    +0.000 C 
ATOM     12  C9  UNL A   1      40.424  21.343  -0.354  1.00  0.00    +0.000 C 
ATOM     88  H3  UNL A   1      40.099  20.064   2.728  1.00  0.00    +0.000 H 
ATOM     89  H4  UNL A   1      37.752  20.082   2.094  1.00  0.00    +0.000 H 
ATOM     92  H7  UNL A   1      41.134  21.702  -1.012  1.00  0.00    +0.000 H 
BRANCH    8    9
ATOM      9  O2  UNL A   1      36.808  20.906  -0.239  1.00  0.00    +0.000 O 
ATOM     90  H5  UNL A   1      36.541  21.500  -0.914  1.00  0.00    +0.000 H 
ENDBRANCH    8    9
BRANCH   10   11
ATOM     11  O3  UNL A   1      38.716  21.816  -1.934  1.00  0.00    +0.000 O 
ATOM     91  H6  UNL A   1      38.615  22.737  -2.077  1.00  0.00    +0.000 H 
ENDBRANCH   10   11
ENDBRANCH    4    5
ENDBRANCH    3    4
ENDBRANCH    2    3
ENDBRANCH   13    2
ENDBRANCH   14   13
ENDBRANCH   15   14
ENDBRANCH   16   15
ENDBRANCH   17   16
ENDBRANCH   18   17
ENDBRANCH   19   18
ENDBRANCH   20   19
ENDBRANCH   21   20
ENDBRANCH   23   21
ENDBRANCH   27   26
BRANCH   31   32
ATOM     33  C26 UNL A   1      59.991  17.962  10.540  1.00  0.00    +0.000 C 
ATOM     34  F1  UNL A   1      59.965  19.290  10.347  1.00  0.00    +0.000 F 
ATOM     35  C27 UNL A   1      60.820  17.184   9.736  1.00  0.00    +0.000 C 
ATOM     36  F2  UNL A   1      61.564  17.765   8.784  1.00  0.00    +0.000 F 
ATOM     37  C28 UNL A   1      60.864  15.809   9.906  1.00  0.00    +0.000 C 
ATOM     38  F3  UNL A   1      61.663  15.061   9.133  1.00  0.00    +0.000 F 
ATOM     39  C29 UNL A   1      60.072  15.207  10.873  1.00  0.00    +0.000 C 
ATOM     40  F4  UNL A   1      60.122  13.879  11.046  1.00  0.00    +0.000 F 
ATOM     41  C30 UNL A   1      59.220  15.980  11.659  1.00  0.00    +0.000 C 
ATOM     42  F5  UNL A   1      58.452  15.366  12.572  1.00  0.00    +0.000 F 
ATOM     32  C25 UNL A   1      59.160  17.372  11.505  1.00  0.00    +0.000 C 
ENDBRANCH   31   32
BRANCH   48   49
ATOM     49  C36 UNL A   1      59.307  20.651  17.932  1.00  0.00    +0.000 C 
ATOM     50  C37 UNL A   1      60.072  21.821  18.031  1.00  0.00    +0.000 C 
ATOM     51  F6  UNL A   1      59.987  22.765  17.080  1.00  0.00    +0.000 F 
ATOM     52  C38 UNL A   1      60.954  22.013  19.091  1.00  0.00    +0.000 C 
ATOM     53  F7  UNL A   1      61.705  23.121  19.144  1.00  0.00    +0.000 F 
ATOM     54  C39 UNL A   1      61.067  21.052  20.084  1.00  0.00    +0.000 C 
ATOM     55  F8  UNL A   1      61.912  21.240  21.107  1.00  0.00    +0.000 F 
ATOM     56  C40 UNL A   1      60.310  19.892  20.013  1.00  0.00    +0.000 C 
ATOM     57  F9  UNL A   1      60.411  18.967  20.978  1.00  0.00    +0.000 F 
ATOM     58  C41 UNL A   1      59.446  19.686  18.941  1.00  0.00    +0.000 C 
ATOM     59  F10 UNL A   1      58.734  18.550  18.894  1.00  0.00    +0.000 F 
ENDBRANCH   48   49
BRANCH   63   64
ATOM     65  C46 UNL A   1      52.426  23.895  16.874  1.00  0.00    +0.000 C 
ATOM     66  F11 UNL A   1      53.145  24.595  15.985  1.00  0.00    +0.000 F 
ATOM     67  C47 UNL A   1      51.478  24.559  17.650  1.00  0.00    +0.000 C 
ATOM     68  F12 UNL A   1      51.300  25.879  17.502  1.00  0.00    +0.000 F 
ATOM     69  C48 UNL A   1      50.724  23.858  18.579  1.00  0.00    +0.000 C 
ATOM     70  F13 UNL A   1      49.804  24.495  19.316  1.00  0.00    +0.000 F 
ATOM     71  C49 UNL A   1      50.927  22.496  18.746  1.00  0.00    +0.000 C 
ATOM     72  F14 UNL A   1      50.191  21.813  19.632  1.00  0.00    +0.000 F 
ATOM     73  C50 UNL A   1      51.892  21.836  17.989  1.00  0.00    +0.000 C 
ATOM     74  F15 UNL A   1      52.069  20.519  18.170  1.00  0.00    +0.000 F 
ATOM     64  C45 UNL A   1      52.653  22.521  17.031  1.00  0.00    +0.000 C 
ENDBRANCH   63   64
TORSDOF 19
ENDMDL
MODEL 7
REMARK VINA RESULT:      -7.8     45.047     48.067
ROOT
ATOM     27  C21 UNL A   1      24.468  39.230  47.033  1.00  0.00    +0.000 C 
ATOM     28  C22 UNL A   1      23.737  40.252  47.855  1.00  0.00    +0.000 C 
ATOM     29  N3  UNL A   1      22.546  40.184  48.393  1.00  0.00    +0.000 N 
ATOM     30  C23 UNL A   1      22.368  41.380  49.073  1.00  0.00    +0.000 C 
ATOM     31  C24 UNL A   1      21.275  41.817  49.743  1.00  0.00    +0.000 C 
ATOM     43  C31 UNL A   1      20.052  41.070  49.881  1.00  0.00    +0.000 C 
ATOM     44  C32 UNL A   1      18.867  41.455  50.483  1.00  0.00    +0.000 C 
ATOM     45  C33 UNL A   1      17.974  40.379  50.422  1.00  0.00    +0.000 C 
ATOM     46  C34 UNL A   1      18.587  39.338  49.744  1.00  0.00    +0.000 C 
ATOM     47  N4  UNL A   1      19.861  39.776  49.416  1.00  0.00    +0.000 N 
ATOM     48  C35 UNL A   1      18.056  38.038  49.419  1.00  0.00    +0.000 C 
ATOM     60  C42 UNL A   1      18.707  37.089  48.705  1.00  0.00    +0.000 C 
ATOM     61  N5  UNL A   1      19.982  37.132  48.159  1.00  0.00    +0.000 N 
ATOM     62  C43 UNL A   1      20.165  35.970  47.579  1.00  0.00    +0.000 C 
ATOM     63  C44 UNL A   1      21.363  35.469  46.823  1.00  0.00    +0.000 C 
ATOM     75  C51 UNL A   1      22.418  36.286  46.637  1.00  0.00    +0.000 C 
ATOM     76  C52 UNL A   1      23.641  35.934  45.924  1.00  0.00    +0.000 C 
ATOM     77  C53 UNL A   1      24.504  36.959  46.002  1.00  0.00    +0.000 C 
ATOM     78  C54 UNL A   1      23.878  38.055  46.742  1.00  0.00    +0.000 C 
ATOM     79  N6  UNL A   1      22.629  37.577  47.054  1.00  0.00    +0.000 N 
ATOM     80  C55 UNL A   1      19.026  35.050  47.703  1.00  0.00    +0.000 C 
ATOM     81  C56 UNL A   1      18.154  35.792  48.371  1.00  0.00    +0.000 C 
ATOM     82  C57 UNL A   1      23.595  42.135  48.923  1.00  0.00    +0.000 C 
ATOM     83  C58 UNL A   1      24.450  41.509  48.128  1.00  0.00    +0.000 C 
ATOM    109  H24 UNL A   1      18.674  42.377  50.904  1.00  0.00    +0.000 H 
ATOM    110  H25 UNL A   1      17.020  40.363  50.815  1.00  0.00    +0.000 H 
ATOM    111  H26 UNL A   1      20.532  39.247  48.926  1.00  0.00    +0.000 H 
ATOM    112  H27 UNL A   1      23.815  35.040  45.439  1.00  0.00    +0.000 H 
ATOM    113  H28 UNL A   1      25.455  36.972  45.604  1.00  0.00    +0.000 H 
ATOM    114  H29 UNL A   1      21.951  38.108  47.531  1.00  0.00    +0.000 H 
ATOM    115  H30 UNL A   1      18.930  34.082  47.361  1.00  0.00    +0.000 H 
ATOM    116  H31 UNL A   1      17.201  35.485  48.622  1.00  0.00    +0.000 H 
ATOM    117  H32 UNL A   1      23.779  43.044  49.376  1.00  0.00    +0.000 H 
ATOM    118  H33 UNL A   1      25.374  41.820  47.790  1.00  0.00    +0.000 H 
ENDROOT
BRANCH   27   26
ATOM    107  H22 UNL A   1      27.709  41.088  44.311  1.00  0.00    +0.000 H 
ATOM    108  H23 UNL A   1      25.435  40.925  45.147  1.00  0.00    +0.000 H 
ATOM     84  C59 UNL A   1      26.910  38.752  47.234  1.00  0.00    +0.000 C 
ATOM     85  C60 UNL A   1      28.227  38.904  46.804  1.00  0.00    +0.000 C 
ATOM    120  H35 UNL A   1      28.993  38.431  47.308  1.00  0.00    +0.000 H 
ATOM     23  C17 UNL A   1      28.506  39.699  45.689  1.00  0.00    +0.000 C 
ATOM     24  C18 UNL A   1      27.490  40.454  45.096  1.00  0.00    +0.000 C 
ATOM     25  C19 UNL A   1      26.180  40.349  45.567  1.00  0.00    +0.000 C 
ATOM    119  H34 UNL A   1      26.697  38.114  48.017  1.00  0.00    +0.000 H 
ATOM     26  C20 UNL A   1      25.873  39.462  46.612  1.00  0.00    +0.000 C 
BRANCH   23   21
ATOM     21  C16 UNL A   1      29.868  39.763  45.114  1.00  0.00    +0.000 C 
ATOM     22  O4  UNL A   1      30.758  40.345  45.728  1.00  0.00    +0.000 O 
BRANCH   21   20
ATOM    106  H21 UNL A   1      29.597  39.560  43.142  1.00  0.00    +0.000 H 
ATOM     20  N2  UNL A   1      30.131  39.203  43.888  1.00  0.00    +0.000 N 
BRANCH   20   19
ATOM    105  H20 UNL A   1      31.576  37.850  44.422  1.00  0.00    +0.000 H 
ATOM     19  C15 UNL A   1      31.081  38.162  43.526  1.00  0.00    +0.000 C 
ATOM    104  H19 UNL A   1      31.771  38.561  42.812  1.00  0.00    +0.000 H 
BRANCH   19   18
ATOM     18  C14 UNL A   1      30.407  36.933  42.919  1.00  0.00    +0.000 C 
ATOM    102  H17 UNL A   1      29.994  37.215  41.974  1.00  0.00    +0.000 H 
ATOM    103  H18 UNL A   1      31.169  36.184  42.850  1.00  0.00    +0.000 H 
BRANCH   18   17
ATOM     17  C13 UNL A   1      29.286  36.320  43.761  1.00  0.00    +0.000 C 
ATOM    100  H15 UNL A   1      29.514  36.494  44.791  1.00  0.00    +0.000 H 
ATOM    101  H16 UNL A   1      28.382  36.791  43.434  1.00  0.00    +0.000 H 
BRANCH   17   16
ATOM     98  H13 UNL A   1      29.582  34.517  42.683  1.00  0.00    +0.000 H 
ATOM     99  H14 UNL A   1      29.434  34.351  44.462  1.00  0.00    +0.000 H 
ATOM     16  C12 UNL A   1      29.066  34.816  43.572  1.00  0.00    +0.000 C 
BRANCH   16   15
ATOM     97  H12 UNL A   1      27.626  33.344  43.140  1.00  0.00    +0.000 H 
ATOM     15  C11 UNL A   1      27.603  34.371  43.441  1.00  0.00    +0.000 C 
ATOM     96  H11 UNL A   1      27.124  35.008  42.727  1.00  0.00    +0.000 H 
BRANCH   15   14
ATOM     94  H9  UNL A   1      26.500  35.433  44.922  1.00  0.00    +0.000 H 
ATOM     14  C10 UNL A   1      26.800  34.422  44.741  1.00  0.00    +0.000 C 
ATOM     95  H10 UNL A   1      25.949  33.782  44.630  1.00  0.00    +0.000 H 
BRANCH   14   13
ATOM     13  N1  UNL A   1      27.572  33.954  45.872  1.00  0.00    +0.000 N 
ATOM     93  H8  UNL A   1      27.947  33.043  45.849  1.00  0.00    +0.000 H 
BRANCH   13    2
ATOM      1  O1  UNL A   1      28.828  35.370  47.170  1.00  0.00    +0.000 O 
ATOM      2  C1  UNL A   1      27.798  34.735  46.972  1.00  0.00    +0.000 C 
BRANCH    2    3
ATOM      3  C2  UNL A   1      26.685  34.834  47.950  1.00  0.00    +0.000 C 
ATOM     86  H1  UNL A   1      25.861  34.234  47.788  1.00  0.00    +0.000 H 
BRANCH    3    4
ATOM      4  C3  UNL A   1      26.656  35.636  49.027  1.00  0.00    +0.000 C 
ATOM     87  H2  UNL A   1      27.548  35.918  49.461  1.00  0.00    +0.000 H 
BRANCH    4    5
ATOM      5  C4  UNL A   1      25.398  36.127  49.612  1.00  0.00    +0.000 C 
ATOM      6  C5  UNL A   1      24.232  35.342  49.648  1.00  0.00    +0.000 C 
ATOM      7  C6  UNL A   1      23.044  35.847  50.190  1.00  0.00    +0.000 C 
ATOM      8  C7  UNL A   1      23.029  37.135  50.707  1.00  0.00    +0.000 C 
ATOM     10  C8  UNL A   1      24.188  37.906  50.700  1.00  0.00    +0.000 C 
ATOM     12  C9  UNL A   1      25.371  37.413  50.166  1.00  0.00    +0.000 C 
ATOM     88  H3  UNL A   1      24.252  34.381  49.271  1.00  0.00    +0.000 H 
ATOM     89  H4  UNL A   1      22.189  35.268  50.205  1.00  0.00    +0.000 H 
ATOM     92  H7  UNL A   1      26.226  37.990  50.177  1.00  0.00    +0.000 H 
BRANCH    8    9
ATOM      9  O2  UNL A   1      21.897  37.692  51.231  1.00  0.00    +0.000 O 
ATOM     90  H5  UNL A   1      21.333  38.206  50.688  1.00  0.00    +0.000 H 
ENDBRANCH    8    9
BRANCH   10   11
ATOM     11  O3  UNL A   1      24.167  39.171  51.214  1.00  0.00    +0.000 O 
ATOM     91  H6  UNL A   1      24.937  39.705  51.176  1.00  0.00    +0.000 H 
ENDBRANCH   10   11
ENDBRANCH    4    5
ENDBRANCH    3    4
ENDBRANCH    2    3
ENDBRANCH   13    2
ENDBRANCH   14   13
ENDBRANCH   15   14
ENDBRANCH   16   15
ENDBRANCH   17   16
ENDBRANCH   18   17
ENDBRANCH   19   18
ENDBRANCH   20   19
ENDBRANCH   21   20
ENDBRANCH   23   21
ENDBRANCH   27   26
BRANCH   31   32
ATOM     33  C26 UNL A   1      21.784  43.336  51.708  1.00  0.00    +0.000 C 
ATOM     34  F1  UNL A   1      22.104  42.264  52.451  1.00  0.00    +0.000 F 
ATOM     35  C27 UNL A   1      21.841  44.598  52.295  1.00  0.00    +0.000 C 
ATOM     36  F2  UNL A   1      22.199  44.722  53.580  1.00  0.00    +0.000 F 
ATOM     37  C28 UNL A   1      21.509  45.723  51.556  1.00  0.00    +0.000 C 
ATOM     38  F3  UNL A   1      21.565  46.938  52.121  1.00  0.00    +0.000 F 
ATOM     39  C29 UNL A   1      21.111  45.590  50.234  1.00  0.00    +0.000 C 
ATOM     40  F4  UNL A   1      20.801  46.678  49.516  1.00  0.00    +0.000 F 
ATOM     41  C30 UNL A   1      21.025  44.326  49.654  1.00  0.00    +0.000 C 
ATOM     42  F5  UNL A   1      20.619  44.228  48.380  1.00  0.00    +0.000 F 
ATOM     32  C25 UNL A   1      21.357  43.174  50.381  1.00  0.00    +0.000 C 
ENDBRANCH   31   32
BRANCH   48   49
ATOM     49  C36 UNL A   1      16.669  37.710  49.889  1.00  0.00    +0.000 C 
ATOM     50  C37 UNL A   1      15.607  37.561  48.986  1.00  0.00    +0.000 C 
ATOM     51  F6  UNL A   1      15.803  37.763  47.674  1.00  0.00    +0.000 F 
ATOM     52  C38 UNL A   1      14.328  37.237  49.432  1.00  0.00    +0.000 C 
ATOM     53  F7  UNL A   1      13.319  37.139  48.556  1.00  0.00    +0.000 F 
ATOM     54  C39 UNL A   1      14.094  37.029  50.783  1.00  0.00    +0.000 C 
ATOM     55  F8  UNL A   1      12.865  36.711  51.210  1.00  0.00    +0.000 F 
ATOM     56  C40 UNL A   1      15.134  37.158  51.693  1.00  0.00    +0.000 C 
ATOM     57  F9  UNL A   1      14.911  36.948  52.998  1.00  0.00    +0.000 F 
ATOM     58  C41 UNL A   1      16.408  37.507  51.253  1.00  0.00    +0.000 C 
ATOM     59  F10 UNL A   1      17.390  37.635  52.156  1.00  0.00    +0.000 F 
ENDBRANCH   48   49
BRANCH   63   64
ATOM     65  C46 UNL A   1      21.926  33.030  47.010  1.00  0.00    +0.000 C 
ATOM     66  F11 UNL A   1      22.452  33.257  48.222  1.00  0.00    +0.000 F 
ATOM     67  C47 UNL A   1      21.937  31.734  46.499  1.00  0.00    +0.000 C 
ATOM     68  F12 UNL A   1      22.473  30.738  47.218  1.00  0.00    +0.000 F 
ATOM     69  C48 UNL A   1      21.402  31.473  45.247  1.00  0.00    +0.000 C 
ATOM     70  F13 UNL A   1      21.403  30.224  44.762  1.00  0.00    +0.000 F 
ATOM     71  C49 UNL A   1      20.869  32.511  44.496  1.00  0.00    +0.000 C 
ATOM     72  F14 UNL A   1      20.338  32.261  43.291  1.00  0.00    +0.000 F 
ATOM     73  C50 UNL A   1      20.879  33.811  44.995  1.00  0.00    +0.000 C 
ATOM     74  F15 UNL A   1      20.358  34.795  44.248  1.00  0.00    +0.000 F 
ATOM     64  C45 UNL A   1      21.399  34.094  46.266  1.00  0.00    +0.000 C 
ENDBRANCH   63   64
TORSDOF 19
ENDMDL
MODEL 8
REMARK VINA RESULT:      -7.8     38.453     43.144
ROOT
ATOM     27  C21 UNL A   1      44.589  31.474  28.272  1.00  0.00    +0.000 C 
ATOM     28  C22 UNL A   1      45.344  30.462  27.459  1.00  0.00    +0.000 C 
ATOM     29  N3  UNL A   1      45.020  29.228  27.165  1.00  0.00    +0.000 N 
ATOM     30  C23 UNL A   1      46.046  28.749  26.362  1.00  0.00    +0.000 C 
ATOM     31  C24 UNL A   1      46.206  27.506  25.847  1.00  0.00    +0.000 C 
ATOM     43  C31 UNL A   1      45.285  26.417  26.048  1.00  0.00    +0.000 C 
ATOM     44  C32 UNL A   1      45.394  25.104  25.624  1.00  0.00    +0.000 C 
ATOM     45  C33 UNL A   1      44.232  24.423  26.005  1.00  0.00    +0.000 C 
ATOM     46  C34 UNL A   1      43.418  25.300  26.703  1.00  0.00    +0.000 C 
ATOM     47  N4  UNL A   1      44.077  26.519  26.723  1.00  0.00    +0.000 N 
ATOM     48  C35 UNL A   1      42.133  25.049  27.306  1.00  0.00    +0.000 C 
ATOM     60  C42 UNL A   1      41.420  25.954  28.019  1.00  0.00    +0.000 C 
ATOM     61  N5  UNL A   1      41.731  27.275  28.308  1.00  0.00    +0.000 N 
ATOM     62  C43 UNL A   1      40.724  27.737  29.008  1.00  0.00    +0.000 C 
ATOM     63  C44 UNL A   1      40.530  29.107  29.595  1.00  0.00    +0.000 C 
ATOM     75  C51 UNL A   1      41.504  30.028  29.463  1.00  0.00    +0.000 C 
ATOM     76  C52 UNL A   1      41.451  31.390  29.982  1.00  0.00    +0.000 C 
ATOM     77  C53 UNL A   1      42.557  32.048  29.599  1.00  0.00    +0.000 C 
ATOM     78  C54 UNL A   1      43.412  31.139  28.835  1.00  0.00    +0.000 C 
ATOM     79  N6  UNL A   1      42.720  29.954  28.831  1.00  0.00    +0.000 N 
ATOM     80  C55 UNL A   1      39.648  26.762  29.231  1.00  0.00    +0.000 C 
ATOM     81  C56 UNL A   1      40.136  25.683  28.634  1.00  0.00    +0.000 C 
ATOM     82  C57 UNL A   1      46.977  29.842  26.172  1.00  0.00    +0.000 C 
ATOM     83  C58 UNL A   1      46.621  30.904  26.879  1.00  0.00    +0.000 C 
ATOM    109  H24 UNL A   1      46.194  24.697  25.116  1.00  0.00    +0.000 H 
ATOM    110  H25 UNL A   1      44.018  23.434  25.800  1.00  0.00    +0.000 H 
ATOM    111  H26 UNL A   1      43.738  27.338  27.153  1.00  0.00    +0.000 H 
ATOM    112  H27 UNL A   1      40.687  31.785  30.553  1.00  0.00    +0.000 H 
ATOM    113  H28 UNL A   1      42.769  33.035  29.809  1.00  0.00    +0.000 H 
ATOM    114  H29 UNL A   1      43.063  29.129  28.415  1.00  0.00    +0.000 H 
ATOM    115  H30 UNL A   1      38.749  26.883  29.723  1.00  0.00    +0.000 H 
ATOM    116  H31 UNL A   1      39.663  24.767  28.610  1.00  0.00    +0.000 H 
ATOM    117  H32 UNL A   1      47.810  29.798  25.565  1.00  0.00    +0.000 H 
ATOM    118  H33 UNL A   1      47.110  31.806  26.992  1.00  0.00    +0.000 H 
ENDROOT
BRANCH   27   26
ATOM    107  H22 UNL A   1      46.568  34.976  30.548  1.00  0.00    +0.000 H 
ATOM    108  H23 UNL A   1      46.005  32.629  30.279  1.00  0.00    +0.000 H 
ATOM     84  C59 UNL A   1      44.831  33.783  27.354  1.00  0.00    +0.000 C 
ATOM     85  C60 UNL A   1      45.223  35.114  27.478  1.00  0.00    +0.000 C 
ATOM    120  H35 UNL A   1      45.097  35.766  26.688  1.00  0.00    +0.000 H 
ATOM     23  C17 UNL A   1      45.789  35.564  28.674  1.00  0.00    +0.000 C 
ATOM     24  C18 UNL A   1      46.094  34.653  29.690  1.00  0.00    +0.000 C 
ATOM     25  C19 UNL A   1      45.757  33.306  29.541  1.00  0.00    +0.000 C 
ATOM    119  H34 UNL A   1      44.355  33.466  26.495  1.00  0.00    +0.000 H 
ATOM     26  C20 UNL A   1      45.082  32.869  28.390  1.00  0.00    +0.000 C 
BRANCH   23   21
ATOM     21  C16 UNL A   1      46.077  36.998  28.895  1.00  0.00    +0.000 C 
ATOM     22  O4  UNL A   1      47.154  37.463  28.530  1.00  0.00    +0.000 O 
BRANCH   21   20
ATOM    106  H21 UNL A   1      44.805  37.439  30.375  1.00  0.00    +0.000 H 
ATOM     20  N2  UNL A   1      45.163  37.800  29.532  1.00  0.00    +0.000 N 
BRANCH   20   19
ATOM    105  H20 UNL A   1      45.292  39.502  28.397  1.00  0.00    +0.000 H 
ATOM     19  C15 UNL A   1      44.643  39.104  29.148  1.00  0.00    +0.000 C 
ATOM    104  H19 UNL A   1      44.613  39.730  30.016  1.00  0.00    +0.000 H 
BRANCH   19   18
ATOM     18  C14 UNL A   1      43.239  39.028  28.552  1.00  0.00    +0.000 C 
ATOM    102  H17 UNL A   1      42.624  38.468  29.224  1.00  0.00    +0.000 H 
ATOM    103  H18 UNL A   1      42.920  40.041  28.420  1.00  0.00    +0.000 H 
BRANCH   18   17
ATOM     17  C13 UNL A   1      43.150  38.372  27.172  1.00  0.00    +0.000 C 
ATOM    100  H15 UNL A   1      42.775  39.101  26.484  1.00  0.00    +0.000 H 
ATOM    101  H16 UNL A   1      44.139  38.032  26.943  1.00  0.00    +0.000 H 
BRANCH   17   16
ATOM     98  H13 UNL A   1      41.291  37.450  26.731  1.00  0.00    +0.000 H 
ATOM     99  H14 UNL A   1      42.751  36.453  26.432  1.00  0.00    +0.000 H 
ATOM     16  C12 UNL A   1      42.251  37.135  27.086  1.00  0.00    +0.000 C 
BRANCH   16   15
ATOM     97  H12 UNL A   1      41.864  37.117  29.154  1.00  0.00    +0.000 H 
ATOM     15  C11 UNL A   1      42.041  36.376  28.403  1.00  0.00    +0.000 C 
ATOM     96  H11 UNL A   1      42.914  35.786  28.590  1.00  0.00    +0.000 H 
BRANCH   15   14
ATOM     94  H9  UNL A   1      39.972  35.989  28.070  1.00  0.00    +0.000 H 
ATOM     14  C10 UNL A   1      40.826  35.447  28.419  1.00  0.00    +0.000 C 
ATOM     95  H10 UNL A   1      41.038  34.612  27.783  1.00  0.00    +0.000 H 
BRANCH   14   13
ATOM     13  N1  UNL A   1      40.550  34.942  29.747  1.00  0.00    +0.000 N 
ATOM     93  H8  UNL A   1      41.290  34.870  30.393  1.00  0.00    +0.000 H 
BRANCH   13    2
ATOM      1  O1  UNL A   1      38.870  34.639  31.282  1.00  0.00    +0.000 O 
ATOM      2  C1  UNL A   1      39.293  34.562  30.134  1.00  0.00    +0.000 C 
BRANCH    2    3
ATOM      3  C2  UNL A   1      38.394  34.069  29.060  1.00  0.00    +0.000 C 
ATOM     86  H1  UNL A   1      38.648  34.304  28.088  1.00  0.00    +0.000 H 
BRANCH    3    4
ATOM      4  C3  UNL A   1      37.279  33.343  29.242  1.00  0.00    +0.000 C 
ATOM     87  H2  UNL A   1      37.334  32.317  29.156  1.00  0.00    +0.000 H 
BRANCH    4    5
ATOM      5  C4  UNL A   1      35.981  33.957  29.560  1.00  0.00    +0.000 C 
ATOM      6  C5  UNL A   1      35.190  34.587  28.582  1.00  0.00    +0.000 C 
ATOM      7  C6  UNL A   1      33.970  35.185  28.922  1.00  0.00    +0.000 C 
ATOM      8  C7  UNL A   1      33.537  35.138  30.239  1.00  0.00    +0.000 C 
ATOM     10  C8  UNL A   1      34.301  34.491  31.206  1.00  0.00    +0.000 C 
ATOM     12  C9  UNL A   1      35.511  33.895  30.879  1.00  0.00    +0.000 C 
ATOM     88  H3  UNL A   1      35.513  34.609  27.603  1.00  0.00    +0.000 H 
ATOM     89  H4  UNL A   1      33.399  35.653  28.200  1.00  0.00    +0.000 H 
ATOM     92  H7  UNL A   1      36.064  33.408  31.602  1.00  0.00    +0.000 H 
BRANCH    8    9
ATOM      9  O2  UNL A   1      32.366  35.719  30.638  1.00  0.00    +0.000 O 
ATOM     90  H5  UNL A   1      32.188  36.613  30.422  1.00  0.00    +0.000 H 
ENDBRANCH    8    9
BRANCH   10   11
ATOM     11  O3  UNL A   1      33.867  34.446  32.500  1.00  0.00    +0.000 O 
ATOM     91  H6  UNL A   1      34.277  33.867  33.112  1.00  0.00    +0.000 H 
ENDBRANCH   10   11
ENDBRANCH    4    5
ENDBRANCH    3    4
ENDBRANCH    2    3
ENDBRANCH   13    2
ENDBRANCH   14   13
ENDBRANCH   15   14
ENDBRANCH   16   15
ENDBRANCH   17   16
ENDBRANCH   18   17
ENDBRANCH   19   18
ENDBRANCH   20   19
ENDBRANCH   21   20
ENDBRANCH   23   21
ENDBRANCH   27   26
BRANCH   31   32
ATOM     33  C26 UNL A   1      48.561  26.616  25.544  1.00  0.00    +0.000 C 
ATOM     34  F1  UNL A   1      48.578  26.231  26.830  1.00  0.00    +0.000 F 
ATOM     35  C27 UNL A   1      49.697  26.407  24.767  1.00  0.00    +0.000 C 
ATOM     36  F2  UNL A   1      50.783  25.841  25.310  1.00  0.00    +0.000 F 
ATOM     37  C28 UNL A   1      49.713  26.801  23.438  1.00  0.00    +0.000 C 
ATOM     38  F3  UNL A   1      50.807  26.598  22.690  1.00  0.00    +0.000 F 
ATOM     39  C29 UNL A   1      48.597  27.413  22.885  1.00  0.00    +0.000 C 
ATOM     40  F4  UNL A   1      48.607  27.783  21.597  1.00  0.00    +0.000 F 
ATOM     41  C30 UNL A   1      47.470  27.650  23.668  1.00  0.00    +0.000 C 
ATOM     42  F5  UNL A   1      46.414  28.261  23.110  1.00  0.00    +0.000 F 
ATOM     32  C25 UNL A   1      47.431  27.259  25.015  1.00  0.00    +0.000 C 
ENDBRANCH   31   32
BRANCH   48   49
ATOM     49  C36 UNL A   1      41.542  23.679  27.151  1.00  0.00    +0.000 C 
ATOM     50  C37 UNL A   1      40.398  23.461  26.370  1.00  0.00    +0.000 C 
ATOM     51  F6  UNL A   1      39.775  24.494  25.783  1.00  0.00    +0.000 F 
ATOM     52  C38 UNL A   1      39.869  22.181  26.218  1.00  0.00    +0.000 C 
ATOM     53  F7  UNL A   1      38.752  22.001  25.500  1.00  0.00    +0.000 F 
ATOM     54  C39 UNL A   1      40.488  21.096  26.819  1.00  0.00    +0.000 C 
ATOM     55  F8  UNL A   1      39.982  19.865  26.666  1.00  0.00    +0.000 F 
ATOM     56  C40 UNL A   1      41.629  21.288  27.585  1.00  0.00    +0.000 C 
ATOM     57  F9  UNL A   1      42.234  20.238  28.158  1.00  0.00    +0.000 F 
ATOM     58  C41 UNL A   1      42.145  22.568  27.761  1.00  0.00    +0.000 C 
ATOM     59  F10 UNL A   1      43.243  22.724  28.515  1.00  0.00    +0.000 F 
ENDBRANCH   48   49
BRANCH   63   64
ATOM     65  C46 UNL A   1      38.117  29.798  29.643  1.00  0.00    +0.000 C 
ATOM     66  F11 UNL A   1      38.121  29.858  28.304  1.00  0.00    +0.000 F 
ATOM     67  C47 UNL A   1      36.945  30.103  30.331  1.00  0.00    +0.000 C 
ATOM     68  F12 UNL A   1      35.844  30.454  29.651  1.00  0.00    +0.000 F 
ATOM     69  C48 UNL A   1      36.915  30.052  31.716  1.00  0.00    +0.000 C 
ATOM     70  F13 UNL A   1      35.784  30.333  32.376  1.00  0.00    +0.000 F 
ATOM     71  C49 UNL A   1      38.063  29.710  32.417  1.00  0.00    +0.000 C 
ATOM     72  F14 UNL A   1      38.035  29.645  33.755  1.00  0.00    +0.000 F 
ATOM     73  C50 UNL A   1      39.243  29.429  31.732  1.00  0.00    +0.000 C 
ATOM     74  F15 UNL A   1      40.337  29.102  32.435  1.00  0.00    +0.000 F 
ATOM     64  C45 UNL A   1      39.290  29.458  30.331  1.00  0.00    +0.000 C 
ENDBRANCH   63   64
TORSDOF 19
ENDMDL
MODEL 9
REMARK VINA RESULT:      -7.7     21.719     27.710
ROOT
ATOM     27  C21 UNL A   1      11.161  27.270   2.054  1.00  0.00    +0.000 C 
ATOM     28  C22 UNL A   1      10.616  26.778   3.364  1.00  0.00    +0.000 C 
ATOM     29  N3  UNL A   1      10.766  25.611   3.937  1.00  0.00    +0.000 N 
ATOM     30  C23 UNL A   1      10.088  25.693   5.146  1.00  0.00    +0.000 C 
ATOM     31  C24 UNL A   1       9.899  24.726   6.075  1.00  0.00    +0.000 C 
ATOM     43  C31 UNL A   1      10.404  23.382   5.967  1.00  0.00    +0.000 C 
ATOM     44  C32 UNL A   1      10.208  22.313   6.824  1.00  0.00    +0.000 C 
ATOM     45  C33 UNL A   1      10.938  21.222   6.338  1.00  0.00    +0.000 C 
ATOM     46  C34 UNL A   1      11.555  21.598   5.156  1.00  0.00    +0.000 C 
ATOM     47  N4  UNL A   1      11.218  22.925   4.939  1.00  0.00    +0.000 N 
ATOM     48  C35 UNL A   1      12.392  20.810   4.287  1.00  0.00    +0.000 C 
ATOM     60  C42 UNL A   1      12.919  21.241   3.116  1.00  0.00    +0.000 C 
ATOM     61  N5  UNL A   1      12.800  22.485   2.513  1.00  0.00    +0.000 N 
ATOM     62  C43 UNL A   1      13.501  22.418   1.407  1.00  0.00    +0.000 C 
ATOM     63  C44 UNL A   1      13.717  23.473   0.359  1.00  0.00    +0.000 C 
ATOM     75  C51 UNL A   1      13.101  24.664   0.482  1.00  0.00    +0.000 C 
ATOM     76  C52 UNL A   1      13.218  25.774  -0.457  1.00  0.00    +0.000 C 
ATOM     77  C53 UNL A   1      12.535  26.826   0.020  1.00  0.00    +0.000 C 
ATOM     78  C54 UNL A   1      11.902  26.450   1.285  1.00  0.00    +0.000 C 
ATOM     79  N6  UNL A   1      12.269  25.139   1.465  1.00  0.00    +0.000 N 
ATOM     80  C55 UNL A   1      14.158  21.122   1.189  1.00  0.00    +0.000 C 
ATOM     81  C56 UNL A   1      13.746  20.432   2.244  1.00  0.00    +0.000 C 
ATOM     82  C57 UNL A   1       9.571  27.041   5.247  1.00  0.00    +0.000 C 
ATOM     83  C58 UNL A   1       9.817  27.734   4.144  1.00  0.00    +0.000 C 
ATOM    109  H24 UNL A   1       9.623  22.319   7.674  1.00  0.00    +0.000 H 
ATOM    110  H25 UNL A   1      11.006  20.294   6.785  1.00  0.00    +0.000 H 
ATOM    111  H26 UNL A   1      11.511  23.464   4.170  1.00  0.00    +0.000 H 
ATOM    112  H27 UNL A   1      13.743  25.754  -1.346  1.00  0.00    +0.000 H 
ATOM    113  H28 UNL A   1      12.466  27.751  -0.432  1.00  0.00    +0.000 H 
ATOM    114  H29 UNL A   1      11.964  24.593   2.226  1.00  0.00    +0.000 H 
ATOM    115  H30 UNL A   1      14.777  20.826   0.418  1.00  0.00    +0.000 H 
ATOM    116  H31 UNL A   1      13.984  19.444   2.421  1.00  0.00    +0.000 H 
ATOM    117  H32 UNL A   1       9.073  27.414   6.071  1.00  0.00    +0.000 H 
ATOM    118  H33 UNL A   1       9.525  28.693   3.899  1.00  0.00    +0.000 H 
ENDROOT
BRANCH   27   26
ATOM    107  H22 UNL A   1       9.049  30.618  -0.331  1.00  0.00    +0.000 H 
ATOM    108  H23 UNL A   1       9.188  28.356   0.540  1.00  0.00    +0.000 H 
ATOM     84  C59 UNL A   1      11.886  29.659   2.051  1.00  0.00    +0.000 C 
ATOM     85  C60 UNL A   1      11.761  30.975   1.611  1.00  0.00    +0.000 C 
ATOM    120  H35 UNL A   1      12.398  31.703   1.970  1.00  0.00    +0.000 H 
ATOM     23  C17 UNL A   1      10.770  31.307   0.683  1.00  0.00    +0.000 C 
ATOM     24  C18 UNL A   1       9.817  30.356   0.307  1.00  0.00    +0.000 C 
ATOM     25  C19 UNL A   1       9.905  29.051   0.796  1.00  0.00    +0.000 C 
ATOM    119  H34 UNL A   1      12.658  29.402   2.686  1.00  0.00    +0.000 H 
ATOM     26  C20 UNL A   1      10.968  28.682   1.637  1.00  0.00    +0.000 C 
BRANCH   23   21
ATOM     21  C16 UNL A   1      10.704  32.657   0.081  1.00  0.00    +0.000 C 
ATOM     22  O4  UNL A   1       9.626  33.091  -0.318  1.00  0.00    +0.000 O 
BRANCH   21   20
ATOM    106  H21 UNL A   1      12.410  33.468   0.741  1.00  0.00    +0.000 H 
ATOM     20  N2  UNL A   1      11.843  33.411  -0.062  1.00  0.00    +0.000 N 
BRANCH   20   19
ATOM    105  H20 UNL A   1      12.650  35.105  -0.888  1.00  0.00    +0.000 H 
ATOM     19  C15 UNL A   1      12.338  34.137  -1.221  1.00  0.00    +0.000 C 
ATOM    104  H19 UNL A   1      11.552  34.203  -1.945  1.00  0.00    +0.000 H 
BRANCH   19   18
ATOM     18  C14 UNL A   1      13.544  33.462  -1.870  1.00  0.00    +0.000 C 
ATOM    102  H17 UNL A   1      14.319  34.193  -1.970  1.00  0.00    +0.000 H 
ATOM    103  H18 UNL A   1      13.804  32.645  -1.230  1.00  0.00    +0.000 H 
BRANCH   18   17
ATOM     17  C13 UNL A   1      13.289  32.853  -3.251  1.00  0.00    +0.000 C 
ATOM    100  H15 UNL A   1      13.450  33.617  -3.983  1.00  0.00    +0.000 H 
ATOM    101  H16 UNL A   1      13.963  32.026  -3.336  1.00  0.00    +0.000 H 
BRANCH   17   16
ATOM     98  H13 UNL A   1      11.291  32.527  -2.616  1.00  0.00    +0.000 H 
ATOM     99  H14 UNL A   1      11.533  32.705  -4.384  1.00  0.00    +0.000 H 
ATOM     16  C12 UNL A   1      11.887  32.277  -3.470  1.00  0.00    +0.000 C 
BRANCH   16   15
ATOM     97  H12 UNL A   1      12.474  30.526  -4.477  1.00  0.00    +0.000 H 
ATOM     15  C11 UNL A   1      11.818  30.757  -3.663  1.00  0.00    +0.000 C 
ATOM     96  H11 UNL A   1      10.799  30.491  -3.856  1.00  0.00    +0.000 H 
BRANCH   15   14
ATOM     94  H9  UNL A   1      12.784  30.593  -1.771  1.00  0.00    +0.000 H 
ATOM     14  C10 UNL A   1      12.306  29.937  -2.468  1.00  0.00    +0.000 C 
ATOM     95  H10 UNL A   1      11.457  29.457  -2.026  1.00  0.00    +0.000 H 
BRANCH   14   13
ATOM     13  N1  UNL A   1      13.247  28.911  -2.866  1.00  0.00    +0.000 N 
ATOM     93  H8  UNL A   1      12.983  28.267  -3.564  1.00  0.00    +0.000 H 
BRANCH   13    2
ATOM      1  O1  UNL A   1      15.290  27.912  -2.557  1.00  0.00    +0.000 O 
ATOM      2  C1  UNL A   1      14.490  28.806  -2.304  1.00  0.00    +0.000 C 
BRANCH    2    3
ATOM      3  C2  UNL A   1      14.880  29.885  -1.362  1.00  0.00    +0.000 C 
ATOM     86  H1  UNL A   1      14.138  30.531  -1.052  1.00  0.00    +0.000 H 
BRANCH    3    4
ATOM      4  C3  UNL A   1      16.115  30.094  -0.877  1.00  0.00    +0.000 C 
ATOM     87  H2  UNL A   1      16.882  29.477  -1.186  1.00  0.00    +0.000 H 
BRANCH    4    5
ATOM      5  C4  UNL A   1      16.415  31.171   0.080  1.00  0.00    +0.000 C 
ATOM      6  C5  UNL A   1      17.727  31.458   0.498  1.00  0.00    +0.000 C 
ATOM      7  C6  UNL A   1      17.978  32.473   1.429  1.00  0.00    +0.000 C 
ATOM      8  C7  UNL A   1      16.913  33.210   1.929  1.00  0.00    +0.000 C 
ATOM     10  C8  UNL A   1      15.616  32.950   1.498  1.00  0.00    +0.000 C 
ATOM     12  C9  UNL A   1      15.358  31.946   0.574  1.00  0.00    +0.000 C 
ATOM     88  H3  UNL A   1      18.515  30.913   0.114  1.00  0.00    +0.000 H 
ATOM     89  H4  UNL A   1      18.942  32.672   1.738  1.00  0.00    +0.000 H 
ATOM     92  H7  UNL A   1      14.393  31.770   0.253  1.00  0.00    +0.000 H 
BRANCH    8    9
ATOM      9  O2  UNL A   1      17.089  34.200   2.854  1.00  0.00    +0.000 O 
ATOM     90  H5  UNL A   1      16.705  35.044   2.717  1.00  0.00    +0.000 H 
ENDBRANCH    8    9
BRANCH   10   11
ATOM     11  O3  UNL A   1      14.574  33.682   1.991  1.00  0.00    +0.000 O 
ATOM     91  H6  UNL A   1      14.398  34.537   1.649  1.00  0.00    +0.000 H 
ENDBRANCH   10   11
ENDBRANCH    4    5
ENDBRANCH    3    4
ENDBRANCH    2    3
ENDBRANCH   13    2
ENDBRANCH   14   13
ENDBRANCH   15   14
ENDBRANCH   16   15
ENDBRANCH   17   16
ENDBRANCH   18   17
ENDBRANCH   19   18
ENDBRANCH   20   19
ENDBRANCH   21   20
ENDBRANCH   23   21
ENDBRANCH   27   26
BRANCH   31   32
ATOM     33  C26 UNL A   1       9.732  25.527   8.475  1.00  0.00    +0.000 C 
ATOM     34  F1  UNL A   1      11.071  25.595   8.543  1.00  0.00    +0.000 F 
ATOM     35  C27 UNL A   1       8.987  25.849   9.607  1.00  0.00    +0.000 C 
ATOM     36  F2  UNL A   1       9.611  26.208  10.737  1.00  0.00    +0.000 F 
ATOM     37  C28 UNL A   1       7.603  25.780   9.571  1.00  0.00    +0.000 C 
ATOM     38  F3  UNL A   1       6.886  26.092  10.660  1.00  0.00    +0.000 F 
ATOM     39  C29 UNL A   1       6.961  25.381   8.408  1.00  0.00    +0.000 C 
ATOM     40  F4  UNL A   1       5.622  25.326   8.368  1.00  0.00    +0.000 F 
ATOM     41  C30 UNL A   1       7.705  25.030   7.284  1.00  0.00    +0.000 C 
ATOM     42  F5  UNL A   1       7.055  24.630   6.180  1.00  0.00    +0.000 F 
ATOM     32  C25 UNL A   1       9.105  25.093   7.296  1.00  0.00    +0.000 C 
ENDBRANCH   31   32
BRANCH   48   49
ATOM     49  C36 UNL A   1      12.694  19.398   4.696  1.00  0.00    +0.000 C 
ATOM     50  C37 UNL A   1      11.889  18.329   4.278  1.00  0.00    +0.000 C 
ATOM     51  F6  UNL A   1      10.792  18.558   3.540  1.00  0.00    +0.000 F 
ATOM     52  C38 UNL A   1      12.190  17.020   4.646  1.00  0.00    +0.000 C 
ATOM     53  F7  UNL A   1      11.384  16.017   4.270  1.00  0.00    +0.000 F 
ATOM     54  C39 UNL A   1      13.313  16.754   5.414  1.00  0.00    +0.000 C 
ATOM     55  F8  UNL A   1      13.605  15.493   5.763  1.00  0.00    +0.000 F 
ATOM     56  C40 UNL A   1      14.131  17.796   5.827  1.00  0.00    +0.000 C 
ATOM     57  F9  UNL A   1      15.223  17.539   6.561  1.00  0.00    +0.000 F 
ATOM     58  C41 UNL A   1      13.819  19.108   5.482  1.00  0.00    +0.000 C 
ATOM     59  F10 UNL A   1      14.622  20.095   5.905  1.00  0.00    +0.000 F 
ENDBRANCH   48   49
BRANCH   63   64
ATOM     65  C46 UNL A   1      15.970  23.430  -0.748  1.00  0.00    +0.000 C 
ATOM     66  F11 UNL A   1      16.517  23.913   0.376  1.00  0.00    +0.000 F 
ATOM     67  C47 UNL A   1      16.791  23.168  -1.843  1.00  0.00    +0.000 C 
ATOM     68  F12 UNL A   1      18.107  23.406  -1.761  1.00  0.00    +0.000 F 
ATOM     69  C48 UNL A   1      16.248  22.671  -3.018  1.00  0.00    +0.000 C 
ATOM     70  F13 UNL A   1      17.041  22.408  -4.066  1.00  0.00    +0.000 F 
ATOM     71  C49 UNL A   1      14.882  22.448  -3.106  1.00  0.00    +0.000 C 
ATOM     72  F14 UNL A   1      14.356  21.954  -4.235  1.00  0.00    +0.000 F 
ATOM     73  C50 UNL A   1      14.056  22.732  -2.021  1.00  0.00    +0.000 C 
ATOM     74  F15 UNL A   1      12.739  22.508  -2.134  1.00  0.00    +0.000 F 
ATOM     64  C45 UNL A   1      14.585  23.219  -0.818  1.00  0.00    +0.000 C 
ENDBRANCH   63   64
TORSDOF 19
ENDMDL
MODEL 10
REMARK VINA RESULT:      -7.7     33.939     37.704
ROOT
ATOM     27  C21 UNL A   1      46.518  50.749  18.242  1.00  0.00    +0.000 C 
ATOM     28  C22 UNL A   1      46.776  52.028  17.500  1.00  0.00    +0.000 C 
ATOM     29  N3  UNL A   1      47.770  52.871  17.622  1.00  0.00    +0.000 N 
ATOM     30  C23 UNL A   1      47.544  53.862  16.678  1.00  0.00    +0.000 C 
ATOM     31  C24 UNL A   1      48.259  54.990  16.450  1.00  0.00    +0.000 C 
ATOM     43  C31 UNL A   1      49.443  55.365  17.179  1.00  0.00    +0.000 C 
ATOM     44  C32 UNL A   1      50.198  56.520  17.066  1.00  0.00    +0.000 C 
ATOM     45  C33 UNL A   1      51.287  56.418  17.939  1.00  0.00    +0.000 C 
ATOM     46  C34 UNL A   1      51.189  55.219  18.626  1.00  0.00    +0.000 C 
ATOM     47  N4  UNL A   1      50.052  54.584  18.151  1.00  0.00    +0.000 N 
ATOM     48  C35 UNL A   1      52.065  54.688  19.639  1.00  0.00    +0.000 C 
ATOM     60  C42 UNL A   1      51.869  53.522  20.302  1.00  0.00    +0.000 C 
ATOM     61  N5  UNL A   1      50.841  52.601  20.159  1.00  0.00    +0.000 N 
ATOM     62  C43 UNL A   1      51.103  51.635  21.006  1.00  0.00    +0.000 C 
ATOM     63  C44 UNL A   1      50.320  50.382  21.282  1.00  0.00    +0.000 C 
ATOM     75  C51 UNL A   1      49.155  50.174  20.640  1.00  0.00    +0.000 C 
ATOM     76  C52 UNL A   1      48.295  49.009  20.811  1.00  0.00    +0.000 C 
ATOM     77  C53 UNL A   1      47.261  49.098  19.959  1.00  0.00    +0.000 C 
ATOM     78  C54 UNL A   1      47.370  50.348  19.205  1.00  0.00    +0.000 C 
ATOM     79  N6  UNL A   1      48.509  50.936  19.698  1.00  0.00    +0.000 N 
ATOM     80  C55 UNL A   1      52.339  51.829  21.776  1.00  0.00    +0.000 C 
ATOM     81  C56 UNL A   1      52.750  53.008  21.331  1.00  0.00    +0.000 C 
ATOM     82  C57 UNL A   1      46.346  53.490  15.956  1.00  0.00    +0.000 C 
ATOM     83  C58 UNL A   1      45.798  52.396  16.465  1.00  0.00    +0.000 C 
ATOM    109  H24 UNL A   1      49.992  57.319  16.447  1.00  0.00    +0.000 H 
ATOM    110  H25 UNL A   1      52.038  57.118  18.052  1.00  0.00    +0.000 H 
ATOM    111  H26 UNL A   1      49.724  53.708  18.458  1.00  0.00    +0.000 H 
ATOM    112  H27 UNL A   1      48.455  48.239  21.479  1.00  0.00    +0.000 H 
ATOM    113  H28 UNL A   1      46.511  48.398  19.852  1.00  0.00    +0.000 H 
ATOM    114  H29 UNL A   1      48.831  51.819  19.403  1.00  0.00    +0.000 H 
ATOM    115  H30 UNL A   1      52.772  51.210  22.479  1.00  0.00    +0.000 H 
ATOM    116  H31 UNL A   1      53.591  53.497  21.674  1.00  0.00    +0.000 H 
ATOM    117  H32 UNL A   1      45.967  54.010  15.149  1.00  0.00    +0.000 H 
ATOM    118  H33 UNL A   1      44.918  51.925  16.203  1.00  0.00    +0.000 H 
ENDROOT
BRANCH   27   26
ATOM    107  H22 UNL A   1      44.542  47.380  15.771  1.00  0.00    +0.000 H 
ATOM    108  H23 UNL A   1      46.475  48.625  16.553  1.00  0.00    +0.000 H 
ATOM     84  C59 UNL A   1      44.115  50.099  18.429  1.00  0.00    +0.000 C 
ATOM     85  C60 UNL A   1      43.020  49.332  18.036  1.00  0.00    +0.000 C 
ATOM    120  H35 UNL A   1      42.107  49.457  18.499  1.00  0.00    +0.000 H 
ATOM     23  C17 UNL A   1      43.163  48.391  17.012  1.00  0.00    +0.000 C 
ATOM     24  C18 UNL A   1      44.428  48.117  16.484  1.00  0.00    +0.000 C 
ATOM     25  C19 UNL A   1      45.537  48.844  16.923  1.00  0.00    +0.000 C 
ATOM    119  H34 UNL A   1      43.994  50.838  19.139  1.00  0.00    +0.000 H 
ATOM     26  C20 UNL A   1      45.380  49.872  17.867  1.00  0.00    +0.000 C 
BRANCH   23   21
ATOM     21  C16 UNL A   1      41.993  47.668  16.466  1.00  0.00    +0.000 C 
ATOM     22  O4  UNL A   1      41.277  48.216  15.631  1.00  0.00    +0.000 O 
BRANCH   21   20
ATOM    106  H21 UNL A   1      41.166  46.369  17.744  1.00  0.00    +0.000 H 
ATOM     20  N2  UNL A   1      41.688  46.405  16.910  1.00  0.00    +0.000 N 
BRANCH   20   19
ATOM    105  H20 UNL A   1      42.105  45.242  15.274  1.00  0.00    +0.000 H 
ATOM     19  C15 UNL A   1      42.020  45.111  16.333  1.00  0.00    +0.000 C 
ATOM    104  H19 UNL A   1      41.247  44.415  16.584  1.00  0.00    +0.000 H 
BRANCH   19   18
ATOM     18  C14 UNL A   1      43.353  44.564  16.838  1.00  0.00    +0.000 C 
ATOM    102  H17 UNL A   1      43.318  43.497  16.775  1.00  0.00    +0.000 H 
ATOM    103  H18 UNL A   1      44.106  45.006  16.219  1.00  0.00    +0.000 H 
BRANCH   18   17
ATOM     17  C13 UNL A   1      43.712  44.941  18.277  1.00  0.00    +0.000 C 
ATOM    100  H15 UNL A   1      44.675  45.407  18.265  1.00  0.00    +0.000 H 
ATOM    101  H16 UNL A   1      42.926  45.583  18.617  1.00  0.00    +0.000 H 
BRANCH   17   16
ATOM     98  H13 UNL A   1      44.492  43.076  18.922  1.00  0.00    +0.000 H 
ATOM     99  H14 UNL A   1      43.999  44.211  20.220  1.00  0.00    +0.000 H 
ATOM     16  C12 UNL A   1      43.762  43.777  19.271  1.00  0.00    +0.000 C 
BRANCH   16   15
ATOM     97  H12 UNL A   1      42.695  41.983  19.530  1.00  0.00    +0.000 H 
ATOM     15  C11 UNL A   1      42.442  43.021  19.474  1.00  0.00    +0.000 C 
ATOM     96  H11 UNL A   1      41.795  43.253  18.653  1.00  0.00    +0.000 H 
BRANCH   15   14
ATOM     94  H9  UNL A   1      42.045  44.307  21.126  1.00  0.00    +0.000 H 
ATOM     14  C10 UNL A   1      41.705  43.357  20.771  1.00  0.00    +0.000 C 
ATOM     95  H10 UNL A   1      40.655  43.378  20.559  1.00  0.00    +0.000 H 
BRANCH   14   13
ATOM     13  N1  UNL A   1      41.937  42.363  21.797  1.00  0.00    +0.000 N 
ATOM     93  H8  UNL A   1      41.877  41.409  21.559  1.00  0.00    +0.000 H 
BRANCH   13    2
ATOM      1  O1  UNL A   1      42.183  41.934  24.038  1.00  0.00    +0.000 O 
ATOM      2  C1  UNL A   1      42.238  42.706  23.087  1.00  0.00    +0.000 C 
BRANCH    2    3
ATOM      3  C2  UNL A   1      42.700  44.100  23.308  1.00  0.00    +0.000 C 
ATOM     86  H1  UNL A   1      42.005  44.852  23.178  1.00  0.00    +0.000 H 
BRANCH    3    4
ATOM      4  C3  UNL A   1      43.942  44.468  23.662  1.00  0.00    +0.000 C 
ATOM     87  H2  UNL A   1      44.121  44.736  24.642  1.00  0.00    +0.000 H 
BRANCH    4    5
ATOM      5  C4  UNL A   1      45.058  44.503  22.704  1.00  0.00    +0.000 C 
ATOM      6  C5  UNL A   1      45.478  45.694  22.086  1.00  0.00    +0.000 C 
ATOM      7  C6  UNL A   1      46.527  45.690  21.159  1.00  0.00    +0.000 C 
ATOM      8  C7  UNL A   1      47.165  44.493  20.864  1.00  0.00    +0.000 C 
ATOM     10  C8  UNL A   1      46.773  43.316  21.494  1.00  0.00    +0.000 C 
ATOM     12  C9  UNL A   1      45.734  43.311  22.415  1.00  0.00    +0.000 C 
ATOM     88  H3  UNL A   1      45.006  46.582  22.317  1.00  0.00    +0.000 H 
ATOM     89  H4  UNL A   1      46.824  46.567  20.703  1.00  0.00    +0.000 H 
ATOM     92  H7  UNL A   1      45.460  42.433  22.884  1.00  0.00    +0.000 H 
BRANCH    8    9
ATOM      9  O2  UNL A   1      48.182  44.420  19.955  1.00  0.00    +0.000 O 
ATOM     90  H5  UNL A   1      48.622  43.605  19.807  1.00  0.00    +0.000 H 
ENDBRANCH    8    9
BRANCH   10   11
ATOM     11  O3  UNL A   1      47.407  42.143  21.202  1.00  0.00    +0.000 O 
ATOM     91  H6  UNL A   1      47.266  41.727  20.374  1.00  0.00    +0.000 H 
ENDBRANCH   10   11
ENDBRANCH    4    5
ENDBRANCH    3    4
ENDBRANCH    2    3
ENDBRANCH   13    2
ENDBRANCH   14   13
ENDBRANCH   15   14
ENDBRANCH   16   15
ENDBRANCH   17   16
ENDBRANCH   18   17
ENDBRANCH   19   18
ENDBRANCH   20   19
ENDBRANCH   21   20
ENDBRANCH   23   21
ENDBRANCH   27   26
BRANCH   31   32
ATOM     33  C26 UNL A   1      47.043  57.067  15.652  1.00  0.00    +0.000 C 
ATOM     34  F1  UNL A   1      46.738  57.373  16.923  1.00  0.00    +0.000 F 
ATOM     35  C27 UNL A   1      46.583  57.898  14.634  1.00  0.00    +0.000 C 
ATOM     36  F2  UNL A   1      45.842  58.974  14.933  1.00  0.00    +0.000 F 
ATOM     37  C28 UNL A   1      46.876  57.604  13.311  1.00  0.00    +0.000 C 
ATOM     38  F3  UNL A   1      46.435  58.406  12.331  1.00  0.00    +0.000 F 
ATOM     39  C29 UNL A   1      47.620  56.475  13.002  1.00  0.00    +0.000 C 
ATOM     40  F4  UNL A   1      47.913  56.197  11.724  1.00  0.00    +0.000 F 
ATOM     41  C30 UNL A   1      48.056  55.626  14.017  1.00  0.00    +0.000 C 
ATOM     42  F5  UNL A   1      48.757  54.532  13.685  1.00  0.00    +0.000 F 
ATOM     32  C25 UNL A   1      47.773  55.904  15.362  1.00  0.00    +0.000 C 
ENDBRANCH   31   32
BRANCH   48   49
ATOM     49  C36 UNL A   1      53.280  55.488  20.006  1.00  0.00    +0.000 C 
ATOM     50  C37 UNL A   1      54.519  55.259  19.391  1.00  0.00    +0.000 C 
ATOM     51  F6  UNL A   1      54.654  54.273  18.491  1.00  0.00    +0.000 F 
ATOM     52  C38 UNL A   1      55.635  56.022  19.725  1.00  0.00    +0.000 C 
ATOM     53  F7  UNL A   1      56.819  55.759  19.154  1.00  0.00    +0.000 F 
ATOM     54  C39 UNL A   1      55.527  57.043  20.656  1.00  0.00    +0.000 C 
ATOM     55  F8  UNL A   1      56.601  57.780  20.971  1.00  0.00    +0.000 F 
ATOM     56  C40 UNL A   1      54.308  57.296  21.267  1.00  0.00    +0.000 C 
ATOM     57  F9  UNL A   1      54.200  58.290  22.160  1.00  0.00    +0.000 F 
ATOM     58  C41 UNL A   1      53.196  56.519  20.955  1.00  0.00    +0.000 C 
ATOM     59  F10 UNL A   1      52.032  56.780  21.569  1.00  0.00    +0.000 F 
ENDBRANCH   48   49
BRANCH   63   64
ATOM     65  C46 UNL A   1      50.357  49.396  23.590  1.00  0.00    +0.000 C 
ATOM     66  F11 UNL A   1      49.524  50.362  24.002  1.00  0.00    +0.000 F 
ATOM     67  C47 UNL A   1      50.788  48.439  24.505  1.00  0.00    +0.000 C 
ATOM     68  F12 UNL A   1      50.371  48.496  25.778  1.00  0.00    +0.000 F 
ATOM     69  C48 UNL A   1      51.652  47.431  24.105  1.00  0.00    +0.000 C 
ATOM     70  F13 UNL A   1      52.056  46.503  24.983  1.00  0.00    +0.000 F 
ATOM     71  C49 UNL A   1      52.100  47.388  22.792  1.00  0.00    +0.000 C 
ATOM     72  F14 UNL A   1      52.923  46.407  22.398  1.00  0.00    +0.000 F 
ATOM     73  C50 UNL A   1      51.689  48.359  21.882  1.00  0.00    +0.000 C 
ATOM     74  F15 UNL A   1      52.137  48.294  20.620  1.00  0.00    +0.000 F 
ATOM     64  C45 UNL A   1      50.802  49.377  22.261  1.00  0.00    +0.000 C 
ENDBRANCH   63   64
TORSDOF 19
ENDMDL
