MODEL 1
REMARK VINA RESULT:      -9.2      0.000      0.000
ROOT
ATOM    129  H38 UNL A   1      38.035  28.971  27.543  1.00  0.00    +0.000 H 
ATOM    130  H39 UNL A   1      40.525  28.777  30.865  1.00  0.00    +0.000 H 
ATOM    131  H40 UNL A   1      44.423  25.913  29.518  1.00  0.00    +0.000 H 
ATOM    132  H41 UNL A   1      45.288  26.193  31.910  1.00  0.00    +0.000 H 
ATOM    133  H42 UNL A   1      37.673  32.389  34.036  1.00  0.00    +0.000 H 
ATOM    134  H43 UNL A   1      36.538  31.740  31.836  1.00  0.00    +0.000 H 
ATOM     33  C26 UNL A   1      38.125  30.041  30.185  1.00  0.00    +0.000 C 
ATOM     34  C27 UNL A   1      38.425  30.506  31.582  1.00  0.00    +0.000 C 
ATOM     35  N3  UNL A   1      39.456  30.237  32.341  1.00  0.00    +0.000 N 
ATOM     36  C28 UNL A   1      39.265  30.962  33.512  1.00  0.00    +0.000 C 
ATOM     37  C29 UNL A   1      40.034  30.982  34.625  1.00  0.00    +0.000 C 
ATOM     49  C36 UNL A   1      41.230  30.199  34.797  1.00  0.00    +0.000 C 
ATOM     50  C37 UNL A   1      42.030  30.081  35.919  1.00  0.00    +0.000 C 
ATOM     51  C38 UNL A   1      43.105  29.245  35.603  1.00  0.00    +0.000 C 
ATOM     52  C39 UNL A   1      42.950  28.806  34.299  1.00  0.00    +0.000 C 
ATOM     53  N4  UNL A   1      41.795  29.399  33.815  1.00  0.00    +0.000 N 
ATOM     54  C40 UNL A   1      43.794  27.914  33.546  1.00  0.00    +0.000 C 
ATOM     66  C47 UNL A   1      43.566  27.516  32.271  1.00  0.00    +0.000 C 
ATOM     67  N5  UNL A   1      42.512  27.844  31.430  1.00  0.00    +0.000 N 
ATOM     68  C48 UNL A   1      42.745  27.221  30.300  1.00  0.00    +0.000 C 
ATOM     69  C49 UNL A   1      41.917  27.187  29.044  1.00  0.00    +0.000 C 
ATOM     81  C56 UNL A   1      40.755  27.866  29.007  1.00  0.00    +0.000 C 
ATOM     82  C57 UNL A   1      39.845  27.928  27.868  1.00  0.00    +0.000 C 
ATOM     83  C58 UNL A   1      38.815  28.731  28.174  1.00  0.00    +0.000 C 
ATOM     84  C59 UNL A   1      38.975  29.214  29.547  1.00  0.00    +0.000 C 
ATOM     85  N6  UNL A   1      40.151  28.643  29.964  1.00  0.00    +0.000 N 
ATOM     86  C60 UNL A   1      43.997  26.451  30.288  1.00  0.00    +0.000 C 
ATOM     87  C61 UNL A   1      44.435  26.630  31.526  1.00  0.00    +0.000 C 
ATOM     88  C62 UNL A   1      38.039  31.712  33.349  1.00  0.00    +0.000 C 
ATOM     89  C63 UNL A   1      37.447  31.416  32.200  1.00  0.00    +0.000 C 
ATOM    125  H34 UNL A   1      41.862  30.533  36.832  1.00  0.00    +0.000 H 
ATOM    126  H35 UNL A   1      43.883  28.998  36.235  1.00  0.00    +0.000 H 
ATOM    127  H36 UNL A   1      41.431  29.273  32.909  1.00  0.00    +0.000 H 
ATOM    128  H37 UNL A   1      39.973  27.433  26.971  1.00  0.00    +0.000 H 
ENDROOT
BRANCH   33   32
ATOM    123  H32 UNL A   1      34.120  29.517  27.939  1.00  0.00    +0.000 H 
ATOM    136  H45 UNL A   1      35.506  33.443  28.546  1.00  0.00    +0.000 H 
ATOM    135  H44 UNL A   1      37.512  32.578  29.596  1.00  0.00    +0.000 H 
ATOM     90  C64 UNL A   1      36.780  31.929  29.268  1.00  0.00    +0.000 C 
ATOM     91  C65 UNL A   1      35.648  32.425  28.629  1.00  0.00    +0.000 C 
ATOM    124  H33 UNL A   1      36.021  28.660  29.180  1.00  0.00    +0.000 H 
ATOM     29  C22 UNL A   1      34.703  31.542  28.096  1.00  0.00    +0.000 C 
ATOM     30  C23 UNL A   1      34.835  30.166  28.303  1.00  0.00    +0.000 C 
ATOM     31  C24 UNL A   1      35.936  29.673  29.004  1.00  0.00    +0.000 C 
ATOM     32  C25 UNL A   1      36.929  30.549  29.472  1.00  0.00    +0.000 C 
BRANCH   29   27
ATOM     27  C21 UNL A   1      33.522  32.044  27.364  1.00  0.00    +0.000 C 
ATOM     28  O4  UNL A   1      33.104  33.179  27.575  1.00  0.00    +0.000 O 
BRANCH   27   26
ATOM     26  N2  UNL A   1      32.903  31.251  26.432  1.00  0.00    +0.000 N 
ATOM    122  H31 UNL A   1      33.342  31.200  25.552  1.00  0.00    +0.000 H 
BRANCH   26   25
ATOM     25  C20 UNL A   1      31.682  30.474  26.579  1.00  0.00    +0.000 C 
ATOM    121  H30 UNL A   1      30.932  30.917  25.958  1.00  0.00    +0.000 H 
ATOM    120  H29 UNL A   1      31.388  30.484  27.608  1.00  0.00    +0.000 H 
BRANCH   25   24
ATOM    118  H27 UNL A   1      31.789  28.398  26.997  1.00  0.00    +0.000 H 
ATOM    119  H28 UNL A   1      31.110  28.836  25.402  1.00  0.00    +0.000 H 
ATOM     24  C19 UNL A   1      31.868  29.025  26.133  1.00  0.00    +0.000 C 
BRANCH   24   23
ATOM    116  H25 UNL A   1      33.678  29.658  25.219  1.00  0.00    +0.000 H 
ATOM    117  H26 UNL A   1      33.760  28.119  26.138  1.00  0.00    +0.000 H 
ATOM     23  C18 UNL A   1      33.208  28.724  25.448  1.00  0.00    +0.000 C 
BRANCH   23   22
ATOM    114  H23 UNL A   1      33.779  28.353  23.431  1.00  0.00    +0.000 H 
ATOM    115  H24 UNL A   1      33.399  26.906  24.396  1.00  0.00    +0.000 H 
ATOM     22  C17 UNL A   1      33.121  27.911  24.151  1.00  0.00    +0.000 C 
BRANCH   22   21
ATOM    113  H22 UNL A   1      31.780  28.280  22.574  1.00  0.00    +0.000 H 
ATOM     21  C16 UNL A   1      31.721  27.852  23.553  1.00  0.00    +0.000 C 
ATOM    112  H21 UNL A   1      31.057  28.395  24.193  1.00  0.00    +0.000 H 
BRANCH   21   20
ATOM     20  C15 UNL A   1      31.186  26.433  23.391  1.00  0.00    +0.000 C 
ATOM    110  H19 UNL A   1      31.701  25.784  24.067  1.00  0.00    +0.000 H 
ATOM    111  H20 UNL A   1      30.137  26.434  23.605  1.00  0.00    +0.000 H 
BRANCH   20   19
ATOM     19  N1  UNL A   1      31.385  25.965  22.038  1.00  0.00    +0.000 N 
ATOM    109  H18 UNL A   1      30.625  26.089  21.424  1.00  0.00    +0.000 H 
BRANCH   19   17
ATOM     17  C14 UNL A   1      32.491  25.378  21.507  1.00  0.00    +0.000 C 
ATOM     18  O3  UNL A   1      32.723  25.520  20.306  1.00  0.00    +0.000 O 
BRANCH   17   16
ATOM    107  H16 UNL A   1      34.415  24.844  22.198  1.00  0.00    +0.000 H 
ATOM    108  H17 UNL A   1      33.114  24.740  23.404  1.00  0.00    +0.000 H 
ATOM     16  C13 UNL A   1      33.402  24.553  22.390  1.00  0.00    +0.000 C 
BRANCH   16   15
ATOM    105  H14 UNL A   1      33.177  22.901  21.098  1.00  0.00    +0.000 H 
ATOM    106  H15 UNL A   1      34.155  22.636  22.601  1.00  0.00    +0.000 H 
ATOM     15  C12 UNL A   1      33.276  23.049  22.153  1.00  0.00    +0.000 C 
BRANCH   15   14
ATOM     14  C11 UNL A   1      32.114  22.302  22.832  1.00  0.00    +0.000 C 
ATOM    103  H12 UNL A   1      31.863  22.827  23.730  1.00  0.00    +0.000 H 
ATOM    104  H13 UNL A   1      31.321  22.275  22.113  1.00  0.00    +0.000 H 
BRANCH   14   13
ATOM    101  H10 UNL A   1      31.771  20.228  22.589  1.00  0.00    +0.000 H 
ATOM     13  C10 UNL A   1      32.398  20.841  23.201  1.00  0.00    +0.000 C 
ATOM    102  H11 UNL A   1      33.450  20.723  23.047  1.00  0.00    +0.000 H 
BRANCH   13   12
ATOM    100  H9  UNL A   1      31.940  19.378  24.560  1.00  0.00    +0.000 H 
ATOM     99  H8  UNL A   1      31.424  21.077  25.050  1.00  0.00    +0.000 H 
ATOM     12  C9  UNL A   1      32.171  20.418  24.659  1.00  0.00    +0.000 C 
BRANCH   12   11
ATOM     11  S1  UNL A   1      33.532  20.399  25.883  1.00  0.00    +0.000 S 
BRANCH   11   10
ATOM     97  H6  UNL A   1      37.494  22.307  23.883  1.00  0.00    +0.000 H 
ATOM     98  H7  UNL A   1      35.906  20.553  24.398  1.00  0.00    +0.000 H 
ATOM      5  C3  UNL A   1      34.291  23.116  25.801  1.00  0.00    +0.000 C 
ATOM      6  C4  UNL A   1      35.213  24.133  25.502  1.00  0.00    +0.000 C 
ATOM      7  C5  UNL A   1      36.388  23.837  24.816  1.00  0.00    +0.000 C 
ATOM      8  C6  UNL A   1      36.635  22.530  24.410  1.00  0.00    +0.000 C 
ATOM      9  C7  UNL A   1      35.719  21.516  24.717  1.00  0.00    +0.000 C 
ATOM     10  C8  UNL A   1      34.549  21.784  25.451  1.00  0.00    +0.000 C 
ATOM     95  H4  UNL A   1      35.018  25.103  25.792  1.00  0.00    +0.000 H 
ATOM     96  H5  UNL A   1      37.071  24.583  24.611  1.00  0.00    +0.000 H 
BRANCH    5    4
ATOM      4  O2  UNL A   1      33.244  23.570  26.668  1.00  0.00    +0.000 O 
BRANCH    4    2
ATOM      2  C2  UNL A   1      32.088  24.350  26.526  1.00  0.00    +0.000 C 
ATOM      3  O1  UNL A   1      31.990  25.564  26.615  1.00  0.00    +0.000 O 
BRANCH    2    1
ATOM      1  C1  UNL A   1      30.941  23.421  26.252  1.00  0.00    +0.000 C 
ATOM     92  H1  UNL A   1      30.646  23.510  25.228  1.00  0.00    +0.000 H 
ATOM     93  H2  UNL A   1      30.115  23.679  26.883  1.00  0.00    +0.000 H 
ATOM     94  H3  UNL A   1      31.242  22.414  26.452  1.00  0.00    +0.000 H 
ENDBRANCH    2    1
ENDBRANCH    4    2
ENDBRANCH    5    4
ENDBRANCH   11   10
ENDBRANCH   12   11
ENDBRANCH   13   12
ENDBRANCH   14   13
ENDBRANCH   15   14
ENDBRANCH   16   15
ENDBRANCH   17   16
ENDBRANCH   19   17
ENDBRANCH   20   19
ENDBRANCH   21   20
ENDBRANCH   22   21
ENDBRANCH   23   22
ENDBRANCH   24   23
ENDBRANCH   25   24
ENDBRANCH   26   25
ENDBRANCH   27   26
ENDBRANCH   29   27
ENDBRANCH   33   32
BRANCH   37   38
ATOM     38  C30 UNL A   1      39.610  31.877  35.752  1.00  0.00    +0.000 C 
ATOM     39  C31 UNL A   1      40.199  33.135  35.957  1.00  0.00    +0.000 C 
ATOM     40  F1  UNL A   1      41.209  33.542  35.175  1.00  0.00    +0.000 F 
ATOM     41  C32 UNL A   1      39.771  33.966  36.989  1.00  0.00    +0.000 C 
ATOM     42  F2  UNL A   1      40.375  35.145  37.191  1.00  0.00    +0.000 F 
ATOM     43  C33 UNL A   1      38.727  33.573  37.813  1.00  0.00    +0.000 C 
ATOM     44  F3  UNL A   1      38.309  34.379  38.799  1.00  0.00    +0.000 F 
ATOM     45  C34 UNL A   1      38.120  32.342  37.618  1.00  0.00    +0.000 C 
ATOM     46  F4  UNL A   1      37.103  31.965  38.407  1.00  0.00    +0.000 F 
ATOM     47  C35 UNL A   1      38.564  31.496  36.606  1.00  0.00    +0.000 C 
ATOM     48  F5  UNL A   1      37.963  30.307  36.450  1.00  0.00    +0.000 F 
ENDBRANCH   37   38
BRANCH   54   55
ATOM     65  F10 UNL A   1      46.326  29.201  33.494  1.00  0.00    +0.000 F 
ATOM     55  C41 UNL A   1      45.009  27.360  34.230  1.00  0.00    +0.000 C 
ATOM     56  C42 UNL A   1      44.970  26.143  34.927  1.00  0.00    +0.000 C 
ATOM     57  F6  UNL A   1      43.816  25.468  35.041  1.00  0.00    +0.000 F 
ATOM     58  C43 UNL A   1      46.110  25.636  35.543  1.00  0.00    +0.000 C 
ATOM     59  F7  UNL A   1      46.041  24.496  36.242  1.00  0.00    +0.000 F 
ATOM     60  C44 UNL A   1      47.315  26.316  35.446  1.00  0.00    +0.000 C 
ATOM     61  F8  UNL A   1      48.413  25.823  36.034  1.00  0.00    +0.000 F 
ATOM     62  C45 UNL A   1      47.380  27.512  34.747  1.00  0.00    +0.000 C 
ATOM     63  F9  UNL A   1      48.547  28.164  34.641  1.00  0.00    +0.000 F 
ATOM     64  C46 UNL A   1      46.235  28.036  34.153  1.00  0.00    +0.000 C 
ENDBRANCH   54   55
BRANCH   69   70
ATOM     70  C50 UNL A   1      42.356  26.393  27.867  1.00  0.00    +0.000 C 
ATOM     71  C51 UNL A   1      43.181  26.963  26.887  1.00  0.00    +0.000 C 
ATOM     72  F11 UNL A   1      43.578  28.239  27.006  1.00  0.00    +0.000 F 
ATOM     73  C52 UNL A   1      43.563  26.240  25.760  1.00  0.00    +0.000 C 
ATOM     74  F12 UNL A   1      44.312  26.825  24.815  1.00  0.00    +0.000 F 
ATOM     75  C53 UNL A   1      43.155  24.924  25.607  1.00  0.00    +0.000 C 
ATOM     76  F13 UNL A   1      43.523  24.229  24.521  1.00  0.00    +0.000 F 
ATOM     77  C54 UNL A   1      42.357  24.332  26.574  1.00  0.00    +0.000 C 
ATOM     78  F14 UNL A   1      41.973  23.056  26.435  1.00  0.00    +0.000 F 
ATOM     79  C55 UNL A   1      41.951  25.063  27.688  1.00  0.00    +0.000 C 
ATOM     80  F15 UNL A   1      41.167  24.471  28.600  1.00  0.00    +0.000 F 
ENDBRANCH   69   70
TORSDOF 24
ENDMDL
MODEL 2
REMARK VINA RESULT:      -9.1     19.847     26.446
ROOT
ATOM    129  H38 UNL A   1      46.659  13.421  45.711  1.00  0.00    +0.000 H 
ATOM    130  H39 UNL A   1      48.495  11.947  49.136  1.00  0.00    +0.000 H 
ATOM    131  H40 UNL A   1      51.883  15.395  50.495  1.00  0.00    +0.000 H 
ATOM    132  H41 UNL A   1      52.548  13.806  52.387  1.00  0.00    +0.000 H 
ATOM    133  H42 UNL A   1      45.239   7.444  49.740  1.00  0.00    +0.000 H 
ATOM    134  H43 UNL A   1      44.885   8.761  47.574  1.00  0.00    +0.000 H 
ATOM     33  C26 UNL A   1      46.445  11.144  47.413  1.00  0.00    +0.000 C 
ATOM     34  C27 UNL A   1      46.497  10.080  48.473  1.00  0.00    +0.000 C 
ATOM     35  N3  UNL A   1      47.257  10.007  49.536  1.00  0.00    +0.000 N 
ATOM     36  C28 UNL A   1      46.865   8.854  50.204  1.00  0.00    +0.000 C 
ATOM     37  C29 UNL A   1      47.383   8.317  51.334  1.00  0.00    +0.000 C 
ATOM     49  C36 UNL A   1      48.499   8.872  52.056  1.00  0.00    +0.000 C 
ATOM     50  C37 UNL A   1      49.154   8.357  53.159  1.00  0.00    +0.000 C 
ATOM     51  C38 UNL A   1      50.146   9.266  53.541  1.00  0.00    +0.000 C 
ATOM     52  C39 UNL A   1      50.139  10.324  52.648  1.00  0.00    +0.000 C 
ATOM     53  N4  UNL A   1      49.122  10.071  51.741  1.00  0.00    +0.000 N 
ATOM     54  C40 UNL A   1      50.993  11.484  52.625  1.00  0.00    +0.000 C 
ATOM     66  C47 UNL A   1      50.933  12.476  51.703  1.00  0.00    +0.000 C 
ATOM     67  N5  UNL A   1      50.089  12.601  50.608  1.00  0.00    +0.000 N 
ATOM     68  C48 UNL A   1      50.412  13.734  50.032  1.00  0.00    +0.000 C 
ATOM     69  C49 UNL A   1      49.850  14.360  48.785  1.00  0.00    +0.000 C 
ATOM     81  C56 UNL A   1      48.877  13.719  48.111  1.00  0.00    +0.000 C 
ATOM     82  C57 UNL A   1      48.235  14.195  46.890  1.00  0.00    +0.000 C 
ATOM     83  C58 UNL A   1      47.283  13.322  46.526  1.00  0.00    +0.000 C 
ATOM     84  C59 UNL A   1      47.272  12.203  47.472  1.00  0.00    +0.000 C 
ATOM     85  N6  UNL A   1      48.256  12.523  48.374  1.00  0.00    +0.000 N 
ATOM     86  C60 UNL A   1      51.480  14.472  50.719  1.00  0.00    +0.000 C 
ATOM     87  C61 UNL A   1      51.791  13.642  51.705  1.00  0.00    +0.000 C 
ATOM     88  C62 UNL A   1      45.774   8.278  49.450  1.00  0.00    +0.000 C 
ATOM     89  C63 UNL A   1      45.550   8.962  48.336  1.00  0.00    +0.000 C 
ATOM    125  H34 UNL A   1      48.947   7.458  53.621  1.00  0.00    +0.000 H 
ATOM    126  H35 UNL A   1      50.777   9.164  54.352  1.00  0.00    +0.000 H 
ATOM    127  H36 UNL A   1      48.878  10.654  50.988  1.00  0.00    +0.000 H 
ATOM    128  H37 UNL A   1      48.475  15.064  46.386  1.00  0.00    +0.000 H 
ENDROOT
BRANCH   33   32
ATOM    123  H32 UNL A   1      44.900   9.775  43.277  1.00  0.00    +0.000 H 
ATOM    136  H45 UNL A   1      42.310  12.095  45.646  1.00  0.00    +0.000 H 
ATOM    135  H44 UNL A   1      44.034  12.303  47.336  1.00  0.00    +0.000 H 
ATOM     90  C64 UNL A   1      44.209  11.744  46.487  1.00  0.00    +0.000 C 
ATOM     91  C65 UNL A   1      43.233  11.659  45.499  1.00  0.00    +0.000 C 
ATOM    124  H33 UNL A   1      46.546   9.801  45.061  1.00  0.00    +0.000 H 
ATOM     29  C22 UNL A   1      43.506  10.985  44.304  1.00  0.00    +0.000 C 
ATOM     30  C23 UNL A   1      44.713  10.300  44.146  1.00  0.00    +0.000 C 
ATOM     31  C24 UNL A   1      45.665  10.328  45.166  1.00  0.00    +0.000 C 
ATOM     32  C25 UNL A   1      45.430  11.070  46.334  1.00  0.00    +0.000 C 
BRANCH   29   27
ATOM     27  C21 UNL A   1      42.505  10.929  43.218  1.00  0.00    +0.000 C 
ATOM     28  O4  UNL A   1      42.524  10.004  42.412  1.00  0.00    +0.000 O 
BRANCH   27   26
ATOM     26  N2  UNL A   1      41.540  11.899  43.123  1.00  0.00    +0.000 N 
ATOM    122  H31 UNL A   1      40.962  12.009  43.911  1.00  0.00    +0.000 H 
BRANCH   26   25
ATOM     25  C20 UNL A   1      41.262  12.785  42.003  1.00  0.00    +0.000 C 
ATOM    121  H30 UNL A   1      40.223  13.037  42.031  1.00  0.00    +0.000 H 
ATOM    120  H29 UNL A   1      41.514  12.281  41.093  1.00  0.00    +0.000 H 
BRANCH   25   24
ATOM    118  H27 UNL A   1      41.879  14.528  43.042  1.00  0.00    +0.000 H 
ATOM    119  H28 UNL A   1      43.090  13.810  41.940  1.00  0.00    +0.000 H 
ATOM     24  C19 UNL A   1      42.066  14.082  42.087  1.00  0.00    +0.000 C 
BRANCH   24   23
ATOM    116  H25 UNL A   1      40.758  14.906  40.630  1.00  0.00    +0.000 H 
ATOM    117  H26 UNL A   1      41.820  16.075  41.481  1.00  0.00    +0.000 H 
ATOM     23  C18 UNL A   1      41.738  15.119  41.005  1.00  0.00    +0.000 C 
BRANCH   23   22
ATOM    114  H23 UNL A   1      43.555  14.560  40.048  1.00  0.00    +0.000 H 
ATOM    115  H24 UNL A   1      42.161  14.788  38.966  1.00  0.00    +0.000 H 
ATOM     22  C17 UNL A   1      42.700  15.159  39.812  1.00  0.00    +0.000 C 
BRANCH   22   21
ATOM    113  H22 UNL A   1      43.108  17.154  40.341  1.00  0.00    +0.000 H 
ATOM     21  C16 UNL A   1      43.180  16.561  39.454  1.00  0.00    +0.000 C 
ATOM    112  H21 UNL A   1      42.564  16.937  38.663  1.00  0.00    +0.000 H 
BRANCH   21   20
ATOM     20  C15 UNL A   1      44.635  16.609  38.998  1.00  0.00    +0.000 C 
ATOM    110  H19 UNL A   1      44.783  15.891  38.219  1.00  0.00    +0.000 H 
ATOM    111  H20 UNL A   1      44.852  17.594  38.640  1.00  0.00    +0.000 H 
BRANCH   20   19
ATOM     19  N1  UNL A   1      45.523  16.307  40.098  1.00  0.00    +0.000 N 
ATOM    109  H18 UNL A   1      45.466  15.393  40.458  1.00  0.00    +0.000 H 
BRANCH   19   17
ATOM     17  C14 UNL A   1      46.427  17.129  40.697  1.00  0.00    +0.000 C 
ATOM     18  O3  UNL A   1      46.505  18.300  40.325  1.00  0.00    +0.000 O 
BRANCH   17   16
ATOM    107  H16 UNL A   1      46.907  15.673  42.150  1.00  0.00    +0.000 H 
ATOM    108  H17 UNL A   1      48.296  16.450  41.360  1.00  0.00    +0.000 H 
ATOM     16  C13 UNL A   1      47.325  16.590  41.789  1.00  0.00    +0.000 C 
BRANCH   16   15
ATOM    105  H14 UNL A   1      48.300  18.203  42.736  1.00  0.00    +0.000 H 
ATOM    106  H15 UNL A   1      46.528  18.012  43.065  1.00  0.00    +0.000 H 
ATOM     15  C12 UNL A   1      47.486  17.548  42.968  1.00  0.00    +0.000 C 
BRANCH   15   14
ATOM     14  C11 UNL A   1      47.764  16.947  44.358  1.00  0.00    +0.000 C 
ATOM    103  H12 UNL A   1      47.026  16.196  44.547  1.00  0.00    +0.000 H 
ATOM    104  H13 UNL A   1      48.764  16.569  44.322  1.00  0.00    +0.000 H 
BRANCH   14   13
ATOM    101  H10 UNL A   1      48.712  17.971  45.949  1.00  0.00    +0.000 H 
ATOM     13  C10 UNL A   1      47.732  17.945  45.523  1.00  0.00    +0.000 C 
ATOM    102  H11 UNL A   1      47.395  18.862  45.085  1.00  0.00    +0.000 H 
BRANCH   13   12
ATOM    100  H9  UNL A   1      47.228  18.137  47.500  1.00  0.00    +0.000 H 
ATOM     99  H8  UNL A   1      46.585  16.616  46.682  1.00  0.00    +0.000 H 
ATOM     12  C9  UNL A   1      46.743  17.674  46.666  1.00  0.00    +0.000 C 
BRANCH   12   11
ATOM     11  S1  UNL A   1      45.081  18.443  46.708  1.00  0.00    +0.000 S 
BRANCH   11   10
ATOM     97  H6  UNL A   1      44.626  21.373  42.893  1.00  0.00    +0.000 H 
ATOM     98  H7  UNL A   1      45.297  20.756  45.137  1.00  0.00    +0.000 H 
ATOM      5  C3  UNL A   1      44.163  17.786  44.121  1.00  0.00    +0.000 C 
ATOM      6  C4  UNL A   1      43.774  18.144  42.820  1.00  0.00    +0.000 C 
ATOM      7  C5  UNL A   1      43.928  19.455  42.376  1.00  0.00    +0.000 C 
ATOM      8  C6  UNL A   1      44.489  20.404  43.223  1.00  0.00    +0.000 C 
ATOM      9  C7  UNL A   1      44.868  20.047  44.523  1.00  0.00    +0.000 C 
ATOM     10  C8  UNL A   1      44.677  18.740  45.009  1.00  0.00    +0.000 C 
ATOM     95  H4  UNL A   1      43.373  17.433  42.190  1.00  0.00    +0.000 H 
ATOM     96  H5  UNL A   1      43.628  19.720  41.425  1.00  0.00    +0.000 H 
BRANCH    5    4
ATOM      4  O2  UNL A   1      43.758  16.453  44.461  1.00  0.00    +0.000 O 
BRANCH    4    2
ATOM      2  C2  UNL A   1      44.362  15.342  45.066  1.00  0.00    +0.000 C 
ATOM      3  O1  UNL A   1      44.342  15.030  46.246  1.00  0.00    +0.000 O 
BRANCH    2    1
ATOM      1  C1  UNL A   1      45.080  14.573  43.994  1.00  0.00    +0.000 C 
ATOM     92  H1  UNL A   1      46.097  14.900  43.941  1.00  0.00    +0.000 H 
ATOM     93  H2  UNL A   1      44.601  14.743  43.052  1.00  0.00    +0.000 H 
ATOM     94  H3  UNL A   1      45.052  13.529  44.225  1.00  0.00    +0.000 H 
ENDBRANCH    2    1
ENDBRANCH    4    2
ENDBRANCH    5    4
ENDBRANCH   11   10
ENDBRANCH   12   11
ENDBRANCH   13   12
ENDBRANCH   14   13
ENDBRANCH   15   14
ENDBRANCH   16   15
ENDBRANCH   17   16
ENDBRANCH   19   17
ENDBRANCH   20   19
ENDBRANCH   21   20
ENDBRANCH   22   21
ENDBRANCH   23   22
ENDBRANCH   24   23
ENDBRANCH   25   24
ENDBRANCH   26   25
ENDBRANCH   27   26
ENDBRANCH   29   27
ENDBRANCH   33   32
BRANCH   37   38
ATOM     38  C30 UNL A   1      46.755   7.062  51.864  1.00  0.00    +0.000 C 
ATOM     39  C31 UNL A   1      45.529   7.084  52.547  1.00  0.00    +0.000 C 
ATOM     40  F1  UNL A   1      44.916   8.250  52.797  1.00  0.00    +0.000 F 
ATOM     41  C32 UNL A   1      44.944   5.905  53.006  1.00  0.00    +0.000 C 
ATOM     42  F2  UNL A   1      43.794   5.954  53.691  1.00  0.00    +0.000 F 
ATOM     43  C33 UNL A   1      45.555   4.684  52.762  1.00  0.00    +0.000 C 
ATOM     44  F3  UNL A   1      44.984   3.550  53.194  1.00  0.00    +0.000 F 
ATOM     45  C34 UNL A   1      46.757   4.639  52.074  1.00  0.00    +0.000 C 
ATOM     46  F4  UNL A   1      47.343   3.458  51.828  1.00  0.00    +0.000 F 
ATOM     47  C35 UNL A   1      47.359   5.816  51.640  1.00  0.00    +0.000 C 
ATOM     48  F5  UNL A   1      48.528   5.740  50.987  1.00  0.00    +0.000 F 
ENDBRANCH   37   38
BRANCH   54   55
ATOM     65  F10 UNL A   1      53.636  10.497  52.296  1.00  0.00    +0.000 F 
ATOM     55  C41 UNL A   1      52.046  11.596  53.686  1.00  0.00    +0.000 C 
ATOM     56  C42 UNL A   1      51.777  12.183  54.930  1.00  0.00    +0.000 C 
ATOM     57  F6  UNL A   1      50.569  12.711  55.180  1.00  0.00    +0.000 F 
ATOM     58  C43 UNL A   1      52.763  12.265  55.910  1.00  0.00    +0.000 C 
ATOM     59  F7  UNL A   1      52.497  12.871  57.075  1.00  0.00    +0.000 F 
ATOM     60  C44 UNL A   1      54.022  11.733  55.677  1.00  0.00    +0.000 C 
ATOM     61  F8  UNL A   1      54.967  11.807  56.623  1.00  0.00    +0.000 F 
ATOM     62  C45 UNL A   1      54.304  11.132  54.460  1.00  0.00    +0.000 C 
ATOM     63  F9  UNL A   1      55.518  10.606  54.238  1.00  0.00    +0.000 F 
ATOM     64  C46 UNL A   1      53.330  11.074  53.467  1.00  0.00    +0.000 C 
ENDBRANCH   54   55
BRANCH   69   70
ATOM     70  C50 UNL A   1      50.376  15.656  48.283  1.00  0.00    +0.000 C 
ATOM     71  C51 UNL A   1      51.483  15.694  47.424  1.00  0.00    +0.000 C 
ATOM     72  F11 UNL A   1      52.080  14.552  47.052  1.00  0.00    +0.000 F 
ATOM     73  C52 UNL A   1      52.008  16.906  46.981  1.00  0.00    +0.000 C 
ATOM     74  F12 UNL A   1      53.097  16.914  46.200  1.00  0.00    +0.000 F 
ATOM     75  C53 UNL A   1      51.418  18.100  47.363  1.00  0.00    +0.000 C 
ATOM     76  F13 UNL A   1      51.924  19.266  46.936  1.00  0.00    +0.000 F 
ATOM     77  C54 UNL A   1      50.308  18.086  48.194  1.00  0.00    +0.000 C 
ATOM     78  F14 UNL A   1      49.727  19.239  48.553  1.00  0.00    +0.000 F 
ATOM     79  C55 UNL A   1      49.799  16.877  48.660  1.00  0.00    +0.000 C 
ATOM     80  F15 UNL A   1      48.734  16.894  49.475  1.00  0.00    +0.000 F 
ENDBRANCH   69   70
TORSDOF 24
ENDMDL
MODEL 3
REMARK VINA RESULT:      -9.1      1.389      2.254
ROOT
ATOM    129  H38 UNL A   1      37.884  30.021  27.814  1.00  0.00    +0.000 H 
ATOM    130  H39 UNL A   1      40.356  29.393  31.096  1.00  0.00    +0.000 H 
ATOM    131  H40 UNL A   1      43.905  26.184  29.574  1.00  0.00    +0.000 H 
ATOM    132  H41 UNL A   1      44.808  26.252  31.968  1.00  0.00    +0.000 H 
ATOM    133  H42 UNL A   1      37.939  33.142  34.464  1.00  0.00    +0.000 H 
ATOM    134  H43 UNL A   1      36.727  32.729  32.248  1.00  0.00    +0.000 H 
ATOM     33  C26 UNL A   1      38.107  30.946  30.502  1.00  0.00    +0.000 C 
ATOM     34  C27 UNL A   1      38.464  31.308  31.916  1.00  0.00    +0.000 C 
ATOM     35  N3  UNL A   1      39.463  30.890  32.651  1.00  0.00    +0.000 N 
ATOM     36  C28 UNL A   1      39.359  31.574  33.856  1.00  0.00    +0.000 C 
ATOM     37  C29 UNL A   1      40.132  31.456  34.961  1.00  0.00    +0.000 C 
ATOM     49  C36 UNL A   1      41.235  30.538  35.084  1.00  0.00    +0.000 C 
ATOM     50  C37 UNL A   1      42.023  30.279  36.190  1.00  0.00    +0.000 C 
ATOM     51  C38 UNL A   1      42.998  29.346  35.823  1.00  0.00    +0.000 C 
ATOM     52  C39 UNL A   1      42.787  28.989  34.501  1.00  0.00    +0.000 C 
ATOM     53  N4  UNL A   1      41.703  29.729  34.058  1.00  0.00    +0.000 N 
ATOM     54  C40 UNL A   1      43.523  28.046  33.699  1.00  0.00    +0.000 C 
ATOM     66  C47 UNL A   1      43.246  27.738  32.409  1.00  0.00    +0.000 C 
ATOM     67  N5  UNL A   1      42.230  28.220  31.595  1.00  0.00    +0.000 N 
ATOM     68  C48 UNL A   1      42.387  27.631  30.435  1.00  0.00    +0.000 C 
ATOM     69  C49 UNL A   1      41.553  27.748  29.188  1.00  0.00    +0.000 C 
ATOM     81  C56 UNL A   1      40.474  28.552  29.195  1.00  0.00    +0.000 C 
ATOM     82  C57 UNL A   1      39.570  28.769  28.070  1.00  0.00    +0.000 C 
ATOM     83  C58 UNL A   1      38.637  29.666  28.424  1.00  0.00    +0.000 C 
ATOM     84  C59 UNL A   1      38.857  30.062  29.817  1.00  0.00    +0.000 C 
ATOM     85  N6  UNL A   1      39.965  29.345  30.194  1.00  0.00    +0.000 N 
ATOM     86  C60 UNL A   1      43.545  26.728  30.373  1.00  0.00    +0.000 C 
ATOM     87  C61 UNL A   1      44.007  26.798  31.614  1.00  0.00    +0.000 C 
ATOM     88  C62 UNL A   1      38.224  32.462  33.742  1.00  0.00    +0.000 C 
ATOM     89  C63 UNL A   1      37.596  32.289  32.587  1.00  0.00    +0.000 C 
ATOM    125  H34 UNL A   1      41.912  30.702  37.125  1.00  0.00    +0.000 H 
ATOM    126  H35 UNL A   1      43.746  28.983  36.434  1.00  0.00    +0.000 H 
ATOM    127  H36 UNL A   1      41.322  29.688  33.152  1.00  0.00    +0.000 H 
ATOM    128  H37 UNL A   1      39.638  28.307  27.149  1.00  0.00    +0.000 H 
ENDROOT
BRANCH   33   32
ATOM    123  H32 UNL A   1      33.629  31.473  29.489  1.00  0.00    +0.000 H 
ATOM    136  H45 UNL A   1      36.337  34.210  27.794  1.00  0.00    +0.000 H 
ATOM    135  H44 UNL A   1      38.187  33.018  28.810  1.00  0.00    +0.000 H 
ATOM     90  C64 UNL A   1      37.217  32.705  28.976  1.00  0.00    +0.000 C 
ATOM     91  C65 UNL A   1      36.159  33.366  28.359  1.00  0.00    +0.000 C 
ATOM    124  H33 UNL A   1      35.457  30.409  30.680  1.00  0.00    +0.000 H 
ATOM     29  C22 UNL A   1      34.855  32.883  28.504  1.00  0.00    +0.000 C 
ATOM     30  C23 UNL A   1      34.596  31.807  29.357  1.00  0.00    +0.000 C 
ATOM     31  C24 UNL A   1      35.650  31.187  30.029  1.00  0.00    +0.000 C 
ATOM     32  C25 UNL A   1      36.971  31.616  29.826  1.00  0.00    +0.000 C 
BRANCH   29   27
ATOM     27  C21 UNL A   1      33.723  33.535  27.813  1.00  0.00    +0.000 C 
ATOM     28  O4  UNL A   1      33.878  34.625  27.271  1.00  0.00    +0.000 O 
BRANCH   27   26
ATOM     26  N2  UNL A   1      32.502  32.912  27.757  1.00  0.00    +0.000 N 
ATOM    122  H31 UNL A   1      31.941  32.994  28.561  1.00  0.00    +0.000 H 
BRANCH   26   25
ATOM     25  C20 UNL A   1      31.932  32.147  26.660  1.00  0.00    +0.000 C 
ATOM    121  H30 UNL A   1      32.033  32.724  25.765  1.00  0.00    +0.000 H 
ATOM    120  H29 UNL A   1      30.903  31.946  26.876  1.00  0.00    +0.000 H 
BRANCH   25   24
ATOM    118  H27 UNL A   1      32.694  30.622  25.399  1.00  0.00    +0.000 H 
ATOM    119  H28 UNL A   1      33.627  30.935  26.891  1.00  0.00    +0.000 H 
ATOM     24  C19 UNL A   1      32.660  30.819  26.449  1.00  0.00    +0.000 C 
BRANCH   24   23
ATOM    116  H25 UNL A   1      31.734  29.907  28.130  1.00  0.00    +0.000 H 
ATOM    117  H26 UNL A   1      31.189  29.326  26.523  1.00  0.00    +0.000 H 
ATOM     23  C18 UNL A   1      32.015  29.610  27.141  1.00  0.00    +0.000 C 
BRANCH   23   22
ATOM    114  H23 UNL A   1      33.900  28.633  26.979  1.00  0.00    +0.000 H 
ATOM    115  H24 UNL A   1      32.836  28.031  28.273  1.00  0.00    +0.000 H 
ATOM     22  C17 UNL A   1      32.901  28.364  27.258  1.00  0.00    +0.000 C 
BRANCH   22   21
ATOM    113  H22 UNL A   1      32.567  26.310  26.954  1.00  0.00    +0.000 H 
ATOM     21  C16 UNL A   1      32.452  27.204  26.378  1.00  0.00    +0.000 C 
ATOM    112  H21 UNL A   1      33.056  27.197  25.494  1.00  0.00    +0.000 H 
BRANCH   21   20
ATOM     20  C15 UNL A   1      30.987  27.286  25.962  1.00  0.00    +0.000 C 
ATOM    110  H19 UNL A   1      30.493  26.377  26.233  1.00  0.00    +0.000 H 
ATOM    111  H20 UNL A   1      30.533  28.117  26.460  1.00  0.00    +0.000 H 
BRANCH   20   19
ATOM     19  N1  UNL A   1      30.874  27.481  24.534  1.00  0.00    +0.000 N 
ATOM    109  H18 UNL A   1      30.727  26.668  23.999  1.00  0.00    +0.000 H 
BRANCH   19   17
ATOM     17  C14 UNL A   1      30.944  28.648  23.838  1.00  0.00    +0.000 C 
ATOM     18  O3  UNL A   1      30.141  29.545  24.097  1.00  0.00    +0.000 O 
BRANCH   17   16
ATOM    107  H16 UNL A   1      31.693  28.235  21.906  1.00  0.00    +0.000 H 
ATOM    108  H17 UNL A   1      32.043  29.861  22.529  1.00  0.00    +0.000 H 
ATOM     16  C13 UNL A   1      31.987  28.816  22.755  1.00  0.00    +0.000 C 
BRANCH   16   15
ATOM    105  H14 UNL A   1      34.059  29.168  22.947  1.00  0.00    +0.000 H 
ATOM    106  H15 UNL A   1      33.282  28.146  24.226  1.00  0.00    +0.000 H 
ATOM     15  C12 UNL A   1      33.384  28.372  23.186  1.00  0.00    +0.000 C 
BRANCH   15   14
ATOM     14  C11 UNL A   1      33.959  27.084  22.568  1.00  0.00    +0.000 C 
ATOM    103  H12 UNL A   1      34.811  27.352  21.980  1.00  0.00    +0.000 H 
ATOM    104  H13 UNL A   1      34.189  26.439  23.391  1.00  0.00    +0.000 H 
BRANCH   14   13
ATOM    101  H10 UNL A   1      32.205  26.963  21.391  1.00  0.00    +0.000 H 
ATOM     13  C10 UNL A   1      32.994  26.299  21.672  1.00  0.00    +0.000 C 
ATOM    102  H11 UNL A   1      33.603  25.940  20.868  1.00  0.00    +0.000 H 
BRANCH   13   12
ATOM    100  H9  UNL A   1      31.557  24.842  21.560  1.00  0.00    +0.000 H 
ATOM     99  H8  UNL A   1      32.091  25.274  23.271  1.00  0.00    +0.000 H 
ATOM     12  C9  UNL A   1      32.344  25.037  22.258  1.00  0.00    +0.000 C 
BRANCH   12   11
ATOM     11  S1  UNL A   1      33.224  23.432  22.309  1.00  0.00    +0.000 S 
BRANCH   11   10
ATOM     97  H6  UNL A   1      37.554  23.269  24.447  1.00  0.00    +0.000 H 
ATOM     98  H7  UNL A   1      36.014  23.339  22.578  1.00  0.00    +0.000 H 
ATOM      5  C3  UNL A   1      33.807  23.695  25.058  1.00  0.00    +0.000 C 
ATOM      6  C4  UNL A   1      34.701  23.654  26.141  1.00  0.00    +0.000 C 
ATOM      7  C5  UNL A   1      36.065  23.484  25.920  1.00  0.00    +0.000 C 
ATOM      8  C6  UNL A   1      36.541  23.374  24.618  1.00  0.00    +0.000 C 
ATOM      9  C7  UNL A   1      35.648  23.406  23.541  1.00  0.00    +0.000 C 
ATOM     10  C8  UNL A   1      34.260  23.529  23.742  1.00  0.00    +0.000 C 
ATOM     95  H4  UNL A   1      34.345  23.752  27.104  1.00  0.00    +0.000 H 
ATOM     96  H5  UNL A   1      36.719  23.440  26.718  1.00  0.00    +0.000 H 
BRANCH    5    4
ATOM      4  O2  UNL A   1      32.438  23.686  25.483  1.00  0.00    +0.000 O 
BRANCH    4    2
ATOM      2  C2  UNL A   1      31.498  22.705  25.824  1.00  0.00    +0.000 C 
ATOM      3  O1  UNL A   1      31.487  21.531  25.489  1.00  0.00    +0.000 O 
BRANCH    2    1
ATOM      1  C1  UNL A   1      30.454  23.354  26.687  1.00  0.00    +0.000 C 
ATOM     92  H1  UNL A   1      30.929  23.982  27.410  1.00  0.00    +0.000 H 
ATOM     93  H2  UNL A   1      29.887  22.597  27.190  1.00  0.00    +0.000 H 
ATOM     94  H3  UNL A   1      29.801  23.941  26.076  1.00  0.00    +0.000 H 
ENDBRANCH    2    1
ENDBRANCH    4    2
ENDBRANCH    5    4
ENDBRANCH   11   10
ENDBRANCH   12   11
ENDBRANCH   13   12
ENDBRANCH   14   13
ENDBRANCH   15   14
ENDBRANCH   16   15
ENDBRANCH   17   16
ENDBRANCH   19   17
ENDBRANCH   20   19
ENDBRANCH   21   20
ENDBRANCH   22   21
ENDBRANCH   23   22
ENDBRANCH   24   23
ENDBRANCH   25   24
ENDBRANCH   26   25
ENDBRANCH   27   26
ENDBRANCH   29   27
ENDBRANCH   33   32
BRANCH   37   38
ATOM     38  C30 UNL A   1      39.816  32.338  36.133  1.00  0.00    +0.000 C 
ATOM     39  C31 UNL A   1      40.532  33.518  36.382  1.00  0.00    +0.000 C 
ATOM     40  F1  UNL A   1      41.569  33.856  35.602  1.00  0.00    +0.000 F 
ATOM     41  C32 UNL A   1      40.204  34.341  37.457  1.00  0.00    +0.000 C 
ATOM     42  F2  UNL A   1      40.929  35.442  37.700  1.00  0.00    +0.000 F 
ATOM     43  C33 UNL A   1      39.137  34.018  38.282  1.00  0.00    +0.000 C 
ATOM     44  F3  UNL A   1      38.816  34.817  39.309  1.00  0.00    +0.000 F 
ATOM     45  C34 UNL A   1      38.406  32.865  38.044  1.00  0.00    +0.000 C 
ATOM     46  F4  UNL A   1      37.367  32.557  38.833  1.00  0.00    +0.000 F 
ATOM     47  C35 UNL A   1      38.748  32.025  36.988  1.00  0.00    +0.000 C 
ATOM     48  F5  UNL A   1      38.027  30.911  36.791  1.00  0.00    +0.000 F 
ENDBRANCH   37   38
BRANCH   54   55
ATOM     65  F10 UNL A   1      43.252  25.537  35.002  1.00  0.00    +0.000 F 
ATOM     55  C41 UNL A   1      44.673  27.329  34.343  1.00  0.00    +0.000 C 
ATOM     56  C42 UNL A   1      45.964  27.876  34.360  1.00  0.00    +0.000 C 
ATOM     57  F6  UNL A   1      46.210  29.043  33.745  1.00  0.00    +0.000 F 
ATOM     58  C43 UNL A   1      47.016  27.204  34.975  1.00  0.00    +0.000 C 
ATOM     59  F7  UNL A   1      48.251  27.723  34.940  1.00  0.00    +0.000 F 
ATOM     60  C44 UNL A   1      46.791  25.994  35.614  1.00  0.00    +0.000 C 
ATOM     61  F8  UNL A   1      47.804  25.352  36.211  1.00  0.00    +0.000 F 
ATOM     62  C45 UNL A   1      45.518  25.444  35.625  1.00  0.00    +0.000 C 
ATOM     63  F9  UNL A   1      45.297  24.280  36.252  1.00  0.00    +0.000 F 
ATOM     64  C46 UNL A   1      44.470  26.099  34.985  1.00  0.00    +0.000 C 
ENDBRANCH   54   55
BRANCH   69   70
ATOM     70  C50 UNL A   1      41.895  26.969  27.970  1.00  0.00    +0.000 C 
ATOM     71  C51 UNL A   1      42.719  27.516  26.977  1.00  0.00    +0.000 C 
ATOM     72  F11 UNL A   1      43.204  28.759  27.121  1.00  0.00    +0.000 F 
ATOM     73  C52 UNL A   1      43.011  26.809  25.814  1.00  0.00    +0.000 C 
ATOM     74  F12 UNL A   1      43.762  27.376  24.860  1.00  0.00    +0.000 F 
ATOM     75  C53 UNL A   1      42.511  25.528  25.635  1.00  0.00    +0.000 C 
ATOM     76  F13 UNL A   1      42.793  24.848  24.515  1.00  0.00    +0.000 F 
ATOM     77  C54 UNL A   1      41.712  24.957  26.613  1.00  0.00    +0.000 C 
ATOM     78  F14 UNL A   1      41.239  23.714  26.449  1.00  0.00    +0.000 F 
ATOM     79  C55 UNL A   1      41.396  25.674  27.764  1.00  0.00    +0.000 C 
ATOM     80  F15 UNL A   1      40.609  25.103  28.687  1.00  0.00    +0.000 F 
ENDBRANCH   69   70
TORSDOF 24
ENDMDL
MODEL 4
REMARK VINA RESULT:      -9.0      1.415      2.003
ROOT
ATOM    129  H38 UNL A   1      38.492  28.129  27.643  1.00  0.00    +0.000 H 
ATOM    130  H39 UNL A   1      41.484  28.102  30.528  1.00  0.00    +0.000 H 
ATOM    131  H40 UNL A   1      44.870  24.727  28.991  1.00  0.00    +0.000 H 
ATOM    132  H41 UNL A   1      46.144  25.213  31.157  1.00  0.00    +0.000 H 
ATOM    133  H42 UNL A   1      39.491  32.338  33.581  1.00  0.00    +0.000 H 
ATOM    134  H43 UNL A   1      37.955  31.537  31.696  1.00  0.00    +0.000 H 
ATOM     33  C26 UNL A   1      39.108  29.501  30.066  1.00  0.00    +0.000 C 
ATOM     34  C27 UNL A   1      39.673  30.103  31.322  1.00  0.00    +0.000 C 
ATOM     35  N3  UNL A   1      40.794  29.830  31.939  1.00  0.00    +0.000 N 
ATOM     36  C28 UNL A   1      40.858  30.708  33.014  1.00  0.00    +0.000 C 
ATOM     37  C29 UNL A   1      41.803  30.790  33.980  1.00  0.00    +0.000 C 
ATOM     49  C36 UNL A   1      42.947  29.921  34.068  1.00  0.00    +0.000 C 
ATOM     50  C37 UNL A   1      43.914  29.864  35.055  1.00  0.00    +0.000 C 
ATOM     51  C38 UNL A   1      44.854  28.895  34.692  1.00  0.00    +0.000 C 
ATOM     52  C39 UNL A   1      44.448  28.315  33.501  1.00  0.00    +0.000 C 
ATOM     53  N4  UNL A   1      43.277  28.955  33.128  1.00  0.00    +0.000 N 
ATOM     54  C40 UNL A   1      45.083  27.259  32.755  1.00  0.00    +0.000 C 
ATOM     66  C47 UNL A   1      44.614  26.732  31.598  1.00  0.00    +0.000 C 
ATOM     67  N5  UNL A   1      43.460  27.056  30.896  1.00  0.00    +0.000 N 
ATOM     68  C48 UNL A   1      43.452  26.279  29.840  1.00  0.00    +0.000 C 
ATOM     69  C49 UNL A   1      42.424  26.172  28.747  1.00  0.00    +0.000 C 
ATOM     81  C56 UNL A   1      41.328  26.951  28.799  1.00  0.00    +0.000 C 
ATOM     82  C57 UNL A   1      40.246  26.961  27.820  1.00  0.00    +0.000 C 
ATOM     83  C58 UNL A   1      39.347  27.893  28.171  1.00  0.00    +0.000 C 
ATOM     84  C59 UNL A   1      39.772  28.523  29.422  1.00  0.00    +0.000 C 
ATOM     85  N6  UNL A   1      40.955  27.895  29.724  1.00  0.00    +0.000 N 
ATOM     86  C60 UNL A   1      44.621  25.395  29.737  1.00  0.00    +0.000 C 
ATOM     87  C61 UNL A   1      45.275  25.681  30.855  1.00  0.00    +0.000 C 
ATOM     88  C62 UNL A   1      39.683  31.549  32.944  1.00  0.00    +0.000 C 
ATOM     89  C63 UNL A   1      38.885  31.173  31.955  1.00  0.00    +0.000 C 
ATOM    125  H34 UNL A   1      43.938  30.439  35.912  1.00  0.00    +0.000 H 
ATOM    126  H35 UNL A   1      45.706  28.652  35.222  1.00  0.00    +0.000 H 
ATOM    127  H36 UNL A   1      42.757  28.755  32.317  1.00  0.00    +0.000 H 
ATOM    128  H37 UNL A   1      40.183  26.350  26.990  1.00  0.00    +0.000 H 
ENDROOT
BRANCH   33   32
ATOM    123  H32 UNL A   1      34.555  29.399  29.274  1.00  0.00    +0.000 H 
ATOM    136  H45 UNL A   1      36.732  32.625  27.674  1.00  0.00    +0.000 H 
ATOM    135  H44 UNL A   1      38.788  31.666  28.526  1.00  0.00    +0.000 H 
ATOM     90  C64 UNL A   1      37.887  31.199  28.708  1.00  0.00    +0.000 C 
ATOM     91  C65 UNL A   1      36.712  31.728  28.183  1.00  0.00    +0.000 C 
ATOM    124  H33 UNL A   1      36.580  28.554  30.311  1.00  0.00    +0.000 H 
ATOM     29  C22 UNL A   1      35.504  31.042  28.345  1.00  0.00    +0.000 C 
ATOM     30  C23 UNL A   1      35.453  29.886  29.128  1.00  0.00    +0.000 C 
ATOM     31  C24 UNL A   1      36.621  29.393  29.711  1.00  0.00    +0.000 C 
ATOM     32  C25 UNL A   1      37.851  30.032  29.486  1.00  0.00    +0.000 C 
BRANCH   29   27
ATOM     27  C21 UNL A   1      34.253  31.556  27.749  1.00  0.00    +0.000 C 
ATOM     28  O4  UNL A   1      33.838  32.671  28.055  1.00  0.00    +0.000 O 
BRANCH   27   26
ATOM     26  N2  UNL A   1      33.565  30.799  26.836  1.00  0.00    +0.000 N 
ATOM    122  H31 UNL A   1      34.107  30.384  26.126  1.00  0.00    +0.000 H 
BRANCH   26   25
ATOM     25  C20 UNL A   1      32.137  30.530  26.783  1.00  0.00    +0.000 C 
ATOM    121  H30 UNL A   1      31.791  30.771  25.800  1.00  0.00    +0.000 H 
ATOM    120  H29 UNL A   1      31.645  31.127  27.523  1.00  0.00    +0.000 H 
BRANCH   25   24
ATOM    118  H27 UNL A   1      31.241  28.998  27.943  1.00  0.00    +0.000 H 
ATOM    119  H28 UNL A   1      31.302  28.704  26.181  1.00  0.00    +0.000 H 
ATOM     24  C19 UNL A   1      31.821  29.058  27.046  1.00  0.00    +0.000 C 
BRANCH   24   23
ATOM    116  H25 UNL A   1      33.923  28.760  27.113  1.00  0.00    +0.000 H 
ATOM    117  H26 UNL A   1      32.946  27.692  28.172  1.00  0.00    +0.000 H 
ATOM     23  C18 UNL A   1      33.048  28.152  27.211  1.00  0.00    +0.000 C 
BRANCH   23   22
ATOM    114  H23 UNL A   1      34.186  26.697  26.153  1.00  0.00    +0.000 H 
ATOM    115  H24 UNL A   1      32.520  26.218  26.555  1.00  0.00    +0.000 H 
ATOM     22  C17 UNL A   1      33.161  27.000  26.205  1.00  0.00    +0.000 C 
BRANCH   22   21
ATOM    113  H22 UNL A   1      33.519  27.185  24.141  1.00  0.00    +0.000 H 
ATOM     21  C16 UNL A   1      32.696  27.362  24.800  1.00  0.00    +0.000 C 
ATOM    112  H21 UNL A   1      32.388  28.388  24.798  1.00  0.00    +0.000 H 
BRANCH   21   20
ATOM     20  C15 UNL A   1      31.532  26.509  24.304  1.00  0.00    +0.000 C 
ATOM    110  H19 UNL A   1      31.371  25.702  24.988  1.00  0.00    +0.000 H 
ATOM    111  H20 UNL A   1      30.656  27.122  24.243  1.00  0.00    +0.000 H 
BRANCH   20   19
ATOM     19  N1  UNL A   1      31.817  25.971  22.993  1.00  0.00    +0.000 N 
ATOM    109  H18 UNL A   1      31.034  25.758  22.436  1.00  0.00    +0.000 H 
BRANCH   19   17
ATOM     17  C14 UNL A   1      33.032  25.725  22.433  1.00  0.00    +0.000 C 
ATOM     18  O3  UNL A   1      33.450  26.485  21.558  1.00  0.00    +0.000 O 
BRANCH   17   16
ATOM    107  H16 UNL A   1      34.831  24.619  22.493  1.00  0.00    +0.000 H 
ATOM    108  H17 UNL A   1      33.819  24.512  23.949  1.00  0.00    +0.000 H 
ATOM     16  C13 UNL A   1      33.837  24.524  22.879  1.00  0.00    +0.000 C 
BRANCH   16   15
ATOM    105  H14 UNL A   1      32.778  23.377  21.461  1.00  0.00    +0.000 H 
ATOM    106  H15 UNL A   1      34.096  22.533  22.377  1.00  0.00    +0.000 H 
ATOM     15  C12 UNL A   1      33.257  23.194  22.401  1.00  0.00    +0.000 C 
BRANCH   15   14
ATOM     14  C11 UNL A   1      32.234  22.482  23.305  1.00  0.00    +0.000 C 
ATOM    103  H12 UNL A   1      32.381  22.827  24.307  1.00  0.00    +0.000 H 
ATOM    104  H13 UNL A   1      31.270  22.721  22.905  1.00  0.00    +0.000 H 
BRANCH   14   13
ATOM    101  H10 UNL A   1      31.341  20.574  23.104  1.00  0.00    +0.000 H 
ATOM     13  C10 UNL A   1      32.319  20.951  23.314  1.00  0.00    +0.000 C 
ATOM    102  H11 UNL A   1      33.069  20.717  22.587  1.00  0.00    +0.000 H 
BRANCH   13   12
ATOM    100  H9  UNL A   1      32.383  19.293  24.516  1.00  0.00    +0.000 H 
ATOM     99  H8  UNL A   1      32.490  20.901  25.410  1.00  0.00    +0.000 H 
ATOM     12  C9  UNL A   1      32.805  20.272  24.602  1.00  0.00    +0.000 C 
BRANCH   12   11
ATOM     11  S1  UNL A   1      34.575  19.907  24.894  1.00  0.00    +0.000 S 
BRANCH   11   10
ATOM     97  H6  UNL A   1      37.695  23.193  23.218  1.00  0.00    +0.000 H 
ATOM     98  H7  UNL A   1      36.406  21.144  23.167  1.00  0.00    +0.000 H 
ATOM      5  C3  UNL A   1      35.153  22.451  25.971  1.00  0.00    +0.000 C 
ATOM      6  C4  UNL A   1      35.901  23.639  26.001  1.00  0.00    +0.000 C 
ATOM      7  C5  UNL A   1      36.839  23.905  25.006  1.00  0.00    +0.000 C 
ATOM      8  C6  UNL A   1      37.017  22.994  23.970  1.00  0.00    +0.000 C 
ATOM      9  C7  UNL A   1      36.277  21.805  23.948  1.00  0.00    +0.000 C 
ATOM     10  C8  UNL A   1      35.359  21.494  24.968  1.00  0.00    +0.000 C 
ATOM     95  H4  UNL A   1      35.755  24.319  26.762  1.00  0.00    +0.000 H 
ATOM     96  H5  UNL A   1      37.398  24.771  25.037  1.00  0.00    +0.000 H 
BRANCH    5    4
ATOM      4  O2  UNL A   1      34.383  22.265  27.166  1.00  0.00    +0.000 O 
BRANCH    4    2
ATOM      2  C2  UNL A   1      33.066  22.532  27.565  1.00  0.00    +0.000 C 
ATOM      3  O1  UNL A   1      32.434  21.997  28.462  1.00  0.00    +0.000 O 
BRANCH    2    1
ATOM      1  C1  UNL A   1      32.528  23.611  26.671  1.00  0.00    +0.000 C 
ATOM     92  H1  UNL A   1      32.160  24.419  27.268  1.00  0.00    +0.000 H 
ATOM     93  H2  UNL A   1      31.731  23.216  26.075  1.00  0.00    +0.000 H 
ATOM     94  H3  UNL A   1      33.308  23.967  26.031  1.00  0.00    +0.000 H 
ENDBRANCH    2    1
ENDBRANCH    4    2
ENDBRANCH    5    4
ENDBRANCH   11   10
ENDBRANCH   12   11
ENDBRANCH   13   12
ENDBRANCH   14   13
ENDBRANCH   15   14
ENDBRANCH   16   15
ENDBRANCH   17   16
ENDBRANCH   19   17
ENDBRANCH   20   19
ENDBRANCH   21   20
ENDBRANCH   22   21
ENDBRANCH   23   22
ENDBRANCH   24   23
ENDBRANCH   25   24
ENDBRANCH   26   25
ENDBRANCH   27   26
ENDBRANCH   29   27
ENDBRANCH   33   32
BRANCH   37   38
ATOM     38  C30 UNL A   1      41.645  31.854  35.025  1.00  0.00    +0.000 C 
ATOM     39  C31 UNL A   1      42.359  33.060  34.964  1.00  0.00    +0.000 C 
ATOM     40  F1  UNL A   1      43.256  33.264  33.989  1.00  0.00    +0.000 F 
ATOM     41  C32 UNL A   1      42.175  34.050  35.927  1.00  0.00    +0.000 C 
ATOM     42  F2  UNL A   1      42.899  35.177  35.872  1.00  0.00    +0.000 F 
ATOM     43  C33 UNL A   1      41.254  33.868  36.947  1.00  0.00    +0.000 C 
ATOM     44  F3  UNL A   1      41.071  34.827  37.866  1.00  0.00    +0.000 F 
ATOM     45  C34 UNL A   1      40.525  32.691  37.017  1.00  0.00    +0.000 C 
ATOM     46  F4  UNL A   1      39.625  32.518  37.995  1.00  0.00    +0.000 F 
ATOM     47  C35 UNL A   1      40.726  31.688  36.073  1.00  0.00    +0.000 C 
ATOM     48  F5  UNL A   1      40.013  30.556  36.174  1.00  0.00    +0.000 F 
ENDBRANCH   37   38
BRANCH   54   55
ATOM     65  F10 UNL A   1      47.660  28.280  32.133  1.00  0.00    +0.000 F 
ATOM     55  C41 UNL A   1      46.350  26.678  33.309  1.00  0.00    +0.000 C 
ATOM     56  C42 UNL A   1      46.336  25.564  34.162  1.00  0.00    +0.000 C 
ATOM     57  F6  UNL A   1      45.170  25.023  34.545  1.00  0.00    +0.000 F 
ATOM     58  C43 UNL A   1      47.522  25.028  34.655  1.00  0.00    +0.000 C 
ATOM     59  F7  UNL A   1      47.484  23.993  35.504  1.00  0.00    +0.000 F 
ATOM     60  C44 UNL A   1      48.742  25.572  34.279  1.00  0.00    +0.000 C 
ATOM     61  F8  UNL A   1      49.882  25.050  34.750  1.00  0.00    +0.000 F 
ATOM     62  C45 UNL A   1      48.778  26.662  33.423  1.00  0.00    +0.000 C 
ATOM     63  F9  UNL A   1      49.957  27.181  33.049  1.00  0.00    +0.000 F 
ATOM     64  C46 UNL A   1      47.593  27.219  32.951  1.00  0.00    +0.000 C 
ENDBRANCH   54   55
BRANCH   69   70
ATOM     70  C50 UNL A   1      42.596  25.201  27.636  1.00  0.00    +0.000 C 
ATOM     71  C51 UNL A   1      41.986  23.939  27.686  1.00  0.00    +0.000 C 
ATOM     72  F11 UNL A   1      41.242  23.599  28.749  1.00  0.00    +0.000 F 
ATOM     73  C52 UNL A   1      42.175  23.007  26.669  1.00  0.00    +0.000 C 
ATOM     74  F12 UNL A   1      41.620  21.792  26.767  1.00  0.00    +0.000 F 
ATOM     75  C53 UNL A   1      42.952  23.329  25.566  1.00  0.00    +0.000 C 
ATOM     76  F13 UNL A   1      43.133  22.431  24.588  1.00  0.00    +0.000 F 
ATOM     77  C54 UNL A   1      43.547  24.579  25.484  1.00  0.00    +0.000 C 
ATOM     78  F14 UNL A   1      44.286  24.898  24.412  1.00  0.00    +0.000 F 
ATOM     79  C55 UNL A   1      43.382  25.502  26.513  1.00  0.00    +0.000 C 
ATOM     80  F15 UNL A   1      43.981  26.697  26.414  1.00  0.00    +0.000 F 
ENDBRANCH   69   70
TORSDOF 24
ENDMDL
MODEL 5
REMARK VINA RESULT:      -9.0      1.459      2.547
ROOT
ATOM    129  H38 UNL A   1      37.937  30.146  27.786  1.00  0.00    +0.000 H 
ATOM    130  H39 UNL A   1      40.331  29.409  31.103  1.00  0.00    +0.000 H 
ATOM    131  H40 UNL A   1      43.913  26.247  29.559  1.00  0.00    +0.000 H 
ATOM    132  H41 UNL A   1      44.761  26.236  31.974  1.00  0.00    +0.000 H 
ATOM    133  H42 UNL A   1      37.838  33.049  34.535  1.00  0.00    +0.000 H 
ATOM    134  H43 UNL A   1      36.678  32.709  32.278  1.00  0.00    +0.000 H 
ATOM     33  C26 UNL A   1      38.097  30.983  30.507  1.00  0.00    +0.000 C 
ATOM     34  C27 UNL A   1      38.421  31.298  31.941  1.00  0.00    +0.000 C 
ATOM     35  N3  UNL A   1      39.403  30.856  32.684  1.00  0.00    +0.000 N 
ATOM     36  C28 UNL A   1      39.271  31.500  33.908  1.00  0.00    +0.000 C 
ATOM     37  C29 UNL A   1      40.018  31.345  35.027  1.00  0.00    +0.000 C 
ATOM     49  C36 UNL A   1      41.117  30.422  35.145  1.00  0.00    +0.000 C 
ATOM     50  C37 UNL A   1      41.880  30.126  36.260  1.00  0.00    +0.000 C 
ATOM     51  C38 UNL A   1      42.862  29.204  35.885  1.00  0.00    +0.000 C 
ATOM     52  C39 UNL A   1      42.682  28.891  34.548  1.00  0.00    +0.000 C 
ATOM     53  N4  UNL A   1      41.609  29.646  34.104  1.00  0.00    +0.000 N 
ATOM     54  C40 UNL A   1      43.436  27.974  33.733  1.00  0.00    +0.000 C 
ATOM     66  C47 UNL A   1      43.189  27.708  32.427  1.00  0.00    +0.000 C 
ATOM     67  N5  UNL A   1      42.192  28.218  31.606  1.00  0.00    +0.000 N 
ATOM     68  C48 UNL A   1      42.376  27.666  30.431  1.00  0.00    +0.000 C 
ATOM     69  C49 UNL A   1      41.572  27.826  29.170  1.00  0.00    +0.000 C 
ATOM     81  C56 UNL A   1      40.493  28.630  29.178  1.00  0.00    +0.000 C 
ATOM     82  C57 UNL A   1      39.615  28.885  28.040  1.00  0.00    +0.000 C 
ATOM     83  C58 UNL A   1      38.674  29.771  28.402  1.00  0.00    +0.000 C 
ATOM     84  C59 UNL A   1      38.862  30.121  29.812  1.00  0.00    +0.000 C 
ATOM     85  N6  UNL A   1      39.961  29.390  30.191  1.00  0.00    +0.000 N 
ATOM     86  C60 UNL A   1      43.535  26.766  30.367  1.00  0.00    +0.000 C 
ATOM     87  C61 UNL A   1      43.968  26.794  31.620  1.00  0.00    +0.000 C 
ATOM     88  C62 UNL A   1      38.139  32.393  33.797  1.00  0.00    +0.000 C 
ATOM     89  C63 UNL A   1      37.539  32.258  32.623  1.00  0.00    +0.000 C 
ATOM    125  H34 UNL A   1      41.746  30.519  37.205  1.00  0.00    +0.000 H 
ATOM    126  H35 UNL A   1      43.596  28.821  36.502  1.00  0.00    +0.000 H 
ATOM    127  H36 UNL A   1      41.249  29.635  33.189  1.00  0.00    +0.000 H 
ATOM    128  H37 UNL A   1      39.704  28.453  27.106  1.00  0.00    +0.000 H 
ENDROOT
BRANCH   33   32
ATOM    123  H32 UNL A   1      33.678  31.428  29.230  1.00  0.00    +0.000 H 
ATOM    136  H45 UNL A   1      36.353  34.455  28.054  1.00  0.00    +0.000 H 
ATOM    135  H44 UNL A   1      38.186  33.235  29.065  1.00  0.00    +0.000 H 
ATOM     90  C64 UNL A   1      37.225  32.864  29.124  1.00  0.00    +0.000 C 
ATOM     91  C65 UNL A   1      36.180  33.545  28.507  1.00  0.00    +0.000 C 
ATOM    124  H33 UNL A   1      35.472  30.315  30.428  1.00  0.00    +0.000 H 
ATOM     29  C22 UNL A   1      34.895  32.993  28.500  1.00  0.00    +0.000 C 
ATOM     30  C23 UNL A   1      34.634  31.817  29.208  1.00  0.00    +0.000 C 
ATOM     31  C24 UNL A   1      35.669  31.170  29.883  1.00  0.00    +0.000 C 
ATOM     32  C25 UNL A   1      36.977  31.676  29.828  1.00  0.00    +0.000 C 
BRANCH   29   27
ATOM     27  C21 UNL A   1      33.781  33.670  27.804  1.00  0.00    +0.000 C 
ATOM     28  O4  UNL A   1      33.977  34.729  27.214  1.00  0.00    +0.000 O 
BRANCH   27   26
ATOM     26  N2  UNL A   1      32.532  33.105  27.797  1.00  0.00    +0.000 N 
ATOM    122  H31 UNL A   1      32.044  33.128  28.652  1.00  0.00    +0.000 H 
BRANCH   26   25
ATOM     25  C20 UNL A   1      31.835  32.477  26.686  1.00  0.00    +0.000 C 
ATOM    121  H30 UNL A   1      31.898  33.131  25.842  1.00  0.00    +0.000 H 
ATOM    120  H29 UNL A   1      30.816  32.307  26.968  1.00  0.00    +0.000 H 
BRANCH   25   24
ATOM    118  H27 UNL A   1      32.208  30.935  25.278  1.00  0.00    +0.000 H 
ATOM    119  H28 UNL A   1      33.520  31.252  26.451  1.00  0.00    +0.000 H 
ATOM     24  C19 UNL A   1      32.467  31.141  26.295  1.00  0.00    +0.000 C 
BRANCH   24   23
ATOM    116  H25 UNL A   1      31.781  30.307  28.125  1.00  0.00    +0.000 H 
ATOM    117  H26 UNL A   1      31.208  29.497  26.630  1.00  0.00    +0.000 H 
ATOM     23  C18 UNL A   1      32.031  29.943  27.149  1.00  0.00    +0.000 C 
BRANCH   23   22
ATOM    114  H23 UNL A   1      33.998  29.171  26.889  1.00  0.00    +0.000 H 
ATOM    115  H24 UNL A   1      33.156  28.637  28.364  1.00  0.00    +0.000 H 
ATOM     22  C17 UNL A   1      33.075  28.833  27.315  1.00  0.00    +0.000 C 
BRANCH   22   21
ATOM    113  H22 UNL A   1      32.831  26.745  27.369  1.00  0.00    +0.000 H 
ATOM     21  C16 UNL A   1      32.690  27.520  26.645  1.00  0.00    +0.000 C 
ATOM    112  H21 UNL A   1      33.309  27.386  25.782  1.00  0.00    +0.000 H 
BRANCH   21   20
ATOM     20  C15 UNL A   1      31.229  27.464  26.207  1.00  0.00    +0.000 C 
ATOM    110  H19 UNL A   1      30.781  26.573  26.590  1.00  0.00    +0.000 H 
ATOM    111  H20 UNL A   1      30.723  28.327  26.586  1.00  0.00    +0.000 H 
BRANCH   20   19
ATOM     19  N1  UNL A   1      31.131  27.464  24.764  1.00  0.00    +0.000 N 
ATOM    109  H18 UNL A   1      31.027  26.581  24.341  1.00  0.00    +0.000 H 
BRANCH   19   17
ATOM     17  C14 UNL A   1      31.164  28.530  23.920  1.00  0.00    +0.000 C 
ATOM     18  O3  UNL A   1      30.255  29.359  23.971  1.00  0.00    +0.000 O 
BRANCH   17   16
ATOM    107  H16 UNL A   1      31.907  28.551  21.943  1.00  0.00    +0.000 H 
ATOM    108  H17 UNL A   1      32.731  29.640  23.079  1.00  0.00    +0.000 H 
ATOM     16  C13 UNL A   1      32.301  28.671  22.931  1.00  0.00    +0.000 C 
BRANCH   16   15
ATOM    105  H14 UNL A   1      34.338  28.185  23.184  1.00  0.00    +0.000 H 
ATOM    106  H15 UNL A   1      33.133  27.125  24.027  1.00  0.00    +0.000 H 
ATOM     15  C12 UNL A   1      33.414  27.646  23.137  1.00  0.00    +0.000 C 
BRANCH   15   14
ATOM     14  C11 UNL A   1      33.585  26.538  22.082  1.00  0.00    +0.000 C 
ATOM    103  H12 UNL A   1      33.978  26.985  21.194  1.00  0.00    +0.000 H 
ATOM    104  H13 UNL A   1      34.234  25.809  22.522  1.00  0.00    +0.000 H 
BRANCH   14   13
ATOM    101  H10 UNL A   1      31.528  26.515  21.587  1.00  0.00    +0.000 H 
ATOM     13  C10 UNL A   1      32.302  25.786  21.705  1.00  0.00    +0.000 C 
ATOM    102  H11 UNL A   1      32.558  25.239  20.822  1.00  0.00    +0.000 H 
BRANCH   13   12
ATOM    100  H9  UNL A   1      30.871  24.413  22.221  1.00  0.00    +0.000 H 
ATOM     99  H8  UNL A   1      31.744  25.194  23.644  1.00  0.00    +0.000 H 
ATOM     12  C9  UNL A   1      31.785  24.723  22.684  1.00  0.00    +0.000 C 
BRANCH   12   11
ATOM     11  S1  UNL A   1      32.656  23.131  22.929  1.00  0.00    +0.000 S 
BRANCH   11   10
ATOM     97  H6  UNL A   1      30.751  23.478  27.356  1.00  0.00    +0.000 H 
ATOM     98  H7  UNL A   1      30.734  23.522  24.934  1.00  0.00    +0.000 H 
ATOM      5  C3  UNL A   1      33.878  22.500  25.393  1.00  0.00    +0.000 C 
ATOM      6  C4  UNL A   1      33.887  22.474  26.797  1.00  0.00    +0.000 C 
ATOM      7  C5  UNL A   1      32.753  22.845  27.515  1.00  0.00    +0.000 C 
ATOM      8  C6  UNL A   1      31.602  23.222  26.831  1.00  0.00    +0.000 C 
ATOM      9  C7  UNL A   1      31.598  23.255  25.431  1.00  0.00    +0.000 C 
ATOM     10  C8  UNL A   1      32.748  22.931  24.687  1.00  0.00    +0.000 C 
ATOM     95  H4  UNL A   1      34.738  22.179  27.300  1.00  0.00    +0.000 H 
ATOM     96  H5  UNL A   1      32.766  22.840  28.546  1.00  0.00    +0.000 H 
BRANCH    5    4
ATOM      4  O2  UNL A   1      35.180  22.271  24.838  1.00  0.00    +0.000 O 
BRANCH    4    2
ATOM      2  C2  UNL A   1      36.316  23.051  24.583  1.00  0.00    +0.000 C 
ATOM      3  O1  UNL A   1      36.945  23.737  25.374  1.00  0.00    +0.000 O 
BRANCH    2    1
ATOM      1  C1  UNL A   1      36.642  22.920  23.123  1.00  0.00    +0.000 C 
ATOM     92  H1  UNL A   1      35.823  23.285  22.540  1.00  0.00    +0.000 H 
ATOM     93  H2  UNL A   1      36.816  21.890  22.888  1.00  0.00    +0.000 H 
ATOM     94  H3  UNL A   1      37.520  23.489  22.901  1.00  0.00    +0.000 H 
ENDBRANCH    2    1
ENDBRANCH    4    2
ENDBRANCH    5    4
ENDBRANCH   11   10
ENDBRANCH   12   11
ENDBRANCH   13   12
ENDBRANCH   14   13
ENDBRANCH   15   14
ENDBRANCH   16   15
ENDBRANCH   17   16
ENDBRANCH   19   17
ENDBRANCH   20   19
ENDBRANCH   21   20
ENDBRANCH   22   21
ENDBRANCH   23   22
ENDBRANCH   24   23
ENDBRANCH   25   24
ENDBRANCH   26   25
ENDBRANCH   27   26
ENDBRANCH   29   27
ENDBRANCH   33   32
BRANCH   37   38
ATOM     38  C30 UNL A   1      39.675  32.188  36.219  1.00  0.00    +0.000 C 
ATOM     39  C31 UNL A   1      40.370  33.372  36.510  1.00  0.00    +0.000 C 
ATOM     40  F1  UNL A   1      41.410  33.747  35.751  1.00  0.00    +0.000 F 
ATOM     41  C32 UNL A   1      40.018  34.159  37.604  1.00  0.00    +0.000 C 
ATOM     42  F2  UNL A   1      40.722  35.264  37.886  1.00  0.00    +0.000 F 
ATOM     43  C33 UNL A   1      38.946  33.797  38.406  1.00  0.00    +0.000 C 
ATOM     44  F3  UNL A   1      38.601  34.562  39.452  1.00  0.00    +0.000 F 
ATOM     45  C34 UNL A   1      38.235  32.640  38.127  1.00  0.00    +0.000 C 
ATOM     46  F4  UNL A   1      37.192  32.295  38.895  1.00  0.00    +0.000 F 
ATOM     47  C35 UNL A   1      38.602  31.836  37.052  1.00  0.00    +0.000 C 
ATOM     48  F5  UNL A   1      37.901  30.717  36.815  1.00  0.00    +0.000 F 
ENDBRANCH   37   38
BRANCH   54   55
ATOM     65  F10 UNL A   1      46.086  28.992  33.848  1.00  0.00    +0.000 F 
ATOM     55  C41 UNL A   1      44.570  27.235  34.380  1.00  0.00    +0.000 C 
ATOM     56  C42 UNL A   1      44.390  25.969  34.954  1.00  0.00    +0.000 C 
ATOM     57  F6  UNL A   1      43.171  25.408  34.982  1.00  0.00    +0.000 F 
ATOM     58  C43 UNL A   1      45.457  25.290  35.537  1.00  0.00    +0.000 C 
ATOM     59  F7  UNL A   1      45.253  24.101  36.120  1.00  0.00    +0.000 F 
ATOM     60  C44 UNL A   1      46.726  25.848  35.526  1.00  0.00    +0.000 C 
ATOM     61  F8  UNL A   1      47.753  25.191  36.082  1.00  0.00    +0.000 F 
ATOM     62  C45 UNL A   1      46.930  27.092  34.948  1.00  0.00    +0.000 C 
ATOM     63  F9  UNL A   1      48.159  27.627  34.926  1.00  0.00    +0.000 F 
ATOM     64  C46 UNL A   1      45.860  27.786  34.390  1.00  0.00    +0.000 C 
ENDBRANCH   54   55
BRANCH   69   70
ATOM     70  C50 UNL A   1      41.941  27.086  27.936  1.00  0.00    +0.000 C 
ATOM     71  C51 UNL A   1      41.407  25.815  27.676  1.00  0.00    +0.000 C 
ATOM     72  F11 UNL A   1      40.557  25.256  28.550  1.00  0.00    +0.000 F 
ATOM     73  C52 UNL A   1      41.779  25.097  26.542  1.00  0.00    +0.000 C 
ATOM     74  F12 UNL A   1      41.291  23.865  26.344  1.00  0.00    +0.000 F 
ATOM     75  C53 UNL A   1      42.667  25.647  25.631  1.00  0.00    +0.000 C 
ATOM     76  F13 UNL A   1      43.024  24.955  24.540  1.00  0.00    +0.000 F 
ATOM     77  C54 UNL A   1      43.190  26.912  25.855  1.00  0.00    +0.000 C 
ATOM     78  F14 UNL A   1      44.038  27.452  24.968  1.00  0.00    +0.000 F 
ATOM     79  C55 UNL A   1      42.841  27.619  27.002  1.00  0.00    +0.000 C 
ATOM     80  F15 UNL A   1      43.374  28.833  27.202  1.00  0.00    +0.000 F 
ENDBRANCH   69   70
TORSDOF 24
ENDMDL
MODEL 6
REMARK VINA RESULT:      -8.8     26.560     36.508
ROOT
ATOM    129  H38 UNL A   1      22.854  23.173   1.530  1.00  0.00    +0.000 H 
ATOM    130  H39 UNL A   1      18.959  23.032   0.089  1.00  0.00    +0.000 H 
ATOM    131  H40 UNL A   1      18.410  27.071  -2.843  1.00  0.00    +0.000 H 
ATOM    132  H41 UNL A   1      15.979  26.341  -3.170  1.00  0.00    +0.000 H 
ATOM    133  H42 UNL A   1      17.643  18.043   2.240  1.00  0.00    +0.000 H 
ATOM    134  H43 UNL A   1      19.905  18.987   2.981  1.00  0.00    +0.000 H 
ATOM     33  C26 UNL A   1      20.595  21.444   1.708  1.00  0.00    +0.000 C 
ATOM     34  C27 UNL A   1      19.301  20.686   1.605  1.00  0.00    +0.000 C 
ATOM     35  N3  UNL A   1      18.221  20.980   0.927  1.00  0.00    +0.000 N 
ATOM     36  C28 UNL A   1      17.343  19.923   1.134  1.00  0.00    +0.000 C 
ATOM     37  C29 UNL A   1      16.075  19.779   0.683  1.00  0.00    +0.000 C 
ATOM     49  C36 UNL A   1      15.383  20.760  -0.112  1.00  0.00    +0.000 C 
ATOM     50  C37 UNL A   1      14.069  20.750  -0.544  1.00  0.00    +0.000 C 
ATOM     51  C38 UNL A   1      13.857  21.891  -1.325  1.00  0.00    +0.000 C 
ATOM     52  C39 UNL A   1      15.025  22.635  -1.340  1.00  0.00    +0.000 C 
ATOM     53  N4  UNL A   1      15.955  21.930  -0.593  1.00  0.00    +0.000 N 
ATOM     54  C40 UNL A   1      15.278  23.894  -1.993  1.00  0.00    +0.000 C 
ATOM     66  C47 UNL A   1      16.451  24.572  -1.949  1.00  0.00    +0.000 C 
ATOM     67  N5  UNL A   1      17.626  24.241  -1.288  1.00  0.00    +0.000 N 
ATOM     68  C48 UNL A   1      18.474  25.204  -1.559  1.00  0.00    +0.000 C 
ATOM     69  C49 UNL A   1      19.889  25.386  -1.082  1.00  0.00    +0.000 C 
ATOM     81  C56 UNL A   1      20.424  24.471  -0.252  1.00  0.00    +0.000 C 
ATOM     82  C57 UNL A   1      21.777  24.509   0.295  1.00  0.00    +0.000 C 
ATOM     83  C58 UNL A   1      21.977  23.413   1.043  1.00  0.00    +0.000 C 
ATOM     84  C59 UNL A   1      20.752  22.610   1.056  1.00  0.00    +0.000 C 
ATOM     85  N6  UNL A   1      19.883  23.320   0.266  1.00  0.00    +0.000 N 
ATOM     86  C60 UNL A   1      17.939  26.241  -2.451  1.00  0.00    +0.000 C 
ATOM     87  C61 UNL A   1      16.690  25.830  -2.624  1.00  0.00    +0.000 C 
ATOM     88  C62 UNL A   1      18.029  18.962   1.969  1.00  0.00    +0.000 C 
ATOM     89  C63 UNL A   1      19.217  19.415   2.342  1.00  0.00    +0.000 C 
ATOM    125  H34 UNL A   1      13.367  20.025  -0.328  1.00  0.00    +0.000 H 
ATOM    126  H35 UNL A   1      12.978  22.137  -1.807  1.00  0.00    +0.000 H 
ATOM    127  H36 UNL A   1      16.882  22.215  -0.429  1.00  0.00    +0.000 H 
ATOM    128  H37 UNL A   1      22.468  25.258   0.133  1.00  0.00    +0.000 H 
ENDROOT
BRANCH   33   32
ATOM    123  H32 UNL A   1      24.501  19.003   2.091  1.00  0.00    +0.000 H 
ATOM    136  H45 UNL A   1      22.988  20.806   5.579  1.00  0.00    +0.000 H 
ATOM    135  H44 UNL A   1      21.074  21.620   4.335  1.00  0.00    +0.000 H 
ATOM     90  C64 UNL A   1      21.815  21.087   3.852  1.00  0.00    +0.000 C 
ATOM     91  C65 UNL A   1      22.892  20.585   4.576  1.00  0.00    +0.000 C 
ATOM    124  H33 UNL A   1      22.700  19.997   0.803  1.00  0.00    +0.000 H 
ATOM     29  C22 UNL A   1      23.844  19.780   3.943  1.00  0.00    +0.000 C 
ATOM     30  C23 UNL A   1      23.779  19.570   2.563  1.00  0.00    +0.000 C 
ATOM     31  C24 UNL A   1      22.735  20.130   1.826  1.00  0.00    +0.000 C 
ATOM     32  C25 UNL A   1      21.732  20.873   2.468  1.00  0.00    +0.000 C 
BRANCH   29   27
ATOM     27  C21 UNL A   1      24.967  19.190   4.703  1.00  0.00    +0.000 C 
ATOM     28  O4  UNL A   1      25.951  18.758   4.109  1.00  0.00    +0.000 O 
BRANCH   27   26
ATOM     26  N2  UNL A   1      24.921  19.146   6.072  1.00  0.00    +0.000 N 
ATOM    122  H31 UNL A   1      24.984  20.014   6.533  1.00  0.00    +0.000 H 
BRANCH   26   25
ATOM     25  C20 UNL A   1      24.791  17.980   6.932  1.00  0.00    +0.000 C 
ATOM    121  H30 UNL A   1      25.082  17.119   6.367  1.00  0.00    +0.000 H 
ATOM    120  H29 UNL A   1      23.775  17.903   7.259  1.00  0.00    +0.000 H 
BRANCH   25   24
ATOM    118  H27 UNL A   1      25.955  19.097   8.308  1.00  0.00    +0.000 H 
ATOM    119  H28 UNL A   1      25.145  17.648   8.971  1.00  0.00    +0.000 H 
ATOM     24  C19 UNL A   1      25.698  18.069   8.158  1.00  0.00    +0.000 C 
BRANCH   24   23
ATOM    116  H25 UNL A   1      26.775  16.244   8.303  1.00  0.00    +0.000 H 
ATOM    117  H26 UNL A   1      27.357  17.401   7.063  1.00  0.00    +0.000 H 
ATOM     23  C18 UNL A   1      27.000  17.262   8.062  1.00  0.00    +0.000 C 
BRANCH   23   22
ATOM    114  H23 UNL A   1      28.037  17.215   9.921  1.00  0.00    +0.000 H 
ATOM    115  H24 UNL A   1      29.053  17.491   8.486  1.00  0.00    +0.000 H 
ATOM     22  C17 UNL A   1      28.135  17.724   8.984  1.00  0.00    +0.000 C 
BRANCH   22   21
ATOM    113  H22 UNL A   1      27.141  19.573   9.105  1.00  0.00    +0.000 H 
ATOM     21  C16 UNL A   1      28.142  19.224   9.249  1.00  0.00    +0.000 C 
ATOM    112  H21 UNL A   1      28.833  19.684   8.574  1.00  0.00    +0.000 H 
BRANCH   21   20
ATOM     20  C15 UNL A   1      28.544  19.589  10.675  1.00  0.00    +0.000 C 
ATOM    110  H19 UNL A   1      29.466  19.105  10.915  1.00  0.00    +0.000 H 
ATOM    111  H20 UNL A   1      28.655  20.652  10.741  1.00  0.00    +0.000 H 
BRANCH   20   19
ATOM     19  N1  UNL A   1      27.527  19.169  11.613  1.00  0.00    +0.000 N 
ATOM    109  H18 UNL A   1      27.452  18.198  11.759  1.00  0.00    +0.000 H 
BRANCH   19   17
ATOM     17  C14 UNL A   1      26.664  19.947  12.320  1.00  0.00    +0.000 C 
ATOM     18  O3  UNL A   1      25.945  19.419  13.169  1.00  0.00    +0.000 O 
BRANCH   17   16
ATOM    107  H16 UNL A   1      26.684  21.956  12.973  1.00  0.00    +0.000 H 
ATOM    108  H17 UNL A   1      27.386  21.668  11.367  1.00  0.00    +0.000 H 
ATOM     16  C13 UNL A   1      26.591  21.432  12.044  1.00  0.00    +0.000 C 
BRANCH   16   15
ATOM    105  H14 UNL A   1      25.547  22.444  10.515  1.00  0.00    +0.000 H 
ATOM    106  H15 UNL A   1      24.776  20.942  11.177  1.00  0.00    +0.000 H 
ATOM     15  C12 UNL A   1      25.286  21.861  11.374  1.00  0.00    +0.000 C 
BRANCH   15   14
ATOM     14  C11 UNL A   1      24.284  22.686  12.201  1.00  0.00    +0.000 C 
ATOM    103  H12 UNL A   1      24.705  22.843  13.171  1.00  0.00    +0.000 H 
ATOM    104  H13 UNL A   1      24.121  23.590  11.650  1.00  0.00    +0.000 H 
BRANCH   14   13
ATOM    101  H10 UNL A   1      22.358  22.654  13.078  1.00  0.00    +0.000 H 
ATOM     13  C10 UNL A   1      22.901  22.049  12.384  1.00  0.00    +0.000 C 
ATOM    102  H11 UNL A   1      22.491  22.001  11.396  1.00  0.00    +0.000 H 
BRANCH   13   12
ATOM    100  H9  UNL A   1      21.907  20.579  13.410  1.00  0.00    +0.000 H 
ATOM     99  H8  UNL A   1      23.744  20.448  13.455  1.00  0.00    +0.000 H 
ATOM     12  C9  UNL A   1      22.845  20.603  12.896  1.00  0.00    +0.000 C 
BRANCH   12   11
ATOM     11  S1  UNL A   1      22.698  19.178  11.754  1.00  0.00    +0.000 S 
BRANCH   11   10
ATOM     97  H6  UNL A   1      22.201  17.063  16.070  1.00  0.00    +0.000 H 
ATOM     98  H7  UNL A   1      22.042  18.869  14.464  1.00  0.00    +0.000 H 
ATOM      5  C3  UNL A   1      23.092  16.460  12.405  1.00  0.00    +0.000 C 
ATOM      6  C4  UNL A   1      23.184  15.414  13.337  1.00  0.00    +0.000 C 
ATOM      7  C5  UNL A   1      22.874  15.635  14.676  1.00  0.00    +0.000 C 
ATOM      8  C6  UNL A   1      22.452  16.897  15.082  1.00  0.00    +0.000 C 
ATOM      9  C7  UNL A   1      22.370  17.941  14.153  1.00  0.00    +0.000 C 
ATOM     10  C8  UNL A   1      22.725  17.752  12.805  1.00  0.00    +0.000 C 
ATOM     95  H4  UNL A   1      23.482  14.476  13.028  1.00  0.00    +0.000 H 
ATOM     96  H5  UNL A   1      22.956  14.869  15.362  1.00  0.00    +0.000 H 
BRANCH    5    4
ATOM      4  O2  UNL A   1      23.627  16.097  11.125  1.00  0.00    +0.000 O 
BRANCH    4    2
ATOM      2  C2  UNL A   1      23.102  15.847   9.850  1.00  0.00    +0.000 C 
ATOM      3  O1  UNL A   1      22.140  16.382   9.320  1.00  0.00    +0.000 O 
BRANCH    2    1
ATOM      1  C1  UNL A   1      23.929  14.765   9.219  1.00  0.00    +0.000 C 
ATOM     92  H1  UNL A   1      23.422  13.828   9.312  1.00  0.00    +0.000 H 
ATOM     93  H2  UNL A   1      24.877  14.708   9.712  1.00  0.00    +0.000 H 
ATOM     94  H3  UNL A   1      24.079  14.989   8.184  1.00  0.00    +0.000 H 
ENDBRANCH    2    1
ENDBRANCH    4    2
ENDBRANCH    5    4
ENDBRANCH   11   10
ENDBRANCH   12   11
ENDBRANCH   13   12
ENDBRANCH   14   13
ENDBRANCH   15   14
ENDBRANCH   16   15
ENDBRANCH   17   16
ENDBRANCH   19   17
ENDBRANCH   20   19
ENDBRANCH   21   20
ENDBRANCH   22   21
ENDBRANCH   23   22
ENDBRANCH   24   23
ENDBRANCH   25   24
ENDBRANCH   26   25
ENDBRANCH   27   26
ENDBRANCH   29   27
ENDBRANCH   33   32
BRANCH   37   38
ATOM     38  C30 UNL A   1      15.345  18.518   1.037  1.00  0.00    +0.000 C 
ATOM     39  C31 UNL A   1      14.671  18.373   2.259  1.00  0.00    +0.000 C 
ATOM     40  F1  UNL A   1      14.719  19.352   3.175  1.00  0.00    +0.000 F 
ATOM     41  C32 UNL A   1      13.972  17.206   2.558  1.00  0.00    +0.000 C 
ATOM     42  F2  UNL A   1      13.371  17.075   3.749  1.00  0.00    +0.000 F 
ATOM     43  C33 UNL A   1      13.905  16.177   1.631  1.00  0.00    +0.000 C 
ATOM     44  F3  UNL A   1      13.221  15.060   1.916  1.00  0.00    +0.000 F 
ATOM     45  C34 UNL A   1      14.549  16.306   0.410  1.00  0.00    +0.000 C 
ATOM     46  F4  UNL A   1      14.475  15.317  -0.493  1.00  0.00    +0.000 F 
ATOM     47  C35 UNL A   1      15.272  17.459   0.119  1.00  0.00    +0.000 C 
ATOM     48  F5  UNL A   1      15.893  17.548  -1.067  1.00  0.00    +0.000 F 
ENDBRANCH   37   38
BRANCH   54   55
ATOM     65  F10 UNL A   1      13.578  25.892  -0.903  1.00  0.00    +0.000 F 
ATOM     55  C41 UNL A   1      14.153  24.520  -2.761  1.00  0.00    +0.000 C 
ATOM     56  C42 UNL A   1      13.855  24.132  -4.076  1.00  0.00    +0.000 C 
ATOM     57  F6  UNL A   1      14.615  23.218  -4.698  1.00  0.00    +0.000 F 
ATOM     58  C43 UNL A   1      12.797  24.712  -4.769  1.00  0.00    +0.000 C 
ATOM     59  F7  UNL A   1      12.558  24.360  -6.040  1.00  0.00    +0.000 F 
ATOM     60  C44 UNL A   1      11.998  25.664  -4.153  1.00  0.00    +0.000 C 
ATOM     61  F8  UNL A   1      10.976  26.216  -4.820  1.00  0.00    +0.000 F 
ATOM     62  C45 UNL A   1      12.264  26.049  -2.847  1.00  0.00    +0.000 C 
ATOM     63  F9  UNL A   1      11.485  26.959  -2.245  1.00  0.00    +0.000 F 
ATOM     64  C46 UNL A   1      13.338  25.491  -2.160  1.00  0.00    +0.000 C 
ENDBRANCH   54   55
BRANCH   69   70
ATOM     70  C50 UNL A   1      20.682  26.573  -1.494  1.00  0.00    +0.000 C 
ATOM     71  C51 UNL A   1      21.550  26.507  -2.594  1.00  0.00    +0.000 C 
ATOM     72  F11 UNL A   1      21.672  25.362  -3.281  1.00  0.00    +0.000 F 
ATOM     73  C52 UNL A   1      22.328  27.602  -2.962  1.00  0.00    +0.000 C 
ATOM     74  F12 UNL A   1      23.184  27.496  -3.987  1.00  0.00    +0.000 F 
ATOM     75  C53 UNL A   1      22.230  28.793  -2.259  1.00  0.00    +0.000 C 
ATOM     76  F13 UNL A   1      22.979  29.846  -2.615  1.00  0.00    +0.000 F 
ATOM     77  C54 UNL A   1      21.362  28.888  -1.182  1.00  0.00    +0.000 C 
ATOM     78  F14 UNL A   1      21.256  30.042  -0.509  1.00  0.00    +0.000 F 
ATOM     79  C55 UNL A   1      20.605  27.786  -0.794  1.00  0.00    +0.000 C 
ATOM     80  F15 UNL A   1      19.785  27.902   0.260  1.00  0.00    +0.000 F 
ENDBRANCH   69   70
TORSDOF 24
ENDMDL
MODEL 7
REMARK VINA RESULT:      -8.8     19.146     24.274
ROOT
ATOM    129  H38 UNL A   1      51.959  20.600  12.552  1.00  0.00    +0.000 H 
ATOM    130  H39 UNL A   1      52.835  24.514  13.642  1.00  0.00    +0.000 H 
ATOM    131  H40 UNL A   1      53.089  24.540  18.657  1.00  0.00    +0.000 H 
ATOM    132  H41 UNL A   1      53.496  27.061  18.492  1.00  0.00    +0.000 H 
ATOM    133  H42 UNL A   1      53.545  26.495   8.464  1.00  0.00    +0.000 H 
ATOM    134  H43 UNL A   1      52.658  24.097   8.601  1.00  0.00    +0.000 H 
ATOM     33  C26 UNL A   1      52.493  23.086  11.262  1.00  0.00    +0.000 C 
ATOM     34  C27 UNL A   1      52.846  24.481  10.828  1.00  0.00    +0.000 C 
ATOM     35  N3  UNL A   1      53.146  25.525  11.559  1.00  0.00    +0.000 N 
ATOM     36  C28 UNL A   1      53.442  26.544  10.662  1.00  0.00    +0.000 C 
ATOM     37  C29 UNL A   1      53.764  27.832  10.926  1.00  0.00    +0.000 C 
ATOM     49  C36 UNL A   1      53.836  28.393  12.250  1.00  0.00    +0.000 C 
ATOM     50  C37 UNL A   1      54.066  29.705  12.620  1.00  0.00    +0.000 C 
ATOM     51  C38 UNL A   1      54.092  29.768  14.016  1.00  0.00    +0.000 C 
ATOM     52  C39 UNL A   1      53.832  28.503  14.517  1.00  0.00    +0.000 C 
ATOM     53  N4  UNL A   1      53.678  27.667  13.422  1.00  0.00    +0.000 N 
ATOM     54  C40 UNL A   1      53.736  28.085  15.892  1.00  0.00    +0.000 C 
ATOM     66  C47 UNL A   1      53.462  26.823  16.305  1.00  0.00    +0.000 C 
ATOM     67  N5  UNL A   1      53.207  25.691  15.542  1.00  0.00    +0.000 N 
ATOM     68  C48 UNL A   1      53.011  24.717  16.398  1.00  0.00    +0.000 C 
ATOM     69  C49 UNL A   1      52.663  23.277  16.136  1.00  0.00    +0.000 C 
ATOM     81  C56 UNL A   1      52.510  22.861  14.866  1.00  0.00    +0.000 C 
ATOM     82  C57 UNL A   1      52.172  21.503  14.452  1.00  0.00    +0.000 C 
ATOM     83  C58 UNL A   1      52.149  21.445  13.112  1.00  0.00    +0.000 C 
ATOM     84  C59 UNL A   1      52.436  22.776  12.571  1.00  0.00    +0.000 C 
ATOM     85  N6  UNL A   1      52.630  23.552  13.685  1.00  0.00    +0.000 N 
ATOM     86  C60 UNL A   1      53.152  25.119  17.805  1.00  0.00    +0.000 C 
ATOM     87  C61 UNL A   1      53.385  26.419  17.692  1.00  0.00    +0.000 C 
ATOM     88  C62 UNL A   1      53.324  25.985   9.333  1.00  0.00    +0.000 C 
ATOM     89  C63 UNL A   1      52.895  24.731   9.379  1.00  0.00    +0.000 C 
ATOM    125  H34 UNL A   1      54.196  30.501  11.976  1.00  0.00    +0.000 H 
ATOM    126  H35 UNL A   1      54.274  30.614  14.579  1.00  0.00    +0.000 H 
ATOM    127  H36 UNL A   1      53.486  26.703  13.469  1.00  0.00    +0.000 H 
ATOM    128  H37 UNL A   1      51.982  20.712  15.089  1.00  0.00    +0.000 H 
ENDROOT
BRANCH   33   32
ATOM    123  H32 UNL A   1      49.876  20.583   8.391  1.00  0.00    +0.000 H 
ATOM    136  H45 UNL A   1      53.998  19.740   8.493  1.00  0.00    +0.000 H 
ATOM    135  H44 UNL A   1      54.298  21.396  10.238  1.00  0.00    +0.000 H 
ATOM     90  C64 UNL A   1      53.363  21.243   9.827  1.00  0.00    +0.000 C 
ATOM     91  C65 UNL A   1      53.185  20.263   8.855  1.00  0.00    +0.000 C 
ATOM    124  H33 UNL A   1      50.211  22.387   9.979  1.00  0.00    +0.000 H 
ATOM     29  C22 UNL A   1      51.903  19.986   8.370  1.00  0.00    +0.000 C 
ATOM     30  C23 UNL A   1      50.817  20.766   8.774  1.00  0.00    +0.000 C 
ATOM     31  C24 UNL A   1      51.008  21.793   9.699  1.00  0.00    +0.000 C 
ATOM     32  C25 UNL A   1      52.278  22.024  10.250  1.00  0.00    +0.000 C 
BRANCH   29   27
ATOM     27  C21 UNL A   1      51.682  18.913   7.378  1.00  0.00    +0.000 C 
ATOM     28  O4  UNL A   1      52.627  18.238   6.980  1.00  0.00    +0.000 O 
BRANCH   27   26
ATOM     26  N2  UNL A   1      50.416  18.653   6.918  1.00  0.00    +0.000 N 
ATOM    122  H31 UNL A   1      50.004  19.360   6.372  1.00  0.00    +0.000 H 
BRANCH   26   25
ATOM     25  C20 UNL A   1      49.605  17.466   7.136  1.00  0.00    +0.000 C 
ATOM    121  H30 UNL A   1      49.025  17.619   8.022  1.00  0.00    +0.000 H 
ATOM    120  H29 UNL A   1      50.252  16.619   7.240  1.00  0.00    +0.000 H 
BRANCH   25   24
ATOM    118  H27 UNL A   1      49.118  17.523   5.073  1.00  0.00    +0.000 H 
ATOM    119  H28 UNL A   1      48.416  16.165   6.001  1.00  0.00    +0.000 H 
ATOM     24  C19 UNL A   1      48.641  17.211   5.978  1.00  0.00    +0.000 C 
BRANCH   24   23
ATOM    116  H25 UNL A   1      46.758  17.774   5.172  1.00  0.00    +0.000 H 
ATOM    117  H26 UNL A   1      46.811  17.540   6.949  1.00  0.00    +0.000 H 
ATOM     23  C18 UNL A   1      47.295  17.940   6.083  1.00  0.00    +0.000 C 
BRANCH   23   22
ATOM    114  H23 UNL A   1      46.721  19.711   7.115  1.00  0.00    +0.000 H 
ATOM    115  H24 UNL A   1      48.401  19.680   6.528  1.00  0.00    +0.000 H 
ATOM     22  C17 UNL A   1      47.378  19.454   6.310  1.00  0.00    +0.000 C 
BRANCH   22   21
ATOM    113  H22 UNL A   1      47.891  20.484   4.549  1.00  0.00    +0.000 H 
ATOM     21  C16 UNL A   1      46.991  20.283   5.091  1.00  0.00    +0.000 C 
ATOM    112  H21 UNL A   1      46.512  21.179   5.429  1.00  0.00    +0.000 H 
BRANCH   21   20
ATOM     20  C15 UNL A   1      46.045  19.559   4.137  1.00  0.00    +0.000 C 
ATOM    110  H19 UNL A   1      46.565  19.330   3.232  1.00  0.00    +0.000 H 
ATOM    111  H20 UNL A   1      45.704  18.659   4.607  1.00  0.00    +0.000 H 
BRANCH   20   19
ATOM     19  N1  UNL A   1      44.900  20.387   3.831  1.00  0.00    +0.000 N 
ATOM    109  H18 UNL A   1      44.416  20.755   4.606  1.00  0.00    +0.000 H 
BRANCH   19   17
ATOM     17  C14 UNL A   1      44.408  20.721   2.608  1.00  0.00    +0.000 C 
ATOM     18  O3  UNL A   1      44.277  21.912   2.323  1.00  0.00    +0.000 O 
BRANCH   17   16
ATOM    107  H16 UNL A   1      44.912  19.243   1.185  1.00  0.00    +0.000 H 
ATOM    108  H17 UNL A   1      43.485  18.888   2.182  1.00  0.00    +0.000 H 
ATOM     16  C13 UNL A   1      44.020  19.633   1.630  1.00  0.00    +0.000 C 
BRANCH   16   15
ATOM    105  H14 UNL A   1      43.115  21.191   0.534  1.00  0.00    +0.000 H 
ATOM    106  H15 UNL A   1      43.483  19.663  -0.369  1.00  0.00    +0.000 H 
ATOM     15  C12 UNL A   1      43.096  20.121   0.516  1.00  0.00    +0.000 C 
BRANCH   15   14
ATOM     14  C11 UNL A   1      41.619  19.689   0.557  1.00  0.00    +0.000 C 
ATOM    103  H12 UNL A   1      41.580  18.677   0.899  1.00  0.00    +0.000 H 
ATOM    104  H13 UNL A   1      41.126  20.383   1.206  1.00  0.00    +0.000 H 
BRANCH   14   13
ATOM    101  H10 UNL A   1      41.477  20.343  -1.451  1.00  0.00    +0.000 H 
ATOM     13  C10 UNL A   1      40.875  19.764  -0.783  1.00  0.00    +0.000 C 
ATOM    102  H11 UNL A   1      40.723  18.744  -1.065  1.00  0.00    +0.000 H 
BRANCH   13   12
ATOM    100  H9  UNL A   1      39.021  19.924   0.074  1.00  0.00    +0.000 H 
ATOM     99  H8  UNL A   1      39.055  20.183  -1.750  1.00  0.00    +0.000 H 
ATOM     12  C9  UNL A   1      39.469  20.381  -0.783  1.00  0.00    +0.000 C 
BRANCH   12   11
ATOM     11  S1  UNL A   1      39.195  22.162  -0.460  1.00  0.00    +0.000 S 
BRANCH   11   10
ATOM     97  H6  UNL A   1      35.389  24.502  -2.299  1.00  0.00    +0.000 H 
ATOM     98  H7  UNL A   1      37.732  23.937  -2.065  1.00  0.00    +0.000 H 
ATOM      5  C3  UNL A   1      36.459  21.656   0.013  1.00  0.00    +0.000 C 
ATOM      6  C4  UNL A   1      35.101  21.984  -0.123  1.00  0.00    +0.000 C 
ATOM      7  C5  UNL A   1      34.710  23.031  -0.954  1.00  0.00    +0.000 C 
ATOM      8  C6  UNL A   1      35.673  23.738  -1.665  1.00  0.00    +0.000 C 
ATOM      9  C7  UNL A   1      37.028  23.415  -1.521  1.00  0.00    +0.000 C 
ATOM     10  C8  UNL A   1      37.449  22.393  -0.650  1.00  0.00    +0.000 C 
ATOM     95  H4  UNL A   1      34.388  21.447   0.395  1.00  0.00    +0.000 H 
ATOM     96  H5  UNL A   1      33.712  23.280  -1.041  1.00  0.00    +0.000 H 
BRANCH    5    4
ATOM      4  O2  UNL A   1      36.683  20.686   1.045  1.00  0.00    +0.000 O 
BRANCH    4    2
ATOM      2  C2  UNL A   1      37.118  20.717   2.377  1.00  0.00    +0.000 C 
ATOM      3  O1  UNL A   1      38.170  21.161   2.810  1.00  0.00    +0.000 O 
BRANCH    2    1
ATOM      1  C1  UNL A   1      36.053  20.079   3.221  1.00  0.00    +0.000 C 
ATOM     92  H1  UNL A   1      35.213  19.830   2.607  1.00  0.00    +0.000 H 
ATOM     93  H2  UNL A   1      35.745  20.763   3.984  1.00  0.00    +0.000 H 
ATOM     94  H3  UNL A   1      36.441  19.191   3.673  1.00  0.00    +0.000 H 
ENDBRANCH    2    1
ENDBRANCH    4    2
ENDBRANCH    5    4
ENDBRANCH   11   10
ENDBRANCH   12   11
ENDBRANCH   13   12
ENDBRANCH   14   13
ENDBRANCH   15   14
ENDBRANCH   16   15
ENDBRANCH   17   16
ENDBRANCH   19   17
ENDBRANCH   20   19
ENDBRANCH   21   20
ENDBRANCH   22   21
ENDBRANCH   23   22
ENDBRANCH   24   23
ENDBRANCH   25   24
ENDBRANCH   26   25
ENDBRANCH   27   26
ENDBRANCH   29   27
ENDBRANCH   33   32
BRANCH   37   38
ATOM     38  C30 UNL A   1      54.061  28.731   9.763  1.00  0.00    +0.000 C 
ATOM     39  C31 UNL A   1      55.373  29.113   9.443  1.00  0.00    +0.000 C 
ATOM     40  F1  UNL A   1      56.396  28.726  10.218  1.00  0.00    +0.000 F 
ATOM     41  C32 UNL A   1      55.634  29.923   8.340  1.00  0.00    +0.000 C 
ATOM     42  F2  UNL A   1      56.890  30.309   8.078  1.00  0.00    +0.000 F 
ATOM     43  C33 UNL A   1      54.596  30.339   7.520  1.00  0.00    +0.000 C 
ATOM     44  F3  UNL A   1      54.851  31.108   6.452  1.00  0.00    +0.000 F 
ATOM     45  C34 UNL A   1      53.295  29.959   7.807  1.00  0.00    +0.000 C 
ATOM     46  F4  UNL A   1      52.292  30.349   7.008  1.00  0.00    +0.000 F 
ATOM     47  C35 UNL A   1      53.026  29.173   8.925  1.00  0.00    +0.000 C 
ATOM     48  F5  UNL A   1      51.755  28.831   9.182  1.00  0.00    +0.000 F 
ENDBRANCH   37   38
BRANCH   54   55
ATOM     65  F10 UNL A   1      56.205  28.487  17.237  1.00  0.00    +0.000 F 
ATOM     55  C41 UNL A   1      53.930  29.126  16.953  1.00  0.00    +0.000 C 
ATOM     56  C42 UNL A   1      52.881  29.960  17.366  1.00  0.00    +0.000 C 
ATOM     57  F6  UNL A   1      51.680  29.875  16.774  1.00  0.00    +0.000 F 
ATOM     58  C43 UNL A   1      53.074  30.911  18.363  1.00  0.00    +0.000 C 
ATOM     59  F7  UNL A   1      52.070  31.728  18.711  1.00  0.00    +0.000 F 
ATOM     60  C44 UNL A   1      54.307  31.024  18.989  1.00  0.00    +0.000 C 
ATOM     61  F8  UNL A   1      54.489  31.936  19.953  1.00  0.00    +0.000 F 
ATOM     62  C45 UNL A   1      55.353  30.198  18.608  1.00  0.00    +0.000 C 
ATOM     63  F9  UNL A   1      56.542  30.297  19.220  1.00  0.00    +0.000 F 
ATOM     64  C46 UNL A   1      55.172  29.265  17.591  1.00  0.00    +0.000 C 
ENDBRANCH   54   55
BRANCH   69   70
ATOM     70  C50 UNL A   1      52.461  22.329  17.262  1.00  0.00    +0.000 C 
ATOM     71  C51 UNL A   1      51.241  22.287  17.952  1.00  0.00    +0.000 C 
ATOM     72  F11 UNL A   1      50.245  23.113  17.600  1.00  0.00    +0.000 F 
ATOM     73  C52 UNL A   1      51.057  21.430  19.035  1.00  0.00    +0.000 C 
ATOM     74  F12 UNL A   1      49.898  21.445  19.707  1.00  0.00    +0.000 F 
ATOM     75  C53 UNL A   1      52.076  20.576  19.427  1.00  0.00    +0.000 C 
ATOM     76  F13 UNL A   1      51.897  19.752  20.469  1.00  0.00    +0.000 F 
ATOM     77  C54 UNL A   1      53.283  20.584  18.745  1.00  0.00    +0.000 C 
ATOM     78  F14 UNL A   1      54.265  19.750  19.114  1.00  0.00    +0.000 F 
ATOM     79  C55 UNL A   1      53.479  21.460  17.681  1.00  0.00    +0.000 C 
ATOM     80  F15 UNL A   1      54.661  21.457  17.049  1.00  0.00    +0.000 F 
ENDBRANCH   69   70
TORSDOF 24
ENDMDL
MODEL 8
REMARK VINA RESULT:      -8.8     26.535     34.909
ROOT
ATOM    129  H38 UNL A   1      24.437  22.742   3.299  1.00  0.00    +0.000 H 
ATOM    130  H39 UNL A   1      20.697  21.608   1.886  1.00  0.00    +0.000 H 
ATOM    131  H40 UNL A   1      19.115  25.369  -1.042  1.00  0.00    +0.000 H 
ATOM    132  H41 UNL A   1      16.949  24.042  -1.351  1.00  0.00    +0.000 H 
ATOM    133  H42 UNL A   1      20.713  16.453   4.047  1.00  0.00    +0.000 H 
ATOM    134  H43 UNL A   1      22.664  17.944   4.772  1.00  0.00    +0.000 H 
ATOM     33  C26 UNL A   1      22.695  20.493   3.493  1.00  0.00    +0.000 C 
ATOM     34  C27 UNL A   1      21.637  19.430   3.400  1.00  0.00    +0.000 C 
ATOM     35  N3  UNL A   1      20.513  19.438   2.729  1.00  0.00    +0.000 N 
ATOM     36  C28 UNL A   1      19.935  18.192   2.943  1.00  0.00    +0.000 C 
ATOM     37  C29 UNL A   1      18.743  17.729   2.501  1.00  0.00    +0.000 C 
ATOM     49  C36 UNL A   1      17.818  18.499   1.711  1.00  0.00    +0.000 C 
ATOM     50  C37 UNL A   1      16.547  18.154   1.288  1.00  0.00    +0.000 C 
ATOM     51  C38 UNL A   1      16.046  19.201   0.509  1.00  0.00    +0.000 C 
ATOM     52  C39 UNL A   1      16.985  20.218   0.486  1.00  0.00    +0.000 C 
ATOM     53  N4  UNL A   1      18.069  19.775   1.226  1.00  0.00    +0.000 N 
ATOM     54  C40 UNL A   1      16.903  21.499  -0.169  1.00  0.00    +0.000 C 
ATOM     66  C47 UNL A   1      17.865  22.454  -0.134  1.00  0.00    +0.000 C 
ATOM     67  N5  UNL A   1      19.090  22.435   0.519  1.00  0.00    +0.000 N 
ATOM     68  C48 UNL A   1      19.663  23.582   0.242  1.00  0.00    +0.000 C 
ATOM     69  C49 UNL A   1      20.988  24.120   0.709  1.00  0.00    +0.000 C 
ATOM     81  C56 UNL A   1      21.744  23.373   1.534  1.00  0.00    +0.000 C 
ATOM     82  C57 UNL A   1      23.046  23.756   2.072  1.00  0.00    +0.000 C 
ATOM     83  C58 UNL A   1      23.525  22.749   2.818  1.00  0.00    +0.000 C 
ATOM     84  C59 UNL A   1      22.545  21.660   2.840  1.00  0.00    +0.000 C 
ATOM     85  N6  UNL A   1      21.518  22.123   2.056  1.00  0.00    +0.000 N 
ATOM     86  C60 UNL A   1      18.874  24.446  -0.647  1.00  0.00    +0.000 C 
ATOM     87  C61 UNL A   1      17.770  23.730  -0.810  1.00  0.00    +0.000 C 
ATOM     88  C62 UNL A   1      20.849  17.439   3.773  1.00  0.00    +0.000 C 
ATOM     89  C63 UNL A   1      21.886  18.181   4.137  1.00  0.00    +0.000 C 
ATOM    125  H34 UNL A   1      16.055  17.274   1.510  1.00  0.00    +0.000 H 
ATOM    126  H35 UNL A   1      15.130  19.213   0.033  1.00  0.00    +0.000 H 
ATOM    127  H36 UNL A   1      18.894  20.287   1.384  1.00  0.00    +0.000 H 
ATOM    128  H37 UNL A   1      23.522  24.657   1.904  1.00  0.00    +0.000 H 
ENDROOT
BRANCH   33   32
ATOM    123  H32 UNL A   1      27.240  19.720   3.813  1.00  0.00    +0.000 H 
ATOM    136  H45 UNL A   1      25.043  19.888   7.397  1.00  0.00    +0.000 H 
ATOM    135  H44 UNL A   1      22.996  20.187   6.134  1.00  0.00    +0.000 H 
ATOM     90  C64 UNL A   1      23.901  20.115   5.642  1.00  0.00    +0.000 C 
ATOM     91  C65 UNL A   1      25.069  19.902   6.366  1.00  0.00    +0.000 C 
ATOM    124  H33 UNL A   1      25.227  20.234   2.560  1.00  0.00    +0.000 H 
ATOM     29  C22 UNL A   1      26.280  19.705   5.695  1.00  0.00    +0.000 C 
ATOM     30  C23 UNL A   1      26.340  19.833   4.305  1.00  0.00    +0.000 C 
ATOM     31  C24 UNL A   1      25.179  20.113   3.585  1.00  0.00    +0.000 C 
ATOM     32  C25 UNL A   1      23.946  20.233   4.245  1.00  0.00    +0.000 C 
BRANCH   29   27
ATOM     27  C21 UNL A   1      27.525  19.422   6.441  1.00  0.00    +0.000 C 
ATOM     28  O4  UNL A   1      28.413  20.268   6.498  1.00  0.00    +0.000 O 
BRANCH   27   26
ATOM     26  N2  UNL A   1      27.680  18.224   7.088  1.00  0.00    +0.000 N 
ATOM    122  H31 UNL A   1      27.173  18.118   7.925  1.00  0.00    +0.000 H 
BRANCH   26   25
ATOM     25  C20 UNL A   1      28.501  17.088   6.695  1.00  0.00    +0.000 C 
ATOM    121  H30 UNL A   1      28.740  16.532   7.577  1.00  0.00    +0.000 H 
ATOM    120  H29 UNL A   1      29.386  17.451   6.215  1.00  0.00    +0.000 H 
BRANCH   25   24
ATOM    118  H27 UNL A   1      27.644  16.668   4.802  1.00  0.00    +0.000 H 
ATOM    119  H28 UNL A   1      28.363  15.272   5.657  1.00  0.00    +0.000 H 
ATOM     24  C19 UNL A   1      27.765  16.156   5.733  1.00  0.00    +0.000 C 
BRANCH   24   23
ATOM    116  H25 UNL A   1      26.357  14.628   6.174  1.00  0.00    +0.000 H 
ATOM    117  H26 UNL A   1      26.258  16.102   7.191  1.00  0.00    +0.000 H 
ATOM     23  C18 UNL A   1      26.380  15.697   6.208  1.00  0.00    +0.000 C 
BRANCH   23   22
ATOM    114  H23 UNL A   1      25.142  17.282   5.507  1.00  0.00    +0.000 H 
ATOM    115  H24 UNL A   1      25.364  15.927   4.374  1.00  0.00    +0.000 H 
ATOM     22  C17 UNL A   1      25.193  16.218   5.389  1.00  0.00    +0.000 C 
BRANCH   22   21
ATOM    113  H22 UNL A   1      23.685  14.766   5.187  1.00  0.00    +0.000 H 
ATOM     21  C16 UNL A   1      23.851  15.625   5.802  1.00  0.00    +0.000 C 
ATOM    112  H21 UNL A   1      23.096  16.372   5.668  1.00  0.00    +0.000 H 
BRANCH   21   20
ATOM     20  C15 UNL A   1      23.814  15.154   7.253  1.00  0.00    +0.000 C 
ATOM    110  H19 UNL A   1      23.175  14.299   7.328  1.00  0.00    +0.000 H 
ATOM    111  H20 UNL A   1      24.808  14.902   7.559  1.00  0.00    +0.000 H 
BRANCH   20   19
ATOM     19  N1  UNL A   1      23.312  16.200   8.114  1.00  0.00    +0.000 N 
ATOM    109  H18 UNL A   1      22.332  16.259   8.195  1.00  0.00    +0.000 H 
BRANCH   19   17
ATOM     17  C14 UNL A   1      24.024  17.113   8.829  1.00  0.00    +0.000 C 
ATOM     18  O3  UNL A   1      25.202  16.873   9.095  1.00  0.00    +0.000 O 
BRANCH   17   16
ATOM    107  H16 UNL A   1      24.117  19.120   9.480  1.00  0.00    +0.000 H 
ATOM    108  H17 UNL A   1      22.682  18.693   8.523  1.00  0.00    +0.000 H 
ATOM     16  C13 UNL A   1      23.357  18.389   9.296  1.00  0.00    +0.000 C 
BRANCH   16   15
ATOM    105  H14 UNL A   1      22.661  19.100  11.156  1.00  0.00    +0.000 H 
ATOM    106  H15 UNL A   1      21.543  18.020  10.223  1.00  0.00    +0.000 H 
ATOM     15  C12 UNL A   1      22.535  18.212  10.571  1.00  0.00    +0.000 C 
BRANCH   15   14
ATOM     14  C11 UNL A   1      22.859  17.014  11.483  1.00  0.00    +0.000 C 
ATOM    103  H12 UNL A   1      22.145  16.244  11.283  1.00  0.00    +0.000 H 
ATOM    104  H13 UNL A   1      23.868  16.736  11.258  1.00  0.00    +0.000 H 
BRANCH   14   13
ATOM    101  H10 UNL A   1      21.803  17.304  13.294  1.00  0.00    +0.000 H 
ATOM     13  C10 UNL A   1      22.828  17.308  12.988  1.00  0.00    +0.000 C 
ATOM    102  H11 UNL A   1      23.442  16.547  13.425  1.00  0.00    +0.000 H 
BRANCH   13   12
ATOM    100  H9  UNL A   1      23.182  18.637  14.506  1.00  0.00    +0.000 H 
ATOM     99  H8  UNL A   1      23.055  19.392  12.830  1.00  0.00    +0.000 H 
ATOM     12  C9  UNL A   1      23.446  18.628  13.469  1.00  0.00    +0.000 C 
BRANCH   12   11
ATOM     11  S1  UNL A   1      25.258  18.882  13.528  1.00  0.00    +0.000 S 
BRANCH   11   10
ATOM     97  H6  UNL A   1      27.888  19.401   9.508  1.00  0.00    +0.000 H 
ATOM     98  H7  UNL A   1      27.112  18.281  11.510  1.00  0.00    +0.000 H 
ATOM      5  C3  UNL A   1      25.028  20.889  11.556  1.00  0.00    +0.000 C 
ATOM      6  C4  UNL A   1      25.478  21.537  10.395  1.00  0.00    +0.000 C 
ATOM      7  C5  UNL A   1      26.530  21.004   9.655  1.00  0.00    +0.000 C 
ATOM      8  C6  UNL A   1      27.121  19.813  10.063  1.00  0.00    +0.000 C 
ATOM      9  C7  UNL A   1      26.676  19.173  11.226  1.00  0.00    +0.000 C 
ATOM     10  C8  UNL A   1      25.647  19.719  12.015  1.00  0.00    +0.000 C 
ATOM     95  H4  UNL A   1      25.026  22.412  10.087  1.00  0.00    +0.000 H 
ATOM     96  H5  UNL A   1      26.870  21.489   8.810  1.00  0.00    +0.000 H 
BRANCH    5    4
ATOM      4  O2  UNL A   1      24.074  21.675  12.282  1.00  0.00    +0.000 O 
BRANCH    4    2
ATOM      2  C2  UNL A   1      24.023  22.982  12.785  1.00  0.00    +0.000 C 
ATOM      3  O1  UNL A   1      24.826  23.531  13.523  1.00  0.00    +0.000 O 
BRANCH    2    1
ATOM      1  C1  UNL A   1      22.767  23.622  12.268  1.00  0.00    +0.000 C 
ATOM     92  H1  UNL A   1      22.679  23.439  11.218  1.00  0.00    +0.000 H 
ATOM     93  H2  UNL A   1      22.807  24.678  12.442  1.00  0.00    +0.000 H 
ATOM     94  H3  UNL A   1      21.921  23.209  12.775  1.00  0.00    +0.000 H 
ENDBRANCH    2    1
ENDBRANCH    4    2
ENDBRANCH    5    4
ENDBRANCH   11   10
ENDBRANCH   12   11
ENDBRANCH   13   12
ENDBRANCH   14   13
ENDBRANCH   15   14
ENDBRANCH   16   15
ENDBRANCH   17   16
ENDBRANCH   19   17
ENDBRANCH   20   19
ENDBRANCH   21   20
ENDBRANCH   22   21
ENDBRANCH   23   22
ENDBRANCH   24   23
ENDBRANCH   25   24
ENDBRANCH   26   25
ENDBRANCH   27   26
ENDBRANCH   29   27
ENDBRANCH   33   32
BRANCH   37   38
ATOM     38  C30 UNL A   1      18.361  16.323   2.860  1.00  0.00    +0.000 C 
ATOM     39  C31 UNL A   1      17.692  16.023   4.056  1.00  0.00    +0.000 C 
ATOM     40  F1  UNL A   1      17.431  16.993   4.945  1.00  0.00    +0.000 F 
ATOM     41  C32 UNL A   1      17.318  14.716   4.359  1.00  0.00    +0.000 C 
ATOM     42  F2  UNL A   1      16.716  14.448   5.526  1.00  0.00    +0.000 F 
ATOM     43  C33 UNL A   1      17.574  13.692   3.460  1.00  0.00    +0.000 C 
ATOM     44  F3  UNL A   1      17.202  12.437   3.748  1.00  0.00    +0.000 F 
ATOM     45  C34 UNL A   1      18.219  13.969   2.265  1.00  0.00    +0.000 C 
ATOM     46  F4  UNL A   1      18.457  12.982   1.389  1.00  0.00    +0.000 F 
ATOM     47  C35 UNL A   1      18.620  15.269   1.971  1.00  0.00    +0.000 C 
ATOM     48  F5  UNL A   1      19.252  15.502   0.811  1.00  0.00    +0.000 F 
ENDBRANCH   37   38
BRANCH   54   55
ATOM     65  F10 UNL A   1      16.552  20.859  -2.914  1.00  0.00    +0.000 F 
ATOM     55  C41 UNL A   1      15.650  21.815  -0.929  1.00  0.00    +0.000 C 
ATOM     56  C42 UNL A   1      14.571  22.477  -0.326  1.00  0.00    +0.000 C 
ATOM     57  F6  UNL A   1      14.619  22.797   0.976  1.00  0.00    +0.000 F 
ATOM     58  C43 UNL A   1      13.421  22.776  -1.050  1.00  0.00    +0.000 C 
ATOM     59  F7  UNL A   1      12.384  23.368  -0.443  1.00  0.00    +0.000 F 
ATOM     60  C44 UNL A   1      13.342  22.452  -2.397  1.00  0.00    +0.000 C 
ATOM     61  F8  UNL A   1      12.237  22.747  -3.094  1.00  0.00    +0.000 F 
ATOM     62  C45 UNL A   1      14.405  21.814  -3.018  1.00  0.00    +0.000 C 
ATOM     63  F9  UNL A   1      14.335  21.511  -4.322  1.00  0.00    +0.000 F 
ATOM     64  C46 UNL A   1      15.545  21.487  -2.289  1.00  0.00    +0.000 C 
ENDBRANCH   54   55
BRANCH   69   70
ATOM     70  C50 UNL A   1      21.449  25.469   0.291  1.00  0.00    +0.000 C 
ATOM     71  C51 UNL A   1      21.953  25.685  -1.000  1.00  0.00    +0.000 C 
ATOM     72  F11 UNL A   1      22.027  24.666  -1.868  1.00  0.00    +0.000 F 
ATOM     73  C52 UNL A   1      22.426  26.937  -1.387  1.00  0.00    +0.000 C 
ATOM     74  F12 UNL A   1      22.948  27.103  -2.610  1.00  0.00    +0.000 F 
ATOM     75  C53 UNL A   1      22.374  28.004  -0.503  1.00  0.00    +0.000 C 
ATOM     76  F13 UNL A   1      22.828  29.208  -0.877  1.00  0.00    +0.000 F 
ATOM     77  C54 UNL A   1      21.858  27.819   0.771  1.00  0.00    +0.000 C 
ATOM     78  F14 UNL A   1      21.793  28.852   1.622  1.00  0.00    +0.000 F 
ATOM     79  C55 UNL A   1      21.411  26.562   1.169  1.00  0.00    +0.000 C 
ATOM     80  F15 UNL A   1      20.931  26.409   2.411  1.00  0.00    +0.000 F 
ENDBRANCH   69   70
TORSDOF 24
ENDMDL
MODEL 9
REMARK VINA RESULT:      -8.7      5.450     10.735
ROOT
ATOM    129  H38 UNL A   1      44.051  26.711  31.939  1.00  0.00    +0.000 H 
ATOM    130  H39 UNL A   1      40.788  29.279  31.737  1.00  0.00    +0.000 H 
ATOM    131  H40 UNL A   1      38.960  28.846  27.081  1.00  0.00    +0.000 H 
ATOM    132  H41 UNL A   1      37.257  30.645  27.723  1.00  0.00    +0.000 H 
ATOM    133  H42 UNL A   1      40.791  30.768  37.124  1.00  0.00    +0.000 H 
ATOM    134  H43 UNL A   1      42.792  29.353  36.385  1.00  0.00    +0.000 H 
ATOM     33  C26 UNL A   1      42.637  28.476  33.676  1.00  0.00    +0.000 C 
ATOM     34  C27 UNL A   1      41.709  29.417  34.393  1.00  0.00    +0.000 C 
ATOM     35  N3  UNL A   1      40.647  30.036  33.942  1.00  0.00    +0.000 N 
ATOM     36  C28 UNL A   1      40.130  30.736  35.025  1.00  0.00    +0.000 C 
ATOM     37  C29 UNL A   1      39.061  31.566  35.058  1.00  0.00    +0.000 C 
ATOM     49  C36 UNL A   1      38.256  31.895  33.911  1.00  0.00    +0.000 C 
ATOM     50  C37 UNL A   1      37.208  32.793  33.820  1.00  0.00    +0.000 C 
ATOM     51  C38 UNL A   1      36.701  32.744  32.519  1.00  0.00    +0.000 C 
ATOM     52  C39 UNL A   1      37.462  31.848  31.786  1.00  0.00    +0.000 C 
ATOM     53  N4  UNL A   1      38.413  31.333  32.652  1.00  0.00    +0.000 N 
ATOM     54  C40 UNL A   1      37.330  31.485  30.398  1.00  0.00    +0.000 C 
ATOM     66  C47 UNL A   1      38.128  30.606  29.744  1.00  0.00    +0.000 C 
ATOM     67  N5  UNL A   1      39.217  29.892  30.224  1.00  0.00    +0.000 N 
ATOM     68  C48 UNL A   1      39.648  29.172  29.216  1.00  0.00    +0.000 C 
ATOM     69  C49 UNL A   1      40.822  28.234  29.151  1.00  0.00    +0.000 C 
ATOM     81  C56 UNL A   1      41.588  28.066  30.245  1.00  0.00    +0.000 C 
ATOM     82  C57 UNL A   1      42.757  27.197  30.338  1.00  0.00    +0.000 C 
ATOM     83  C58 UNL A   1      43.241  27.246  31.589  1.00  0.00    +0.000 C 
ATOM     84  C59 UNL A   1      42.435  28.180  32.378  1.00  0.00    +0.000 C 
ATOM     85  N6  UNL A   1      41.482  28.623  31.496  1.00  0.00    +0.000 N 
ATOM     86  C60 UNL A   1      38.855  29.326  27.988  1.00  0.00    +0.000 C 
ATOM     87  C61 UNL A   1      37.969  30.242  28.352  1.00  0.00    +0.000 C 
ATOM     88  C62 UNL A   1      40.969  30.436  36.164  1.00  0.00    +0.000 C 
ATOM     89  C63 UNL A   1      41.998  29.677  35.812  1.00  0.00    +0.000 C 
ATOM    125  H34 UNL A   1      36.861  33.396  34.583  1.00  0.00    +0.000 H 
ATOM    126  H35 UNL A   1      35.896  33.283  32.164  1.00  0.00    +0.000 H 
ATOM    127  H36 UNL A   1      39.096  30.668  32.411  1.00  0.00    +0.000 H 
ATOM    128  H37 UNL A   1      43.148  26.634  29.566  1.00  0.00    +0.000 H 
ENDROOT
BRANCH   33   32
ATOM    123  H32 UNL A   1      44.340  25.321  36.593  1.00  0.00    +0.000 H 
ATOM    136  H45 UNL A   1      47.071  27.950  34.766  1.00  0.00    +0.000 H 
ATOM    135  H44 UNL A   1      45.239  29.100  33.671  1.00  0.00    +0.000 H 
ATOM     90  C64 UNL A   1      45.050  28.281  34.270  1.00  0.00    +0.000 C 
ATOM     91  C65 UNL A   1      46.098  27.648  34.931  1.00  0.00    +0.000 C 
ATOM    124  H33 UNL A   1      42.530  26.332  35.330  1.00  0.00    +0.000 H 
ATOM     29  C22 UNL A   1      45.833  26.602  35.820  1.00  0.00    +0.000 C 
ATOM     30  C23 UNL A   1      44.530  26.115  35.961  1.00  0.00    +0.000 C 
ATOM     31  C24 UNL A   1      43.489  26.707  35.247  1.00  0.00    +0.000 C 
ATOM     32  C25 UNL A   1      43.736  27.810  34.413  1.00  0.00    +0.000 C 
BRANCH   29   27
ATOM     27  C21 UNL A   1      46.924  25.951  36.575  1.00  0.00    +0.000 C 
ATOM     28  O4  UNL A   1      47.331  26.449  37.620  1.00  0.00    +0.000 O 
BRANCH   27   26
ATOM     26  N2  UNL A   1      47.467  24.776  36.121  1.00  0.00    +0.000 N 
ATOM    122  H31 UNL A   1      47.942  24.234  36.791  1.00  0.00    +0.000 H 
BRANCH   26   25
ATOM     25  C20 UNL A   1      47.431  24.230  34.773  1.00  0.00    +0.000 C 
ATOM    121  H30 UNL A   1      48.434  24.000  34.482  1.00  0.00    +0.000 H 
ATOM    120  H29 UNL A   1      46.995  24.955  34.118  1.00  0.00    +0.000 H 
BRANCH   25   24
ATOM    118  H27 UNL A   1      47.136  22.249  34.076  1.00  0.00    +0.000 H 
ATOM    119  H28 UNL A   1      46.496  22.603  35.708  1.00  0.00    +0.000 H 
ATOM     24  C19 UNL A   1      46.611  22.942  34.700  1.00  0.00    +0.000 C 
BRANCH   24   23
ATOM    116  H25 UNL A   1      44.852  22.147  33.813  1.00  0.00    +0.000 H 
ATOM    117  H26 UNL A   1      44.611  23.527  34.932  1.00  0.00    +0.000 H 
ATOM     23  C18 UNL A   1      45.193  23.108  34.138  1.00  0.00    +0.000 C 
BRANCH   23   22
ATOM    114  H23 UNL A   1      44.586  24.974  33.312  1.00  0.00    +0.000 H 
ATOM    115  H24 UNL A   1      46.044  24.255  32.586  1.00  0.00    +0.000 H 
ATOM     22  C17 UNL A   1      45.056  24.079  32.959  1.00  0.00    +0.000 C 
BRANCH   22   21
ATOM    113  H22 UNL A   1      43.226  23.855  31.947  1.00  0.00    +0.000 H 
ATOM     21  C16 UNL A   1      44.234  23.529  31.800  1.00  0.00    +0.000 C 
ATOM    112  H21 UNL A   1      44.319  22.461  31.801  1.00  0.00    +0.000 H 
BRANCH   21   20
ATOM     20  C15 UNL A   1      44.681  24.047  30.436  1.00  0.00    +0.000 C 
ATOM    110  H19 UNL A   1      45.079  25.033  30.548  1.00  0.00    +0.000 H 
ATOM    111  H20 UNL A   1      45.428  23.388  30.044  1.00  0.00    +0.000 H 
BRANCH   20   19
ATOM     19  N1  UNL A   1      43.566  24.086  29.517  1.00  0.00    +0.000 N 
ATOM    109  H18 UNL A   1      43.022  24.907  29.535  1.00  0.00    +0.000 H 
BRANCH   19   17
ATOM     17  C14 UNL A   1      43.175  23.132  28.630  1.00  0.00    +0.000 C 
ATOM     18  O3  UNL A   1      42.040  22.662  28.722  1.00  0.00    +0.000 O 
BRANCH   17   16
ATOM    107  H16 UNL A   1      45.116  22.593  27.995  1.00  0.00    +0.000 H 
ATOM    108  H17 UNL A   1      43.786  21.705  27.221  1.00  0.00    +0.000 H 
ATOM     16  C13 UNL A   1      44.138  22.656  27.565  1.00  0.00    +0.000 C 
BRANCH   16   15
ATOM    105  H14 UNL A   1      44.227  22.958  25.479  1.00  0.00    +0.000 H 
ATOM    106  H15 UNL A   1      43.343  24.208  26.449  1.00  0.00    +0.000 H 
ATOM     15  C12 UNL A   1      44.202  23.580  26.349  1.00  0.00    +0.000 C 
BRANCH   15   14
ATOM     14  C11 UNL A   1      45.384  24.561  26.245  1.00  0.00    +0.000 C 
ATOM    103  H12 UNL A   1      46.249  24.081  26.652  1.00  0.00    +0.000 H 
ATOM    104  H13 UNL A   1      45.475  24.804  25.207  1.00  0.00    +0.000 H 
BRANCH   14   13
ATOM    101  H10 UNL A   1      44.159  26.151  26.915  1.00  0.00    +0.000 H 
ATOM     13  C10 UNL A   1      45.196  25.896  26.976  1.00  0.00    +0.000 C 
ATOM    102  H11 UNL A   1      45.570  25.719  27.963  1.00  0.00    +0.000 H 
BRANCH   13   12
ATOM    100  H9  UNL A   1      45.431  27.928  26.853  1.00  0.00    +0.000 H 
ATOM     99  H8  UNL A   1      46.081  26.985  25.410  1.00  0.00    +0.000 H 
ATOM     12  C9  UNL A   1      45.996  27.104  26.470  1.00  0.00    +0.000 C 
BRANCH   12   11
ATOM     11  S1  UNL A   1      47.682  27.472  27.083  1.00  0.00    +0.000 S 
BRANCH   11   10
ATOM     97  H6  UNL A   1      48.954  24.871  30.951  1.00  0.00    +0.000 H 
ATOM     98  H7  UNL A   1      49.061  25.591  28.641  1.00  0.00    +0.000 H 
ATOM      5  C3  UNL A   1      46.818  27.801  29.750  1.00  0.00    +0.000 C 
ATOM      6  C4  UNL A   1      46.757  27.383  31.089  1.00  0.00    +0.000 C 
ATOM      7  C5  UNL A   1      47.524  26.306  31.526  1.00  0.00    +0.000 C 
ATOM      8  C6  UNL A   1      48.367  25.657  30.630  1.00  0.00    +0.000 C 
ATOM      9  C7  UNL A   1      48.420  26.070  29.293  1.00  0.00    +0.000 C 
ATOM     10  C8  UNL A   1      47.618  27.125  28.819  1.00  0.00    +0.000 C 
ATOM     95  H4  UNL A   1      46.142  27.877  31.753  1.00  0.00    +0.000 H 
ATOM     96  H5  UNL A   1      47.466  25.991  32.506  1.00  0.00    +0.000 H 
BRANCH    5    4
ATOM      4  O2  UNL A   1      45.829  28.793  29.444  1.00  0.00    +0.000 O 
BRANCH    4    2
ATOM      2  C2  UNL A   1      45.747  30.189  29.524  1.00  0.00    +0.000 C 
ATOM      3  O1  UNL A   1      46.574  31.009  29.157  1.00  0.00    +0.000 O 
BRANCH    2    1
ATOM      1  C1  UNL A   1      44.437  30.534  30.174  1.00  0.00    +0.000 C 
ATOM     92  H1  UNL A   1      43.651  29.980  29.707  1.00  0.00    +0.000 H 
ATOM     93  H2  UNL A   1      44.249  31.582  30.063  1.00  0.00    +0.000 H 
ATOM     94  H3  UNL A   1      44.479  30.287  31.214  1.00  0.00    +0.000 H 
ENDBRANCH    2    1
ENDBRANCH    4    2
ENDBRANCH    5    4
ENDBRANCH   11   10
ENDBRANCH   12   11
ENDBRANCH   13   12
ENDBRANCH   14   13
ENDBRANCH   15   14
ENDBRANCH   16   15
ENDBRANCH   17   16
ENDBRANCH   19   17
ENDBRANCH   20   19
ENDBRANCH   21   20
ENDBRANCH   22   21
ENDBRANCH   23   22
ENDBRANCH   24   23
ENDBRANCH   25   24
ENDBRANCH   26   25
ENDBRANCH   27   26
ENDBRANCH   29   27
ENDBRANCH   33   32
BRANCH   37   38
ATOM     38  C30 UNL A   1      38.697  32.185  36.375  1.00  0.00    +0.000 C 
ATOM     39  C31 UNL A   1      39.056  33.503  36.695  1.00  0.00    +0.000 C 
ATOM     40  F1  UNL A   1      39.796  34.227  35.843  1.00  0.00    +0.000 F 
ATOM     41  C32 UNL A   1      38.682  34.072  37.910  1.00  0.00    +0.000 C 
ATOM     42  F2  UNL A   1      39.071  35.319  38.212  1.00  0.00    +0.000 F 
ATOM     43  C33 UNL A   1      37.915  33.349  38.812  1.00  0.00    +0.000 C 
ATOM     44  F3  UNL A   1      37.546  33.903  39.976  1.00  0.00    +0.000 F 
ATOM     45  C34 UNL A   1      37.535  32.051  38.509  1.00  0.00    +0.000 C 
ATOM     46  F4  UNL A   1      36.785  31.355  39.374  1.00  0.00    +0.000 F 
ATOM     47  C35 UNL A   1      37.931  31.469  37.308  1.00  0.00    +0.000 C 
ATOM     48  F5  UNL A   1      37.556  30.207  37.049  1.00  0.00    +0.000 F 
ENDBRANCH   37   38
BRANCH   54   55
ATOM     65  F10 UNL A   1      35.102  30.071  29.347  1.00  0.00    +0.000 F 
ATOM     55  C41 UNL A   1      36.241  32.145  29.604  1.00  0.00    +0.000 C 
ATOM     56  C42 UNL A   1      36.273  33.516  29.311  1.00  0.00    +0.000 C 
ATOM     57  F6  UNL A   1      37.264  34.284  29.786  1.00  0.00    +0.000 F 
ATOM     58  C43 UNL A   1      35.262  34.109  28.560  1.00  0.00    +0.000 C 
ATOM     59  F7  UNL A   1      35.288  35.429  28.330  1.00  0.00    +0.000 F 
ATOM     60  C44 UNL A   1      34.222  33.339  28.061  1.00  0.00    +0.000 C 
ATOM     61  F8  UNL A   1      33.254  33.911  27.333  1.00  0.00    +0.000 F 
ATOM     62  C45 UNL A   1      34.181  31.978  28.324  1.00  0.00    +0.000 C 
ATOM     63  F9  UNL A   1      33.183  31.231  27.832  1.00  0.00    +0.000 F 
ATOM     64  C46 UNL A   1      35.175  31.387  29.099  1.00  0.00    +0.000 C 
ENDBRANCH   54   55
BRANCH   69   70
ATOM     70  C50 UNL A   1      41.156  27.521  27.891  1.00  0.00    +0.000 C 
ATOM     71  C51 UNL A   1      40.709  26.211  27.670  1.00  0.00    +0.000 C 
ATOM     72  F11 UNL A   1      39.978  25.587  28.606  1.00  0.00    +0.000 F 
ATOM     73  C52 UNL A   1      41.051  25.520  26.510  1.00  0.00    +0.000 C 
ATOM     74  F12 UNL A   1      40.652  24.252  26.347  1.00  0.00    +0.000 F 
ATOM     75  C53 UNL A   1      41.819  26.137  25.534  1.00  0.00    +0.000 C 
ATOM     76  F13 UNL A   1      42.147  25.472  24.418  1.00  0.00    +0.000 F 
ATOM     77  C54 UNL A   1      42.252  27.441  25.720  1.00  0.00    +0.000 C 
ATOM     78  F14 UNL A   1      42.982  28.045  24.772  1.00  0.00    +0.000 F 
ATOM     79  C55 UNL A   1      41.935  28.123  26.892  1.00  0.00    +0.000 C 
ATOM     80  F15 UNL A   1      42.380  29.377  27.052  1.00  0.00    +0.000 F 
ENDBRANCH   69   70
TORSDOF 24
ENDMDL
MODEL 10
REMARK VINA RESULT:      -8.6      7.214     13.416
ROOT
ATOM    129  H38 UNL A   1      44.230  26.780  32.040  1.00  0.00    +0.000 H 
ATOM    130  H39 UNL A   1      40.924  29.281  31.740  1.00  0.00    +0.000 H 
ATOM    131  H40 UNL A   1      39.118  28.652  27.097  1.00  0.00    +0.000 H 
ATOM    132  H41 UNL A   1      37.382  30.442  27.671  1.00  0.00    +0.000 H 
ATOM    133  H42 UNL A   1      40.884  30.959  37.072  1.00  0.00    +0.000 H 
ATOM    134  H43 UNL A   1      42.912  29.555  36.387  1.00  0.00    +0.000 H 
ATOM     33  C26 UNL A   1      42.780  28.579  33.710  1.00  0.00    +0.000 C 
ATOM     34  C27 UNL A   1      41.834  29.528  34.391  1.00  0.00    +0.000 C 
ATOM     35  N3  UNL A   1      40.763  30.112  33.917  1.00  0.00    +0.000 N 
ATOM     36  C28 UNL A   1      40.230  30.841  34.973  1.00  0.00    +0.000 C 
ATOM     37  C29 UNL A   1      39.147  31.653  34.974  1.00  0.00    +0.000 C 
ATOM     49  C36 UNL A   1      38.339  31.927  33.814  1.00  0.00    +0.000 C 
ATOM     50  C37 UNL A   1      37.276  32.803  33.689  1.00  0.00    +0.000 C 
ATOM     51  C38 UNL A   1      36.774  32.698  32.389  1.00  0.00    +0.000 C 
ATOM     52  C39 UNL A   1      37.553  31.791  31.690  1.00  0.00    +0.000 C 
ATOM     53  N4  UNL A   1      38.510  31.324  32.576  1.00  0.00    +0.000 N 
ATOM     54  C40 UNL A   1      37.431  31.377  30.316  1.00  0.00    +0.000 C 
ATOM     66  C47 UNL A   1      38.247  30.490  29.695  1.00  0.00    +0.000 C 
ATOM     67  N5  UNL A   1      39.347  29.812  30.202  1.00  0.00    +0.000 N 
ATOM     68  C48 UNL A   1      39.793  29.064  29.222  1.00  0.00    +0.000 C 
ATOM     69  C49 UNL A   1      40.984  28.146  29.193  1.00  0.00    +0.000 C 
ATOM     81  C56 UNL A   1      41.749  28.030  30.294  1.00  0.00    +0.000 C 
ATOM     82  C57 UNL A   1      42.933  27.186  30.421  1.00  0.00    +0.000 C 
ATOM     83  C58 UNL A   1      43.412  27.287  31.670  1.00  0.00    +0.000 C 
ATOM     84  C59 UNL A   1      42.588  28.234  32.424  1.00  0.00    +0.000 C 
ATOM     85  N6  UNL A   1      41.629  28.629  31.524  1.00  0.00    +0.000 N 
ATOM     86  C60 UNL A   1      39.002  29.161  27.987  1.00  0.00    +0.000 C 
ATOM     87  C61 UNL A   1      38.099  30.074  28.316  1.00  0.00    +0.000 C 
ATOM     88  C62 UNL A   1      41.071  30.596  36.124  1.00  0.00    +0.000 C 
ATOM     89  C63 UNL A   1      42.113  29.844  35.802  1.00  0.00    +0.000 C 
ATOM    125  H34 UNL A   1      36.916  33.426  34.429  1.00  0.00    +0.000 H 
ATOM    126  H35 UNL A   1      35.960  33.211  32.014  1.00  0.00    +0.000 H 
ATOM    127  H36 UNL A   1      39.206  30.663  32.360  1.00  0.00    +0.000 H 
ATOM    128  H37 UNL A   1      43.336  26.603  29.670  1.00  0.00    +0.000 H 
ENDROOT
BRANCH   33   32
ATOM    123  H32 UNL A   1      44.605  25.331  36.445  1.00  0.00    +0.000 H 
ATOM    136  H45 UNL A   1      47.148  28.416  35.132  1.00  0.00    +0.000 H 
ATOM    135  H44 UNL A   1      45.286  29.474  33.997  1.00  0.00    +0.000 H 
ATOM     90  C64 UNL A   1      45.147  28.580  34.494  1.00  0.00    +0.000 C 
ATOM     91  C65 UNL A   1      46.207  27.995  35.180  1.00  0.00    +0.000 C 
ATOM    124  H33 UNL A   1      42.794  26.272  35.132  1.00  0.00    +0.000 H 
ATOM     29  C22 UNL A   1      45.996  26.838  35.936  1.00  0.00    +0.000 C 
ATOM     30  C23 UNL A   1      44.751  26.203  35.914  1.00  0.00    +0.000 C 
ATOM     31  C24 UNL A   1      43.706  26.754  35.171  1.00  0.00    +0.000 C 
ATOM     32  C25 UNL A   1      43.889  27.959  34.474  1.00  0.00    +0.000 C 
BRANCH   29   27
ATOM     27  C21 UNL A   1      47.093  26.230  36.717  1.00  0.00    +0.000 C 
ATOM     28  O4  UNL A   1      47.443  26.732  37.781  1.00  0.00    +0.000 O 
BRANCH   27   26
ATOM     26  N2  UNL A   1      47.708  25.090  36.266  1.00  0.00    +0.000 N 
ATOM    122  H31 UNL A   1      48.628  25.200  35.933  1.00  0.00    +0.000 H 
BRANCH   26   25
ATOM     25  C20 UNL A   1      47.172  23.739  36.215  1.00  0.00    +0.000 C 
ATOM    121  H30 UNL A   1      46.187  23.757  36.632  1.00  0.00    +0.000 H 
ATOM    120  H29 UNL A   1      47.816  23.091  36.774  1.00  0.00    +0.000 H 
BRANCH   25   24
ATOM    118  H27 UNL A   1      47.432  23.978  34.125  1.00  0.00    +0.000 H 
ATOM    119  H28 UNL A   1      47.649  22.317  34.750  1.00  0.00    +0.000 H 
ATOM     24  C19 UNL A   1      47.070  23.216  34.783  1.00  0.00    +0.000 C 
BRANCH   24   23
ATOM    116  H25 UNL A   1      44.989  23.613  34.634  1.00  0.00    +0.000 H 
ATOM    117  H26 UNL A   1      45.711  22.695  33.273  1.00  0.00    +0.000 H 
ATOM     23  C18 UNL A   1      45.655  22.831  34.333  1.00  0.00    +0.000 C 
BRANCH   23   22
ATOM    114  H23 UNL A   1      44.849  21.667  35.923  1.00  0.00    +0.000 H 
ATOM    115  H24 UNL A   1      44.277  21.234  34.294  1.00  0.00    +0.000 H 
ATOM     22  C17 UNL A   1      45.116  21.511  34.898  1.00  0.00    +0.000 C 
BRANCH   22   21
ATOM    113  H22 UNL A   1      47.043  20.727  35.210  1.00  0.00    +0.000 H 
ATOM     21  C16 UNL A   1      46.112  20.360  34.831  1.00  0.00    +0.000 C 
ATOM    112  H21 UNL A   1      46.188  20.037  33.813  1.00  0.00    +0.000 H 
BRANCH   21   20
ATOM     20  C15 UNL A   1      45.719  19.162  35.690  1.00  0.00    +0.000 C 
ATOM    110  H19 UNL A   1      44.720  18.868  35.447  1.00  0.00    +0.000 H 
ATOM    111  H20 UNL A   1      46.399  18.360  35.495  1.00  0.00    +0.000 H 
BRANCH   20   19
ATOM     19  N1  UNL A   1      45.787  19.500  37.094  1.00  0.00    +0.000 N 
ATOM    109  H18 UNL A   1      44.945  19.805  37.505  1.00  0.00    +0.000 H 
BRANCH   19   17
ATOM     17  C14 UNL A   1      46.867  19.447  37.919  1.00  0.00    +0.000 C 
ATOM     18  O3  UNL A   1      47.988  19.632  37.445  1.00  0.00    +0.000 O 
BRANCH   17   16
ATOM    107  H16 UNL A   1      46.444  20.064  39.895  1.00  0.00    +0.000 H 
ATOM    108  H17 UNL A   1      45.885  18.432  39.468  1.00  0.00    +0.000 H 
ATOM     16  C13 UNL A   1      46.677  19.148  39.390  1.00  0.00    +0.000 C 
BRANCH   16   15
ATOM    105  H14 UNL A   1      48.647  18.402  39.282  1.00  0.00    +0.000 H 
ATOM    106  H15 UNL A   1      48.165  19.217  40.828  1.00  0.00    +0.000 H 
ATOM     15  C12 UNL A   1      47.910  18.532  40.048  1.00  0.00    +0.000 C 
BRANCH   15   14
ATOM     14  C11 UNL A   1      47.751  17.179  40.764  1.00  0.00    +0.000 C 
ATOM    103  H12 UNL A   1      48.274  16.440  40.194  1.00  0.00    +0.000 H 
ATOM    104  H13 UNL A   1      48.142  17.318  41.750  1.00  0.00    +0.000 H 
BRANCH   14   13
ATOM    101  H10 UNL A   1      45.688  17.292  40.307  1.00  0.00    +0.000 H 
ATOM     13  C10 UNL A   1      46.306  16.698  40.947  1.00  0.00    +0.000 C 
ATOM    102  H11 UNL A   1      46.337  15.653  40.719  1.00  0.00    +0.000 H 
BRANCH   13   12
ATOM    100  H9  UNL A   1      46.116  17.682  42.735  1.00  0.00    +0.000 H 
ATOM     99  H8  UNL A   1      45.963  15.849  42.840  1.00  0.00    +0.000 H 
ATOM     12  C9  UNL A   1      45.705  16.769  42.358  1.00  0.00    +0.000 C 
BRANCH   12   11
ATOM     11  S1  UNL A   1      43.911  17.009  42.633  1.00  0.00    +0.000 S 
BRANCH   11   10
ATOM     97  H6  UNL A   1      44.373  13.965  46.356  1.00  0.00    +0.000 H 
ATOM     98  H7  UNL A   1      44.825  15.968  45.072  1.00  0.00    +0.000 H 
ATOM      5  C3  UNL A   1      42.372  14.710  43.189  1.00  0.00    +0.000 C 
ATOM      6  C4  UNL A   1      42.111  13.548  43.935  1.00  0.00    +0.000 C 
ATOM      7  C5  UNL A   1      42.849  13.268  45.082  1.00  0.00    +0.000 C 
ATOM      8  C6  UNL A   1      43.836  14.156  45.496  1.00  0.00    +0.000 C 
ATOM      9  C7  UNL A   1      44.101  15.308  44.746  1.00  0.00    +0.000 C 
ATOM     10  C8  UNL A   1      43.400  15.587  43.558  1.00  0.00    +0.000 C 
ATOM     95  H4  UNL A   1      41.367  12.901  43.632  1.00  0.00    +0.000 H 
ATOM     96  H5  UNL A   1      42.666  12.407  45.620  1.00  0.00    +0.000 H 
BRANCH    5    4
ATOM      4  O2  UNL A   1      41.649  14.734  41.951  1.00  0.00    +0.000 O 
BRANCH    4    2
ATOM      2  C2  UNL A   1      41.903  14.340  40.631  1.00  0.00    +0.000 C 
ATOM      3  O1  UNL A   1      42.518  14.954  39.772  1.00  0.00    +0.000 O 
BRANCH    2    1
ATOM      1  C1  UNL A   1      41.263  12.998  40.423  1.00  0.00    +0.000 C 
ATOM     92  H1  UNL A   1      41.351  12.418  41.317  1.00  0.00    +0.000 H 
ATOM     93  H2  UNL A   1      41.753  12.490  39.619  1.00  0.00    +0.000 H 
ATOM     94  H3  UNL A   1      40.229  13.130  40.183  1.00  0.00    +0.000 H 
ENDBRANCH    2    1
ENDBRANCH    4    2
ENDBRANCH    5    4
ENDBRANCH   11   10
ENDBRANCH   12   11
ENDBRANCH   13   12
ENDBRANCH   14   13
ENDBRANCH   15   14
ENDBRANCH   16   15
ENDBRANCH   17   16
ENDBRANCH   19   17
ENDBRANCH   20   19
ENDBRANCH   21   20
ENDBRANCH   22   21
ENDBRANCH   23   22
ENDBRANCH   24   23
ENDBRANCH   25   24
ENDBRANCH   26   25
ENDBRANCH   27   26
ENDBRANCH   29   27
ENDBRANCH   33   32
BRANCH   37   38
ATOM     38  C30 UNL A   1      38.767  32.311  36.268  1.00  0.00    +0.000 C 
ATOM     39  C31 UNL A   1      38.018  31.639  37.246  1.00  0.00    +0.000 C 
ATOM     40  F1  UNL A   1      37.568  30.397  37.015  1.00  0.00    +0.000 F 
ATOM     41  C32 UNL A   1      37.702  32.255  38.454  1.00  0.00    +0.000 C 
ATOM     42  F2  UNL A   1      36.951  31.608  39.356  1.00  0.00    +0.000 F 
ATOM     43  C33 UNL A   1      38.154  33.538  38.722  1.00  0.00    +0.000 C 
ATOM     44  F3  UNL A   1      37.858  34.124  39.890  1.00  0.00    +0.000 F 
ATOM     45  C34 UNL A   1      38.910  34.214  37.777  1.00  0.00    +0.000 C 
ATOM     46  F4  UNL A   1      39.358  35.450  38.038  1.00  0.00    +0.000 F 
ATOM     47  C35 UNL A   1      39.204  33.613  36.556  1.00  0.00    +0.000 C 
ATOM     48  F5  UNL A   1      39.928  34.298  35.658  1.00  0.00    +0.000 F 
ENDBRANCH   37   38
BRANCH   54   55
ATOM     65  F10 UNL A   1      37.357  34.134  29.635  1.00  0.00    +0.000 F 
ATOM     55  C41 UNL A   1      36.334  31.989  29.496  1.00  0.00    +0.000 C 
ATOM     56  C42 UNL A   1      35.252  31.228  29.031  1.00  0.00    +0.000 C 
ATOM     57  F6  UNL A   1      35.203  29.908  29.269  1.00  0.00    +0.000 F 
ATOM     58  C43 UNL A   1      34.234  31.815  28.285  1.00  0.00    +0.000 C 
ATOM     59  F7  UNL A   1      33.233  31.061  27.812  1.00  0.00    +0.000 F 
ATOM     60  C44 UNL A   1      34.261  33.176  28.020  1.00  0.00    +0.000 C 
ATOM     61  F8  UNL A   1      33.277  33.741  27.308  1.00  0.00    +0.000 F 
ATOM     62  C45 UNL A   1      35.313  33.951  28.486  1.00  0.00    +0.000 C 
ATOM     63  F9  UNL A   1      35.334  35.269  28.241  1.00  0.00    +0.000 F 
ATOM     64  C46 UNL A   1      36.347  33.362  29.208  1.00  0.00    +0.000 C 
ENDBRANCH   54   55
BRANCH   69   70
ATOM     70  C50 UNL A   1      41.334  27.396  27.959  1.00  0.00    +0.000 C 
ATOM     71  C51 UNL A   1      40.895  26.076  27.775  1.00  0.00    +0.000 C 
ATOM     72  F11 UNL A   1      40.156  25.480  28.722  1.00  0.00    +0.000 F 
ATOM     73  C52 UNL A   1      41.253  25.351  26.641  1.00  0.00    +0.000 C 
ATOM     74  F12 UNL A   1      40.860  24.077  26.515  1.00  0.00    +0.000 F 
ATOM     75  C53 UNL A   1      42.028  25.941  25.655  1.00  0.00    +0.000 C 
ATOM     76  F13 UNL A   1      42.371  25.242  24.564  1.00  0.00    +0.000 F 
ATOM     77  C54 UNL A   1      42.455  27.251  25.804  1.00  0.00    +0.000 C 
ATOM     78  F14 UNL A   1      43.192  27.828  24.846  1.00  0.00    +0.000 F 
ATOM     79  C55 UNL A   1      42.122  27.968  26.951  1.00  0.00    +0.000 C 
ATOM     80  F15 UNL A   1      42.561  29.229  27.076  1.00  0.00    +0.000 F 
ENDBRANCH   69   70
TORSDOF 24
ENDMDL
