MODEL 1
REMARK VINA RESULT:      -7.0      0.000      0.000
ROOT
ATOM    166  H62 UNL A   1      19.463  36.320  47.714  1.00  0.00    +0.000 H 
ATOM    167  H63 UNL A   1      18.701  38.433  49.038  1.00  0.00    +0.000 H 
ATOM    168  H64 UNL A   1      22.622  39.001  47.846  1.00  0.00    +0.000 H 
ATOM    169  H65 UNL A   1      27.919  42.637  47.916  1.00  0.00    +0.000 H 
ATOM    170  H66 UNL A   1      28.665  40.542  46.683  1.00  0.00    +0.000 H 
ATOM    171  H67 UNL A   1      24.678  40.039  47.743  1.00  0.00    +0.000 H 
ATOM    172  H68 UNL A   1      23.285  44.128  50.218  1.00  0.00    +0.000 H 
ATOM    173  H69 UNL A   1      21.064  42.927  50.633  1.00  0.00    +0.000 H 
ATOM     46  C41 UNL A   1      26.655  38.523  46.502  1.00  0.00    +0.000 C 
ATOM     47  C42 UNL A   1      25.432  37.645  46.441  1.00  0.00    +0.000 C 
ATOM     48  N3  UNL A   1      24.205  37.902  46.807  1.00  0.00    +0.000 N 
ATOM    175  H71 UNL A   1      26.472  35.835  45.545  1.00  0.00    +0.000 H 
ATOM     49  C43 UNL A   1      23.466  36.792  46.421  1.00  0.00    +0.000 C 
ATOM    174  H70 UNL A   1      24.050  35.073  45.176  1.00  0.00    +0.000 H 
ATOM     50  C44 UNL A   1      22.171  36.508  46.692  1.00  0.00    +0.000 C 
ATOM     62  C51 UNL A   1      21.334  37.365  47.480  1.00  0.00    +0.000 C 
ATOM     63  C52 UNL A   1      20.035  37.157  47.901  1.00  0.00    +0.000 C 
ATOM     64  C53 UNL A   1      19.635  38.284  48.625  1.00  0.00    +0.000 C 
ATOM     65  C54 UNL A   1      20.701  39.169  48.699  1.00  0.00    +0.000 C 
ATOM     66  N4  UNL A   1      21.734  38.596  47.981  1.00  0.00    +0.000 N 
ATOM     67  C55 UNL A   1      20.767  40.439  49.375  1.00  0.00    +0.000 C 
ATOM     79  C62 UNL A   1      21.837  41.273  49.402  1.00  0.00    +0.000 C 
ATOM     80  N5  UNL A   1      23.089  41.117  48.826  1.00  0.00    +0.000 N 
ATOM     81  C63 UNL A   1      23.764  42.203  49.123  1.00  0.00    +0.000 C 
ATOM     82  C64 UNL A   1      25.189  42.561  48.785  1.00  0.00    +0.000 C 
ATOM     94  C71 UNL A   1      25.930  41.661  48.113  1.00  0.00    +0.000 C 
ATOM     95  C72 UNL A   1      27.330  41.812  47.725  1.00  0.00    +0.000 C 
ATOM     96  C73 UNL A   1      27.727  40.701  47.082  1.00  0.00    +0.000 C 
ATOM     97  C74 UNL A   1      26.613  39.753  47.039  1.00  0.00    +0.000 C 
ATOM     98  N6  UNL A   1      25.583  40.418  47.647  1.00  0.00    +0.000 N 
ATOM     99  C75 UNL A   1      23.001  43.189  49.898  1.00  0.00    +0.000 C 
ATOM    100  C76 UNL A   1      21.850  42.554  50.079  1.00  0.00    +0.000 C 
ATOM    101  C77 UNL A   1      24.350  35.908  45.705  1.00  0.00    +0.000 C 
ATOM    102  C78 UNL A   1      25.602  36.317  45.820  1.00  0.00    +0.000 C 
ENDROOT
BRANCH   46   45
ATOM    164  H60 UNL A   1      29.986  38.519  43.295  1.00  0.00    +0.000 H 
ATOM    165  H61 UNL A   1      27.782  39.172  44.104  1.00  0.00    +0.000 H 
ATOM    103  C79 UNL A   1      28.674  37.123  46.625  1.00  0.00    +0.000 C 
ATOM    104  C80 UNL A   1      29.968  36.862  46.232  1.00  0.00    +0.000 C 
ATOM     42  C37 UNL A   1      30.431  37.362  45.008  1.00  0.00    +0.000 C 
ATOM     43  C38 UNL A   1      29.640  38.180  44.207  1.00  0.00    +0.000 C 
ATOM     44  C39 UNL A   1      28.371  38.533  44.661  1.00  0.00    +0.000 C 
ATOM     45  C40 UNL A   1      27.895  38.018  45.879  1.00  0.00    +0.000 C 
ATOM    176  H72 UNL A   1      28.281  36.665  47.462  1.00  0.00    +0.000 H 
ATOM    177  H73 UNL A   1      30.592  36.302  46.834  1.00  0.00    +0.000 H 
BRANCH   42   40
ATOM     41  O3  UNL A   1      32.771  37.029  45.087  1.00  0.00    +0.000 O 
ATOM     40  C36 UNL A   1      31.729  36.849  44.514  1.00  0.00    +0.000 C 
BRANCH   40   39
ATOM    163  H59 UNL A   1      31.265  36.566  42.525  1.00  0.00    +0.000 H 
ATOM     39  N2  UNL A   1      31.632  36.138  43.332  1.00  0.00    +0.000 N 
BRANCH   39   38
ATOM    161  H57 UNL A   1      32.819  34.639  42.534  1.00  0.00    +0.000 H 
ATOM    162  H58 UNL A   1      32.497  34.472  44.230  1.00  0.00    +0.000 H 
ATOM     38  C35 UNL A   1      32.073  34.759  43.291  1.00  0.00    +0.000 C 
BRANCH   38   37
ATOM     37  C34 UNL A   1      30.872  33.905  42.969  1.00  0.00    +0.000 C 
ATOM    159  H55 UNL A   1      31.069  33.375  42.060  1.00  0.00    +0.000 H 
ATOM    160  H56 UNL A   1      30.724  33.247  43.800  1.00  0.00    +0.000 H 
BRANCH   37   36
ATOM     36  C33 UNL A   1      29.538  34.728  42.787  1.00  0.00    +0.000 C 
ATOM    157  H53 UNL A   1      29.801  35.749  42.969  1.00  0.00    +0.000 H 
ATOM    158  H54 UNL A   1      29.232  34.403  41.815  1.00  0.00    +0.000 H 
BRANCH   36   35
ATOM     35  C32 UNL A   1      28.145  34.458  43.662  1.00  0.00    +0.000 C 
ATOM    156  H52 UNL A   1      27.687  33.835  42.922  1.00  0.00    +0.000 H 
ATOM    155  H51 UNL A   1      27.893  35.435  44.019  1.00  0.00    +0.000 H 
BRANCH   35   34
ATOM    153  H49 UNL A   1      26.645  33.544  45.160  1.00  0.00    +0.000 H 
ATOM     34  C31 UNL A   1      27.699  33.378  45.084  1.00  0.00    +0.000 C 
ATOM    154  H50 UNL A   1      28.335  32.584  44.750  1.00  0.00    +0.000 H 
BRANCH   34   33
ATOM     33  C30 UNL A   1      28.230  33.099  47.099  1.00  0.00    +0.000 C 
ATOM    151  H47 UNL A   1      27.426  32.492  47.459  1.00  0.00    +0.000 H 
ATOM    152  H48 UNL A   1      29.262  32.930  46.873  1.00  0.00    +0.000 H 
BRANCH   33   32
ATOM    150  H46 UNL A   1      29.463  34.307  48.310  1.00  0.00    +0.000 H 
ATOM     32  N1  UNL A   1      28.542  33.961  48.313  1.00  0.00    +0.000 N 
BRANCH   32   30
ATOM     30  C29 UNL A   1      27.834  34.359  49.401  1.00  0.00    +0.000 C 
ATOM     31  O2  UNL A   1      28.184  33.835  50.467  1.00  0.00    +0.000 O 
BRANCH   30   29
ATOM    149  H45 UNL A   1      26.214  35.108  50.317  1.00  0.00    +0.000 H 
ATOM    148  H44 UNL A   1      26.248  35.307  48.455  1.00  0.00    +0.000 H 
ATOM     29  C28 UNL A   1      26.717  35.386  49.413  1.00  0.00    +0.000 C 
BRANCH   29   28
ATOM    146  H42 UNL A   1      27.888  37.147  49.350  1.00  0.00    +0.000 H 
ATOM    147  H43 UNL A   1      26.110  37.352  49.095  1.00  0.00    +0.000 H 
ATOM     28  C27 UNL A   1      26.896  36.890  49.656  1.00  0.00    +0.000 C 
BRANCH   28   27
ATOM      3  C3  UNL A   1      25.310  38.062  51.361  1.00  0.00    +0.000 C 
ATOM      4  C4  UNL A   1      25.370  39.564  51.729  1.00  0.00    +0.000 C 
ATOM      6  C5  UNL A   1      26.616  39.966  52.520  1.00  0.00    +0.000 C 
ATOM      7  C6  UNL A   1      27.883  39.670  51.655  1.00  0.00    +0.000 C 
ATOM      8  C7  UNL A   1      28.098  37.802  51.729  1.00  0.00    +0.000 C 
ATOM      9  C8  UNL A   1      29.805  36.935  51.429  1.00  0.00    +0.000 C 
ATOM     10  C9  UNL A   1      31.369  38.031  51.071  1.00  0.00    +0.000 C 
ATOM     11  C10 UNL A   1      31.204  39.986  50.926  1.00  0.00    +0.000 C 
ATOM    139  H35 UNL A   1      28.524  42.315  50.383  1.00  0.00    +0.000 H 
ATOM    140  H36 UNL A   1      29.957  42.838  51.308  1.00  0.00    +0.000 H 
ATOM     13  C12 UNL A   1      31.253  40.662  49.357  1.00  0.00    +0.000 C 
ATOM    137  H33 UNL A   1      29.763  42.016  48.578  1.00  0.00    +0.000 H 
ATOM    144  H40 UNL A   1      26.708  36.919  53.234  1.00  0.00    +0.000 H 
ATOM    145  H41 UNL A   1      27.378  35.715  52.582  1.00  0.00    +0.000 H 
ATOM    138  H34 UNL A   1      31.092  42.791  49.479  1.00  0.00    +0.000 H 
ATOM     22  C21 UNL A   1      30.399  41.976  49.438  1.00  0.00    +0.000 C 
ATOM     23  C22 UNL A   1      29.522  42.079  50.691  1.00  0.00    +0.000 C 
ATOM     24  C23 UNL A   1      29.473  40.791  51.543  1.00  0.00    +0.000 C 
ATOM     26  C25 UNL A   1      27.212  36.734  52.308  1.00  0.00    +0.000 C 
ATOM     27  C26 UNL A   1      26.711  37.390  51.060  1.00  0.00    +0.000 C 
ATOM    108  H4  UNL A   1      25.016  37.567  52.262  1.00  0.00    +0.000 H 
ATOM    109  H5  UNL A   1      25.391  40.066  50.783  1.00  0.00    +0.000 H 
ATOM    111  H7  UNL A   1      26.661  39.403  53.428  1.00  0.00    +0.000 H 
ATOM    112  H8  UNL A   1      26.575  41.009  52.756  1.00  0.00    +0.000 H 
ATOM    113  H9  UNL A   1      27.669  40.080  50.690  1.00  0.00    +0.000 H 
ATOM    114  H10 UNL A   1      29.682  36.282  50.591  1.00  0.00    +0.000 H 
ATOM    115  H11 UNL A   1      30.026  36.472  52.368  1.00  0.00    +0.000 H 
ATOM    116  H12 UNL A   1      31.779  37.688  50.145  1.00  0.00    +0.000 H 
ATOM    117  H13 UNL A   1      31.960  37.904  51.954  1.00  0.00    +0.000 H 
ATOM    121  H17 UNL A   1      32.306  40.667  49.172  1.00  0.00    +0.000 H 
BRANCH    3    2
ATOM      2  C2  UNL A   1      24.200  37.733  50.363  1.00  0.00    +0.000 C 
ATOM    107  H3  UNL A   1      24.160  38.323  49.518  1.00  0.00    +0.000 H 
BRANCH    2    1
ATOM      1  C1  UNL A   1      23.271  36.767  50.453  1.00  0.00    +0.000 C 
ATOM    106  H2  UNL A   1      23.534  35.828  50.787  1.00  0.00    +0.000 H 
ATOM    105  H1  UNL A   1      22.293  36.966  50.190  1.00  0.00    +0.000 H 
ENDBRANCH    2    1
ENDBRANCH    3    2
BRANCH    4    5
ATOM      5  O1  UNL A   1      24.232  39.952  52.510  1.00  0.00    +0.000 O 
ATOM    110  H6  UNL A   1      24.357  39.666  53.429  1.00  0.00    +0.000 H 
ENDBRANCH    4    5
BRANCH   11   12
ATOM     12  C11 UNL A   1      32.694  40.391  51.304  1.00  0.00    +0.000 C 
ATOM    118  H14 UNL A   1      33.340  40.187  50.476  1.00  0.00    +0.000 H 
ATOM    119  H15 UNL A   1      33.013  39.825  52.154  1.00  0.00    +0.000 H 
ATOM    120  H16 UNL A   1      32.732  41.435  51.536  1.00  0.00    +0.000 H 
ENDBRANCH   11   12
BRANCH   13   14
ATOM    122  H18 UNL A   1      30.449  39.540  47.991  1.00  0.00    +0.000 H 
ATOM     14  C13 UNL A   1      31.440  39.930  47.895  1.00  0.00    +0.000 C 
BRANCH   14   15
ATOM    123  H19 UNL A   1      32.407  38.035  47.588  1.00  0.00    +0.000 H 
ATOM    124  H20 UNL A   1      33.138  39.010  48.840  1.00  0.00    +0.000 H 
ATOM    125  H21 UNL A   1      33.392  39.413  47.159  1.00  0.00    +0.000 H 
ATOM     15  C14 UNL A   1      32.690  39.029  47.868  1.00  0.00    +0.000 C 
ENDBRANCH   14   15
BRANCH   14   16
ATOM    126  H22 UNL A   1      30.710  41.447  46.545  1.00  0.00    +0.000 H 
ATOM    127  H23 UNL A   1      30.589  39.697  45.986  1.00  0.00    +0.000 H 
ATOM     16  C15 UNL A   1      31.164  40.486  46.424  1.00  0.00    +0.000 C 
BRANCH   16   17
ATOM     17  C16 UNL A   1      32.313  40.672  45.392  1.00  0.00    +0.000 C 
ATOM    129  H25 UNL A   1      32.875  39.764  45.460  1.00  0.00    +0.000 H 
ATOM    128  H24 UNL A   1      31.856  40.875  44.445  1.00  0.00    +0.000 H 
BRANCH   17   18
ATOM     18  C17 UNL A   1      33.347  41.770  45.637  1.00  0.00    +0.000 C 
ATOM    130  H26 UNL A   1      34.330  41.455  45.653  1.00  0.00    +0.000 H 
BRANCH   18   19
ATOM     19  C18 UNL A   1      33.159  43.100  45.836  1.00  0.00    +0.000 C 
BRANCH   19   20
ATOM    133  H29 UNL A   1      35.116  43.640  45.220  1.00  0.00    +0.000 H 
ATOM    131  H27 UNL A   1      34.308  44.847  46.193  1.00  0.00    +0.000 H 
ATOM     20  C19 UNL A   1      34.182  44.126  45.412  1.00  0.00    +0.000 C 
ATOM    132  H28 UNL A   1      33.847  44.618  44.523  1.00  0.00    +0.000 H 
ENDBRANCH   19   20
BRANCH   19   21
ATOM     21  C20 UNL A   1      32.009  43.761  46.536  1.00  0.00    +0.000 C 
ATOM    134  H30 UNL A   1      32.368  44.281  47.399  1.00  0.00    +0.000 H 
ATOM    135  H31 UNL A   1      31.299  43.019  46.835  1.00  0.00    +0.000 H 
ATOM    136  H32 UNL A   1      31.540  44.457  45.871  1.00  0.00    +0.000 H 
ENDBRANCH   19   21
ENDBRANCH   18   19
ENDBRANCH   17   18
ENDBRANCH   16   17
ENDBRANCH   14   16
ENDBRANCH   13   14
BRANCH   24   25
ATOM     25  C24 UNL A   1      29.017  41.424  52.920  1.00  0.00    +0.000 C 
ATOM    141  H37 UNL A   1      29.211  42.476  52.910  1.00  0.00    +0.000 H 
ATOM    142  H38 UNL A   1      29.563  40.969  53.720  1.00  0.00    +0.000 H 
ATOM    143  H39 UNL A   1      27.970  41.255  53.061  1.00  0.00    +0.000 H 
ENDBRANCH   24   25
ENDBRANCH   28   27
ENDBRANCH   29   28
ENDBRANCH   30   29
ENDBRANCH   32   30
ENDBRANCH   33   32
ENDBRANCH   34   33
ENDBRANCH   35   34
ENDBRANCH   36   35
ENDBRANCH   37   36
ENDBRANCH   38   37
ENDBRANCH   39   38
ENDBRANCH   40   39
ENDBRANCH   42   40
ENDBRANCH   46   45
BRANCH   50   51
ATOM     51  C45 UNL A   1      21.616  35.219  46.159  1.00  0.00    +0.000 C 
ATOM     52  C46 UNL A   1      20.879  35.166  44.965  1.00  0.00    +0.000 C 
ATOM     53  F1  UNL A   1      20.646  36.288  44.266  1.00  0.00    +0.000 F 
ATOM     54  C47 UNL A   1      20.323  33.973  44.514  1.00  0.00    +0.000 C 
ATOM     55  F2  UNL A   1      19.562  33.965  43.410  1.00  0.00    +0.000 F 
ATOM     56  C48 UNL A   1      20.532  32.798  45.220  1.00  0.00    +0.000 C 
ATOM     57  F3  UNL A   1      19.998  31.649  44.784  1.00  0.00    +0.000 F 
ATOM     58  C49 UNL A   1      21.286  32.818  46.384  1.00  0.00    +0.000 C 
ATOM     59  F4  UNL A   1      21.497  31.682  47.062  1.00  0.00    +0.000 F 
ATOM     60  C50 UNL A   1      21.812  34.018  46.858  1.00  0.00    +0.000 C 
ATOM     61  F5  UNL A   1      22.506  34.008  48.006  1.00  0.00    +0.000 F 
ENDBRANCH   50   51
BRANCH   67   68
ATOM     68  C56 UNL A   1      19.544  40.866  50.130  1.00  0.00    +0.000 C 
ATOM     69  C57 UNL A   1      18.608  41.747  49.572  1.00  0.00    +0.000 C 
ATOM     70  F6  UNL A   1      18.833  42.299  48.371  1.00  0.00    +0.000 F 
ATOM     71  C58 UNL A   1      17.449  42.083  50.263  1.00  0.00    +0.000 C 
ATOM     72  F7  UNL A   1      16.584  42.958  49.729  1.00  0.00    +0.000 F 
ATOM     73  C59 UNL A   1      17.188  41.519  51.503  1.00  0.00    +0.000 C 
ATOM     74  F8  UNL A   1      16.061  41.831  52.158  1.00  0.00    +0.000 F 
ATOM     75  C60 UNL A   1      18.094  40.634  52.066  1.00  0.00    +0.000 C 
ATOM     76  F9  UNL A   1      17.835  40.072  53.254  1.00  0.00    +0.000 F 
ATOM     77  C61 UNL A   1      19.271  40.321  51.395  1.00  0.00    +0.000 C 
ATOM     78  F10 UNL A   1      20.131  39.463  51.962  1.00  0.00    +0.000 F 
ENDBRANCH   67   68
BRANCH   82   83
ATOM     83  C65 UNL A   1      25.791  43.846  49.225  1.00  0.00    +0.000 C 
ATOM     84  C66 UNL A   1      25.766  44.976  48.394  1.00  0.00    +0.000 C 
ATOM     85  F11 UNL A   1      25.206  44.900  47.179  1.00  0.00    +0.000 F 
ATOM     86  C67 UNL A   1      26.351  46.177  48.791  1.00  0.00    +0.000 C 
ATOM     87  F12 UNL A   1      26.353  47.226  47.958  1.00  0.00    +0.000 F 
ATOM     88  C68 UNL A   1      26.944  46.284  50.040  1.00  0.00    +0.000 C 
ATOM     89  F13 UNL A   1      27.505  47.439  50.422  1.00  0.00    +0.000 F 
ATOM     90  C69 UNL A   1      26.961  45.187  50.889  1.00  0.00    +0.000 C 
ATOM     91  F14 UNL A   1      27.520  45.290  52.102  1.00  0.00    +0.000 F 
ATOM     92  C70 UNL A   1      26.402  43.977  50.482  1.00  0.00    +0.000 C 
ATOM     93  F15 UNL A   1      26.444  42.930  51.319  1.00  0.00    +0.000 F 
ENDBRANCH   82   83
TORSDOF 30
ENDMDL
MODEL 2
REMARK VINA RESULT:      -6.8     46.904     51.964
ROOT
ATOM    166  H62 UNL A   1       2.722  -0.051  28.934  1.00  0.00    +0.000 H 
ATOM    167  H63 UNL A   1       2.376   0.115  31.512  1.00  0.00    +0.000 H 
ATOM    168  H64 UNL A   1       4.346  -3.431  30.701  1.00  0.00    +0.000 H 
ATOM    169  H65 UNL A   1       6.818  -8.963  32.840  1.00  0.00    +0.000 H 
ATOM    170  H66 UNL A   1       7.089  -9.138  30.318  1.00  0.00    +0.000 H 
ATOM    171  H67 UNL A   1       5.253  -5.504  31.147  1.00  0.00    +0.000 H 
ATOM    172  H68 UNL A   1       4.673  -5.239  36.085  1.00  0.00    +0.000 H 
ATOM    173  H69 UNL A   1       3.392  -3.065  35.657  1.00  0.00    +0.000 H 
ATOM     46  C41 UNL A   1       6.000  -6.928  28.875  1.00  0.00    +0.000 C 
ATOM     47  C42 UNL A   1       5.452  -5.636  28.329  1.00  0.00    +0.000 C 
ATOM     48  N3  UNL A   1       5.036  -4.574  28.966  1.00  0.00    +0.000 N 
ATOM    175  H71 UNL A   1       5.606  -6.209  26.137  1.00  0.00    +0.000 H 
ATOM     49  C43 UNL A   1       4.752  -3.640  27.978  1.00  0.00    +0.000 C 
ATOM    174  H70 UNL A   1       5.175  -3.700  25.819  1.00  0.00    +0.000 H 
ATOM     50  C44 UNL A   1       4.165  -2.429  28.110  1.00  0.00    +0.000 C 
ATOM     62  C51 UNL A   1       3.715  -1.914  29.371  1.00  0.00    +0.000 C 
ATOM     63  C52 UNL A   1       3.030  -0.744  29.633  1.00  0.00    +0.000 C 
ATOM     64  C53 UNL A   1       2.831  -0.665  31.014  1.00  0.00    +0.000 C 
ATOM     65  C54 UNL A   1       3.344  -1.811  31.606  1.00  0.00    +0.000 C 
ATOM     66  N4  UNL A   1       3.894  -2.563  30.585  1.00  0.00    +0.000 N 
ATOM     67  C55 UNL A   1       3.331  -2.186  32.996  1.00  0.00    +0.000 C 
ATOM     79  C62 UNL A   1       3.863  -3.318  33.522  1.00  0.00    +0.000 C 
ATOM     80  N5  UNL A   1       4.513  -4.363  32.883  1.00  0.00    +0.000 N 
ATOM     81  C63 UNL A   1       4.854  -5.210  33.825  1.00  0.00    +0.000 C 
ATOM     82  C64 UNL A   1       5.555  -6.540  33.704  1.00  0.00    +0.000 C 
ATOM     94  C71 UNL A   1       5.868  -6.985  32.474  1.00  0.00    +0.000 C 
ATOM     95  C72 UNL A   1       6.515  -8.254  32.153  1.00  0.00    +0.000 C 
ATOM     96  C73 UNL A   1       6.650  -8.351  30.820  1.00  0.00    +0.000 C 
ATOM     97  C74 UNL A   1       6.073  -7.160  30.196  1.00  0.00    +0.000 C 
ATOM     98  N6  UNL A   1       5.661  -6.394  31.253  1.00  0.00    +0.000 N 
ATOM     99  C75 UNL A   1       4.485  -4.779  35.179  1.00  0.00    +0.000 C 
ATOM    100  C76 UNL A   1       3.845  -3.644  34.933  1.00  0.00    +0.000 C 
ATOM    101  C77 UNL A   1       5.136  -4.215  26.713  1.00  0.00    +0.000 C 
ATOM    102  C78 UNL A   1       5.432  -5.495  26.860  1.00  0.00    +0.000 C 
ENDROOT
BRANCH   46   45
ATOM    164  H60 UNL A   1       9.365  -8.910  26.398  1.00  0.00    +0.000 H 
ATOM    165  H61 UNL A   1       8.477  -7.080  27.742  1.00  0.00    +0.000 H 
ATOM    103  C79 UNL A   1       5.700  -8.978  27.550  1.00  0.00    +0.000 C 
ATOM    104  C80 UNL A   1       6.239 -10.070  26.906  1.00  0.00    +0.000 C 
ATOM     42  C37 UNL A   1       7.571 -10.029  26.476  1.00  0.00    +0.000 C 
ATOM     43  C38 UNL A   1       8.393  -8.937  26.745  1.00  0.00    +0.000 C 
ATOM     44  C39 UNL A   1       7.875  -7.882  27.494  1.00  0.00    +0.000 C 
ATOM     45  C40 UNL A   1       6.534  -7.910  27.910  1.00  0.00    +0.000 C 
ATOM    176  H72 UNL A   1       4.692  -8.946  27.765  1.00  0.00    +0.000 H 
ATOM    177  H73 UNL A   1       5.666 -10.913  26.742  1.00  0.00    +0.000 H 
BRANCH   42   40
ATOM     41  O3  UNL A   1       8.096 -12.264  25.911  1.00  0.00    +0.000 O 
ATOM     40  C36 UNL A   1       8.027 -11.111  25.574  1.00  0.00    +0.000 C 
BRANCH   40   39
ATOM    163  H59 UNL A   1       8.814  -9.809  24.183  1.00  0.00    +0.000 H 
ATOM     39  N2  UNL A   1       8.361 -10.674  24.306  1.00  0.00    +0.000 N 
BRANCH   39   38
ATOM    161  H57 UNL A   1       8.936 -11.772  22.644  1.00  0.00    +0.000 H 
ATOM    162  H58 UNL A   1       7.542 -12.394  23.467  1.00  0.00    +0.000 H 
ATOM     38  C35 UNL A   1       8.039 -11.498  23.159  1.00  0.00    +0.000 C 
BRANCH   38   37
ATOM     37  C34 UNL A   1       7.151 -10.687  22.249  1.00  0.00    +0.000 C 
ATOM    159  H55 UNL A   1       7.584  -9.715  22.132  1.00  0.00    +0.000 H 
ATOM    160  H56 UNL A   1       7.085 -11.217  21.322  1.00  0.00    +0.000 H 
BRANCH   37   36
ATOM     36  C33 UNL A   1       5.678 -10.514  22.788  1.00  0.00    +0.000 C 
ATOM    157  H53 UNL A   1       5.044 -10.596  21.930  1.00  0.00    +0.000 H 
ATOM    158  H54 UNL A   1       5.658 -11.256  23.560  1.00  0.00    +0.000 H 
BRANCH   36   35
ATOM     35  C32 UNL A   1       5.137  -9.177  23.624  1.00  0.00    +0.000 C 
ATOM    156  H52 UNL A   1       5.431  -9.540  24.587  1.00  0.00    +0.000 H 
ATOM    155  H51 UNL A   1       4.171  -9.003  23.198  1.00  0.00    +0.000 H 
BRANCH   35   34
ATOM    153  H49 UNL A   1       5.356  -7.230  24.844  1.00  0.00    +0.000 H 
ATOM     34  C31 UNL A   1       5.778  -7.472  23.891  1.00  0.00    +0.000 C 
ATOM    154  H50 UNL A   1       6.748  -7.720  23.515  1.00  0.00    +0.000 H 
BRANCH   34   33
ATOM     33  C30 UNL A   1       5.767  -5.600  22.934  1.00  0.00    +0.000 C 
ATOM    151  H47 UNL A   1       4.764  -5.267  23.108  1.00  0.00    +0.000 H 
ATOM    152  H48 UNL A   1       6.729  -5.327  23.312  1.00  0.00    +0.000 H 
BRANCH   33   32
ATOM    150  H46 UNL A   1       5.278  -4.562  21.165  1.00  0.00    +0.000 H 
ATOM     32  N1  UNL A   1       6.049  -5.039  21.549  1.00  0.00    +0.000 N 
BRANCH   32   30
ATOM     30  C29 UNL A   1       7.126  -5.049  20.723  1.00  0.00    +0.000 C 
ATOM     31  O2  UNL A   1       6.869  -5.295  19.537  1.00  0.00    +0.000 O 
BRANCH   30   29
ATOM    149  H45 UNL A   1       8.967  -4.471  20.173  1.00  0.00    +0.000 H 
ATOM    148  H44 UNL A   1       8.894  -5.623  21.647  1.00  0.00    +0.000 H 
ATOM     29  C28 UNL A   1       8.561  -4.754  21.122  1.00  0.00    +0.000 C 
BRANCH   29   28
ATOM    146  H42 UNL A   1       8.876  -2.678  21.394  1.00  0.00    +0.000 H 
ATOM    147  H43 UNL A   1       8.428  -3.625  22.867  1.00  0.00    +0.000 H 
ATOM     28  C27 UNL A   1       9.018  -3.564  21.976  1.00  0.00    +0.000 C 
BRANCH   28   27
ATOM      3  C3  UNL A   1      10.639  -3.936  23.983  1.00  0.00    +0.000 C 
ATOM      4  C4  UNL A   1      11.228  -2.804  24.860  1.00  0.00    +0.000 C 
ATOM      6  C5  UNL A   1      12.234  -1.909  24.135  1.00  0.00    +0.000 C 
ATOM      7  C6  UNL A   1      11.519  -1.212  22.933  1.00  0.00    +0.000 C 
ATOM      8  C7  UNL A   1      11.348  -2.554  21.624  1.00  0.00    +0.000 C 
ATOM      9  C8  UNL A   1      11.165  -2.154  19.737  1.00  0.00    +0.000 C 
ATOM     10  C9  UNL A   1      11.190  -0.298  19.160  1.00  0.00    +0.000 C 
ATOM     11  C10 UNL A   1      11.311   1.155  20.481  1.00  0.00    +0.000 C 
ATOM    139  H35 UNL A   1      10.747   1.483  24.013  1.00  0.00    +0.000 H 
ATOM    140  H36 UNL A   1      11.928   2.557  23.217  1.00  0.00    +0.000 H 
ATOM     13  C12 UNL A   1       9.879   2.024  20.822  1.00  0.00    +0.000 C 
ATOM    137  H33 UNL A   1       9.107   2.348  22.812  1.00  0.00    +0.000 H 
ATOM    144  H40 UNL A   1      12.501  -4.369  22.217  1.00  0.00    +0.000 H 
ATOM    145  H41 UNL A   1      11.780  -4.778  20.938  1.00  0.00    +0.000 H 
ATOM    138  H34 UNL A   1      10.286   3.561  22.251  1.00  0.00    +0.000 H 
ATOM     22  C21 UNL A   1      10.032   2.523  22.302  1.00  0.00    +0.000 C 
ATOM     23  C22 UNL A   1      11.153   1.831  23.086  1.00  0.00    +0.000 C 
ATOM     24  C23 UNL A   1      11.793   0.629  22.355  1.00  0.00    +0.000 C 
ATOM     26  C25 UNL A   1      11.637  -4.028  21.687  1.00  0.00    +0.000 C 
ATOM     27  C26 UNL A   1      10.441  -3.565  22.457  1.00  0.00    +0.000 C 
ATOM    108  H4  UNL A   1      11.409  -4.677  23.933  1.00  0.00    +0.000 H 
ATOM    109  H5  UNL A   1      10.377  -2.212  25.130  1.00  0.00    +0.000 H 
ATOM    111  H7  UNL A   1      13.047  -2.502  23.775  1.00  0.00    +0.000 H 
ATOM    112  H8  UNL A   1      12.612  -1.168  24.810  1.00  0.00    +0.000 H 
ATOM    113  H9  UNL A   1      10.604  -0.827  23.332  1.00  0.00    +0.000 H 
ATOM    114  H10 UNL A   1      10.231  -2.568  19.418  1.00  0.00    +0.000 H 
ATOM    115  H11 UNL A   1      12.047  -2.570  19.299  1.00  0.00    +0.000 H 
ATOM    116  H12 UNL A   1      10.289  -0.136  18.606  1.00  0.00    +0.000 H 
ATOM    117  H13 UNL A   1      12.119  -0.222  18.633  1.00  0.00    +0.000 H 
ATOM    121  H17 UNL A   1       9.845   2.692  19.987  1.00  0.00    +0.000 H 
BRANCH    3    2
ATOM      2  C2  UNL A   1       9.461  -4.653  24.640  1.00  0.00    +0.000 C 
ATOM    107  H3  UNL A   1       8.743  -4.047  25.068  1.00  0.00    +0.000 H 
BRANCH    2    1
ATOM      1  C1  UNL A   1       9.245  -5.975  24.726  1.00  0.00    +0.000 C 
ATOM    106  H2  UNL A   1       9.150  -6.540  23.868  1.00  0.00    +0.000 H 
ATOM    105  H1  UNL A   1       9.176  -6.428  25.652  1.00  0.00    +0.000 H 
ENDBRANCH    2    1
ENDBRANCH    3    2
BRANCH    4    5
ATOM      5  O1  UNL A   1      11.891  -3.336  26.014  1.00  0.00    +0.000 O 
ATOM    110  H6  UNL A   1      11.338  -4.022  26.419  1.00  0.00    +0.000 H 
ENDBRANCH    4    5
BRANCH   11   12
ATOM     12  C11 UNL A   1      11.947   2.281  19.556  1.00  0.00    +0.000 C 
ATOM    118  H14 UNL A   1      12.257   1.847  18.628  1.00  0.00    +0.000 H 
ATOM    119  H15 UNL A   1      12.792   2.712  20.048  1.00  0.00    +0.000 H 
ATOM    120  H16 UNL A   1      11.217   3.041  19.367  1.00  0.00    +0.000 H 
ENDBRANCH   11   12
BRANCH   13   14
ATOM    122  H18 UNL A   1       8.738   1.076  19.569  1.00  0.00    +0.000 H 
ATOM     14  C13 UNL A   1       8.366   1.858  20.196  1.00  0.00    +0.000 C 
BRANCH   14   15
ATOM    123  H19 UNL A   1       7.669   3.096  18.583  1.00  0.00    +0.000 H 
ATOM    124  H20 UNL A   1       8.554   3.965  19.813  1.00  0.00    +0.000 H 
ATOM    125  H21 UNL A   1       6.916   3.442  20.121  1.00  0.00    +0.000 H 
ATOM     15  C14 UNL A   1       7.836   3.192  19.635  1.00  0.00    +0.000 C 
ENDBRANCH   14   15
BRANCH   14   16
ATOM    126  H22 UNL A   1       7.218   0.031  20.206  1.00  0.00    +0.000 H 
ATOM    127  H23 UNL A   1       6.297   1.603  20.476  1.00  0.00    +0.000 H 
ATOM     16  C15 UNL A   1       7.135   0.976  20.701  1.00  0.00    +0.000 C 
BRANCH   16   17
ATOM     17  C16 UNL A   1       6.919   0.662  22.209  1.00  0.00    +0.000 C 
ATOM    129  H25 UNL A   1       7.235   1.554  22.710  1.00  0.00    +0.000 H 
ATOM    128  H24 UNL A   1       5.891   0.390  22.330  1.00  0.00    +0.000 H 
BRANCH   17   18
ATOM     18  C17 UNL A   1       7.756  -0.443  22.854  1.00  0.00    +0.000 C 
ATOM    130  H26 UNL A   1       8.227  -1.082  22.195  1.00  0.00    +0.000 H 
BRANCH   18   19
ATOM     19  C18 UNL A   1       7.969  -0.704  24.169  1.00  0.00    +0.000 C 
BRANCH   19   20
ATOM    133  H29 UNL A   1       9.778   0.100  24.931  1.00  0.00    +0.000 H 
ATOM    131  H27 UNL A   1       8.464   0.062  26.084  1.00  0.00    +0.000 H 
ATOM     20  C19 UNL A   1       8.726   0.248  25.063  1.00  0.00    +0.000 C 
ATOM    132  H28 UNL A   1       8.473   1.256  24.807  1.00  0.00    +0.000 H 
ENDBRANCH   19   20
BRANCH   19   21
ATOM     21  C20 UNL A   1       7.585  -1.942  24.925  1.00  0.00    +0.000 C 
ATOM    134  H30 UNL A   1       6.620  -1.806  25.365  1.00  0.00    +0.000 H 
ATOM    135  H31 UNL A   1       8.305  -2.128  25.694  1.00  0.00    +0.000 H 
ATOM    136  H32 UNL A   1       7.556  -2.775  24.254  1.00  0.00    +0.000 H 
ENDBRANCH   19   21
ENDBRANCH   18   19
ENDBRANCH   17   18
ENDBRANCH   16   17
ENDBRANCH   14   16
ENDBRANCH   13   14
BRANCH   24   25
ATOM     25  C24 UNL A   1      13.171   0.575  23.132  1.00  0.00    +0.000 C 
ATOM    141  H37 UNL A   1      12.991   0.348  24.161  1.00  0.00    +0.000 H 
ATOM    142  H38 UNL A   1      13.660   1.524  23.056  1.00  0.00    +0.000 H 
ATOM    143  H39 UNL A   1      13.793  -0.183  22.703  1.00  0.00    +0.000 H 
ENDBRANCH   24   25
ENDBRANCH   28   27
ENDBRANCH   29   28
ENDBRANCH   30   29
ENDBRANCH   32   30
ENDBRANCH   33   32
ENDBRANCH   34   33
ENDBRANCH   35   34
ENDBRANCH   36   35
ENDBRANCH   37   36
ENDBRANCH   38   37
ENDBRANCH   39   38
ENDBRANCH   40   39
ENDBRANCH   42   40
ENDBRANCH   46   45
BRANCH   50   51
ATOM     51  C45 UNL A   1       3.961  -1.616  26.865  1.00  0.00    +0.000 C 
ATOM     52  C46 UNL A   1       2.923  -1.892  25.960  1.00  0.00    +0.000 C 
ATOM     53  F1  UNL A   1       2.081  -2.912  26.190  1.00  0.00    +0.000 F 
ATOM     54  C47 UNL A   1       2.782  -1.166  24.782  1.00  0.00    +0.000 C 
ATOM     55  F2  UNL A   1       1.828  -1.499  23.901  1.00  0.00    +0.000 F 
ATOM     56  C48 UNL A   1       3.644  -0.115  24.506  1.00  0.00    +0.000 C 
ATOM     57  F3  UNL A   1       3.507   0.586  23.372  1.00  0.00    +0.000 F 
ATOM     58  C49 UNL A   1       4.656   0.200  25.401  1.00  0.00    +0.000 C 
ATOM     59  F4  UNL A   1       5.484   1.221  25.140  1.00  0.00    +0.000 F 
ATOM     60  C50 UNL A   1       4.823  -0.551  26.562  1.00  0.00    +0.000 C 
ATOM     61  F5  UNL A   1       5.834  -0.242  27.389  1.00  0.00    +0.000 F 
ENDBRANCH   50   51
BRANCH   67   68
ATOM     68  C56 UNL A   1       2.650  -1.244  33.943  1.00  0.00    +0.000 C 
ATOM     69  C57 UNL A   1       3.347  -0.199  34.565  1.00  0.00    +0.000 C 
ATOM     70  F6  UNL A   1       4.671  -0.072  34.390  1.00  0.00    +0.000 F 
ATOM     71  C58 UNL A   1       2.686   0.703  35.391  1.00  0.00    +0.000 C 
ATOM     72  F7  UNL A   1       3.377   1.673  36.008  1.00  0.00    +0.000 F 
ATOM     73  C59 UNL A   1       1.316   0.599  35.581  1.00  0.00    +0.000 C 
ATOM     74  F8  UNL A   1       0.679   1.481  36.364  1.00  0.00    +0.000 F 
ATOM     75  C60 UNL A   1       0.606  -0.418  34.964  1.00  0.00    +0.000 C 
ATOM     76  F9  UNL A   1      -0.721  -0.508  35.129  1.00  0.00    +0.000 F 
ATOM     77  C61 UNL A   1       1.268  -1.343  34.163  1.00  0.00    +0.000 C 
ATOM     78  F10 UNL A   1       0.557  -2.318  33.578  1.00  0.00    +0.000 F 
ENDBRANCH   67   68
BRANCH   82   83
ATOM     83  C65 UNL A   1       5.846  -7.375  34.898  1.00  0.00    +0.000 C 
ATOM     84  C66 UNL A   1       4.932  -8.342  35.341  1.00  0.00    +0.000 C 
ATOM     85  F11 UNL A   1       3.771  -8.512  34.693  1.00  0.00    +0.000 F 
ATOM     86  C67 UNL A   1       5.188  -9.112  36.475  1.00  0.00    +0.000 C 
ATOM     87  F12 UNL A   1       4.276  -9.995  36.902  1.00  0.00    +0.000 F 
ATOM     88  C68 UNL A   1       6.377  -8.954  37.170  1.00  0.00    +0.000 C 
ATOM     89  F13 UNL A   1       6.624  -9.695  38.258  1.00  0.00    +0.000 F 
ATOM     90  C69 UNL A   1       7.308  -8.020  36.738  1.00  0.00    +0.000 C 
ATOM     91  F14 UNL A   1       8.464  -7.874  37.397  1.00  0.00    +0.000 F 
ATOM     92  C70 UNL A   1       7.040  -7.230  35.621  1.00  0.00    +0.000 C 
ATOM     93  F15 UNL A   1       7.953  -6.327  35.233  1.00  0.00    +0.000 F 
ENDBRANCH   82   83
TORSDOF 30
ENDMDL
MODEL 3
REMARK VINA RESULT:      -6.3     44.274     47.901
ROOT
ATOM    166  H62 UNL A   1      18.697  53.137  -1.610  1.00  0.00    +0.000 H 
ATOM    167  H63 UNL A   1      18.171  50.610  -1.973  1.00  0.00    +0.000 H 
ATOM    168  H64 UNL A   1      16.005  51.923   1.298  1.00  0.00    +0.000 H 
ATOM    169  H65 UNL A   1      12.026  50.574   6.160  1.00  0.00    +0.000 H 
ATOM    170  H66 UNL A   1      12.601  53.022   6.537  1.00  0.00    +0.000 H 
ATOM    171  H67 UNL A   1      14.653  51.743   3.158  1.00  0.00    +0.000 H 
ATOM    172  H68 UNL A   1      13.559  46.930   2.503  1.00  0.00    +0.000 H 
ATOM    173  H69 UNL A   1      15.269  46.965   0.599  1.00  0.00    +0.000 H 
ATOM     46  C41 UNL A   1      14.483  54.075   4.668  1.00  0.00    +0.000 C 
ATOM     47  C42 UNL A   1      15.401  54.444   3.532  1.00  0.00    +0.000 C 
ATOM     48  N3  UNL A   1      15.756  53.744   2.488  1.00  0.00    +0.000 N 
ATOM    175  H71 UNL A   1      15.904  56.527   4.286  1.00  0.00    +0.000 H 
ATOM     49  C43 UNL A   1      16.517  54.604   1.708  1.00  0.00    +0.000 C 
ATOM    174  H70 UNL A   1      16.849  56.771   1.914  1.00  0.00    +0.000 H 
ATOM     50  C44 UNL A   1      17.226  54.322   0.592  1.00  0.00    +0.000 C 
ATOM     62  C51 UNL A   1      17.305  53.004   0.031  1.00  0.00    +0.000 C 
ATOM     63  C52 UNL A   1      18.053  52.565  -1.043  1.00  0.00    +0.000 C 
ATOM     64  C53 UNL A   1      17.783  51.205  -1.225  1.00  0.00    +0.000 C 
ATOM     65  C54 UNL A   1      16.907  50.788  -0.233  1.00  0.00    +0.000 C 
ATOM     66  N4  UNL A   1      16.613  51.907   0.524  1.00  0.00    +0.000 N 
ATOM     67  C55 UNL A   1      16.382  49.467   0.003  1.00  0.00    +0.000 C 
ATOM     79  C62 UNL A   1      15.513  49.119   0.985  1.00  0.00    +0.000 C 
ATOM     80  N5  UNL A   1      14.946  49.904   1.978  1.00  0.00    +0.000 N 
ATOM     81  C63 UNL A   1      14.163  49.109   2.668  1.00  0.00    +0.000 C 
ATOM     82  C64 UNL A   1      13.324  49.416   3.882  1.00  0.00    +0.000 C 
ATOM     94  C71 UNL A   1      13.374  50.660   4.393  1.00  0.00    +0.000 C 
ATOM     95  C72 UNL A   1      12.663  51.138   5.576  1.00  0.00    +0.000 C 
ATOM     96  C73 UNL A   1      12.974  52.429   5.781  1.00  0.00    +0.000 C 
ATOM     97  C74 UNL A   1      13.927  52.856   4.756  1.00  0.00    +0.000 C 
ATOM     98  N6  UNL A   1      14.084  51.753   3.962  1.00  0.00    +0.000 N 
ATOM     99  C75 UNL A   1      14.120  47.729   2.167  1.00  0.00    +0.000 C 
ATOM    100  C76 UNL A   1      14.994  47.779   1.171  1.00  0.00    +0.000 C 
ATOM    101  C77 UNL A   1      16.491  55.900   2.338  1.00  0.00    +0.000 C 
ATOM    102  C78 UNL A   1      15.943  55.817   3.539  1.00  0.00    +0.000 C 
ENDROOT
BRANCH   46   45
ATOM    164  H60 UNL A   1      15.284  56.681   8.403  1.00  0.00    +0.000 H 
ATOM    165  H61 UNL A   1      15.726  54.733   7.006  1.00  0.00    +0.000 H 
ATOM    103  C79 UNL A   1      13.079  55.981   5.335  1.00  0.00    +0.000 C 
ATOM    104  C80 UNL A   1      12.917  57.149   6.047  1.00  0.00    +0.000 C 
ATOM     42  C37 UNL A   1      13.714  57.387   7.174  1.00  0.00    +0.000 C 
ATOM     43  C38 UNL A   1      14.722  56.505   7.555  1.00  0.00    +0.000 C 
ATOM     44  C39 UNL A   1      14.957  55.380   6.767  1.00  0.00    +0.000 C 
ATOM     45  C40 UNL A   1      14.146  55.127   5.647  1.00  0.00    +0.000 C 
ATOM    176  H72 UNL A   1      12.423  55.737   4.578  1.00  0.00    +0.000 H 
ATOM    177  H73 UNL A   1      12.213  57.844   5.753  1.00  0.00    +0.000 H 
BRANCH   42   40
ATOM     41  O3  UNL A   1      12.445  58.464   8.853  1.00  0.00    +0.000 O 
ATOM     40  C36 UNL A   1      13.335  58.522   8.046  1.00  0.00    +0.000 C 
BRANCH   40   39
ATOM    163  H59 UNL A   1      15.023  59.696   8.203  1.00  0.00    +0.000 H 
ATOM     39  N2  UNL A   1      14.105  59.654   7.850  1.00  0.00    +0.000 N 
BRANCH   39   38
ATOM    161  H57 UNL A   1      14.143  60.976   6.255  1.00  0.00    +0.000 H 
ATOM    162  H58 UNL A   1      12.551  60.562   6.805  1.00  0.00    +0.000 H 
ATOM     38  C35 UNL A   1      13.550  60.776   7.123  1.00  0.00    +0.000 C 
BRANCH   38   37
ATOM     37  C34 UNL A   1      13.568  61.971   8.043  1.00  0.00    +0.000 C 
ATOM    159  H55 UNL A   1      14.071  62.774   7.545  1.00  0.00    +0.000 H 
ATOM    160  H56 UNL A   1      12.550  62.207   8.271  1.00  0.00    +0.000 H 
BRANCH   37   36
ATOM     36  C33 UNL A   1      14.298  61.703   9.417  1.00  0.00    +0.000 C 
ATOM    157  H53 UNL A   1      14.678  60.704   9.353  1.00  0.00    +0.000 H 
ATOM    158  H54 UNL A   1      14.960  62.542   9.460  1.00  0.00    +0.000 H 
BRANCH   36   35
ATOM     35  C32 UNL A   1      13.558  61.809  10.907  1.00  0.00    +0.000 C 
ATOM    156  H52 UNL A   1      13.289  62.840  10.807  1.00  0.00    +0.000 H 
ATOM    155  H51 UNL A   1      14.253  61.319  11.556  1.00  0.00    +0.000 H 
BRANCH   35   34
ATOM    153  H49 UNL A   1      12.217  60.501  12.255  1.00  0.00    +0.000 H 
ATOM     34  C31 UNL A   1      11.929  61.282  11.583  1.00  0.00    +0.000 C 
ATOM    154  H50 UNL A   1      11.579  62.289  11.671  1.00  0.00    +0.000 H 
BRANCH   34   33
ATOM     33  C30 UNL A   1      10.071  60.582  10.892  1.00  0.00    +0.000 C 
ATOM    151  H47 UNL A   1       9.462  60.664  11.769  1.00  0.00    +0.000 H 
ATOM    152  H48 UNL A   1      10.138  61.116   9.968  1.00  0.00    +0.000 H 
BRANCH   33   32
ATOM    150  H46 UNL A   1       9.791  59.232   9.297  1.00  0.00    +0.000 H 
ATOM     32  N1  UNL A   1       9.509  59.331  10.235  1.00  0.00    +0.000 N 
BRANCH   32   30
ATOM     30  C29 UNL A   1       8.705  58.320  10.652  1.00  0.00    +0.000 C 
ATOM     31  O2  UNL A   1       7.546  58.658  10.926  1.00  0.00    +0.000 O 
BRANCH   30   29
ATOM    149  H45 UNL A   1       9.570  56.713   9.818  1.00  0.00    +0.000 H 
ATOM    148  H44 UNL A   1       8.197  56.344  11.036  1.00  0.00    +0.000 H 
ATOM     29  C28 UNL A   1       9.095  56.857  10.767  1.00  0.00    +0.000 C 
BRANCH   29   28
ATOM    146  H42 UNL A   1      10.633  55.469  11.200  1.00  0.00    +0.000 H 
ATOM    147  H43 UNL A   1      10.826  57.126  11.893  1.00  0.00    +0.000 H 
ATOM     28  C27 UNL A   1      10.177  56.297  11.699  1.00  0.00    +0.000 C 
BRANCH   28   27
ATOM      3  C3  UNL A   1      10.166  56.752  14.266  1.00  0.00    +0.000 C 
ATOM      4  C4  UNL A   1      11.141  56.103  15.278  1.00  0.00    +0.000 C 
ATOM      6  C5  UNL A   1      10.925  54.603  15.483  1.00  0.00    +0.000 C 
ATOM      7  C6  UNL A   1      11.145  53.869  14.121  1.00  0.00    +0.000 C 
ATOM      8  C7  UNL A   1       9.600  54.237  13.112  1.00  0.00    +0.000 C 
ATOM      9  C8  UNL A   1       9.003  53.099  11.662  1.00  0.00    +0.000 C 
ATOM     10  C9  UNL A   1      10.016  51.493  11.247  1.00  0.00    +0.000 C 
ATOM     11  C10 UNL A   1      11.671  51.077  12.226  1.00  0.00    +0.000 C 
ATOM    139  H35 UNL A   1      13.988  52.909  14.269  1.00  0.00    +0.000 H 
ATOM    140  H36 UNL A   1      13.779  51.159  14.546  1.00  0.00    +0.000 H 
ATOM     13  C12 UNL A   1      13.151  51.360  11.418  1.00  0.00    +0.000 C 
ATOM    137  H33 UNL A   1      14.773  52.523  12.241  1.00  0.00    +0.000 H 
ATOM    144  H40 UNL A   1       8.060  55.229  14.386  1.00  0.00    +0.000 H 
ATOM    145  H41 UNL A   1       7.457  55.236  12.985  1.00  0.00    +0.000 H 
ATOM    138  H34 UNL A   1      14.784  50.795  12.677  1.00  0.00    +0.000 H 
ATOM     22  C21 UNL A   1      14.193  51.678  12.548  1.00  0.00    +0.000 C 
ATOM     23  C22 UNL A   1      13.566  51.994  13.910  1.00  0.00    +0.000 C 
ATOM     24  C23 UNL A   1      12.028  52.148  13.884  1.00  0.00    +0.000 C 
ATOM     26  C25 UNL A   1       8.444  55.158  13.389  1.00  0.00    +0.000 C 
ATOM     27  C26 UNL A   1       9.742  55.824  13.057  1.00  0.00    +0.000 C 
ATOM    108  H4  UNL A   1       9.244  56.859  14.798  1.00  0.00    +0.000 H 
ATOM    109  H5  UNL A   1      12.109  56.251  14.844  1.00  0.00    +0.000 H 
ATOM    111  H7  UNL A   1       9.928  54.428  15.828  1.00  0.00    +0.000 H 
ATOM    112  H8  UNL A   1      11.617  54.232  16.210  1.00  0.00    +0.000 H 
ATOM    113  H9  UNL A   1      12.063  54.261  13.734  1.00  0.00    +0.000 H 
ATOM    114  H10 UNL A   1       8.992  53.699  10.777  1.00  0.00    +0.000 H 
ATOM    115  H11 UNL A   1       8.060  52.726  12.000  1.00  0.00    +0.000 H 
ATOM    116  H12 UNL A   1      10.278  51.554  10.212  1.00  0.00    +0.000 H 
ATOM    117  H13 UNL A   1       9.355  50.706  11.547  1.00  0.00    +0.000 H 
ATOM    121  H17 UNL A   1      13.214  50.488  10.802  1.00  0.00    +0.000 H 
BRANCH    3    2
ATOM      2  C2  UNL A   1      10.558  58.180  13.887  1.00  0.00    +0.000 C 
ATOM    107  H3  UNL A   1      11.367  58.276  13.254  1.00  0.00    +0.000 H 
BRANCH    2    1
ATOM      1  C1  UNL A   1       9.976  59.325  14.279  1.00  0.00    +0.000 C 
ATOM    106  H2  UNL A   1       9.932  59.566  15.280  1.00  0.00    +0.000 H 
ATOM    105  H1  UNL A   1       9.573  59.966  13.576  1.00  0.00    +0.000 H 
ENDBRANCH    2    1
ENDBRANCH    3    2
BRANCH    4    5
ATOM      5  O1  UNL A   1      11.037  56.723  16.567  1.00  0.00    +0.000 O 
ATOM    110  H6  UNL A   1      11.870  57.174  16.777  1.00  0.00    +0.000 H 
ENDBRANCH    4    5
BRANCH   11   12
ATOM     12  C11 UNL A   1      11.693  49.501  12.021  1.00  0.00    +0.000 C 
ATOM    118  H14 UNL A   1      11.155  49.030  12.817  1.00  0.00    +0.000 H 
ATOM    119  H15 UNL A   1      12.705  49.155  12.020  1.00  0.00    +0.000 H 
ATOM    120  H16 UNL A   1      11.232  49.257  11.086  1.00  0.00    +0.000 H 
ENDBRANCH   11   12
BRANCH   13   14
ATOM    122  H18 UNL A   1      12.397  51.792   9.681  1.00  0.00    +0.000 H 
ATOM     14  C13 UNL A   1      13.436  51.923   9.899  1.00  0.00    +0.000 C 
BRANCH   14   15
ATOM    123  H19 UNL A   1      14.635  51.446   8.180  1.00  0.00    +0.000 H 
ATOM    124  H20 UNL A   1      14.286  50.075   9.205  1.00  0.00    +0.000 H 
ATOM    125  H21 UNL A   1      15.471  51.259   9.703  1.00  0.00    +0.000 H 
ATOM     15  C14 UNL A   1      14.541  51.114   9.193  1.00  0.00    +0.000 C 
ENDBRANCH   14   15
BRANCH   14   16
ATOM    126  H22 UNL A   1      13.466  53.343   8.274  1.00  0.00    +0.000 H 
ATOM    127  H23 UNL A   1      14.286  53.846   9.844  1.00  0.00    +0.000 H 
ATOM     16  C15 UNL A   1      13.445  53.419   9.341  1.00  0.00    +0.000 C 
BRANCH   16   17
ATOM     17  C16 UNL A   1      12.308  54.425   9.683  1.00  0.00    +0.000 C 
ATOM    129  H25 UNL A   1      11.634  53.860  10.293  1.00  0.00    +0.000 H 
ATOM    128  H24 UNL A   1      12.768  55.274  10.147  1.00  0.00    +0.000 H 
BRANCH   17   18
ATOM     18  C17 UNL A   1      11.431  54.953   8.548  1.00  0.00    +0.000 C 
ATOM    130  H26 UNL A   1      11.526  55.962   8.349  1.00  0.00    +0.000 H 
BRANCH   18   19
ATOM     19  C18 UNL A   1      10.546  54.287   7.764  1.00  0.00    +0.000 C 
BRANCH   19   20
ATOM    133  H29 UNL A   1      10.125  52.296   7.164  1.00  0.00    +0.000 H 
ATOM    131  H27 UNL A   1       9.123  52.883   8.471  1.00  0.00    +0.000 H 
ATOM     20  C19 UNL A   1      10.114  52.873   8.066  1.00  0.00    +0.000 C 
ATOM    132  H28 UNL A   1      10.785  52.437   8.776  1.00  0.00    +0.000 H 
ENDBRANCH   19   20
BRANCH   19   21
ATOM     21  C20 UNL A   1       9.923  54.766   6.485  1.00  0.00    +0.000 C 
ATOM    134  H30 UNL A   1      10.674  55.208   5.866  1.00  0.00    +0.000 H 
ATOM    135  H31 UNL A   1       9.170  55.492   6.706  1.00  0.00    +0.000 H 
ATOM    136  H32 UNL A   1       9.481  53.937   5.972  1.00  0.00    +0.000 H 
ENDBRANCH   19   21
ENDBRANCH   18   19
ENDBRANCH   17   18
ENDBRANCH   16   17
ENDBRANCH   14   16
ENDBRANCH   13   14
BRANCH   24   25
ATOM     25  C24 UNL A   1      11.729  51.882  15.416  1.00  0.00    +0.000 C 
ATOM    141  H37 UNL A   1      11.929  52.770  15.977  1.00  0.00    +0.000 H 
ATOM    142  H38 UNL A   1      12.354  51.089  15.769  1.00  0.00    +0.000 H 
ATOM    143  H39 UNL A   1      10.702  51.608  15.536  1.00  0.00    +0.000 H 
ENDBRANCH   24   25
ENDBRANCH   28   27
ENDBRANCH   29   28
ENDBRANCH   30   29
ENDBRANCH   32   30
ENDBRANCH   33   32
ENDBRANCH   34   33
ENDBRANCH   35   34
ENDBRANCH   36   35
ENDBRANCH   37   36
ENDBRANCH   38   37
ENDBRANCH   39   38
ENDBRANCH   40   39
ENDBRANCH   42   40
ENDBRANCH   46   45
BRANCH   50   51
ATOM     51  C45 UNL A   1      17.980  55.447  -0.056  1.00  0.00    +0.000 C 
ATOM     52  C46 UNL A   1      17.494  56.105  -1.199  1.00  0.00    +0.000 C 
ATOM     53  F1  UNL A   1      16.329  55.730  -1.749  1.00  0.00    +0.000 F 
ATOM     54  C47 UNL A   1      18.232  57.107  -1.821  1.00  0.00    +0.000 C 
ATOM     55  F2  UNL A   1      17.779  57.666  -2.952  1.00  0.00    +0.000 F 
ATOM     56  C48 UNL A   1      19.447  57.509  -1.287  1.00  0.00    +0.000 C 
ATOM     57  F3  UNL A   1      20.156  58.476  -1.885  1.00  0.00    +0.000 F 
ATOM     58  C49 UNL A   1      19.931  56.900  -0.139  1.00  0.00    +0.000 C 
ATOM     59  F4  UNL A   1      21.100  57.293   0.384  1.00  0.00    +0.000 F 
ATOM     60  C50 UNL A   1      19.213  55.869   0.464  1.00  0.00    +0.000 C 
ATOM     61  F5  UNL A   1      19.727  55.276   1.552  1.00  0.00    +0.000 F 
ENDBRANCH   50   51
BRANCH   67   68
ATOM     68  C56 UNL A   1      16.854  48.380  -0.914  1.00  0.00    +0.000 C 
ATOM     69  C57 UNL A   1      16.139  48.031  -2.068  1.00  0.00    +0.000 C 
ATOM     70  F6  UNL A   1      14.959  48.611  -2.332  1.00  0.00    +0.000 F 
ATOM     71  C58 UNL A   1      16.625  47.062  -2.939  1.00  0.00    +0.000 C 
ATOM     72  F7  UNL A   1      15.907  46.714  -4.017  1.00  0.00    +0.000 F 
ATOM     73  C59 UNL A   1      17.847  46.454  -2.693  1.00  0.00    +0.000 C 
ATOM     74  F8  UNL A   1      18.321  45.533  -3.545  1.00  0.00    +0.000 F 
ATOM     75  C60 UNL A   1      18.577  46.795  -1.566  1.00  0.00    +0.000 C 
ATOM     76  F9  UNL A   1      19.767  46.223  -1.337  1.00  0.00    +0.000 F 
ATOM     77  C61 UNL A   1      18.079  47.738  -0.674  1.00  0.00    +0.000 C 
ATOM     78  F10 UNL A   1      18.805  48.049   0.410  1.00  0.00    +0.000 F 
ENDBRANCH   67   68
BRANCH   82   83
ATOM     83  C65 UNL A   1      12.503  48.369   4.544  1.00  0.00    +0.000 C 
ATOM     84  C66 UNL A   1      13.010  47.632   5.624  1.00  0.00    +0.000 C 
ATOM     85  F11 UNL A   1      14.257  47.858   6.062  1.00  0.00    +0.000 F 
ATOM     86  C67 UNL A   1      12.255  46.631   6.233  1.00  0.00    +0.000 C 
ATOM     87  F12 UNL A   1      12.783  45.911   7.232  1.00  0.00    +0.000 F 
ATOM     88  C68 UNL A   1      10.966  46.369   5.797  1.00  0.00    +0.000 C 
ATOM     89  F13 UNL A   1      10.239  45.409   6.384  1.00  0.00    +0.000 F 
ATOM     90  C69 UNL A   1      10.433  47.101   4.745  1.00  0.00    +0.000 C 
ATOM     91  F14 UNL A   1       9.182  46.861   4.331  1.00  0.00    +0.000 F 
ATOM     92  C70 UNL A   1      11.198  48.082   4.117  1.00  0.00    +0.000 C 
ATOM     93  F15 UNL A   1      10.661  48.765   3.096  1.00  0.00    +0.000 F 
ENDBRANCH   82   83
TORSDOF 30
ENDMDL
MODEL 4
REMARK VINA RESULT:      -6.2     31.995     38.906
ROOT
ATOM    166  H62 UNL A   1      44.030  44.117  22.883  1.00  0.00    +0.000 H 
ATOM    167  H63 UNL A   1      43.343  45.169  20.600  1.00  0.00    +0.000 H 
ATOM    168  H64 UNL A   1      47.396  44.350  20.476  1.00  0.00    +0.000 H 
ATOM    169  H65 UNL A   1      52.977  44.665  17.306  1.00  0.00    +0.000 H 
ATOM    170  H66 UNL A   1      53.640  43.699  19.563  1.00  0.00    +0.000 H 
ATOM    171  H67 UNL A   1      49.541  44.375  19.628  1.00  0.00    +0.000 H 
ATOM    172  H68 UNL A   1      48.301  46.336  15.223  1.00  0.00    +0.000 H 
ATOM    173  H69 UNL A   1      45.948  46.616  16.190  1.00  0.00    +0.000 H 
ATOM     46  C41 UNL A   1      51.479  43.481  21.415  1.00  0.00    +0.000 C 
ATOM     47  C42 UNL A   1      50.191  43.367  22.188  1.00  0.00    +0.000 C 
ATOM     48  N3  UNL A   1      48.964  43.580  21.796  1.00  0.00    +0.000 N 
ATOM    175  H71 UNL A   1      51.140  42.741  24.156  1.00  0.00    +0.000 H 
ATOM     49  C43 UNL A   1      48.165  43.214  22.872  1.00  0.00    +0.000 C 
ATOM    174  H70 UNL A   1      48.705  42.187  24.743  1.00  0.00    +0.000 H 
ATOM     50  C44 UNL A   1      46.830  43.371  23.020  1.00  0.00    +0.000 C 
ATOM     62  C51 UNL A   1      46.004  43.992  22.025  1.00  0.00    +0.000 C 
ATOM     63  C52 UNL A   1      44.657  44.291  22.083  1.00  0.00    +0.000 C 
ATOM     64  C53 UNL A   1      44.295  44.871  20.864  1.00  0.00    +0.000 C 
ATOM     65  C54 UNL A   1      45.426  44.981  20.068  1.00  0.00    +0.000 C 
ATOM     66  N4  UNL A   1      46.466  44.426  20.791  1.00  0.00    +0.000 N 
ATOM     67  C55 UNL A   1      45.544  45.550  18.750  1.00  0.00    +0.000 C 
ATOM     79  C62 UNL A   1      46.679  45.618  18.011  1.00  0.00    +0.000 C 
ATOM     80  N5  UNL A   1      47.961  45.191  18.324  1.00  0.00    +0.000 N 
ATOM     81  C63 UNL A   1      48.702  45.463  17.276  1.00  0.00    +0.000 C 
ATOM     82  C64 UNL A   1      50.180  45.247  17.072  1.00  0.00    +0.000 C 
ATOM     94  C71 UNL A   1      50.896  44.735  18.090  1.00  0.00    +0.000 C 
ATOM     95  C72 UNL A   1      52.335  44.484  18.094  1.00  0.00    +0.000 C 
ATOM     96  C73 UNL A   1      52.687  43.982  19.289  1.00  0.00    +0.000 C 
ATOM     97  C74 UNL A   1      51.499  43.904  20.140  1.00  0.00    +0.000 C 
ATOM     98  N6  UNL A   1      50.481  44.343  19.338  1.00  0.00    +0.000 N 
ATOM     99  C75 UNL A   1      47.963  46.068  16.162  1.00  0.00    +0.000 C 
ATOM    100  C76 UNL A   1      46.746  46.181  16.678  1.00  0.00    +0.000 C 
ATOM    101  C77 UNL A   1      49.029  42.671  23.890  1.00  0.00    +0.000 C 
ATOM    102  C78 UNL A   1      50.296  42.881  23.578  1.00  0.00    +0.000 C 
ENDROOT
BRANCH   46   45
ATOM    164  H60 UNL A   1      55.023  40.586  22.077  1.00  0.00    +0.000 H 
ATOM    165  H61 UNL A   1      52.819  41.116  21.182  1.00  0.00    +0.000 H 
ATOM    103  C79 UNL A   1      53.377  43.958  22.904  1.00  0.00    +0.000 C 
ATOM    104  C80 UNL A   1      54.674  43.711  23.296  1.00  0.00    +0.000 C 
ATOM     42  C37 UNL A   1      55.259  42.472  23.005  1.00  0.00    +0.000 C 
ATOM     43  C38 UNL A   1      54.589  41.504  22.262  1.00  0.00    +0.000 C 
ATOM     44  C39 UNL A   1      53.320  41.802  21.771  1.00  0.00    +0.000 C 
ATOM     45  C40 UNL A   1      52.720  43.035  22.078  1.00  0.00    +0.000 C 
ATOM    176  H72 UNL A   1      52.893  44.815  23.214  1.00  0.00    +0.000 H 
ATOM    177  H73 UNL A   1      55.211  44.433  23.802  1.00  0.00    +0.000 H 
BRANCH   42   40
ATOM     41  O3  UNL A   1      56.640  41.835  24.815  1.00  0.00    +0.000 O 
ATOM     40  C36 UNL A   1      56.549  42.160  23.661  1.00  0.00    +0.000 C 
BRANCH   40   39
ATOM    163  H59 UNL A   1      58.026  41.470  22.398  1.00  0.00    +0.000 H 
ATOM     39  N2  UNL A   1      57.642  42.272  22.821  1.00  0.00    +0.000 N 
BRANCH   39   38
ATOM    161  H57 UNL A   1      57.493  44.339  22.772  1.00  0.00    +0.000 H 
ATOM    162  H58 UNL A   1      59.065  43.742  23.198  1.00  0.00    +0.000 H 
ATOM     38  C35 UNL A   1      58.216  43.576  22.568  1.00  0.00    +0.000 C 
BRANCH   38   37
ATOM     37  C34 UNL A   1      58.618  43.626  21.115  1.00  0.00    +0.000 C 
ATOM    159  H55 UNL A   1      59.634  43.954  21.056  1.00  0.00    +0.000 H 
ATOM    160  H56 UNL A   1      58.483  42.641  20.719  1.00  0.00    +0.000 H 
BRANCH   37   36
ATOM     36  C33 UNL A   1      57.729  44.598  20.245  1.00  0.00    +0.000 C 
ATOM    157  H53 UNL A   1      58.394  45.356  19.888  1.00  0.00    +0.000 H 
ATOM    158  H54 UNL A   1      57.273  43.904  19.570  1.00  0.00    +0.000 H 
BRANCH   36   35
ATOM     35  C32 UNL A   1      56.388  45.406  20.818  1.00  0.00    +0.000 C 
ATOM    156  H52 UNL A   1      56.936  46.249  21.187  1.00  0.00    +0.000 H 
ATOM    155  H51 UNL A   1      55.845  44.638  21.327  1.00  0.00    +0.000 H 
BRANCH   35   34
ATOM    153  H49 UNL A   1      54.803  45.811  19.191  1.00  0.00    +0.000 H 
ATOM     34  C31 UNL A   1      55.051  46.406  20.044  1.00  0.00    +0.000 C 
ATOM    154  H50 UNL A   1      54.600  46.633  20.987  1.00  0.00    +0.000 H 
BRANCH   34   33
ATOM     33  C30 UNL A   1      54.742  48.351  19.308  1.00  0.00    +0.000 C 
ATOM    151  H47 UNL A   1      55.734  48.648  19.038  1.00  0.00    +0.000 H 
ATOM    152  H48 UNL A   1      53.861  48.077  18.766  1.00  0.00    +0.000 H 
BRANCH   33   32
ATOM    150  H46 UNL A   1      53.979  49.668  20.768  1.00  0.00    +0.000 H 
ATOM     32  N1  UNL A   1      54.145  49.662  19.798  1.00  0.00    +0.000 N 
BRANCH   32   30
ATOM     30  C29 UNL A   1      53.788  50.825  19.196  1.00  0.00    +0.000 C 
ATOM     31  O2  UNL A   1      54.674  51.344  18.504  1.00  0.00    +0.000 O 
BRANCH   30   29
ATOM    149  H45 UNL A   1      52.593  52.338  18.641  1.00  0.00    +0.000 H 
ATOM    148  H44 UNL A   1      52.218  51.592  20.317  1.00  0.00    +0.000 H 
ATOM     29  C28 UNL A   1      52.426  51.490  19.273  1.00  0.00    +0.000 C 
BRANCH   29   28
ATOM    146  H42 UNL A   1      50.866  51.588  17.846  1.00  0.00    +0.000 H 
ATOM    147  H43 UNL A   1      51.371  49.936  18.375  1.00  0.00    +0.000 H 
ATOM     28  C27 UNL A   1      51.134  50.942  18.654  1.00  0.00    +0.000 C 
BRANCH   28   27
ATOM      3  C3  UNL A   1      49.564  49.344  19.989  1.00  0.00    +0.000 C 
ATOM      4  C4  UNL A   1      48.190  48.839  19.486  1.00  0.00    +0.000 C 
ATOM      6  C5  UNL A   1      47.115  49.924  19.404  1.00  0.00    +0.000 C 
ATOM      7  C6  UNL A   1      47.581  51.023  18.395  1.00  0.00    +0.000 C 
ATOM      8  C7  UNL A   1      48.896  52.004  19.315  1.00  0.00    +0.000 C 
ATOM      9  C8  UNL A   1      49.344  53.834  18.859  1.00  0.00    +0.000 C 
ATOM     10  C9  UNL A   1      48.378  54.709  17.418  1.00  0.00    +0.000 C 
ATOM     11  C10 UNL A   1      47.030  53.723  16.379  1.00  0.00    +0.000 C 
ATOM    139  H35 UNL A   1      46.219  50.268  15.826  1.00  0.00    +0.000 H 
ATOM    140  H36 UNL A   1      44.928  51.494  15.712  1.00  0.00    +0.000 H 
ATOM     13  C12 UNL A   1      47.473  53.206  14.811  1.00  0.00    +0.000 C 
ATOM    137  H33 UNL A   1      47.270  51.175  14.107  1.00  0.00    +0.000 H 
ATOM    144  H40 UNL A   1      48.956  51.401  21.462  1.00  0.00    +0.000 H 
ATOM    145  H41 UNL A   1      50.112  52.382  21.311  1.00  0.00    +0.000 H 
ATOM    138  H34 UNL A   1      45.828  52.199  13.888  1.00  0.00    +0.000 H 
ATOM     22  C21 UNL A   1      46.626  51.912  14.540  1.00  0.00    +0.000 C 
ATOM     23  C22 UNL A   1      45.979  51.311  15.792  1.00  0.00    +0.000 C 
ATOM     24  C23 UNL A   1      46.439  51.955  17.120  1.00  0.00    +0.000 C 
ATOM     26  C25 UNL A   1      49.549  51.761  20.648  1.00  0.00    +0.000 C 
ATOM     27  C26 UNL A   1      49.935  50.819  19.551  1.00  0.00    +0.000 C 
ATOM    108  H4  UNL A   1      49.451  49.448  21.047  1.00  0.00    +0.000 H 
ATOM    109  H5  UNL A   1      48.388  48.480  18.496  1.00  0.00    +0.000 H 
ATOM    111  H7  UNL A   1      46.972  50.361  20.370  1.00  0.00    +0.000 H 
ATOM    112  H8  UNL A   1      46.192  49.496  19.072  1.00  0.00    +0.000 H 
ATOM    113  H9  UNL A   1      47.913  50.490  17.529  1.00  0.00    +0.000 H 
ATOM    114  H10 UNL A   1      50.380  53.846  18.594  1.00  0.00    +0.000 H 
ATOM    115  H11 UNL A   1      49.066  54.391  19.729  1.00  0.00    +0.000 H 
ATOM    116  H12 UNL A   1      49.113  55.052  16.720  1.00  0.00    +0.000 H 
ATOM    117  H13 UNL A   1      47.796  55.447  17.930  1.00  0.00    +0.000 H 
ATOM    121  H17 UNL A   1      47.341  54.110  14.255  1.00  0.00    +0.000 H 
BRANCH    3    2
ATOM      2  C2  UNL A   1      50.680  48.313  19.822  1.00  0.00    +0.000 C 
ATOM    107  H3  UNL A   1      50.981  48.122  18.853  1.00  0.00    +0.000 H 
BRANCH    2    1
ATOM      1  C1  UNL A   1      51.317  47.626  20.784  1.00  0.00    +0.000 C 
ATOM    106  H2  UNL A   1      50.816  46.900  21.318  1.00  0.00    +0.000 H 
ATOM    105  H1  UNL A   1      52.309  47.824  20.989  1.00  0.00    +0.000 H 
ENDBRANCH    2    1
ENDBRANCH    3    2
BRANCH    4    5
ATOM      5  O1  UNL A   1      47.678  47.802  20.333  1.00  0.00    +0.000 O 
ATOM    110  H6  UNL A   1      47.237  47.129  19.791  1.00  0.00    +0.000 H 
ENDBRANCH    4    5
BRANCH   11   12
ATOM     12  C11 UNL A   1      46.150  54.952  15.883  1.00  0.00    +0.000 C 
ATOM    118  H14 UNL A   1      46.641  55.433  15.063  1.00  0.00    +0.000 H 
ATOM    119  H15 UNL A   1      46.027  55.648  16.684  1.00  0.00    +0.000 H 
ATOM    120  H16 UNL A   1      45.192  54.598  15.565  1.00  0.00    +0.000 H 
ENDBRANCH   11   12
BRANCH   13   14
ATOM    122  H18 UNL A   1      48.907  54.426  14.337  1.00  0.00    +0.000 H 
ATOM     14  C13 UNL A   1      48.880  53.416  13.986  1.00  0.00    +0.000 C 
BRANCH   14   15
ATOM    123  H19 UNL A   1      49.277  53.753  11.900  1.00  0.00    +0.000 H 
ATOM    124  H20 UNL A   1      47.688  53.103  12.225  1.00  0.00    +0.000 H 
ATOM    125  H21 UNL A   1      49.093  52.068  12.325  1.00  0.00    +0.000 H 
ATOM     15  C14 UNL A   1      48.723  53.058  12.495  1.00  0.00    +0.000 C 
ENDBRANCH   14   15
BRANCH   14   16
ATOM    126  H22 UNL A   1      50.575  53.776  15.273  1.00  0.00    +0.000 H 
ATOM    127  H23 UNL A   1      50.931  53.307  13.528  1.00  0.00    +0.000 H 
ATOM     16  C15 UNL A   1      50.388  53.139  14.434  1.00  0.00    +0.000 C 
BRANCH   16   17
ATOM     17  C16 UNL A   1      50.868  51.718  14.850  1.00  0.00    +0.000 C 
ATOM    129  H25 UNL A   1      51.919  51.729  14.649  1.00  0.00    +0.000 H 
ATOM    128  H24 UNL A   1      50.583  51.576  15.873  1.00  0.00    +0.000 H 
BRANCH   17   18
ATOM     18  C17 UNL A   1      50.350  50.512  14.067  1.00  0.00    +0.000 C 
ATOM    130  H26 UNL A   1      50.749  50.394  13.123  1.00  0.00    +0.000 H 
BRANCH   18   19
ATOM     19  C18 UNL A   1      49.443  49.572  14.436  1.00  0.00    +0.000 C 
BRANCH   19   20
ATOM    133  H29 UNL A   1      47.946  49.608  15.940  1.00  0.00    +0.000 H 
ATOM    131  H27 UNL A   1      49.533  50.095  16.490  1.00  0.00    +0.000 H 
ATOM     20  C19 UNL A   1      48.996  49.408  15.869  1.00  0.00    +0.000 C 
ATOM    132  H28 UNL A   1      49.191  48.407  16.192  1.00  0.00    +0.000 H 
ENDBRANCH   19   20
BRANCH   19   21
ATOM     21  C20 UNL A   1      48.804  48.531  13.564  1.00  0.00    +0.000 C 
ATOM    134  H30 UNL A   1      48.816  48.863  12.547  1.00  0.00    +0.000 H 
ATOM    135  H31 UNL A   1      47.794  48.375  13.877  1.00  0.00    +0.000 H 
ATOM    136  H32 UNL A   1      49.350  47.614  13.646  1.00  0.00    +0.000 H 
ENDBRANCH   19   21
ENDBRANCH   18   19
ENDBRANCH   17   18
ENDBRANCH   16   17
ENDBRANCH   14   16
ENDBRANCH   13   14
BRANCH   24   25
ATOM     25  C24 UNL A   1      45.219  51.531  18.035  1.00  0.00    +0.000 C 
ATOM    141  H37 UNL A   1      44.900  50.545  17.769  1.00  0.00    +0.000 H 
ATOM    142  H38 UNL A   1      44.411  52.218  17.892  1.00  0.00    +0.000 H 
ATOM    143  H39 UNL A   1      45.522  51.544  19.061  1.00  0.00    +0.000 H 
ENDBRANCH   24   25
ENDBRANCH   28   27
ENDBRANCH   29   28
ENDBRANCH   30   29
ENDBRANCH   32   30
ENDBRANCH   33   32
ENDBRANCH   34   33
ENDBRANCH   35   34
ENDBRANCH   36   35
ENDBRANCH   37   36
ENDBRANCH   38   37
ENDBRANCH   39   38
ENDBRANCH   40   39
ENDBRANCH   42   40
ENDBRANCH   46   45
BRANCH   50   51
ATOM     51  C45 UNL A   1      46.212  42.894  24.302  1.00  0.00    +0.000 C 
ATOM     52  C46 UNL A   1      46.007  41.529  24.564  1.00  0.00    +0.000 C 
ATOM     53  F1  UNL A   1      46.359  40.607  23.655  1.00  0.00    +0.000 F 
ATOM     54  C47 UNL A   1      45.380  41.107  25.732  1.00  0.00    +0.000 C 
ATOM     55  F2  UNL A   1      45.130  39.804  25.923  1.00  0.00    +0.000 F 
ATOM     56  C48 UNL A   1      44.990  42.034  26.686  1.00  0.00    +0.000 C 
ATOM     57  F3  UNL A   1      44.388  41.627  27.812  1.00  0.00    +0.000 F 
ATOM     58  C49 UNL A   1      45.213  43.386  26.466  1.00  0.00    +0.000 C 
ATOM     59  F4  UNL A   1      44.845  44.282  27.391  1.00  0.00    +0.000 F 
ATOM     60  C50 UNL A   1      45.805  43.814  25.280  1.00  0.00    +0.000 C 
ATOM     61  F5  UNL A   1      45.974  45.130  25.084  1.00  0.00    +0.000 F 
ENDBRANCH   50   51
BRANCH   67   68
ATOM     68  C56 UNL A   1      44.300  46.134  18.154  1.00  0.00    +0.000 C 
ATOM     69  C57 UNL A   1      43.934  47.468  18.380  1.00  0.00    +0.000 C 
ATOM     70  F6  UNL A   1      44.654  48.234  19.213  1.00  0.00    +0.000 F 
ATOM     71  C58 UNL A   1      42.810  48.011  17.767  1.00  0.00    +0.000 C 
ATOM     72  F7  UNL A   1      42.454  49.277  18.027  1.00  0.00    +0.000 F 
ATOM     73  C59 UNL A   1      42.054  47.243  16.894  1.00  0.00    +0.000 C 
ATOM     74  F8  UNL A   1      40.981  47.775  16.291  1.00  0.00    +0.000 F 
ATOM     75  C60 UNL A   1      42.406  45.926  16.645  1.00  0.00    +0.000 C 
ATOM     76  F9  UNL A   1      41.690  45.189  15.785  1.00  0.00    +0.000 F 
ATOM     77  C61 UNL A   1      43.510  45.369  17.281  1.00  0.00    +0.000 C 
ATOM     78  F10 UNL A   1      43.829  44.092  17.024  1.00  0.00    +0.000 F 
ENDBRANCH   67   68
BRANCH   82   83
ATOM     83  C65 UNL A   1      50.854  45.638  15.806  1.00  0.00    +0.000 C 
ATOM     84  C66 UNL A   1      50.787  44.816  14.671  1.00  0.00    +0.000 C 
ATOM     85  F11 UNL A   1      50.121  43.654  14.725  1.00  0.00    +0.000 F 
ATOM     86  C67 UNL A   1      51.438  45.165  13.489  1.00  0.00    +0.000 C 
ATOM     87  F12 UNL A   1      51.396  44.338  12.435  1.00  0.00    +0.000 F 
ATOM     88  C68 UNL A   1      52.140  46.357  13.406  1.00  0.00    +0.000 C 
ATOM     89  F13 UNL A   1      52.764  46.693  12.268  1.00  0.00    +0.000 F 
ATOM     90  C69 UNL A   1      52.202  47.197  14.508  1.00  0.00    +0.000 C 
ATOM     91  F14 UNL A   1      52.867  48.357  14.427  1.00  0.00    +0.000 F 
ATOM     92  C70 UNL A   1      51.575  46.836  15.699  1.00  0.00    +0.000 C 
ATOM     93  F15 UNL A   1      51.662  47.663  16.752  1.00  0.00    +0.000 F 
ENDBRANCH   82   83
TORSDOF 30
ENDMDL
MODEL 5
REMARK VINA RESULT:      -6.0     52.770     58.244
ROOT
ATOM    166  H62 UNL A   1       9.981  37.311  -9.675  1.00  0.00    +0.000 H 
ATOM    167  H63 UNL A   1      11.996  37.697 -11.283  1.00  0.00    +0.000 H 
ATOM    168  H64 UNL A   1      11.861  33.674 -10.326  1.00  0.00    +0.000 H 
ATOM    169  H65 UNL A   1      14.480  27.824 -10.772  1.00  0.00    +0.000 H 
ATOM    170  H66 UNL A   1      12.550  27.478  -9.154  1.00  0.00    +0.000 H 
ATOM    171  H67 UNL A   1      12.590  31.488 -10.241  1.00  0.00    +0.000 H 
ATOM    172  H68 UNL A   1      16.429  32.134 -13.346  1.00  0.00    +0.000 H 
ATOM    173  H69 UNL A   1      15.867  34.630 -13.266  1.00  0.00    +0.000 H 
ATOM     46  C41 UNL A   1      11.123  29.867  -8.519  1.00  0.00    +0.000 C 
ATOM     47  C42 UNL A   1      10.461  31.215  -8.401  1.00  0.00    +0.000 C 
ATOM     48  N3  UNL A   1      10.701  32.320  -9.056  1.00  0.00    +0.000 N 
ATOM    175  H71 UNL A   1       9.004  30.633  -6.759  1.00  0.00    +0.000 H 
ATOM     49  C43 UNL A   1       9.726  33.216  -8.636  1.00  0.00    +0.000 C 
ATOM    174  H70 UNL A   1       7.935  32.873  -7.403  1.00  0.00    +0.000 H 
ATOM     50  C44 UNL A   1       9.619  34.534  -8.916  1.00  0.00    +0.000 C 
ATOM     62  C51 UNL A   1      10.569  35.237  -9.729  1.00  0.00    +0.000 C 
ATOM     63  C52 UNL A   1      10.628  36.586 -10.021  1.00  0.00    +0.000 C 
ATOM     64  C53 UNL A   1      11.719  36.793 -10.869  1.00  0.00    +0.000 C 
ATOM     65  C54 UNL A   1      12.370  35.583 -11.063  1.00  0.00    +0.000 C 
ATOM     66  N4  UNL A   1      11.646  34.635 -10.365  1.00  0.00    +0.000 N 
ATOM     67  C55 UNL A   1      13.563  35.318 -11.826  1.00  0.00    +0.000 C 
ATOM     79  C62 UNL A   1      14.149  34.106 -11.992  1.00  0.00    +0.000 C 
ATOM     80  N5  UNL A   1      13.778  32.871 -11.481  1.00  0.00    +0.000 N 
ATOM     81  C63 UNL A   1      14.653  32.008 -11.942  1.00  0.00    +0.000 C 
ATOM     82  C64 UNL A   1      14.758  30.527 -11.684  1.00  0.00    +0.000 C 
ATOM     94  C71 UNL A   1      13.873  29.963 -10.842  1.00  0.00    +0.000 C 
ATOM     95  C72 UNL A   1      13.833  28.558 -10.444  1.00  0.00    +0.000 C 
ATOM     96  C73 UNL A   1      12.819  28.377  -9.582  1.00  0.00    +0.000 C 
ATOM     97  C74 UNL A   1      12.158  29.661  -9.350  1.00  0.00    +0.000 C 
ATOM     98  N6  UNL A   1      12.831  30.537 -10.158  1.00  0.00    +0.000 N 
ATOM     99  C75 UNL A   1      15.664  32.598 -12.829  1.00  0.00    +0.000 C 
ATOM    100  C76 UNL A   1      15.339  33.883 -12.789  1.00  0.00    +0.000 C 
ATOM    101  C77 UNL A   1       8.833  32.505  -7.755  1.00  0.00    +0.000 C 
ATOM    102  C78 UNL A   1       9.327  31.315  -7.461  1.00  0.00    +0.000 C 
ENDROOT
BRANCH   46   45
ATOM    164  H60 UNL A   1       8.565  26.046  -8.027  1.00  0.00    +0.000 H 
ATOM    165  H61 UNL A   1       9.233  28.043  -9.255  1.00  0.00    +0.000 H 
ATOM    103  C79 UNL A   1      11.066  28.512  -6.468  1.00  0.00    +0.000 C 
ATOM    104  C80 UNL A   1      10.790  27.320  -5.836  1.00  0.00    +0.000 C 
ATOM     42  C37 UNL A   1       9.864  26.435  -6.403  1.00  0.00    +0.000 C 
ATOM     43  C38 UNL A   1       9.265  26.695  -7.633  1.00  0.00    +0.000 C 
ATOM     44  C39 UNL A   1       9.632  27.849  -8.323  1.00  0.00    +0.000 C 
ATOM     45  C40 UNL A   1      10.545  28.749  -7.747  1.00  0.00    +0.000 C 
ATOM    176  H72 UNL A   1      11.652  29.224  -6.005  1.00  0.00    +0.000 H 
ATOM    177  H73 UNL A   1      11.261  27.079  -4.949  1.00  0.00    +0.000 H 
BRANCH   42   40
ATOM     41  O3  UNL A   1       8.370  24.726  -5.744  1.00  0.00    +0.000 O 
ATOM     40  C36 UNL A   1       9.413  25.297  -5.570  1.00  0.00    +0.000 C 
BRANCH   40   39
ATOM    163  H59 UNL A   1      10.086  25.109  -3.631  1.00  0.00    +0.000 H 
ATOM     39  N2  UNL A   1      10.308  24.948  -4.576  1.00  0.00    +0.000 N 
BRANCH   39   38
ATOM    161  H57 UNL A   1      11.660  24.286  -6.000  1.00  0.00    +0.000 H 
ATOM    162  H58 UNL A   1      12.389  24.931  -4.564  1.00  0.00    +0.000 H 
ATOM     38  C35 UNL A   1      11.574  24.345  -4.935  1.00  0.00    +0.000 C 
BRANCH   38   37
ATOM     37  C34 UNL A   1      11.606  22.959  -4.341  1.00  0.00    +0.000 C 
ATOM    159  H55 UNL A   1      11.154  22.996  -3.372  1.00  0.00    +0.000 H 
ATOM    160  H56 UNL A   1      11.075  22.318  -5.013  1.00  0.00    +0.000 H 
BRANCH   37   36
ATOM     36  C33 UNL A   1      13.061  22.367  -4.189  1.00  0.00    +0.000 C 
ATOM    157  H53 UNL A   1      13.063  21.837  -3.259  1.00  0.00    +0.000 H 
ATOM    158  H54 UNL A   1      13.165  21.847  -5.119  1.00  0.00    +0.000 H 
BRANCH   36   35
ATOM     35  C32 UNL A   1      14.451  23.288  -4.187  1.00  0.00    +0.000 C 
ATOM    156  H52 UNL A   1      14.386  23.562  -5.220  1.00  0.00    +0.000 H 
ATOM    155  H51 UNL A   1      15.148  22.669  -3.661  1.00  0.00    +0.000 H 
BRANCH   35   34
ATOM    153  H49 UNL A   1      15.234  24.777  -2.608  1.00  0.00    +0.000 H 
ATOM     34  C31 UNL A   1      14.882  24.977  -3.598  1.00  0.00    +0.000 C 
ATOM    154  H50 UNL A   1      15.321  25.251  -4.535  1.00  0.00    +0.000 H 
BRANCH   34   33
ATOM     33  C30 UNL A   1      13.974  26.858  -3.353  1.00  0.00    +0.000 C 
ATOM    151  H47 UNL A   1      14.743  27.414  -2.859  1.00  0.00    +0.000 H 
ATOM    152  H48 UNL A   1      13.555  26.858  -4.338  1.00  0.00    +0.000 H 
BRANCH   33   32
ATOM    150  H46 UNL A   1      11.891  27.024  -3.071  1.00  0.00    +0.000 H 
ATOM     32  N1  UNL A   1      12.715  27.429  -2.718  1.00  0.00    +0.000 N 
BRANCH   32   30
ATOM     30  C29 UNL A   1      12.475  28.373  -1.773  1.00  0.00    +0.000 C 
ATOM     31  O2  UNL A   1      11.729  29.292  -2.136  1.00  0.00    +0.000 O 
BRANCH   30   29
ATOM    149  H45 UNL A   1      13.973  28.780  -0.503  1.00  0.00    +0.000 H 
ATOM    148  H44 UNL A   1      12.855  27.365   0.002  1.00  0.00    +0.000 H 
ATOM     29  C28 UNL A   1      12.999  28.365  -0.348  1.00  0.00    +0.000 C 
BRANCH   29   28
ATOM    146  H42 UNL A   1      13.174  29.156   1.607  1.00  0.00    +0.000 H 
ATOM    147  H43 UNL A   1      12.457  30.248   0.358  1.00  0.00    +0.000 H 
ATOM     28  C27 UNL A   1      12.498  29.268   0.786  1.00  0.00    +0.000 C 
BRANCH   28   27
ATOM      3  C3  UNL A   1      10.691  27.498   1.418  1.00  0.00    +0.000 C 
ATOM      4  C4  UNL A   1       9.517  27.073   0.502  1.00  0.00    +0.000 C 
ATOM      6  C5  UNL A   1       8.463  28.161   0.290  1.00  0.00    +0.000 C 
ATOM      7  C6  UNL A   1       9.138  29.394  -0.395  1.00  0.00    +0.000 C 
ATOM      8  C7  UNL A   1      10.127  30.229   0.971  1.00  0.00    +0.000 C 
ATOM      9  C8  UNL A   1      10.613  32.104   0.911  1.00  0.00    +0.000 C 
ATOM     10  C9  UNL A   1      10.030  33.181  -0.598  1.00  0.00    +0.000 C 
ATOM     11  C10 UNL A   1       9.039  32.358  -2.086  1.00  0.00    +0.000 C 
ATOM    139  H35 UNL A   1       8.530  29.022  -3.313  1.00  0.00    +0.000 H 
ATOM    140  H36 UNL A   1       7.270  30.253  -3.594  1.00  0.00    +0.000 H 
ATOM     13  C12 UNL A   1       9.899  32.072  -3.535  1.00  0.00    +0.000 C 
ATOM    137  H33 UNL A   1       9.963  30.165  -4.546  1.00  0.00    +0.000 H 
ATOM    144  H40 UNL A   1       9.641  29.320   2.949  1.00  0.00    +0.000 H 
ATOM    145  H41 UNL A   1      10.760  30.311   3.250  1.00  0.00    +0.000 H 
ATOM    138  H34 UNL A   1       8.593  31.213  -4.995  1.00  0.00    +0.000 H 
ATOM     22  C21 UNL A   1       9.201  30.833  -4.201  1.00  0.00    +0.000 C 
ATOM     23  C22 UNL A   1       8.269  30.058  -3.263  1.00  0.00    +0.000 C 
ATOM     24  C23 UNL A   1       8.339  30.503  -1.784  1.00  0.00    +0.000 C 
ATOM     26  C25 UNL A   1      10.414  29.794   2.381  1.00  0.00    +0.000 C 
ATOM     27  C26 UNL A   1      11.110  29.019   1.306  1.00  0.00    +0.000 C 
ATOM    108  H4  UNL A   1      10.299  27.448   2.412  1.00  0.00    +0.000 H 
ATOM    109  H5  UNL A   1       9.982  26.861  -0.439  1.00  0.00    +0.000 H 
ATOM    111  H7  UNL A   1       8.055  28.454   1.234  1.00  0.00    +0.000 H 
ATOM    112  H8  UNL A   1       7.676  27.787  -0.332  1.00  0.00    +0.000 H 
ATOM    113  H9  UNL A   1       9.706  28.990  -1.207  1.00  0.00    +0.000 H 
ATOM    114  H10 UNL A   1      11.681  32.152   0.936  1.00  0.00    +0.000 H 
ATOM    115  H11 UNL A   1      10.095  32.530   1.744  1.00  0.00    +0.000 H 
ATOM    116  H12 UNL A   1      10.910  33.620  -1.020  1.00  0.00    +0.000 H 
ATOM    117  H13 UNL A   1       9.307  33.837  -0.161  1.00  0.00    +0.000 H 
ATOM    121  H17 UNL A   1       9.885  33.048  -3.974  1.00  0.00    +0.000 H 
BRANCH    3    2
ATOM      2  C2  UNL A   1      11.848  26.499   1.411  1.00  0.00    +0.000 C 
ATOM    107  H3  UNL A   1      12.790  26.897   1.272  1.00  0.00    +0.000 H 
BRANCH    2    1
ATOM      1  C1  UNL A   1      11.787  25.167   1.567  1.00  0.00    +0.000 C 
ATOM    106  H2  UNL A   1      12.437  24.556   1.050  1.00  0.00    +0.000 H 
ATOM    105  H1  UNL A   1      11.089  24.753   2.206  1.00  0.00    +0.000 H 
ENDBRANCH    2    1
ENDBRANCH    3    2
BRANCH    4    5
ATOM      5  O1  UNL A   1       8.838  25.926   1.029  1.00  0.00    +0.000 O 
ATOM    110  H6  UNL A   1       8.116  25.675   0.432  1.00  0.00    +0.000 H 
ENDBRANCH    4    5
BRANCH   11   12
ATOM     12  C11 UNL A   1       8.278  33.647  -2.621  1.00  0.00    +0.000 C 
ATOM    118  H14 UNL A   1       7.741  33.400  -3.513  1.00  0.00    +0.000 H 
ATOM    119  H15 UNL A   1       8.987  34.418  -2.834  1.00  0.00    +0.000 H 
ATOM    120  H16 UNL A   1       7.591  33.990  -1.876  1.00  0.00    +0.000 H 
ENDBRANCH   11   12
BRANCH   13   14
ATOM    122  H18 UNL A   1      11.155  33.360  -4.265  1.00  0.00    +0.000 H 
ATOM     14  C13 UNL A   1      11.465  32.397  -3.919  1.00  0.00    +0.000 C 
BRANCH   14   15
ATOM    123  H19 UNL A   1      13.118  31.423  -4.888  1.00  0.00    +0.000 H 
ATOM    124  H20 UNL A   1      11.655  31.457  -5.843  1.00  0.00    +0.000 H 
ATOM    125  H21 UNL A   1      11.794  30.353  -4.496  1.00  0.00    +0.000 H 
ATOM     15  C14 UNL A   1      12.053  31.326  -4.858  1.00  0.00    +0.000 C 
ENDBRANCH   14   15
BRANCH   14   16
ATOM    126  H22 UNL A   1      12.238  33.888  -2.564  1.00  0.00    +0.000 H 
ATOM    127  H23 UNL A   1      13.434  33.115  -3.731  1.00  0.00    +0.000 H 
ATOM     16  C15 UNL A   1      12.638  33.009  -3.024  1.00  0.00    +0.000 C 
BRANCH   16   17
ATOM     17  C16 UNL A   1      13.311  32.188  -1.887  1.00  0.00    +0.000 C 
ATOM    129  H25 UNL A   1      12.541  31.523  -1.554  1.00  0.00    +0.000 H 
ATOM    128  H24 UNL A   1      14.184  31.729  -2.304  1.00  0.00    +0.000 H 
BRANCH   17   18
ATOM     18  C17 UNL A   1      13.749  32.917  -0.618  1.00  0.00    +0.000 C 
ATOM    130  H26 UNL A   1      13.499  33.918  -0.574  1.00  0.00    +0.000 H 
BRANCH   18   19
ATOM     19  C18 UNL A   1      14.419  32.439   0.462  1.00  0.00    +0.000 C 
BRANCH   19   20
ATOM    133  H29 UNL A   1      15.437  30.870  -0.541  1.00  0.00    +0.000 H 
ATOM    131  H27 UNL A   1      15.631  30.861   1.196  1.00  0.00    +0.000 H 
ATOM     20  C19 UNL A   1      15.579  31.482   0.326  1.00  0.00    +0.000 C 
ATOM    132  H28 UNL A   1      16.489  32.035   0.227  1.00  0.00    +0.000 H 
ENDBRANCH   19   20
BRANCH   19   21
ATOM     21  C20 UNL A   1      14.112  32.691   1.909  1.00  0.00    +0.000 C 
ATOM    134  H30 UNL A   1      14.267  33.726   2.131  1.00  0.00    +0.000 H 
ATOM    135  H31 UNL A   1      14.757  32.095   2.519  1.00  0.00    +0.000 H 
ATOM    136  H32 UNL A   1      13.092  32.433   2.107  1.00  0.00    +0.000 H 
ENDBRANCH   19   21
ENDBRANCH   18   19
ENDBRANCH   17   18
ENDBRANCH   16   17
ENDBRANCH   14   16
ENDBRANCH   13   14
BRANCH   24   25
ATOM     25  C24 UNL A   1       6.938  29.953  -1.296  1.00  0.00    +0.000 C 
ATOM    141  H37 UNL A   1       6.169  30.308  -1.949  1.00  0.00    +0.000 H 
ATOM    142  H38 UNL A   1       6.747  30.297  -0.300  1.00  0.00    +0.000 H 
ATOM    143  H39 UNL A   1       6.951  28.883  -1.308  1.00  0.00    +0.000 H 
ENDBRANCH   24   25
ENDBRANCH   28   27
ENDBRANCH   29   28
ENDBRANCH   30   29
ENDBRANCH   32   30
ENDBRANCH   33   32
ENDBRANCH   34   33
ENDBRANCH   35   34
ENDBRANCH   36   35
ENDBRANCH   37   36
ENDBRANCH   38   37
ENDBRANCH   39   38
ENDBRANCH   40   39
ENDBRANCH   42   40
ENDBRANCH   46   45
BRANCH   50   51
ATOM     51  C45 UNL A   1       8.463  35.281  -8.317  1.00  0.00    +0.000 C 
ATOM     52  C46 UNL A   1       8.431  35.630  -6.957  1.00  0.00    +0.000 C 
ATOM     53  F1  UNL A   1       9.446  35.291  -6.148  1.00  0.00    +0.000 F 
ATOM     54  C47 UNL A   1       7.326  36.272  -6.405  1.00  0.00    +0.000 C 
ATOM     55  F2  UNL A   1       7.290  36.527  -5.089  1.00  0.00    +0.000 F 
ATOM     56  C48 UNL A   1       6.253  36.623  -7.209  1.00  0.00    +0.000 C 
ATOM     57  F3  UNL A   1       5.190  37.243  -6.677  1.00  0.00    +0.000 F 
ATOM     58  C49 UNL A   1       6.277  36.322  -8.562  1.00  0.00    +0.000 C 
ATOM     59  F4  UNL A   1       5.245  36.669  -9.342  1.00  0.00    +0.000 F 
ATOM     60  C50 UNL A   1       7.364  35.644  -9.110  1.00  0.00    +0.000 C 
ATOM     61  F5  UNL A   1       7.339  35.336 -10.415  1.00  0.00    +0.000 F 
ENDBRANCH   50   51
BRANCH   67   68
ATOM     68  C56 UNL A   1      14.221  36.495 -12.481  1.00  0.00    +0.000 C 
ATOM     69  C57 UNL A   1      13.799  36.969 -13.730  1.00  0.00    +0.000 C 
ATOM     70  F6  UNL A   1      12.845  36.320 -14.412  1.00  0.00    +0.000 F 
ATOM     71  C58 UNL A   1      14.380  38.100 -14.294  1.00  0.00    +0.000 C 
ATOM     72  F7  UNL A   1      13.991  38.516 -15.508  1.00  0.00    +0.000 F 
ATOM     73  C59 UNL A   1      15.363  38.796 -13.605  1.00  0.00    +0.000 C 
ATOM     74  F8  UNL A   1      15.908  39.896 -14.143  1.00  0.00    +0.000 F 
ATOM     75  C60 UNL A   1      15.784  38.351 -12.361  1.00  0.00    +0.000 C 
ATOM     76  F9  UNL A   1      16.718  39.033 -11.685  1.00  0.00    +0.000 F 
ATOM     77  C61 UNL A   1      15.230  37.202 -11.809  1.00  0.00    +0.000 C 
ATOM     78  F10 UNL A   1      15.655  36.793 -10.604  1.00  0.00    +0.000 F 
ENDBRANCH   67   68
BRANCH   82   83
ATOM     83  C65 UNL A   1      15.839  29.708 -12.291  1.00  0.00    +0.000 C 
ATOM     84  C66 UNL A   1      15.624  28.998 -13.482  1.00  0.00    +0.000 C 
ATOM     85  F11 UNL A   1      14.425  29.042 -14.079  1.00  0.00    +0.000 F 
ATOM     86  C67 UNL A   1      16.626  28.209 -14.043  1.00  0.00    +0.000 C 
ATOM     87  F12 UNL A   1      16.377  27.505 -15.155  1.00  0.00    +0.000 F 
ATOM     88  C68 UNL A   1      17.874  28.138 -13.443  1.00  0.00    +0.000 C 
ATOM     89  F13 UNL A   1      18.838  27.380 -13.984  1.00  0.00    +0.000 F 
ATOM     90  C69 UNL A   1      18.119  28.849 -12.277  1.00  0.00    +0.000 C 
ATOM     91  F14 UNL A   1      19.328  28.796 -11.703  1.00  0.00    +0.000 F 
ATOM     92  C70 UNL A   1      17.109  29.617 -11.700  1.00  0.00    +0.000 C 
ATOM     93  F15 UNL A   1      17.370  30.283 -10.567  1.00  0.00    +0.000 F 
ENDBRANCH   82   83
TORSDOF 30
ENDMDL
MODEL 6
REMARK VINA RESULT:      -6.0     26.424     32.152
ROOT
ATOM    166  H62 UNL A   1      41.876  13.496  47.260  1.00  0.00    +0.000 H 
ATOM    167  H63 UNL A   1      40.800  14.902  49.173  1.00  0.00    +0.000 H 
ATOM    168  H64 UNL A   1      44.044  17.003  47.695  1.00  0.00    +0.000 H 
ATOM    169  H65 UNL A   1      47.905  22.126  48.055  1.00  0.00    +0.000 H 
ATOM    170  H66 UNL A   1      48.980  20.711  46.236  1.00  0.00    +0.000 H 
ATOM    171  H67 UNL A   1      45.629  18.676  47.613  1.00  0.00    +0.000 H 
ATOM    172  H68 UNL A   1      43.604  21.443  51.223  1.00  0.00    +0.000 H 
ATOM    173  H69 UNL A   1      41.978  19.500  51.581  1.00  0.00    +0.000 H 
ATOM     46  C41 UNL A   1      47.676  18.212  45.784  1.00  0.00    +0.000 C 
ATOM     47  C42 UNL A   1      46.786  17.004  45.648  1.00  0.00    +0.000 C 
ATOM     48  N3  UNL A   1      45.639  16.747  46.218  1.00  0.00    +0.000 N 
ATOM    175  H71 UNL A   1      48.117  15.881  44.189  1.00  0.00    +0.000 H 
ATOM     49  C43 UNL A   1      45.205  15.556  45.650  1.00  0.00    +0.000 C 
ATOM    174  H70 UNL A   1      46.013  14.435  43.937  1.00  0.00    +0.000 H 
ATOM     50  C44 UNL A   1      44.139  14.800  45.995  1.00  0.00    +0.000 C 
ATOM     62  C51 UNL A   1      43.260  15.140  47.077  1.00  0.00    +0.000 C 
ATOM     63  C52 UNL A   1      42.197  14.420  47.587  1.00  0.00    +0.000 C 
ATOM     64  C53 UNL A   1      41.632  15.168  48.624  1.00  0.00    +0.000 C 
ATOM     65  C54 UNL A   1      42.375  16.328  48.794  1.00  0.00    +0.000 C 
ATOM     66  N4  UNL A   1      43.365  16.301  47.829  1.00  0.00    +0.000 N 
ATOM     67  C55 UNL A   1      42.193  17.376  49.764  1.00  0.00    +0.000 C 
ATOM     79  C62 UNL A   1      42.945  18.499  49.875  1.00  0.00    +0.000 C 
ATOM     80  N5  UNL A   1      44.043  18.901  49.128  1.00  0.00    +0.000 N 
ATOM     81  C63 UNL A   1      44.406  20.065  49.612  1.00  0.00    +0.000 C 
ATOM     82  C64 UNL A   1      45.559  20.948  49.205  1.00  0.00    +0.000 C 
ATOM     94  C71 UNL A   1      46.384  20.513  48.235  1.00  0.00    +0.000 C 
ATOM     95  C72 UNL A   1      47.565  21.207  47.730  1.00  0.00    +0.000 C 
ATOM     96  C73 UNL A   1      48.138  20.456  46.775  1.00  0.00    +0.000 C 
ATOM     97  C74 UNL A   1      47.375  19.216  46.625  1.00  0.00    +0.000 C 
ATOM     98  N6  UNL A   1      46.339  19.350  47.508  1.00  0.00    +0.000 N 
ATOM     99  C75 UNL A   1      43.556  20.550  50.705  1.00  0.00    +0.000 C 
ATOM    100  C76 UNL A   1      42.711  19.540  50.856  1.00  0.00    +0.000 C 
ATOM    101  C77 UNL A   1      46.150  15.194  44.623  1.00  0.00    +0.000 C 
ATOM    102  C78 UNL A   1      47.217  15.971  44.685  1.00  0.00    +0.000 C 
ENDROOT
BRANCH   46   45
ATOM    164  H60 UNL A   1      49.911  19.532  41.958  1.00  0.00    +0.000 H 
ATOM    165  H61 UNL A   1      47.867  19.141  43.227  1.00  0.00    +0.000 H 
ATOM    103  C79 UNL A   1      50.094  17.924  45.443  1.00  0.00    +0.000 C 
ATOM    104  C80 UNL A   1      51.252  18.268  44.782  1.00  0.00    +0.000 C 
ATOM     42  C37 UNL A   1      51.176  18.838  43.505  1.00  0.00    +0.000 C 
ATOM     43  C38 UNL A   1      49.952  19.136  42.911  1.00  0.00    +0.000 C 
ATOM     44  C39 UNL A   1      48.785  18.890  43.629  1.00  0.00    +0.000 C 
ATOM     45  C40 UNL A   1      48.856  18.299  44.902  1.00  0.00    +0.000 C 
ATOM    176  H72 UNL A   1      50.136  17.396  46.328  1.00  0.00    +0.000 H 
ATOM    177  H73 UNL A   1      52.171  18.106  45.224  1.00  0.00    +0.000 H 
BRANCH   42   40
ATOM     41  O3  UNL A   1      52.486  19.383  41.614  1.00  0.00    +0.000 O 
ATOM     40  C36 UNL A   1      52.436  18.954  42.737  1.00  0.00    +0.000 C 
BRANCH   40   39
ATOM    163  H59 UNL A   1      53.841  19.004  44.244  1.00  0.00    +0.000 H 
ATOM     39  N2  UNL A   1      53.552  18.529  43.433  1.00  0.00    +0.000 N 
BRANCH   39   38
ATOM    161  H57 UNL A   1      53.670  16.779  42.328  1.00  0.00    +0.000 H 
ATOM    162  H58 UNL A   1      55.145  17.688  42.390  1.00  0.00    +0.000 H 
ATOM     38  C35 UNL A   1      54.293  17.379  42.958  1.00  0.00    +0.000 C 
BRANCH   38   37
ATOM     37  C34 UNL A   1      54.722  16.581  44.164  1.00  0.00    +0.000 C 
ATOM    159  H55 UNL A   1      55.674  16.140  43.957  1.00  0.00    +0.000 H 
ATOM    160  H56 UNL A   1      54.758  17.259  44.991  1.00  0.00    +0.000 H 
BRANCH   37   36
ATOM     36  C33 UNL A   1      53.715  15.430  44.555  1.00  0.00    +0.000 C 
ATOM    157  H53 UNL A   1      52.772  15.717  44.137  1.00  0.00    +0.000 H 
ATOM    158  H54 UNL A   1      54.240  14.572  44.191  1.00  0.00    +0.000 H 
BRANCH   36   35
ATOM     35  C32 UNL A   1      53.391  14.961  46.122  1.00  0.00    +0.000 C 
ATOM    156  H52 UNL A   1      54.196  15.517  46.556  1.00  0.00    +0.000 H 
ATOM    155  H51 UNL A   1      53.228  13.908  46.027  1.00  0.00    +0.000 H 
BRANCH   35   34
ATOM    153  H49 UNL A   1      52.668  15.225  48.297  1.00  0.00    +0.000 H 
ATOM     34  C31 UNL A   1      52.151  15.453  47.389  1.00  0.00    +0.000 C 
ATOM    154  H50 UNL A   1      51.877  16.339  46.856  1.00  0.00    +0.000 H 
BRANCH   34   33
ATOM     33  C30 UNL A   1      50.161  15.028  47.918  1.00  0.00    +0.000 C 
ATOM    151  H47 UNL A   1      49.911  15.866  48.535  1.00  0.00    +0.000 H 
ATOM    152  H48 UNL A   1      49.896  14.711  46.931  1.00  0.00    +0.000 H 
BRANCH   33   32
ATOM    150  H46 UNL A   1      49.732  13.678  49.480  1.00  0.00    +0.000 H 
ATOM     32  N1  UNL A   1      49.387  13.902  48.586  1.00  0.00    +0.000 N 
BRANCH   32   30
ATOM     30  C29 UNL A   1      48.325  13.137  48.226  1.00  0.00    +0.000 C 
ATOM     31  O2  UNL A   1      47.573  13.654  47.389  1.00  0.00    +0.000 O 
BRANCH   30   29
ATOM    149  H45 UNL A   1      48.997  11.442  49.065  1.00  0.00    +0.000 H 
ATOM    148  H44 UNL A   1      47.539  11.242  47.907  1.00  0.00    +0.000 H 
ATOM     29  C28 UNL A   1      48.025  11.734  48.722  1.00  0.00    +0.000 C 
BRANCH   29   28
ATOM    146  H42 UNL A   1      47.747  10.687  50.540  1.00  0.00    +0.000 H 
ATOM    147  H43 UNL A   1      47.007  12.333  50.437  1.00  0.00    +0.000 H 
ATOM     28  C27 UNL A   1      47.188  11.391  49.961  1.00  0.00    +0.000 C 
BRANCH   28   27
ATOM      3  C3  UNL A   1      44.612  11.785  50.019  1.00  0.00    +0.000 C 
ATOM      4  C4  UNL A   1      43.681  11.352  51.178  1.00  0.00    +0.000 C 
ATOM      6  C5  UNL A   1      43.514   9.838  51.315  1.00  0.00    +0.000 C 
ATOM      7  C6  UNL A   1      44.910   9.198  51.603  1.00  0.00    +0.000 C 
ATOM      8  C7  UNL A   1      45.811   9.229  49.952  1.00  0.00    +0.000 C 
ATOM      9  C8  UNL A   1      47.259   8.012  49.530  1.00  0.00    +0.000 C 
ATOM     10  C9  UNL A   1      47.786   6.682  50.845  1.00  0.00    +0.000 C 
ATOM     11  C10 UNL A   1      46.922   6.630  52.612  1.00  0.00    +0.000 C 
ATOM    139  H35 UNL A   1      44.964   8.898  54.592  1.00  0.00    +0.000 H 
ATOM    140  H36 UNL A   1      44.732   7.141  54.797  1.00  0.00    +0.000 H 
ATOM     13  C12 UNL A   1      47.808   7.253  53.934  1.00  0.00    +0.000 C 
ATOM    137  H33 UNL A   1      47.047   8.735  55.308  1.00  0.00    +0.000 H 
ATOM    144  H40 UNL A   1      44.415   9.826  48.317  1.00  0.00    +0.000 H 
ATOM    145  H41 UNL A   1      45.776   9.723  47.637  1.00  0.00    +0.000 H 
ATOM    138  H34 UNL A   1      46.668   7.046  55.732  1.00  0.00    +0.000 H 
ATOM     22  C21 UNL A   1      46.734   7.775  54.952  1.00  0.00    +0.000 C 
ATOM     23  C22 UNL A   1      45.326   7.918  54.362  1.00  0.00    +0.000 C 
ATOM     24  C23 UNL A   1      45.255   7.723  52.830  1.00  0.00    +0.000 C 
ATOM     26  C25 UNL A   1      45.435   9.861  48.641  1.00  0.00    +0.000 C 
ATOM     27  C26 UNL A   1      45.823  10.808  49.733  1.00  0.00    +0.000 C 
ATOM    108  H4  UNL A   1      44.022  11.672  49.133  1.00  0.00    +0.000 H 
ATOM    109  H5  UNL A   1      44.168  11.722  52.057  1.00  0.00    +0.000 H 
ATOM    111  H7  UNL A   1      43.115   9.438  50.407  1.00  0.00    +0.000 H 
ATOM    112  H8  UNL A   1      42.842   9.619  52.119  1.00  0.00    +0.000 H 
ATOM    113  H9  UNL A   1      45.338   9.792  52.383  1.00  0.00    +0.000 H 
ATOM    114  H10 UNL A   1      48.122   8.610  49.327  1.00  0.00    +0.000 H 
ATOM    115  H11 UNL A   1      46.877   7.431  48.717  1.00  0.00    +0.000 H 
ATOM    116  H12 UNL A   1      48.833   6.819  51.018  1.00  0.00    +0.000 H 
ATOM    117  H13 UNL A   1      47.473   5.762  50.397  1.00  0.00    +0.000 H 
ATOM    121  H17 UNL A   1      48.455   6.428  54.150  1.00  0.00    +0.000 H 
BRANCH    3    2
ATOM      2  C2  UNL A   1      44.966  13.271  50.057  1.00  0.00    +0.000 C 
ATOM    107  H3  UNL A   1      45.130  13.722  49.143  1.00  0.00    +0.000 H 
BRANCH    2    1
ATOM      1  C1  UNL A   1      45.089  14.061  51.135  1.00  0.00    +0.000 C 
ATOM    106  H2  UNL A   1      44.954  13.670  52.080  1.00  0.00    +0.000 H 
ATOM    105  H1  UNL A   1      45.320  15.061  51.019  1.00  0.00    +0.000 H 
ENDBRANCH    2    1
ENDBRANCH    3    2
BRANCH    4    5
ATOM      5  O1  UNL A   1      42.369  11.909  51.024  1.00  0.00    +0.000 O 
ATOM    110  H6  UNL A   1      42.208  12.105  50.087  1.00  0.00    +0.000 H 
ENDBRANCH    4    5
BRANCH   11   12
ATOM     12  C11 UNL A   1      47.180   5.103  52.971  1.00  0.00    +0.000 C 
ATOM    118  H14 UNL A   1      47.125   4.972  54.031  1.00  0.00    +0.000 H 
ATOM    119  H15 UNL A   1      48.149   4.814  52.625  1.00  0.00    +0.000 H 
ATOM    120  H16 UNL A   1      46.436   4.496  52.498  1.00  0.00    +0.000 H 
ENDBRANCH   11   12
BRANCH   13   14
ATOM    122  H18 UNL A   1      49.294   7.812  55.053  1.00  0.00    +0.000 H 
ATOM     14  C13 UNL A   1      49.322   7.893  53.987  1.00  0.00    +0.000 C 
BRANCH   14   15
ATOM    123  H19 UNL A   1      48.876   9.179  52.322  1.00  0.00    +0.000 H 
ATOM    124  H20 UNL A   1      50.413   9.511  53.084  1.00  0.00    +0.000 H 
ATOM    125  H21 UNL A   1      48.927  10.002  53.862  1.00  0.00    +0.000 H 
ATOM     15  C14 UNL A   1      49.390   9.250  53.258  1.00  0.00    +0.000 C 
ENDBRANCH   14   15
BRANCH   14   16
ATOM    126  H22 UNL A   1      50.577   6.141  54.095  1.00  0.00    +0.000 H 
ATOM    127  H23 UNL A   1      51.335   7.747  54.580  1.00  0.00    +0.000 H 
ATOM     16  C15 UNL A   1      50.747   7.177  53.892  1.00  0.00    +0.000 C 
BRANCH   16   17
ATOM     17  C16 UNL A   1      51.605   7.233  52.595  1.00  0.00    +0.000 C 
ATOM    129  H25 UNL A   1      51.372   8.187  52.170  1.00  0.00    +0.000 H 
ATOM    128  H24 UNL A   1      52.624   7.080  52.885  1.00  0.00    +0.000 H 
BRANCH   17   18
ATOM     18  C17 UNL A   1      51.302   6.241  51.473  1.00  0.00    +0.000 C 
ATOM    130  H26 UNL A   1      50.875   6.648  50.626  1.00  0.00    +0.000 H 
BRANCH   18   19
ATOM     19  C18 UNL A   1      51.515   4.901  51.430  1.00  0.00    +0.000 C 
BRANCH   19   20
ATOM    133  H29 UNL A   1      53.459   4.124  51.089  1.00  0.00    +0.000 H 
ATOM    131  H27 UNL A   1      52.760   4.944  49.713  1.00  0.00    +0.000 H 
ATOM     20  C19 UNL A   1      52.560   4.284  50.532  1.00  0.00    +0.000 C 
ATOM    132  H28 UNL A   1      52.201   3.348  50.156  1.00  0.00    +0.000 H 
ENDBRANCH   19   20
BRANCH   19   21
ATOM     21  C20 UNL A   1      50.754   3.834  52.161  1.00  0.00    +0.000 C 
ATOM    134  H30 UNL A   1      51.278   3.572  53.056  1.00  0.00    +0.000 H 
ATOM    135  H31 UNL A   1      50.661   2.971  51.537  1.00  0.00    +0.000 H 
ATOM    136  H32 UNL A   1      49.780   4.200  52.413  1.00  0.00    +0.000 H 
ENDBRANCH   19   21
ENDBRANCH   18   19
ENDBRANCH   17   18
ENDBRANCH   16   17
ENDBRANCH   14   16
ENDBRANCH   13   14
BRANCH   24   25
ATOM     25  C24 UNL A   1      43.718   7.369  52.699  1.00  0.00    +0.000 C 
ATOM    141  H37 UNL A   1      43.143   8.271  52.701  1.00  0.00    +0.000 H 
ATOM    142  H38 UNL A   1      43.421   6.755  53.524  1.00  0.00    +0.000 H 
ATOM    143  H39 UNL A   1      43.550   6.842  51.783  1.00  0.00    +0.000 H 
ENDBRANCH   24   25
ENDBRANCH   28   27
ENDBRANCH   29   28
ENDBRANCH   30   29
ENDBRANCH   32   30
ENDBRANCH   33   32
ENDBRANCH   34   33
ENDBRANCH   35   34
ENDBRANCH   36   35
ENDBRANCH   37   36
ENDBRANCH   38   37
ENDBRANCH   39   38
ENDBRANCH   40   39
ENDBRANCH   42   40
ENDBRANCH   46   45
BRANCH   50   51
ATOM     51  C45 UNL A   1      43.900  13.538  45.217  1.00  0.00    +0.000 C 
ATOM     52  C46 UNL A   1      43.127  13.525  44.044  1.00  0.00    +0.000 C 
ATOM     53  F1  UNL A   1      42.571  14.659  43.590  1.00  0.00    +0.000 F 
ATOM     54  C47 UNL A   1      42.868  12.338  43.366  1.00  0.00    +0.000 C 
ATOM     55  F2  UNL A   1      42.066  12.344  42.292  1.00  0.00    +0.000 F 
ATOM     56  C48 UNL A   1      43.415  11.147  43.817  1.00  0.00    +0.000 C 
ATOM     57  F3  UNL A   1      43.167  10.004  43.163  1.00  0.00    +0.000 F 
ATOM     58  C49 UNL A   1      44.210  11.139  44.953  1.00  0.00    +0.000 C 
ATOM     59  F4  UNL A   1      44.748   9.990  45.384  1.00  0.00    +0.000 F 
ATOM     60  C50 UNL A   1      44.440  12.320  45.656  1.00  0.00    +0.000 C 
ATOM     61  F5  UNL A   1      45.184  12.271  46.771  1.00  0.00    +0.000 F 
ENDBRANCH   50   51
BRANCH   67   68
ATOM     68  C56 UNL A   1      41.078  17.197  50.750  1.00  0.00    +0.000 C 
ATOM     69  C57 UNL A   1      41.224  16.383  51.882  1.00  0.00    +0.000 C 
ATOM     70  F6  UNL A   1      42.347  15.674  52.064  1.00  0.00    +0.000 F 
ATOM     71  C58 UNL A   1      40.201  16.278  52.818  1.00  0.00    +0.000 C 
ATOM     72  F7  UNL A   1      40.344  15.465  53.874  1.00  0.00    +0.000 F 
ATOM     73  C59 UNL A   1      39.033  17.009  52.659  1.00  0.00    +0.000 C 
ATOM     74  F8  UNL A   1      38.056  16.919  53.572  1.00  0.00    +0.000 F 
ATOM     75  C60 UNL A   1      38.874  17.830  51.553  1.00  0.00    +0.000 C 
ATOM     76  F9  UNL A   1      37.755  18.553  51.408  1.00  0.00    +0.000 F 
ATOM     77  C61 UNL A   1      39.880  17.913  50.598  1.00  0.00    +0.000 C 
ATOM     78  F10 UNL A   1      39.701  18.714  49.538  1.00  0.00    +0.000 F 
ENDBRANCH   67   68
BRANCH   82   83
ATOM     83  C65 UNL A   1      45.824  22.241  49.888  1.00  0.00    +0.000 C 
ATOM     84  C66 UNL A   1      46.699  22.312  50.982  1.00  0.00    +0.000 C 
ATOM     85  F11 UNL A   1      47.296  21.200  51.434  1.00  0.00    +0.000 F 
ATOM     86  C67 UNL A   1      46.933  23.517  51.642  1.00  0.00    +0.000 C 
ATOM     87  F12 UNL A   1      47.737  23.545  52.714  1.00  0.00    +0.000 F 
ATOM     88  C68 UNL A   1      46.324  24.682  51.203  1.00  0.00    +0.000 C 
ATOM     89  F13 UNL A   1      46.551  25.840  51.836  1.00  0.00    +0.000 F 
ATOM     90  C69 UNL A   1      45.473  24.642  50.108  1.00  0.00    +0.000 C 
ATOM     91  F14 UNL A   1      44.894  25.768  49.670  1.00  0.00    +0.000 F 
ATOM     92  C70 UNL A   1      45.216  23.432  49.464  1.00  0.00    +0.000 C 
ATOM     93  F15 UNL A   1      44.379  23.422  48.416  1.00  0.00    +0.000 F 
ENDBRANCH   82   83
TORSDOF 30
ENDMDL
MODEL 7
REMARK VINA RESULT:      -5.9     28.440     35.012
ROOT
ATOM    166  H62 UNL A   1      50.574  10.443  53.540  1.00  0.00    +0.000 H 
ATOM    167  H63 UNL A   1      48.688   8.727  52.996  1.00  0.00    +0.000 H 
ATOM    168  H64 UNL A   1      48.713  11.604  50.023  1.00  0.00    +0.000 H 
ATOM    169  H65 UNL A   1      46.079  14.015  44.681  1.00  0.00    +0.000 H 
ATOM    170  H66 UNL A   1      47.880  15.713  45.262  1.00  0.00    +0.000 H 
ATOM    171  H67 UNL A   1      47.959  12.738  48.162  1.00  0.00    +0.000 H 
ATOM    172  H68 UNL A   1      44.369   9.479  47.027  1.00  0.00    +0.000 H 
ATOM    173  H69 UNL A   1      44.947   8.318  49.233  1.00  0.00    +0.000 H 
ATOM     46  C41 UNL A   1      49.278  15.142  47.684  1.00  0.00    +0.000 C 
ATOM     47  C42 UNL A   1      49.942  14.603  48.924  1.00  0.00    +0.000 C 
ATOM     48  N3  UNL A   1      49.762  13.463  49.536  1.00  0.00    +0.000 N 
ATOM    175  H71 UNL A   1      51.267  16.410  49.300  1.00  0.00    +0.000 H 
ATOM     49  C43 UNL A   1      50.711  13.435  50.549  1.00  0.00    +0.000 C 
ATOM    174  H70 UNL A   1      52.402  14.791  50.934  1.00  0.00    +0.000 H 
ATOM     50  C44 UNL A   1      50.851  12.531  51.545  1.00  0.00    +0.000 C 
ATOM     62  C51 UNL A   1      49.971  11.410  51.710  1.00  0.00    +0.000 C 
ATOM     63  C52 UNL A   1      49.948  10.470  52.721  1.00  0.00    +0.000 C 
ATOM     64  C53 UNL A   1      48.925   9.561  52.436  1.00  0.00    +0.000 C 
ATOM     65  C54 UNL A   1      48.278   9.965  51.276  1.00  0.00    +0.000 C 
ATOM     66  N4  UNL A   1      48.940  11.096  50.836  1.00  0.00    +0.000 N 
ATOM     67  C55 UNL A   1      47.144   9.363  50.625  1.00  0.00    +0.000 C 
ATOM     79  C62 UNL A   1      46.560   9.796  49.480  1.00  0.00    +0.000 C 
ATOM     80  N5  UNL A   1      46.880  10.888  48.687  1.00  0.00    +0.000 N 
ATOM     81  C63 UNL A   1      46.033  10.871  47.684  1.00  0.00    +0.000 C 
ATOM     82  C64 UNL A   1      45.896  11.838  46.536  1.00  0.00    +0.000 C 
ATOM     94  C71 UNL A   1      46.710  12.909  46.505  1.00  0.00    +0.000 C 
ATOM     95  C72 UNL A   1      46.707  13.968  45.498  1.00  0.00    +0.000 C 
ATOM     96  C73 UNL A   1      47.652  14.870  45.810  1.00  0.00    +0.000 C 
ATOM     97  C74 UNL A   1      48.306  14.462  47.054  1.00  0.00    +0.000 C 
ATOM     98  N6  UNL A   1      47.704  13.276  47.377  1.00  0.00    +0.000 N 
ATOM     99  C75 UNL A   1      45.097   9.740  47.711  1.00  0.00    +0.000 C 
ATOM    100  C76 UNL A   1      45.431   9.144  48.848  1.00  0.00    +0.000 C 
ATOM    101  C77 UNL A   1      51.529  14.614  50.412  1.00  0.00    +0.000 C 
ATOM    102  C78 UNL A   1      51.003  15.437  49.521  1.00  0.00    +0.000 C 
ENDROOT
BRANCH   46   45
ATOM    164  H60 UNL A   1      52.062  17.688  45.010  1.00  0.00    +0.000 H 
ATOM    165  H61 UNL A   1      51.474  15.606  46.133  1.00  0.00    +0.000 H 
ATOM    103  C79 UNL A   1      49.019  17.565  47.353  1.00  0.00    +0.000 C 
ATOM    104  C80 UNL A   1      49.274  18.700  46.615  1.00  0.00    +0.000 C 
ATOM     42  C37 UNL A   1      50.395  18.741  45.777  1.00  0.00    +0.000 C 
ATOM     43  C38 UNL A   1      51.224  17.634  45.611  1.00  0.00    +0.000 C 
ATOM     44  C39 UNL A   1      50.898  16.452  46.272  1.00  0.00    +0.000 C 
ATOM     45  C40 UNL A   1      49.786  16.413  47.130  1.00  0.00    +0.000 C 
ATOM    176  H72 UNL A   1      48.270  17.561  48.061  1.00  0.00    +0.000 H 
ATOM    177  H73 UNL A   1      48.645  19.515  46.680  1.00  0.00    +0.000 H 
BRANCH   42   40
ATOM     41  O3  UNL A   1      50.005  20.744  44.583  1.00  0.00    +0.000 O 
ATOM     40  C36 UNL A   1      50.769  20.055  45.207  1.00  0.00    +0.000 C 
BRANCH   40   39
ATOM    163  H59 UNL A   1      52.721  20.509  44.723  1.00  0.00    +0.000 H 
ATOM     39  N2  UNL A   1      52.078  20.420  45.462  1.00  0.00    +0.000 N 
BRANCH   39   38
ATOM    161  H57 UNL A   1      52.368  19.783  47.413  1.00  0.00    +0.000 H 
ATOM    162  H58 UNL A   1      53.528  20.947  46.859  1.00  0.00    +0.000 H 
ATOM     38  C35 UNL A   1      52.495  20.669  46.826  1.00  0.00    +0.000 C 
BRANCH   38   37
ATOM     37  C34 UNL A   1      51.631  21.777  47.374  1.00  0.00    +0.000 C 
ATOM    159  H55 UNL A   1      52.235  22.654  47.483  1.00  0.00    +0.000 H 
ATOM    160  H56 UNL A   1      50.828  21.919  46.682  1.00  0.00    +0.000 H 
BRANCH   37   36
ATOM     36  C33 UNL A   1      50.983  21.442  48.773  1.00  0.00    +0.000 C 
ATOM    157  H53 UNL A   1      51.364  22.176  49.453  1.00  0.00    +0.000 H 
ATOM    158  H54 UNL A   1      49.945  21.418  48.514  1.00  0.00    +0.000 H 
BRANCH   36   35
ATOM     35  C32 UNL A   1      51.144  19.977  49.554  1.00  0.00    +0.000 C 
ATOM    156  H52 UNL A   1      51.699  20.371  50.381  1.00  0.00    +0.000 H 
ATOM    155  H51 UNL A   1      51.428  19.315  48.763  1.00  0.00    +0.000 H 
BRANCH   35   34
ATOM    153  H49 UNL A   1      49.213  18.769  49.920  1.00  0.00    +0.000 H 
ATOM     34  C31 UNL A   1      50.035  18.931  50.584  1.00  0.00    +0.000 C 
ATOM    154  H50 UNL A   1      50.848  18.350  50.966  1.00  0.00    +0.000 H 
BRANCH   34   33
ATOM     33  C30 UNL A   1      49.067  18.996  52.449  1.00  0.00    +0.000 C 
ATOM    151  H47 UNL A   1      49.837  18.659  53.112  1.00  0.00    +0.000 H 
ATOM    152  H48 UNL A   1      48.601  19.938  52.249  1.00  0.00    +0.000 H 
BRANCH   33   32
ATOM    150  H46 UNL A   1      46.992  18.656  52.619  1.00  0.00    +0.000 H 
ATOM     32  N1  UNL A   1      47.819  18.411  53.094  1.00  0.00    +0.000 N 
BRANCH   32   30
ATOM     30  C29 UNL A   1      47.590  17.628  54.178  1.00  0.00    +0.000 C 
ATOM     31  O2  UNL A   1      46.889  18.149  55.056  1.00  0.00    +0.000 O 
BRANCH   30   29
ATOM    149  H45 UNL A   1      47.812  16.049  55.396  1.00  0.00    +0.000 H 
ATOM    148  H44 UNL A   1      49.094  16.204  54.040  1.00  0.00    +0.000 H 
ATOM     29  C28 UNL A   1      48.077  16.203  54.371  1.00  0.00    +0.000 C 
BRANCH   29   28
ATOM    146  H42 UNL A   1      46.894  15.277  52.880  1.00  0.00    +0.000 H 
ATOM    147  H43 UNL A   1      48.271  14.306  53.535  1.00  0.00    +0.000 H 
ATOM     28  C27 UNL A   1      47.446  14.956  53.738  1.00  0.00    +0.000 C 
BRANCH   28   27
ATOM      3  C3  UNL A   1      47.107  12.770  55.117  1.00  0.00    +0.000 C 
ATOM      4  C4  UNL A   1      46.381  11.506  54.597  1.00  0.00    +0.000 C 
ATOM      6  C5  UNL A   1      44.875  11.685  54.399  1.00  0.00    +0.000 C 
ATOM      7  C6  UNL A   1      44.634  12.805  53.335  1.00  0.00    +0.000 C 
ATOM      8  C7  UNL A   1      44.989  14.418  54.237  1.00  0.00    +0.000 C 
ATOM      9  C8  UNL A   1      44.242  16.115  53.673  1.00  0.00    +0.000 C 
ATOM     10  C9  UNL A   1      43.051  16.157  52.138  1.00  0.00    +0.000 C 
ATOM     11  C10 UNL A   1      42.681  14.516  51.118  1.00  0.00    +0.000 C 
ATOM    139  H35 UNL A   1      44.224  11.291  50.773  1.00  0.00    +0.000 H 
ATOM    140  H36 UNL A   1      42.464  11.445  50.524  1.00  0.00    +0.000 H 
ATOM     13  C12 UNL A   1      43.463  14.340  49.608  1.00  0.00    +0.000 C 
ATOM    137  H33 UNL A   1      44.612  12.603  49.038  1.00  0.00    +0.000 H 
ATOM    144  H40 UNL A   1      45.251  14.045  56.421  1.00  0.00    +0.000 H 
ATOM    145  H41 UNL A   1      45.560  15.528  56.248  1.00  0.00    +0.000 H 
ATOM    138  H34 UNL A   1      42.867  12.502  48.692  1.00  0.00    +0.000 H 
ATOM     22  C21 UNL A   1      43.621  12.793  49.393  1.00  0.00    +0.000 C 
ATOM     23  C22 UNL A   1      43.394  11.957  50.658  1.00  0.00    +0.000 C 
ATOM     24  C23 UNL A   1      43.258  12.787  51.955  1.00  0.00    +0.000 C 
ATOM     26  C25 UNL A   1      45.552  14.672  55.607  1.00  0.00    +0.000 C 
ATOM     27  C26 UNL A   1      46.518  14.142  54.594  1.00  0.00    +0.000 C 
ATOM    108  H4  UNL A   1      46.876  12.813  56.161  1.00  0.00    +0.000 H 
ATOM    109  H5  UNL A   1      46.830  11.318  53.643  1.00  0.00    +0.000 H 
ATOM    111  H7  UNL A   1      44.422  11.966  55.325  1.00  0.00    +0.000 H 
ATOM    112  H8  UNL A   1      44.442  10.766  54.061  1.00  0.00    +0.000 H 
ATOM    113  H9  UNL A   1      45.287  12.568  52.522  1.00  0.00    +0.000 H 
ATOM    114  H10 UNL A   1      45.064  16.760  53.449  1.00  0.00    +0.000 H 
ATOM    115  H11 UNL A   1      43.616  16.403  54.491  1.00  0.00    +0.000 H 
ATOM    116  H12 UNL A   1      43.465  16.862  51.448  1.00  0.00    +0.000 H 
ATOM    117  H13 UNL A   1      42.102  16.388  52.575  1.00  0.00    +0.000 H 
ATOM    121  H17 UNL A   1      42.842  14.950  48.986  1.00  0.00    +0.000 H 
BRANCH    3    2
ATOM      2  C2  UNL A   1      48.629  12.651  55.066  1.00  0.00    +0.000 C 
ATOM    107  H3  UNL A   1      49.071  12.861  54.157  1.00  0.00    +0.000 H 
BRANCH    2    1
ATOM      1  C1  UNL A   1      49.463  12.308  56.062  1.00  0.00    +0.000 C 
ATOM    106  H2  UNL A   1      50.283  11.714  55.867  1.00  0.00    +0.000 H 
ATOM    105  H1  UNL A   1      49.283  12.640  57.023  1.00  0.00    +0.000 H 
ENDBRANCH    2    1
ENDBRANCH    3    2
BRANCH    4    5
ATOM      5  O1  UNL A   1      46.559  10.401  55.494  1.00  0.00    +0.000 O 
ATOM    110  H6  UNL A   1      45.850  10.404  56.156  1.00  0.00    +0.000 H 
ENDBRANCH    4    5
BRANCH   11   12
ATOM     12  C11 UNL A   1      41.270  14.917  50.504  1.00  0.00    +0.000 C 
ATOM    118  H14 UNL A   1      41.067  14.307  49.649  1.00  0.00    +0.000 H 
ATOM    119  H15 UNL A   1      41.287  15.945  50.213  1.00  0.00    +0.000 H 
ATOM    120  H16 UNL A   1      40.507  14.766  51.239  1.00  0.00    +0.000 H 
ENDBRANCH   11   12
BRANCH   13   14
ATOM    122  H18 UNL A   1      44.400  14.742  47.955  1.00  0.00    +0.000 H 
ATOM     14  C13 UNL A   1      44.495  15.355  48.826  1.00  0.00    +0.000 C 
BRANCH   14   15
ATOM    123  H19 UNL A   1      46.067  14.590  50.078  1.00  0.00    +0.000 H 
ATOM    124  H20 UNL A   1      45.727  16.287  50.321  1.00  0.00    +0.000 H 
ATOM    125  H21 UNL A   1      46.604  15.766  48.902  1.00  0.00    +0.000 H 
ATOM     15  C14 UNL A   1      45.825  15.511  49.590  1.00  0.00    +0.000 C 
ENDBRANCH   14   15
BRANCH   14   16
ATOM    126  H22 UNL A   1      44.474  17.506  48.652  1.00  0.00    +0.000 H 
ATOM    127  H23 UNL A   1      43.171  16.577  47.741  1.00  0.00    +0.000 H 
ATOM     16  C15 UNL A   1      44.199  16.695  48.010  1.00  0.00    +0.000 C 
BRANCH   16   17
ATOM     17  C16 UNL A   1      44.871  16.980  46.636  1.00  0.00    +0.000 C 
ATOM    129  H25 UNL A   1      45.690  16.293  46.598  1.00  0.00    +0.000 H 
ATOM    128  H24 UNL A   1      44.117  16.859  45.886  1.00  0.00    +0.000 H 
BRANCH   17   18
ATOM     18  C17 UNL A   1      45.519  18.345  46.406  1.00  0.00    +0.000 C 
ATOM    130  H26 UNL A   1      45.987  18.464  45.494  1.00  0.00    +0.000 H 
BRANCH   18   19
ATOM     19  C18 UNL A   1      45.566  19.424  47.229  1.00  0.00    +0.000 C 
BRANCH   19   20
ATOM    133  H29 UNL A   1      44.086  20.674  46.363  1.00  0.00    +0.000 H 
ATOM    131  H27 UNL A   1      45.729  21.203  46.085  1.00  0.00    +0.000 H 
ATOM     20  C19 UNL A   1      45.057  20.780  46.802  1.00  0.00    +0.000 C 
ATOM    132  H28 UNL A   1      44.994  21.423  47.655  1.00  0.00    +0.000 H 
ENDBRANCH   19   20
BRANCH   19   21
ATOM     21  C20 UNL A   1      46.161  19.495  48.605  1.00  0.00    +0.000 C 
ATOM    134  H30 UNL A   1      46.168  18.519  49.040  1.00  0.00    +0.000 H 
ATOM    135  H31 UNL A   1      45.576  20.153  49.212  1.00  0.00    +0.000 H 
ATOM    136  H32 UNL A   1      47.163  19.864  48.541  1.00  0.00    +0.000 H 
ENDBRANCH   19   21
ENDBRANCH   18   19
ENDBRANCH   17   18
ENDBRANCH   16   17
ENDBRANCH   14   16
ENDBRANCH   13   14
BRANCH   24   25
ATOM     25  C24 UNL A   1      42.498  11.724  52.848  1.00  0.00    +0.000 C 
ATOM    141  H37 UNL A   1      41.821  12.228  53.504  1.00  0.00    +0.000 H 
ATOM    142  H38 UNL A   1      43.209  11.171  53.427  1.00  0.00    +0.000 H 
ATOM    143  H39 UNL A   1      41.952  11.054  52.218  1.00  0.00    +0.000 H 
ENDBRANCH   24   25
ENDBRANCH   28   27
ENDBRANCH   29   28
ENDBRANCH   30   29
ENDBRANCH   32   30
ENDBRANCH   33   32
ENDBRANCH   34   33
ENDBRANCH   35   34
ENDBRANCH   36   35
ENDBRANCH   37   36
ENDBRANCH   38   37
ENDBRANCH   39   38
ENDBRANCH   40   39
ENDBRANCH   42   40
ENDBRANCH   46   45
BRANCH   50   51
ATOM     51  C45 UNL A   1      51.967  12.745  52.527  1.00  0.00    +0.000 C 
ATOM     52  C46 UNL A   1      51.888  13.718  53.537  1.00  0.00    +0.000 C 
ATOM     53  F1  UNL A   1      50.800  14.495  53.644  1.00  0.00    +0.000 F 
ATOM     54  C47 UNL A   1      52.954  13.943  54.404  1.00  0.00    +0.000 C 
ATOM     55  F2  UNL A   1      52.882  14.927  55.311  1.00  0.00    +0.000 F 
ATOM     56  C48 UNL A   1      54.100  13.168  54.312  1.00  0.00    +0.000 C 
ATOM     57  F3  UNL A   1      55.125  13.384  55.147  1.00  0.00    +0.000 F 
ATOM     58  C49 UNL A   1      54.187  12.178  53.345  1.00  0.00    +0.000 C 
ATOM     59  F4  UNL A   1      55.290  11.422  53.261  1.00  0.00    +0.000 F 
ATOM     60  C50 UNL A   1      53.138  11.976  52.451  1.00  0.00    +0.000 C 
ATOM     61  F5  UNL A   1      53.269  11.034  51.506  1.00  0.00    +0.000 F 
ENDBRANCH   50   51
BRANCH   67   68
ATOM     68  C56 UNL A   1      46.548   8.157  51.286  1.00  0.00    +0.000 C 
ATOM     69  C57 UNL A   1      45.363   8.239  52.030  1.00  0.00    +0.000 C 
ATOM     70  F6  UNL A   1      44.778   9.427  52.239  1.00  0.00    +0.000 F 
ATOM     71  C58 UNL A   1      44.791   7.099  52.584  1.00  0.00    +0.000 C 
ATOM     72  F7  UNL A   1      43.679   7.203  53.326  1.00  0.00    +0.000 F 
ATOM     73  C59 UNL A   1      45.371   5.857  52.375  1.00  0.00    +0.000 C 
ATOM     74  F8  UNL A   1      44.808   4.757  52.896  1.00  0.00    +0.000 F 
ATOM     75  C60 UNL A   1      46.536   5.752  51.630  1.00  0.00    +0.000 C 
ATOM     76  F9  UNL A   1      47.086   4.550  51.410  1.00  0.00    +0.000 F 
ATOM     77  C61 UNL A   1      47.129   6.893  51.103  1.00  0.00    +0.000 C 
ATOM     78  F10 UNL A   1      48.256   6.764  50.386  1.00  0.00    +0.000 F 
ENDBRANCH   67   68
BRANCH   82   83
ATOM     83  C65 UNL A   1      44.855  11.660  45.491  1.00  0.00    +0.000 C 
ATOM     84  C66 UNL A   1      44.964  10.641  44.532  1.00  0.00    +0.000 C 
ATOM     85  F11 UNL A   1      46.026   9.824  44.543  1.00  0.00    +0.000 F 
ATOM     86  C67 UNL A   1      44.004  10.484  43.535  1.00  0.00    +0.000 C 
ATOM     87  F12 UNL A   1      44.159   9.532  42.604  1.00  0.00    +0.000 F 
ATOM     88  C68 UNL A   1      42.899  11.319  43.494  1.00  0.00    +0.000 C 
ATOM     89  F13 UNL A   1      41.975  11.166  42.535  1.00  0.00    +0.000 F 
ATOM     90  C69 UNL A   1      42.756  12.319  44.445  1.00  0.00    +0.000 C 
ATOM     91  F14 UNL A   1      41.682  13.119  44.418  1.00  0.00    +0.000 F 
ATOM     92  C70 UNL A   1      43.730  12.495  45.426  1.00  0.00    +0.000 C 
ATOM     93  F15 UNL A   1      43.572  13.478  46.325  1.00  0.00    +0.000 F 
ENDBRANCH   82   83
TORSDOF 30
ENDMDL
MODEL 8
REMARK VINA RESULT:      -5.9      1.403      2.129
ROOT
ATOM    166  H62 UNL A   1      19.589  37.035  48.030  1.00  0.00    +0.000 H 
ATOM    167  H63 UNL A   1      18.692  39.124  49.306  1.00  0.00    +0.000 H 
ATOM    168  H64 UNL A   1      22.454  40.024  47.838  1.00  0.00    +0.000 H 
ATOM    169  H65 UNL A   1      27.340  44.175  47.403  1.00  0.00    +0.000 H 
ATOM    170  H66 UNL A   1      28.224  42.106  46.219  1.00  0.00    +0.000 H 
ATOM    171  H67 UNL A   1      24.382  41.258  47.556  1.00  0.00    +0.000 H 
ATOM    172  H68 UNL A   1      22.723  45.305  49.934  1.00  0.00    +0.000 H 
ATOM    173  H69 UNL A   1      20.667  43.909  50.544  1.00  0.00    +0.000 H 
ATOM     46  C41 UNL A   1      26.428  39.887  46.258  1.00  0.00    +0.000 C 
ATOM     47  C42 UNL A   1      25.301  38.889  46.315  1.00  0.00    +0.000 C 
ATOM     48  N3  UNL A   1      24.078  39.039  46.748  1.00  0.00    +0.000 N 
ATOM    175  H71 UNL A   1      26.467  37.150  45.434  1.00  0.00    +0.000 H 
ATOM     49  C43 UNL A   1      23.436  37.842  46.460  1.00  0.00    +0.000 C 
ATOM    174  H70 UNL A   1      24.120  36.130  45.257  1.00  0.00    +0.000 H 
ATOM     50  C44 UNL A   1      22.197  37.443  46.827  1.00  0.00    +0.000 C 
ATOM     62  C51 UNL A   1      21.324  38.250  47.629  1.00  0.00    +0.000 C 
ATOM     63  C52 UNL A   1      20.082  37.934  48.142  1.00  0.00    +0.000 C 
ATOM     64  C53 UNL A   1      19.610  39.049  48.840  1.00  0.00    +0.000 C 
ATOM     65  C54 UNL A   1      20.581  40.041  48.806  1.00  0.00    +0.000 C 
ATOM     66  N4  UNL A   1      21.623  39.539  48.048  1.00  0.00    +0.000 N 
ATOM     67  C55 UNL A   1      20.555  41.343  49.420  1.00  0.00    +0.000 C 
ATOM     79  C62 UNL A   1      21.533  42.281  49.340  1.00  0.00    +0.000 C 
ATOM     80  N5  UNL A   1      22.757  42.223  48.691  1.00  0.00    +0.000 N 
ATOM     81  C63 UNL A   1      23.333  43.385  48.895  1.00  0.00    +0.000 C 
ATOM     82  C64 UNL A   1      24.690  43.868  48.450  1.00  0.00    +0.000 C 
ATOM     94  C71 UNL A   1      25.478  43.014  47.772  1.00  0.00    +0.000 C 
ATOM     95  C72 UNL A   1      26.829  43.285  47.288  1.00  0.00    +0.000 C 
ATOM     96  C73 UNL A   1      27.300  42.189  46.670  1.00  0.00    +0.000 C 
ATOM     97  C74 UNL A   1      26.290  41.133  46.741  1.00  0.00    +0.000 C 
ATOM     98  N6  UNL A   1      25.235  41.720  47.385  1.00  0.00    +0.000 N 
ATOM     99  C75 UNL A   1      22.519  44.327  49.674  1.00  0.00    +0.000 C 
ATOM    100  C76 UNL A   1      21.454  43.589  49.957  1.00  0.00    +0.000 C 
ATOM    101  C77 UNL A   1      24.363  37.016  45.728  1.00  0.00    +0.000 C 
ATOM    102  C78 UNL A   1      25.570  37.555  45.743  1.00  0.00    +0.000 C 
ENDROOT
BRANCH   46   45
ATOM    164  H60 UNL A   1      29.974  40.519  43.359  1.00  0.00    +0.000 H 
ATOM    165  H61 UNL A   1      27.765  41.097  44.211  1.00  0.00    +0.000 H 
ATOM    103  C79 UNL A   1      28.335  38.347  46.071  1.00  0.00    +0.000 C 
ATOM    104  C80 UNL A   1      29.635  38.101  45.685  1.00  0.00    +0.000 C 
ATOM     42  C37 UNL A   1      30.217  38.888  44.684  1.00  0.00    +0.000 C 
ATOM     43  C38 UNL A   1      29.542  39.965  44.115  1.00  0.00    +0.000 C 
ATOM     44  C39 UNL A   1      28.270  40.278  44.588  1.00  0.00    +0.000 C 
ATOM     45  C40 UNL A   1      27.673  39.479  45.578  1.00  0.00    +0.000 C 
ATOM    176  H72 UNL A   1      27.854  37.704  46.718  1.00  0.00    +0.000 H 
ATOM    177  H73 UNL A   1      30.175  37.342  46.130  1.00  0.00    +0.000 H 
BRANCH   42   40
ATOM     41  O3  UNL A   1      32.357  39.183  43.723  1.00  0.00    +0.000 O 
ATOM     40  C36 UNL A   1      31.511  38.431  44.128  1.00  0.00    +0.000 C 
BRANCH   40   39
ATOM    163  H59 UNL A   1      31.018  36.490  43.635  1.00  0.00    +0.000 H 
ATOM     39  N2  UNL A   1      31.659  37.056  44.123  1.00  0.00    +0.000 N 
BRANCH   39   38
ATOM    161  H57 UNL A   1      33.611  36.364  44.195  1.00  0.00    +0.000 H 
ATOM    162  H58 UNL A   1      33.041  37.059  45.679  1.00  0.00    +0.000 H 
ATOM     38  C35 UNL A   1      32.763  36.454  44.841  1.00  0.00    +0.000 C 
BRANCH   38   37
ATOM     37  C34 UNL A   1      32.319  35.088  45.300  1.00  0.00    +0.000 C 
ATOM    159  H55 UNL A   1      33.186  34.529  45.585  1.00  0.00    +0.000 H 
ATOM    160  H56 UNL A   1      31.643  35.235  46.116  1.00  0.00    +0.000 H 
BRANCH   37   36
ATOM     36  C33 UNL A   1      31.540  34.271  44.197  1.00  0.00    +0.000 C 
ATOM    157  H53 UNL A   1      31.445  34.931  43.360  1.00  0.00    +0.000 H 
ATOM    158  H54 UNL A   1      32.143  33.388  44.137  1.00  0.00    +0.000 H 
BRANCH   36   35
ATOM     35  C32 UNL A   1      30.028  33.603  44.420  1.00  0.00    +0.000 C 
ATOM    156  H52 UNL A   1      30.387  32.701  44.870  1.00  0.00    +0.000 H 
ATOM    155  H51 UNL A   1      29.546  33.783  43.481  1.00  0.00    +0.000 H 
BRANCH   35   34
ATOM    153  H49 UNL A   1      27.980  34.451  45.064  1.00  0.00    +0.000 H 
ATOM     34  C31 UNL A   1      28.667  33.859  45.632  1.00  0.00    +0.000 C 
ATOM    154  H50 UNL A   1      28.714  32.849  45.980  1.00  0.00    +0.000 H 
BRANCH   34   33
ATOM     33  C30 UNL A   1      28.384  34.627  47.569  1.00  0.00    +0.000 C 
ATOM    151  H47 UNL A   1      27.335  34.835  47.575  1.00  0.00    +0.000 H 
ATOM    152  H48 UNL A   1      29.011  33.888  48.024  1.00  0.00    +0.000 H 
BRANCH   33   32
ATOM    150  H46 UNL A   1      29.845  36.025  48.168  1.00  0.00    +0.000 H 
ATOM     32  N1  UNL A   1      28.934  35.756  48.427  1.00  0.00    +0.000 N 
BRANCH   32   30
ATOM     30  C29 UNL A   1      28.450  36.476  49.471  1.00  0.00    +0.000 C 
ATOM     31  O2  UNL A   1      29.065  36.324  50.535  1.00  0.00    +0.000 O 
BRANCH   30   29
ATOM    149  H45 UNL A   1      26.817  37.226  50.363  1.00  0.00    +0.000 H 
ATOM    148  H44 UNL A   1      26.794  37.255  48.491  1.00  0.00    +0.000 H 
ATOM     29  C28 UNL A   1      27.282  37.444  49.424  1.00  0.00    +0.000 C 
BRANCH   29   28
ATOM    146  H42 UNL A   1      28.383  39.241  49.236  1.00  0.00    +0.000 H 
ATOM    147  H43 UNL A   1      26.612  39.342  48.889  1.00  0.00    +0.000 H 
ATOM     28  C27 UNL A   1      27.390  38.971  49.524  1.00  0.00    +0.000 C 
BRANCH   28   27
ATOM      3  C3  UNL A   1      25.619  40.015  51.128  1.00  0.00    +0.000 C 
ATOM      4  C4  UNL A   1      25.386  41.534  51.311  1.00  0.00    +0.000 C 
ATOM      6  C5  UNL A   1      26.535  42.265  52.007  1.00  0.00    +0.000 C 
ATOM      7  C6  UNL A   1      27.828  42.115  51.143  1.00  0.00    +0.000 C 
ATOM      8  C7  UNL A   1      28.407  40.348  51.433  1.00  0.00    +0.000 C 
ATOM      9  C8  UNL A   1      30.248  39.798  51.184  1.00  0.00    +0.000 C 
ATOM     10  C9  UNL A   1      31.563  41.124  50.646  1.00  0.00    +0.000 C 
ATOM     11  C10 UNL A   1      31.016  42.977  50.273  1.00  0.00    +0.000 C 
ATOM    139  H35 UNL A   1      27.926  44.656  49.542  1.00  0.00    +0.000 H 
ATOM    140  H36 UNL A   1      29.236  45.557  50.350  1.00  0.00    +0.000 H 
ATOM     13  C12 UNL A   1      30.917  43.449  48.633  1.00  0.00    +0.000 C 
ATOM    137  H33 UNL A   1      29.183  44.382  47.747  1.00  0.00    +0.000 H 
ATOM    144  H40 UNL A   1      27.231  39.406  53.078  1.00  0.00    +0.000 H 
ATOM    145  H41 UNL A   1      28.119  38.283  52.553  1.00  0.00    +0.000 H 
ATOM    138  H34 UNL A   1      30.342  45.505  48.504  1.00  0.00    +0.000 H 
ATOM     22  C21 UNL A   1      29.822  44.573  48.584  1.00  0.00    +0.000 C 
ATOM     23  C22 UNL A   1      28.953  44.659  49.843  1.00  0.00    +0.000 C 
ATOM     24  C23 UNL A   1      29.166  43.501  50.845  1.00  0.00    +0.000 C 
ATOM     26  C25 UNL A   1      27.753  39.209  52.164  1.00  0.00    +0.000 C 
ATOM     27  C26 UNL A   1      27.122  39.596  50.864  1.00  0.00    +0.000 C 
ATOM    108  H4  UNL A   1      25.436  39.588  52.091  1.00  0.00    +0.000 H 
ATOM    109  H5  UNL A   1      25.300  41.909  50.312  1.00  0.00    +0.000 H 
ATOM    111  H7  UNL A   1      26.698  41.838  52.974  1.00  0.00    +0.000 H 
ATOM    112  H8  UNL A   1      26.292  43.301  52.118  1.00  0.00    +0.000 H 
ATOM    113  H9  UNL A   1      27.529  42.353  50.143  1.00  0.00    +0.000 H 
ATOM    114  H10 UNL A   1      30.249  39.035  50.434  1.00  0.00    +0.000 H 
ATOM    115  H11 UNL A   1      30.564  39.508  52.163  1.00  0.00    +0.000 H 
ATOM    116  H12 UNL A   1      32.025  40.755  49.754  1.00  0.00    +0.000 H 
ATOM    117  H13 UNL A   1      32.175  41.225  51.518  1.00  0.00    +0.000 H 
ATOM    121  H17 UNL A   1      31.948  43.636  48.415  1.00  0.00    +0.000 H 
BRANCH    3    2
ATOM      2  C2  UNL A   1      24.587  39.356  50.214  1.00  0.00    +0.000 C 
ATOM    107  H3  UNL A   1      24.498  39.756  49.267  1.00  0.00    +0.000 H 
BRANCH    2    1
ATOM      1  C1  UNL A   1      23.783  38.317  50.493  1.00  0.00    +0.000 C 
ATOM    106  H2  UNL A   1      23.602  38.054  51.474  1.00  0.00    +0.000 H 
ATOM    105  H1  UNL A   1      23.344  37.783  49.727  1.00  0.00    +0.000 H 
ENDBRANCH    2    1
ENDBRANCH    3    2
BRANCH    4    5
ATOM      5  O1  UNL A   1      24.200  41.787  52.077  1.00  0.00    +0.000 O 
ATOM    110  H6  UNL A   1      23.881  42.685  51.893  1.00  0.00    +0.000 H 
ENDBRANCH    4    5
BRANCH   11   12
ATOM     12  C11 UNL A   1      32.401  43.707  50.551  1.00  0.00    +0.000 C 
ATOM    118  H14 UNL A   1      33.184  43.197  50.030  1.00  0.00    +0.000 H 
ATOM    119  H15 UNL A   1      32.605  43.697  51.600  1.00  0.00    +0.000 H 
ATOM    120  H16 UNL A   1      32.345  44.719  50.207  1.00  0.00    +0.000 H 
ENDBRANCH   11   12
BRANCH   13   14
ATOM    122  H18 UNL A   1      30.735  43.355  46.702  1.00  0.00    +0.000 H 
ATOM     14  C13 UNL A   1      31.232  42.593  47.264  1.00  0.00    +0.000 C 
BRANCH   14   15
ATOM    123  H19 UNL A   1      30.057  40.949  46.529  1.00  0.00    +0.000 H 
ATOM    124  H20 UNL A   1      30.147  41.035  48.272  1.00  0.00    +0.000 H 
ATOM    125  H21 UNL A   1      31.520  40.465  47.354  1.00  0.00    +0.000 H 
ATOM     15  C14 UNL A   1      30.698  41.151  47.362  1.00  0.00    +0.000 C 
ENDBRANCH   14   15
BRANCH   14   16
ATOM    126  H22 UNL A   1      32.323  43.363  45.569  1.00  0.00    +0.000 H 
ATOM    127  H23 UNL A   1      32.584  41.592  46.001  1.00  0.00    +0.000 H 
ATOM     16  C15 UNL A   1      32.511  42.614  46.309  1.00  0.00    +0.000 C 
BRANCH   16   17
ATOM     17  C16 UNL A   1      33.939  42.896  46.861  1.00  0.00    +0.000 C 
ATOM    129  H25 UNL A   1      33.874  42.634  47.896  1.00  0.00    +0.000 H 
ATOM    128  H24 UNL A   1      34.624  42.324  46.269  1.00  0.00    +0.000 H 
BRANCH   17   18
ATOM     18  C17 UNL A   1      34.448  44.337  46.872  1.00  0.00    +0.000 C 
ATOM    130  H26 UNL A   1      35.272  44.509  47.469  1.00  0.00    +0.000 H 
BRANCH   18   19
ATOM     19  C18 UNL A   1      33.974  45.422  46.208  1.00  0.00    +0.000 C 
BRANCH   19   20
ATOM    133  H29 UNL A   1      31.874  45.704  46.103  1.00  0.00    +0.000 H 
ATOM    131  H27 UNL A   1      32.785  47.168  46.390  1.00  0.00    +0.000 H 
ATOM     20  C19 UNL A   1      32.707  46.127  46.626  1.00  0.00    +0.000 C 
ATOM    132  H28 UNL A   1      32.564  46.010  47.680  1.00  0.00    +0.000 H 
ENDBRANCH   19   20
BRANCH   19   21
ATOM     21  C20 UNL A   1      34.538  46.047  44.965  1.00  0.00    +0.000 C 
ATOM    134  H30 UNL A   1      35.553  45.734  44.839  1.00  0.00    +0.000 H 
ATOM    135  H31 UNL A   1      34.501  47.112  45.053  1.00  0.00    +0.000 H 
ATOM    136  H32 UNL A   1      33.962  45.737  44.118  1.00  0.00    +0.000 H 
ENDBRANCH   19   21
ENDBRANCH   18   19
ENDBRANCH   17   18
ENDBRANCH   16   17
ENDBRANCH   14   16
ENDBRANCH   13   14
BRANCH   24   25
ATOM     25  C24 UNL A   1      28.606  44.199  52.150  1.00  0.00    +0.000 C 
ATOM    141  H37 UNL A   1      28.170  43.462  52.790  1.00  0.00    +0.000 H 
ATOM    142  H38 UNL A   1      27.863  44.920  51.879  1.00  0.00    +0.000 H 
ATOM    143  H39 UNL A   1      29.408  44.688  52.664  1.00  0.00    +0.000 H 
ENDBRANCH   24   25
ENDBRANCH   28   27
ENDBRANCH   29   28
ENDBRANCH   30   29
ENDBRANCH   32   30
ENDBRANCH   33   32
ENDBRANCH   34   33
ENDBRANCH   35   34
ENDBRANCH   36   35
ENDBRANCH   37   36
ENDBRANCH   38   37
ENDBRANCH   39   38
ENDBRANCH   40   39
ENDBRANCH   42   40
ENDBRANCH   46   45
BRANCH   50   51
ATOM     51  C45 UNL A   1      21.747  36.079  46.389  1.00  0.00    +0.000 C 
ATOM     52  C46 UNL A   1      21.061  35.878  45.180  1.00  0.00    +0.000 C 
ATOM     53  F1  UNL A   1      20.780  36.918  44.381  1.00  0.00    +0.000 F 
ATOM     54  C47 UNL A   1      20.600  34.616  44.816  1.00  0.00    +0.000 C 
ATOM     55  F2  UNL A   1      19.883  34.465  43.693  1.00  0.00    +0.000 F 
ATOM     56  C48 UNL A   1      20.860  33.521  45.625  1.00  0.00    +0.000 C 
ATOM     57  F3  UNL A   1      20.418  32.306  45.273  1.00  0.00    +0.000 F 
ATOM     58  C49 UNL A   1      21.567  33.689  46.807  1.00  0.00    +0.000 C 
ATOM     59  F4  UNL A   1      21.827  32.630  47.586  1.00  0.00    +0.000 F 
ATOM     60  C50 UNL A   1      21.995  34.957  47.194  1.00  0.00    +0.000 C 
ATOM     61  F5  UNL A   1      22.645  35.089  48.359  1.00  0.00    +0.000 F 
ENDBRANCH   50   51
BRANCH   67   68
ATOM     68  C56 UNL A   1      19.343  41.683  50.233  1.00  0.00    +0.000 C 
ATOM     69  C57 UNL A   1      18.285  42.429  49.696  1.00  0.00    +0.000 C 
ATOM     70  F6  UNL A   1      18.375  42.932  48.456  1.00  0.00    +0.000 F 
ATOM     71  C58 UNL A   1      17.141  42.680  50.445  1.00  0.00    +0.000 C 
ATOM     72  F7  UNL A   1      16.156  43.429  49.928  1.00  0.00    +0.000 F 
ATOM     73  C59 UNL A   1      17.019  42.163  51.726  1.00  0.00    +0.000 C 
ATOM     74  F8  UNL A   1      15.907  42.392  52.439  1.00  0.00    +0.000 F 
ATOM     75  C60 UNL A   1      18.048  41.410  52.271  1.00  0.00    +0.000 C 
ATOM     76  F9  UNL A   1      17.924  40.892  53.500  1.00  0.00    +0.000 F 
ATOM     77  C61 UNL A   1      19.208  41.184  51.538  1.00  0.00    +0.000 C 
ATOM     78  F10 UNL A   1      20.188  40.454  52.088  1.00  0.00    +0.000 F 
ENDBRANCH   67   68
BRANCH   82   83
ATOM     83  C65 UNL A   1      25.181  45.228  48.793  1.00  0.00    +0.000 C 
ATOM     84  C66 UNL A   1      25.570  45.543  50.104  1.00  0.00    +0.000 C 
ATOM     85  F11 UNL A   1      25.485  44.616  51.068  1.00  0.00    +0.000 F 
ATOM     86  C67 UNL A   1      26.008  46.823  50.438  1.00  0.00    +0.000 C 
ATOM     87  F12 UNL A   1      26.327  47.110  51.707  1.00  0.00    +0.000 F 
ATOM     88  C68 UNL A   1      26.098  47.805  49.463  1.00  0.00    +0.000 C 
ATOM     89  F13 UNL A   1      26.521  49.035  49.784  1.00  0.00    +0.000 F 
ATOM     90  C69 UNL A   1      25.741  47.510  48.155  1.00  0.00    +0.000 C 
ATOM     91  F14 UNL A   1      25.842  48.452  47.207  1.00  0.00    +0.000 F 
ATOM     92  C70 UNL A   1      25.276  46.238  47.826  1.00  0.00    +0.000 C 
ATOM     93  F15 UNL A   1      24.928  45.986  46.556  1.00  0.00    +0.000 F 
ENDBRANCH   82   83
TORSDOF 30
ENDMDL
MODEL 9
REMARK VINA RESULT:      -5.9     26.494     32.282
ROOT
ATOM    166  H62 UNL A   1      41.737  13.646  47.433  1.00  0.00    +0.000 H 
ATOM    167  H63 UNL A   1      40.624  15.153  49.245  1.00  0.00    +0.000 H 
ATOM    168  H64 UNL A   1      43.992  17.101  47.839  1.00  0.00    +0.000 H 
ATOM    169  H65 UNL A   1      47.993  22.117  48.188  1.00  0.00    +0.000 H 
ATOM    170  H66 UNL A   1      49.100  20.605  46.470  1.00  0.00    +0.000 H 
ATOM    171  H67 UNL A   1      45.631  18.722  47.768  1.00  0.00    +0.000 H 
ATOM    172  H68 UNL A   1      43.540  21.679  51.184  1.00  0.00    +0.000 H 
ATOM    173  H69 UNL A   1      41.839  19.800  51.538  1.00  0.00    +0.000 H 
ATOM     46  C41 UNL A   1      47.740  18.131  46.050  1.00  0.00    +0.000 C 
ATOM     47  C42 UNL A   1      46.820  16.945  45.917  1.00  0.00    +0.000 C 
ATOM     48  N3  UNL A   1      45.641  16.743  46.444  1.00  0.00    +0.000 N 
ATOM    175  H71 UNL A   1      48.176  15.730  44.559  1.00  0.00    +0.000 H 
ATOM     49  C43 UNL A   1      45.195  15.546  45.900  1.00  0.00    +0.000 C 
ATOM    174  H70 UNL A   1      46.042  14.339  44.265  1.00  0.00    +0.000 H 
ATOM     50  C44 UNL A   1      44.092  14.835  46.224  1.00  0.00    +0.000 C 
ATOM     62  C51 UNL A   1      43.178  15.240  47.253  1.00  0.00    +0.000 C 
ATOM     63  C52 UNL A   1      42.072  14.572  47.740  1.00  0.00    +0.000 C 
ATOM     64  C53 UNL A   1      41.487  15.374  48.724  1.00  0.00    +0.000 C 
ATOM     65  C54 UNL A   1      42.258  16.517  48.886  1.00  0.00    +0.000 C 
ATOM     66  N4  UNL A   1      43.287  16.426  47.967  1.00  0.00    +0.000 N 
ATOM     67  C55 UNL A   1      42.066  17.605  49.810  1.00  0.00    +0.000 C 
ATOM     79  C62 UNL A   1      42.848  18.709  49.914  1.00  0.00    +0.000 C 
ATOM     80  N5  UNL A   1      43.989  19.050  49.202  1.00  0.00    +0.000 N 
ATOM     81  C63 UNL A   1      44.367  20.220  49.660  1.00  0.00    +0.000 C 
ATOM     82  C64 UNL A   1      45.564  21.053  49.274  1.00  0.00    +0.000 C 
ATOM     94  C71 UNL A   1      46.415  20.558  48.357  1.00  0.00    +0.000 C 
ATOM     95  C72 UNL A   1      47.639  21.197  47.881  1.00  0.00    +0.000 C 
ATOM     96  C73 UNL A   1      48.229  20.394  46.979  1.00  0.00    +0.000 C 
ATOM     97  C74 UNL A   1      47.435  19.173  46.839  1.00  0.00    +0.000 C 
ATOM     98  N6  UNL A   1      46.366  19.371  47.671  1.00  0.00    +0.000 N 
ATOM     99  C75 UNL A   1      43.486  20.770  50.697  1.00  0.00    +0.000 C 
ATOM    100  C76 UNL A   1      42.604  19.791  50.845  1.00  0.00    +0.000 C 
ATOM    101  C77 UNL A   1      46.172  15.118  44.930  1.00  0.00    +0.000 C 
ATOM    102  C78 UNL A   1      47.259  15.866  45.012  1.00  0.00    +0.000 C 
ENDROOT
BRANCH   46   45
ATOM    164  H60 UNL A   1      50.200  19.303  42.314  1.00  0.00    +0.000 H 
ATOM    165  H61 UNL A   1      48.087  19.026  43.496  1.00  0.00    +0.000 H 
ATOM    103  C79 UNL A   1      50.152  17.717  45.813  1.00  0.00    +0.000 C 
ATOM    104  C80 UNL A   1      51.354  17.996  45.201  1.00  0.00    +0.000 C 
ATOM     42  C37 UNL A   1      51.361  18.558  43.918  1.00  0.00    +0.000 C 
ATOM     43  C38 UNL A   1      50.180  18.913  43.270  1.00  0.00    +0.000 C 
ATOM     44  C39 UNL A   1      48.972  18.733  43.939  1.00  0.00    +0.000 C 
ATOM     45  C40 UNL A   1      48.959  18.150  45.218  1.00  0.00    +0.000 C 
ATOM    176  H72 UNL A   1      50.130  17.195  46.703  1.00  0.00    +0.000 H 
ATOM    177  H73 UNL A   1      52.244  17.791  45.682  1.00  0.00    +0.000 H 
BRANCH   42   40
ATOM     41  O3  UNL A   1      52.783  19.058  42.097  1.00  0.00    +0.000 O 
ATOM     40  C36 UNL A   1      52.656  18.604  43.203  1.00  0.00    +0.000 C 
BRANCH   40   39
ATOM    163  H59 UNL A   1      54.083  18.579  44.692  1.00  0.00    +0.000 H 
ATOM     39  N2  UNL A   1      53.710  18.080  43.930  1.00  0.00    +0.000 N 
BRANCH   39   38
ATOM    161  H57 UNL A   1      53.559  16.256  42.957  1.00  0.00    +0.000 H 
ATOM    162  H58 UNL A   1      55.162  16.917  42.996  1.00  0.00    +0.000 H 
ATOM     38  C35 UNL A   1      54.261  16.793  43.560  1.00  0.00    +0.000 C 
BRANCH   38   37
ATOM     37  C34 UNL A   1      54.535  16.031  44.832  1.00  0.00    +0.000 C 
ATOM    159  H55 UNL A   1      55.466  15.516  44.724  1.00  0.00    +0.000 H 
ATOM    160  H56 UNL A   1      54.554  16.746  45.628  1.00  0.00    +0.000 H 
BRANCH   37   36
ATOM     36  C33 UNL A   1      53.419  14.972  45.189  1.00  0.00    +0.000 C 
ATOM    157  H53 UNL A   1      52.526  15.323  44.717  1.00  0.00    +0.000 H 
ATOM    158  H54 UNL A   1      53.892  14.067  44.871  1.00  0.00    +0.000 H 
BRANCH   36   35
ATOM     35  C32 UNL A   1      52.978  14.566  46.745  1.00  0.00    +0.000 C 
ATOM    156  H52 UNL A   1      53.624  15.278  47.216  1.00  0.00    +0.000 H 
ATOM    155  H51 UNL A   1      52.997  13.496  46.727  1.00  0.00    +0.000 H 
BRANCH   35   34
ATOM    153  H49 UNL A   1      51.948  14.834  48.793  1.00  0.00    +0.000 H 
ATOM     34  C31 UNL A   1      51.526  14.930  47.815  1.00  0.00    +0.000 C 
ATOM    154  H50 UNL A   1      51.198  15.733  47.189  1.00  0.00    +0.000 H 
BRANCH   34   33
ATOM     33  C30 UNL A   1      49.567  14.233  48.130  1.00  0.00    +0.000 C 
ATOM    151  H47 UNL A   1      49.009  15.146  48.161  1.00  0.00    +0.000 H 
ATOM    152  H48 UNL A   1      49.668  13.433  47.428  1.00  0.00    +0.000 H 
BRANCH   33   32
ATOM    150  H46 UNL A   1      49.387  13.106  49.904  1.00  0.00    +0.000 H 
ATOM     32  N1  UNL A   1      48.824  13.375  49.142  1.00  0.00    +0.000 N 
BRANCH   32   30
ATOM     30  C29 UNL A   1      47.557  12.896  49.231  1.00  0.00    +0.000 C 
ATOM     31  O2  UNL A   1      46.687  13.639  48.758  1.00  0.00    +0.000 O 
BRANCH   30   29
ATOM    149  H45 UNL A   1      46.499  11.203  49.032  1.00  0.00    +0.000 H 
ATOM    148  H44 UNL A   1      46.793  11.763  50.794  1.00  0.00    +0.000 H 
ATOM     29  C28 UNL A   1      47.148  11.553  49.808  1.00  0.00    +0.000 C 
BRANCH   29   28
ATOM    146  H42 UNL A   1      47.449   9.463  49.955  1.00  0.00    +0.000 H 
ATOM    147  H43 UNL A   1      48.756  10.409  49.143  1.00  0.00    +0.000 H 
ATOM     28  C27 UNL A   1      48.068  10.334  49.959  1.00  0.00    +0.000 C 
BRANCH   28   27
ATOM      3  C3  UNL A   1      50.486  10.136  50.914  1.00  0.00    +0.000 C 
ATOM      4  C4  UNL A   1      51.128   8.821  51.417  1.00  0.00    +0.000 C 
ATOM      6  C5  UNL A   1      50.509   8.275  52.706  1.00  0.00    +0.000 C 
ATOM      7  C6  UNL A   1      48.999   7.964  52.452  1.00  0.00    +0.000 C 
ATOM      8  C7  UNL A   1      48.152   9.644  52.427  1.00  0.00    +0.000 C 
ATOM      9  C8  UNL A   1      46.267   9.869  52.814  1.00  0.00    +0.000 C 
ATOM     10  C9  UNL A   1      45.208   8.307  53.280  1.00  0.00    +0.000 C 
ATOM     11  C10 UNL A   1      46.018   6.514  53.271  1.00  0.00    +0.000 C 
ATOM    139  H35 UNL A   1      48.960   5.021  51.851  1.00  0.00    +0.000 H 
ATOM    140  H36 UNL A   1      48.277   4.341  53.352  1.00  0.00    +0.000 H 
ATOM     13  C12 UNL A   1      45.644   5.493  51.953  1.00  0.00    +0.000 C 
ATOM    137  H33 UNL A   1      47.124   4.490  50.742  1.00  0.00    +0.000 H 
ATOM    144  H40 UNL A   1      49.569  11.237  53.085  1.00  0.00    +0.000 H 
ATOM    145  H41 UNL A   1      48.310  11.993  52.674  1.00  0.00    +0.000 H 
ATOM    138  H34 UNL A   1      46.614   3.603  52.202  1.00  0.00    +0.000 H 
ATOM     22  C21 UNL A   1      46.887   4.550  51.784  1.00  0.00    +0.000 C 
ATOM     23  C22 UNL A   1      48.138   5.019  52.536  1.00  0.00    +0.000 C 
ATOM     24  C23 UNL A   1      48.019   6.432  53.151  1.00  0.00    +0.000 C 
ATOM     26  C25 UNL A   1      48.728  11.033  52.456  1.00  0.00    +0.000 C 
ATOM     27  C26 UNL A   1      48.933  10.270  51.186  1.00  0.00    +0.000 C 
ATOM    108  H4  UNL A   1      50.888  10.900  51.545  1.00  0.00    +0.000 H 
ATOM    109  H5  UNL A   1      50.944   8.120  50.629  1.00  0.00    +0.000 H 
ATOM    111  H7  UNL A   1      50.600   9.004  53.483  1.00  0.00    +0.000 H 
ATOM    112  H8  UNL A   1      51.019   7.382  53.002  1.00  0.00    +0.000 H 
ATOM    113  H9  UNL A   1      48.975   7.412  51.535  1.00  0.00    +0.000 H 
ATOM    114  H10 UNL A   1      45.818  10.303  51.946  1.00  0.00    +0.000 H 
ATOM    115  H11 UNL A   1      46.256  10.460  53.705  1.00  0.00    +0.000 H 
ATOM    116  H12 UNL A   1      44.387   8.277  52.594  1.00  0.00    +0.000 H 
ATOM    117  H13 UNL A   1      44.986   8.466  54.315  1.00  0.00    +0.000 H 
ATOM    121  H17 UNL A   1      44.680   5.131  52.245  1.00  0.00    +0.000 H 
BRANCH    3    2
ATOM      2  C2  UNL A   1      50.938  10.524  49.506  1.00  0.00    +0.000 C 
ATOM    107  H3  UNL A   1      50.493  10.011  48.729  1.00  0.00    +0.000 H 
BRANCH    2    1
ATOM      1  C1  UNL A   1      51.844  11.452  49.159  1.00  0.00    +0.000 C 
ATOM    106  H2  UNL A   1      51.545  12.422  48.977  1.00  0.00    +0.000 H 
ATOM    105  H1  UNL A   1      52.841  11.194  49.075  1.00  0.00    +0.000 H 
ENDBRANCH    2    1
ENDBRANCH    3    2
BRANCH    4    5
ATOM      5  O1  UNL A   1      52.530   8.989  51.661  1.00  0.00    +0.000 O 
ATOM    110  H6  UNL A   1      52.701   9.897  51.958  1.00  0.00    +0.000 H 
ENDBRANCH    4    5
BRANCH   11   12
ATOM     12  C11 UNL A   1      45.040   5.794  54.296  1.00  0.00    +0.000 C 
ATOM    118  H14 UNL A   1      44.943   6.392  55.177  1.00  0.00    +0.000 H 
ATOM    119  H15 UNL A   1      45.438   4.836  54.556  1.00  0.00    +0.000 H 
ATOM    120  H16 UNL A   1      44.078   5.670  53.843  1.00  0.00    +0.000 H 
ENDBRANCH   11   12
BRANCH   13   14
ATOM    122  H18 UNL A   1      44.581   4.696  50.536  1.00  0.00    +0.000 H 
ATOM     14  C13 UNL A   1      44.670   5.755  50.653  1.00  0.00    +0.000 C 
BRANCH   14   15
ATOM    123  H19 UNL A   1      45.232   7.680  49.876  1.00  0.00    +0.000 H 
ATOM    124  H20 UNL A   1      44.912   6.483  48.645  1.00  0.00    +0.000 H 
ATOM    125  H21 UNL A   1      46.398   6.418  49.560  1.00  0.00    +0.000 H 
ATOM     15  C14 UNL A   1      45.355   6.652  49.604  1.00  0.00    +0.000 C 
ENDBRANCH   14   15
BRANCH   14   16
ATOM    126  H22 UNL A   1      42.649   5.196  51.164  1.00  0.00    +0.000 H 
ATOM    127  H23 UNL A   1      42.911   5.992  49.524  1.00  0.00    +0.000 H 
ATOM     16  C15 UNL A   1      43.090   5.975  50.578  1.00  0.00    +0.000 C 
BRANCH   16   17
ATOM     17  C16 UNL A   1      42.427   7.302  51.048  1.00  0.00    +0.000 C 
ATOM    129  H25 UNL A   1      43.252   7.915  51.346  1.00  0.00    +0.000 H 
ATOM    128  H24 UNL A   1      41.838   7.666  50.232  1.00  0.00    +0.000 H 
BRANCH   17   18
ATOM     18  C17 UNL A   1      41.521   7.273  52.279  1.00  0.00    +0.000 C 
ATOM    130  H26 UNL A   1      40.794   6.541  52.274  1.00  0.00    +0.000 H 
BRANCH   18   19
ATOM     19  C18 UNL A   1      41.536   8.070  53.377  1.00  0.00    +0.000 C 
BRANCH   19   20
ATOM    133  H29 UNL A   1      42.328  10.037  53.320  1.00  0.00    +0.000 H 
ATOM    131  H27 UNL A   1      40.771   9.910  54.105  1.00  0.00    +0.000 H 
ATOM     20  C19 UNL A   1      41.367   9.567  53.284  1.00  0.00    +0.000 C 
ATOM    132  H28 UNL A   1      40.883   9.816  52.363  1.00  0.00    +0.000 H 
ENDBRANCH   19   20
BRANCH   19   21
ATOM     21  C20 UNL A   1      41.782   7.656  54.799  1.00  0.00    +0.000 C 
ATOM    134  H30 UNL A   1      40.973   7.992  55.412  1.00  0.00    +0.000 H 
ATOM    135  H31 UNL A   1      42.696   8.091  55.144  1.00  0.00    +0.000 H 
ATOM    136  H32 UNL A   1      41.851   6.589  54.852  1.00  0.00    +0.000 H 
ENDBRANCH   19   21
ENDBRANCH   18   19
ENDBRANCH   17   18
ENDBRANCH   16   17
ENDBRANCH   14   16
ENDBRANCH   13   14
BRANCH   24   25
ATOM     25  C24 UNL A   1      49.153   6.318  54.249  1.00  0.00    +0.000 C 
ATOM    141  H37 UNL A   1      50.010   6.877  53.936  1.00  0.00    +0.000 H 
ATOM    142  H38 UNL A   1      49.425   5.290  54.377  1.00  0.00    +0.000 H 
ATOM    143  H39 UNL A   1      48.792   6.709  55.177  1.00  0.00    +0.000 H 
ENDBRANCH   24   25
ENDBRANCH   28   27
ENDBRANCH   29   28
ENDBRANCH   30   29
ENDBRANCH   32   30
ENDBRANCH   33   32
ENDBRANCH   34   33
ENDBRANCH   35   34
ENDBRANCH   36   35
ENDBRANCH   37   36
ENDBRANCH   38   37
ENDBRANCH   39   38
ENDBRANCH   40   39
ENDBRANCH   42   40
ENDBRANCH   46   45
BRANCH   50   51
ATOM     51  C45 UNL A   1      43.847  13.553  45.482  1.00  0.00    +0.000 C 
ATOM     52  C46 UNL A   1      43.277  13.537  44.198  1.00  0.00    +0.000 C 
ATOM     53  F1  UNL A   1      42.925  14.686  43.601  1.00  0.00    +0.000 F 
ATOM     54  C47 UNL A   1      43.004  12.338  43.547  1.00  0.00    +0.000 C 
ATOM     55  F2  UNL A   1      42.391  12.349  42.355  1.00  0.00    +0.000 F 
ATOM     56  C48 UNL A   1      43.341  11.131  44.142  1.00  0.00    +0.000 C 
ATOM     57  F3  UNL A   1      43.080   9.977  43.514  1.00  0.00    +0.000 F 
ATOM     58  C49 UNL A   1      43.938  11.123  45.394  1.00  0.00    +0.000 C 
ATOM     59  F4  UNL A   1      44.273   9.959  45.966  1.00  0.00    +0.000 F 
ATOM     60  C50 UNL A   1      44.176  12.320  46.065  1.00  0.00    +0.000 C 
ATOM     61  F5  UNL A   1      44.722  12.275  47.290  1.00  0.00    +0.000 F 
ENDBRANCH   50   51
BRANCH   67   68
ATOM     68  C56 UNL A   1      40.905  17.495  50.750  1.00  0.00    +0.000 C 
ATOM     69  C57 UNL A   1      39.737  18.248  50.565  1.00  0.00    +0.000 C 
ATOM     70  F6  UNL A   1      39.668  19.155  49.580  1.00  0.00    +0.000 F 
ATOM     71  C58 UNL A   1      38.646  18.087  51.412  1.00  0.00    +0.000 C 
ATOM     72  F7  UNL A   1      37.552  18.844  51.243  1.00  0.00    +0.000 F 
ATOM     73  C59 UNL A   1      38.689  17.149  52.433  1.00  0.00    +0.000 C 
ATOM     74  F8  UNL A   1      37.629  16.983  53.237  1.00  0.00    +0.000 F 
ATOM     75  C60 UNL A   1      39.829  16.384  52.624  1.00  0.00    +0.000 C 
ATOM     76  F9  UNL A   1      39.864  15.462  53.596  1.00  0.00    +0.000 F 
ATOM     77  C61 UNL A   1      40.935  16.565  51.801  1.00  0.00    +0.000 C 
ATOM     78  F10 UNL A   1      42.025  15.813  52.008  1.00  0.00    +0.000 F 
ENDBRANCH   67   68
BRANCH   82   83
ATOM     83  C65 UNL A   1      45.839  22.362  49.921  1.00  0.00    +0.000 C 
ATOM     84  C66 UNL A   1      45.355  23.556  49.367  1.00  0.00    +0.000 C 
ATOM     85  F11 UNL A   1      44.646  23.526  48.230  1.00  0.00    +0.000 F 
ATOM     86  C67 UNL A   1      45.631  24.789  49.955  1.00  0.00    +0.000 C 
ATOM     87  F12 UNL A   1      45.196  25.916  49.378  1.00  0.00    +0.000 F 
ATOM     88  C68 UNL A   1      46.369  24.851  51.128  1.00  0.00    +0.000 C 
ATOM     89  F13 UNL A   1      46.632  26.036  51.694  1.00  0.00    +0.000 F 
ATOM     90  C69 UNL A   1      46.839  23.682  51.708  1.00  0.00    +0.000 C 
ATOM     91  F14 UNL A   1      47.539  23.737  52.848  1.00  0.00    +0.000 F 
ATOM     92  C70 UNL A   1      46.587  22.451  51.105  1.00  0.00    +0.000 C 
ATOM     93  F15 UNL A   1      47.065  21.338  51.681  1.00  0.00    +0.000 F 
ENDBRANCH   82   83
TORSDOF 30
ENDMDL
MODEL 10
REMARK VINA RESULT:      -5.7     22.729     28.876
ROOT
ATOM    166  H62 UNL A   1      46.377  16.128  41.833  1.00  0.00    +0.000 H 
ATOM    167  H63 UNL A   1      44.997  14.043  42.570  1.00  0.00    +0.000 H 
ATOM    168  H64 UNL A   1      44.727  16.892  45.558  1.00  0.00    +0.000 H 
ATOM    169  H65 UNL A   1      42.637  18.549  51.403  1.00  0.00    +0.000 H 
ATOM    170  H66 UNL A   1      44.040  20.548  50.696  1.00  0.00    +0.000 H 
ATOM    171  H67 UNL A   1      44.181  17.750  47.627  1.00  0.00    +0.000 H 
ATOM    172  H68 UNL A   1      41.486  13.826  49.087  1.00  0.00    +0.000 H 
ATOM    173  H69 UNL A   1      42.284  12.682  46.942  1.00  0.00    +0.000 H 
ATOM     46  C41 UNL A   1      45.318  20.233  48.163  1.00  0.00    +0.000 C 
ATOM     47  C42 UNL A   1      45.813  19.898  46.781  1.00  0.00    +0.000 C 
ATOM     48  N3  UNL A   1      45.517  18.882  46.015  1.00  0.00    +0.000 N 
ATOM    175  H71 UNL A   1      47.180  21.699  46.563  1.00  0.00    +0.000 H 
ATOM     49  C43 UNL A   1      46.160  19.129  44.809  1.00  0.00    +0.000 C 
ATOM    174  H70 UNL A   1      47.200  20.941  44.113  1.00  0.00    +0.000 H 
ATOM     50  C44 UNL A   1      46.278  18.315  43.736  1.00  0.00    +0.000 C 
ATOM     62  C51 UNL A   1      45.729  16.991  43.699  1.00  0.00    +0.000 C 
ATOM     63  C52 UNL A   1      45.847  16.032  42.713  1.00  0.00    +0.000 C 
ATOM     64  C53 UNL A   1      45.121  14.909  43.118  1.00  0.00    +0.000 C 
ATOM     65  C54 UNL A   1      44.594  15.149  44.379  1.00  0.00    +0.000 C 
ATOM     66  N4  UNL A   1      44.967  16.436  44.718  1.00  0.00    +0.000 N 
ATOM     67  C55 UNL A   1      43.813  14.267  45.208  1.00  0.00    +0.000 C 
ATOM     79  C62 UNL A   1      43.310  14.562  46.433  1.00  0.00    +0.000 C 
ATOM     80  N5  UNL A   1      43.428  15.728  47.175  1.00  0.00    +0.000 N 
ATOM     81  C63 UNL A   1      42.752  15.525  48.282  1.00  0.00    +0.000 C 
ATOM     82  C64 UNL A   1      42.566  16.439  49.466  1.00  0.00    +0.000 C 
ATOM     94  C71 UNL A   1      43.185  17.633  49.452  1.00  0.00    +0.000 C 
ATOM     95  C72 UNL A   1      43.152  18.636  50.513  1.00  0.00    +0.000 C 
ATOM     96  C73 UNL A   1      43.900  19.689  50.144  1.00  0.00    +0.000 C 
ATOM     97  C74 UNL A   1      44.486  19.417  48.830  1.00  0.00    +0.000 C 
ATOM     98  N6  UNL A   1      43.985  18.191  48.486  1.00  0.00    +0.000 N 
ATOM     99  C75 UNL A   1      42.101  14.211  48.352  1.00  0.00    +0.000 C 
ATOM    100  C76 UNL A   1      42.509  13.649  47.222  1.00  0.00    +0.000 C 
ATOM    101  C77 UNL A   1      46.774  20.430  44.903  1.00  0.00    +0.000 C 
ATOM    102  C78 UNL A   1      46.716  20.878  46.146  1.00  0.00    +0.000 C 
ENDROOT
BRANCH   46   45
ATOM    164  H60 UNL A   1      44.890  24.793  48.802  1.00  0.00    +0.000 H 
ATOM    165  H61 UNL A   1      44.400  22.737  47.588  1.00  0.00    +0.000 H 
ATOM    103  C79 UNL A   1      46.647  21.520  49.784  1.00  0.00    +0.000 C 
ATOM    104  C80 UNL A   1      46.820  22.651  50.551  1.00  0.00    +0.000 C 
ATOM     42  C37 UNL A   1      46.189  23.843  50.175  1.00  0.00    +0.000 C 
ATOM     43  C38 UNL A   1      45.327  23.901  49.083  1.00  0.00    +0.000 C 
ATOM     44  C39 UNL A   1      45.067  22.728  48.377  1.00  0.00    +0.000 C 
ATOM     45  C40 UNL A   1      45.714  21.534  48.738  1.00  0.00    +0.000 C 
ATOM    176  H72 UNL A   1      47.197  20.670  49.978  1.00  0.00    +0.000 H 
ATOM    177  H73 UNL A   1      47.412  22.621  51.397  1.00  0.00    +0.000 H 
BRANCH   42   40
ATOM     41  O3  UNL A   1      47.670  25.206  51.416  1.00  0.00    +0.000 O 
ATOM     40  C36 UNL A   1      46.603  25.081  50.875  1.00  0.00    +0.000 C 
BRANCH   40   39
ATOM    163  H59 UNL A   1      45.861  26.955  50.443  1.00  0.00    +0.000 H 
ATOM     39  N2  UNL A   1      45.650  26.082  50.844  1.00  0.00    +0.000 N 
BRANCH   39   38
ATOM    161  H57 UNL A   1      43.746  26.725  51.352  1.00  0.00    +0.000 H 
ATOM    162  H58 UNL A   1      43.836  25.063  50.866  1.00  0.00    +0.000 H 
ATOM     38  C35 UNL A   1      44.339  25.836  51.408  1.00  0.00    +0.000 C 
BRANCH   38   37
ATOM     37  C34 UNL A   1      44.528  25.435  52.849  1.00  0.00    +0.000 C 
ATOM    159  H55 UNL A   1      45.578  25.362  53.045  1.00  0.00    +0.000 H 
ATOM    160  H56 UNL A   1      44.054  26.185  53.448  1.00  0.00    +0.000 H 
BRANCH   37   36
ATOM     36  C33 UNL A   1      43.855  24.056  53.218  1.00  0.00    +0.000 C 
ATOM    157  H53 UNL A   1      44.562  23.545  53.838  1.00  0.00    +0.000 H 
ATOM    158  H54 UNL A   1      42.917  24.388  53.610  1.00  0.00    +0.000 H 
BRANCH   36   35
ATOM     35  C32 UNL A   1      43.346  22.933  52.095  1.00  0.00    +0.000 C 
ATOM    156  H52 UNL A   1      43.013  22.219  52.818  1.00  0.00    +0.000 H 
ATOM    155  H51 UNL A   1      44.157  22.908  51.397  1.00  0.00    +0.000 H 
BRANCH   35   34
ATOM    153  H49 UNL A   1      41.180  23.436  51.479  1.00  0.00    +0.000 H 
ATOM     34  C31 UNL A   1      41.869  22.767  51.009  1.00  0.00    +0.000 C 
ATOM    154  H50 UNL A   1      42.459  22.764  50.116  1.00  0.00    +0.000 H 
BRANCH   34   33
ATOM     33  C30 UNL A   1      40.582  21.267  50.292  1.00  0.00    +0.000 C 
ATOM    151  H47 UNL A   1      41.073  20.965  49.390  1.00  0.00    +0.000 H 
ATOM    152  H48 UNL A   1      40.443  20.831  51.259  1.00  0.00    +0.000 H 
BRANCH   33   32
ATOM    150  H46 UNL A   1      38.752  21.929  49.478  1.00  0.00    +0.000 H 
ATOM     32  N1  UNL A   1      39.115  21.125  49.915  1.00  0.00    +0.000 N 
BRANCH   32   30
ATOM     30  C29 UNL A   1      38.194  20.137  50.047  1.00  0.00    +0.000 C 
ATOM     31  O2  UNL A   1      37.413  20.024  49.092  1.00  0.00    +0.000 O 
BRANCH   30   29
ATOM    149  H45 UNL A   1      39.060  18.744  51.202  1.00  0.00    +0.000 H 
ATOM    148  H44 UNL A   1      37.204  18.590  51.015  1.00  0.00    +0.000 H 
ATOM     29  C28 UNL A   1      38.079  19.171  51.213  1.00  0.00    +0.000 C 
BRANCH   29   28
ATOM    146  H42 UNL A   1      38.310  18.741  53.272  1.00  0.00    +0.000 H 
ATOM    147  H43 UNL A   1      38.568  20.459  52.775  1.00  0.00    +0.000 H 
ATOM     28  C27 UNL A   1      37.975  19.572  52.690  1.00  0.00    +0.000 C 
BRANCH   28   27
ATOM      3  C3  UNL A   1      36.412  21.517  53.446  1.00  0.00    +0.000 C 
ATOM      4  C4  UNL A   1      36.160  21.922  54.918  1.00  0.00    +0.000 C 
ATOM      6  C5  UNL A   1      35.368  20.892  55.725  1.00  0.00    +0.000 C 
ATOM      7  C6  UNL A   1      36.172  19.552  55.764  1.00  0.00    +0.000 C 
ATOM      8  C7  UNL A   1      35.946  18.799  54.054  1.00  0.00    +0.000 C 
ATOM      9  C8  UNL A   1      36.129  16.899  53.718  1.00  0.00    +0.000 C 
ATOM     10  C9  UNL A   1      36.527  15.713  55.204  1.00  0.00    +0.000 C 
ATOM     11  C10 UNL A   1      36.829  16.441  57.007  1.00  0.00    +0.000 C 
ATOM    139  H35 UNL A   1      37.628  19.658  58.389  1.00  0.00    +0.000 H 
ATOM    140  H36 UNL A   1      36.707  18.491  59.376  1.00  0.00    +0.000 H 
ATOM     13  C12 UNL A   1      38.444  16.515  57.561  1.00  0.00    +0.000 C 
ATOM    137  H33 UNL A   1      39.368  18.297  58.355  1.00  0.00    +0.000 H 
ATOM    144  H40 UNL A   1      34.416  19.939  52.899  1.00  0.00    +0.000 H 
ATOM    145  H41 UNL A   1      34.953  18.912  51.908  1.00  0.00    +0.000 H 
ATOM    138  H34 UNL A   1      38.494  17.303  59.548  1.00  0.00    +0.000 H 
ATOM     22  C21 UNL A   1      38.491  17.722  58.563  1.00  0.00    +0.000 C 
ATOM     23  C22 UNL A   1      37.275  18.652  58.483  1.00  0.00    +0.000 C 
ATOM     24  C23 UNL A   1      36.326  18.360  57.298  1.00  0.00    +0.000 C 
ATOM     26  C25 UNL A   1      35.310  19.358  52.812  1.00  0.00    +0.000 C 
ATOM     27  C26 UNL A   1      36.620  19.967  53.204  1.00  0.00    +0.000 C 
ATOM    108  H4  UNL A   1      35.483  21.697  52.946  1.00  0.00    +0.000 H 
ATOM    109  H5  UNL A   1      37.142  22.003  55.340  1.00  0.00    +0.000 H 
ATOM    111  H7  UNL A   1      34.418  20.728  55.263  1.00  0.00    +0.000 H 
ATOM    112  H8  UNL A   1      35.216  21.251  56.722  1.00  0.00    +0.000 H 
ATOM    113  H9  UNL A   1      37.171  19.829  56.026  1.00  0.00    +0.000 H 
ATOM    114  H10 UNL A   1      36.916  16.782  53.004  1.00  0.00    +0.000 H 
ATOM    115  H11 UNL A   1      35.151  16.599  53.405  1.00  0.00    +0.000 H 
ATOM    116  H12 UNL A   1      37.412  15.173  54.938  1.00  0.00    +0.000 H 
ATOM    117  H13 UNL A   1      35.620  15.156  55.318  1.00  0.00    +0.000 H 
ATOM    121  H17 UNL A   1      38.599  15.502  57.868  1.00  0.00    +0.000 H 
BRANCH    3    2
ATOM      2  C2  UNL A   1      37.411  22.429  52.735  1.00  0.00    +0.000 C 
ATOM    107  H3  UNL A   1      37.234  22.604  51.734  1.00  0.00    +0.000 H 
BRANCH    2    1
ATOM      1  C1  UNL A   1      38.492  23.031  53.257  1.00  0.00    +0.000 C 
ATOM    106  H2  UNL A   1      38.977  22.612  54.064  1.00  0.00    +0.000 H 
ATOM    105  H1  UNL A   1      38.838  23.914  52.849  1.00  0.00    +0.000 H 
ENDBRANCH    2    1
ENDBRANCH    3    2
BRANCH    4    5
ATOM      5  O1  UNL A   1      35.445  23.162  55.000  1.00  0.00    +0.000 O 
ATOM    110  H6  UNL A   1      35.046  23.248  55.880  1.00  0.00    +0.000 H 
ENDBRANCH    4    5
BRANCH   11   12
ATOM     12  C11 UNL A   1      36.442  15.157  57.862  1.00  0.00    +0.000 C 
ATOM    118  H14 UNL A   1      36.743  15.302  58.879  1.00  0.00    +0.000 H 
ATOM    119  H15 UNL A   1      36.937  14.299  57.462  1.00  0.00    +0.000 H 
ATOM    120  H16 UNL A   1      35.383  15.009  57.822  1.00  0.00    +0.000 H 
ENDBRANCH   11   12
BRANCH   13   14
ATOM    122  H18 UNL A   1      39.314  16.037  55.891  1.00  0.00    +0.000 H 
ATOM     14  C13 UNL A   1      39.839  16.047  56.824  1.00  0.00    +0.000 C 
BRANCH   14   15
ATOM    123  H19 UNL A   1      41.071  14.286  56.768  1.00  0.00    +0.000 H 
ATOM    124  H20 UNL A   1      39.619  14.108  57.725  1.00  0.00    +0.000 H 
ATOM    125  H21 UNL A   1      40.967  15.031  58.345  1.00  0.00    +0.000 H 
ATOM     15  C14 UNL A   1      40.418  14.770  57.464  1.00  0.00    +0.000 C 
ENDBRANCH   14   15
BRANCH   14   16
ATOM    126  H22 UNL A   1      41.767  16.232  55.874  1.00  0.00    +0.000 H 
ATOM    127  H23 UNL A   1      41.283  17.558  57.056  1.00  0.00    +0.000 H 
ATOM     16  C15 UNL A   1      41.034  16.924  56.231  1.00  0.00    +0.000 C 
BRANCH   16   17
ATOM     17  C16 UNL A   1      40.804  17.948  55.083  1.00  0.00    +0.000 C 
ATOM    129  H25 UNL A   1      40.241  17.403  54.355  1.00  0.00    +0.000 H 
ATOM    128  H24 UNL A   1      40.320  18.801  55.513  1.00  0.00    +0.000 H 
BRANCH   17   18
ATOM     18  C17 UNL A   1      42.016  18.463  54.307  1.00  0.00    +0.000 C 
ATOM    130  H26 UNL A   1      42.450  17.782  53.664  1.00  0.00    +0.000 H 
BRANCH   18   19
ATOM     19  C18 UNL A   1      42.603  19.687  54.340  1.00  0.00    +0.000 C 
BRANCH   19   20
ATOM    133  H29 UNL A   1      44.488  18.957  53.698  1.00  0.00    +0.000 H 
ATOM    131  H27 UNL A   1      44.571  20.393  54.691  1.00  0.00    +0.000 H 
ATOM     20  C19 UNL A   1      44.032  19.903  53.907  1.00  0.00    +0.000 C 
ATOM    132  H28 UNL A   1      44.051  20.510  53.026  1.00  0.00    +0.000 H 
ENDBRANCH   19   20
BRANCH   19   21
ATOM     21  C20 UNL A   1      42.009  20.967  54.851  1.00  0.00    +0.000 C 
ATOM    134  H30 UNL A   1      40.952  20.850  54.963  1.00  0.00    +0.000 H 
ATOM    135  H31 UNL A   1      42.209  21.755  54.156  1.00  0.00    +0.000 H 
ATOM    136  H32 UNL A   1      42.443  21.208  55.799  1.00  0.00    +0.000 H 
ENDBRANCH   19   21
ENDBRANCH   18   19
ENDBRANCH   17   18
ENDBRANCH   16   17
ENDBRANCH   14   16
ENDBRANCH   13   14
BRANCH   24   25
ATOM     25  C24 UNL A   1      35.016  19.051  57.856  1.00  0.00    +0.000 C 
ATOM    141  H37 UNL A   1      34.384  19.329  57.040  1.00  0.00    +0.000 H 
ATOM    142  H38 UNL A   1      35.284  19.926  58.413  1.00  0.00    +0.000 H 
ATOM    143  H39 UNL A   1      34.496  18.367  58.494  1.00  0.00    +0.000 H 
ENDBRANCH   24   25
ENDBRANCH   28   27
ENDBRANCH   29   28
ENDBRANCH   30   29
ENDBRANCH   32   30
ENDBRANCH   33   32
ENDBRANCH   34   33
ENDBRANCH   35   34
ENDBRANCH   36   35
ENDBRANCH   37   36
ENDBRANCH   38   37
ENDBRANCH   39   38
ENDBRANCH   40   39
ENDBRANCH   42   40
ENDBRANCH   46   45
BRANCH   50   51
ATOM     51  C45 UNL A   1      47.046  18.830  42.553  1.00  0.00    +0.000 C 
ATOM     52  C46 UNL A   1      46.405  19.442  41.463  1.00  0.00    +0.000 C 
ATOM     53  F1  UNL A   1      45.070  19.575  41.452  1.00  0.00    +0.000 F 
ATOM     54  C47 UNL A   1      47.125  19.862  40.349  1.00  0.00    +0.000 C 
ATOM     55  F2  UNL A   1      46.481  20.375  39.291  1.00  0.00    +0.000 F 
ATOM     56  C48 UNL A   1      48.505  19.726  40.321  1.00  0.00    +0.000 C 
ATOM     57  F3  UNL A   1      49.198  20.133  39.249  1.00  0.00    +0.000 F 
ATOM     58  C49 UNL A   1      49.163  19.158  41.401  1.00  0.00    +0.000 C 
ATOM     59  F4  UNL A   1      50.498  19.034  41.379  1.00  0.00    +0.000 F 
ATOM     60  C50 UNL A   1      48.442  18.700  42.501  1.00  0.00    +0.000 C 
ATOM     61  F5  UNL A   1      49.106  18.123  43.512  1.00  0.00    +0.000 F 
ENDBRANCH   50   51
BRANCH   67   68
ATOM     68  C56 UNL A   1      43.548  12.894  44.669  1.00  0.00    +0.000 C 
ATOM     69  C57 UNL A   1      42.324  12.565  44.069  1.00  0.00    +0.000 C 
ATOM     70  F6  UNL A   1      41.325  13.458  44.040  1.00  0.00    +0.000 F 
ATOM     71  C58 UNL A   1      42.119  11.305  43.518  1.00  0.00    +0.000 C 
ATOM     72  F7  UNL A   1      40.929  10.996  42.983  1.00  0.00    +0.000 F 
ATOM     73  C59 UNL A   1      43.140  10.366  43.527  1.00  0.00    +0.000 C 
ATOM     74  F8  UNL A   1      42.944   9.157  42.980  1.00  0.00    +0.000 F 
ATOM     75  C60 UNL A   1      44.362  10.675  44.103  1.00  0.00    +0.000 C 
ATOM     76  F9  UNL A   1      45.356   9.777  44.094  1.00  0.00    +0.000 F 
ATOM     77  C61 UNL A   1      44.561  11.923  44.684  1.00  0.00    +0.000 C 
ATOM     78  F10 UNL A   1      45.752  12.197  45.236  1.00  0.00    +0.000 F 
ENDBRANCH   67   68
BRANCH   82   83
ATOM     83  C65 UNL A   1      41.768  16.024  50.649  1.00  0.00    +0.000 C 
ATOM     84  C66 UNL A   1      40.375  16.186  50.672  1.00  0.00    +0.000 C 
ATOM     85  F11 UNL A   1      39.749  16.736  49.623  1.00  0.00    +0.000 F 
ATOM     86  C67 UNL A   1      39.625  15.821  51.788  1.00  0.00    +0.000 C 
ATOM     87  F12 UNL A   1      38.302  16.032  51.801  1.00  0.00    +0.000 F 
ATOM     88  C68 UNL A   1      40.246  15.256  52.891  1.00  0.00    +0.000 C 
ATOM     89  F13 UNL A   1      39.525  14.904  53.964  1.00  0.00    +0.000 F 
ATOM     90  C69 UNL A   1      41.621  15.065  52.883  1.00  0.00    +0.000 C 
ATOM     91  F14 UNL A   1      42.223  14.505  53.941  1.00  0.00    +0.000 F 
ATOM     92  C70 UNL A   1      42.376  15.455  51.778  1.00  0.00    +0.000 C 
ATOM     93  F15 UNL A   1      43.703  15.268  51.804  1.00  0.00    +0.000 F 
ENDBRANCH   82   83
TORSDOF 30
ENDMDL
