MODEL 1
REMARK VINA RESULT:     -11.1      0.000      0.000
ROOT
ATOM     19  C15 UNL A   1      38.128  30.178  29.686  1.00  0.00    +0.000 C 
ATOM     20  C16 UNL A   1      39.145  29.208  29.155  1.00  0.00    +0.000 C 
ATOM     21  N3  UNL A   1      40.221  28.741  29.737  1.00  0.00    +0.000 N 
ATOM     22  C17 UNL A   1      40.782  27.848  28.834  1.00  0.00    +0.000 C 
ATOM     23  C18 UNL A   1      41.927  27.136  28.957  1.00  0.00    +0.000 C 
ATOM     35  C25 UNL A   1      42.812  27.206  30.090  1.00  0.00    +0.000 C 
ATOM     36  C26 UNL A   1      44.052  26.612  30.253  1.00  0.00    +0.000 C 
ATOM     37  C27 UNL A   1      44.517  26.913  31.536  1.00  0.00    +0.000 C 
ATOM     38  C28 UNL A   1      43.584  27.727  32.158  1.00  0.00    +0.000 C 
ATOM     39  N4  UNL A   1      42.549  27.907  31.256  1.00  0.00    +0.000 N 
ATOM     40  C29 UNL A   1      43.627  28.290  33.482  1.00  0.00    +0.000 C 
ATOM     52  C36 UNL A   1      42.706  29.145  33.989  1.00  0.00    +0.000 C 
ATOM     53  N5  UNL A   1      41.558  29.644  33.392  1.00  0.00    +0.000 N 
ATOM     54  C37 UNL A   1      40.990  30.411  34.289  1.00  0.00    +0.000 C 
ATOM     55  C38 UNL A   1      39.724  31.216  34.183  1.00  0.00    +0.000 C 
ATOM     67  C45 UNL A   1      39.033  31.212  33.027  1.00  0.00    +0.000 C 
ATOM     68  C46 UNL A   1      37.787  31.931  32.787  1.00  0.00    +0.000 C 
ATOM     69  C47 UNL A   1      37.335  31.626  31.560  1.00  0.00    +0.000 C 
ATOM     70  C48 UNL A   1      38.282  30.716  30.912  1.00  0.00    +0.000 C 
ATOM     71  N6  UNL A   1      39.278  30.556  31.845  1.00  0.00    +0.000 N 
ATOM     72  C49 UNL A   1      41.711  30.472  35.568  1.00  0.00    +0.000 C 
ATOM     73  C50 UNL A   1      42.767  29.710  35.320  1.00  0.00    +0.000 C 
ATOM     74  C51 UNL A   1      39.914  27.814  27.676  1.00  0.00    +0.000 C 
ATOM     75  C52 UNL A   1      38.913  28.675  27.804  1.00  0.00    +0.000 C 
ATOM    112  H21 UNL A   1      44.548  26.045  29.547  1.00  0.00    +0.000 H 
ATOM    113  H22 UNL A   1      45.404  26.585  31.950  1.00  0.00    +0.000 H 
ATOM    114  H23 UNL A   1      41.745  28.452  31.419  1.00  0.00    +0.000 H 
ATOM    115  H24 UNL A   1      37.327  32.572  33.452  1.00  0.00    +0.000 H 
ATOM    116  H25 UNL A   1      36.460  31.976  31.141  1.00  0.00    +0.000 H 
ATOM    117  H26 UNL A   1      40.090  30.023  31.681  1.00  0.00    +0.000 H 
ATOM    118  H27 UNL A   1      41.461  30.975  36.433  1.00  0.00    +0.000 H 
ATOM    119  H28 UNL A   1      43.534  29.542  35.990  1.00  0.00    +0.000 H 
ATOM    120  H29 UNL A   1      40.055  27.200  26.859  1.00  0.00    +0.000 H 
ATOM    121  H30 UNL A   1      38.166  28.910  27.132  1.00  0.00    +0.000 H 
ENDROOT
BRANCH   19   18
ATOM     76  C53 UNL A   1      35.963  29.456  28.674  1.00  0.00    +0.000 C 
ATOM     77  C54 UNL A   1      34.757  29.738  28.034  1.00  0.00    +0.000 C 
ATOM    110  H19 UNL A   1      35.173  33.036  27.571  1.00  0.00    +0.000 H 
ATOM     15  C11 UNL A   1      34.440  31.058  27.702  1.00  0.00    +0.000 C 
ATOM     16  C12 UNL A   1      35.385  32.074  27.877  1.00  0.00    +0.000 C 
ATOM     17  C13 UNL A   1      36.616  31.780  28.469  1.00  0.00    +0.000 C 
ATOM    111  H20 UNL A   1      37.324  32.524  28.578  1.00  0.00    +0.000 H 
ATOM     18  C14 UNL A   1      36.896  30.478  28.914  1.00  0.00    +0.000 C 
ATOM    122  H31 UNL A   1      36.172  28.491  28.973  1.00  0.00    +0.000 H 
ATOM    123  H32 UNL A   1      34.101  28.975  27.806  1.00  0.00    +0.000 H 
BRANCH   15   13
ATOM     13  C10 UNL A   1      33.106  31.410  27.168  1.00  0.00    +0.000 C 
ATOM     14  O2  UNL A   1      32.740  32.582  27.171  1.00  0.00    +0.000 O 
BRANCH   13   12
ATOM     12  N2  UNL A   1      32.275  30.425  26.694  1.00  0.00    +0.000 N 
ATOM    109  H18 UNL A   1      31.593  30.108  27.328  1.00  0.00    +0.000 H 
BRANCH   12   11
ATOM     11  C9  UNL A   1      32.259  29.783  25.389  1.00  0.00    +0.000 C 
ATOM    108  H17 UNL A   1      32.945  30.310  24.759  1.00  0.00    +0.000 H 
ATOM    107  H16 UNL A   1      31.262  29.819  25.000  1.00  0.00    +0.000 H 
BRANCH   11   10
ATOM    105  H14 UNL A   1      33.222  28.175  26.376  1.00  0.00    +0.000 H 
ATOM     10  C8  UNL A   1      32.708  28.326  25.450  1.00  0.00    +0.000 C 
ATOM    106  H15 UNL A   1      31.821  27.735  25.356  1.00  0.00    +0.000 H 
BRANCH   10    9
ATOM      9  C7  UNL A   1      33.636  27.887  24.314  1.00  0.00    +0.000 C 
ATOM    103  H12 UNL A   1      33.208  28.217  23.391  1.00  0.00    +0.000 H 
ATOM    104  H13 UNL A   1      34.589  28.327  24.526  1.00  0.00    +0.000 H 
BRANCH    9    8
ATOM    101  H10 UNL A   1      33.002  25.933  23.791  1.00  0.00    +0.000 H 
ATOM    102  H11 UNL A   1      34.756  26.263  23.610  1.00  0.00    +0.000 H 
ATOM      8  C6  UNL A   1      33.879  26.379  24.212  1.00  0.00    +0.000 C 
BRANCH    8    7
ATOM     99  H8  UNL A   1      34.829  26.291  26.114  1.00  0.00    +0.000 H 
ATOM    100  H9  UNL A   1      33.237  25.489  26.010  1.00  0.00    +0.000 H 
ATOM      7  C5  UNL A   1      34.181  25.664  25.538  1.00  0.00    +0.000 C 
BRANCH    7    6
ATOM     97  H6  UNL A   1      35.896  24.437  25.205  1.00  0.00    +0.000 H 
ATOM     98  H7  UNL A   1      34.697  23.742  26.289  1.00  0.00    +0.000 H 
ATOM      6  C4  UNL A   1      34.850  24.297  25.387  1.00  0.00    +0.000 C 
BRANCH    6    5
ATOM      5  N1  UNL A   1      34.274  23.554  24.287  1.00  0.00    +0.000 N 
ATOM     96  H5  UNL A   1      34.317  24.010  23.416  1.00  0.00    +0.000 H 
BRANCH    5    3
ATOM      3  C3  UNL A   1      33.682  22.326  24.258  1.00  0.00    +0.000 C 
ATOM      4  O1  UNL A   1      34.421  21.362  24.478  1.00  0.00    +0.000 O 
BRANCH    3    2
ATOM      2  C2  UNL A   1      32.182  22.188  23.927  1.00  0.00    +0.000 C 
ATOM     95  H4  UNL A   1      31.799  21.495  24.646  1.00  0.00    +0.000 H 
BRANCH    2    1
ATOM      1  C1  UNL A   1      31.931  21.615  22.528  1.00  0.00    +0.000 C 
ATOM     92  H1  UNL A   1      32.116  22.371  21.794  1.00  0.00    +0.000 H 
ATOM     93  H2  UNL A   1      30.915  21.288  22.454  1.00  0.00    +0.000 H 
ATOM     94  H3  UNL A   1      32.585  20.785  22.359  1.00  0.00    +0.000 H 
ENDBRANCH    2    1
BRANCH    2   78
ATOM    135  H44 UNL A   1      29.967  25.623  26.249  1.00  0.00    +0.000 H 
ATOM     78  C55 UNL A   1      31.439  23.520  24.068  1.00  0.00    +0.000 C 
ATOM     79  C56 UNL A   1      31.224  24.297  22.911  1.00  0.00    +0.000 C 
ATOM     80  C57 UNL A   1      30.575  25.530  22.966  1.00  0.00    +0.000 C 
ATOM     81  C58 UNL A   1      30.135  26.042  24.188  1.00  0.00    +0.000 C 
ATOM     89  C65 UNL A   1      30.313  25.269  25.343  1.00  0.00    +0.000 C 
ATOM     90  C66 UNL A   1      30.955  24.022  25.287  1.00  0.00    +0.000 C 
ATOM     91 Br1  UNL A   1      31.115  23.084  26.933  1.00  0.00    +0.000 Br
ATOM    124  H33 UNL A   1      31.553  23.943  22.000  1.00  0.00    +0.000 H 
ATOM    125  H34 UNL A   1      30.420  26.067  22.100  1.00  0.00    +0.000 H 
BRANCH   81   82
ATOM     82  C59 UNL A   1      29.509  27.414  24.258  1.00  0.00    +0.000 C 
ATOM    126  H35 UNL A   1      30.229  28.080  24.687  1.00  0.00    +0.000 H 
ATOM    127  H36 UNL A   1      28.620  27.293  24.841  1.00  0.00    +0.000 H 
BRANCH   82   83
ATOM    129  H38 UNL A   1      27.063  28.271  23.713  1.00  0.00    +0.000 H 
ATOM    130  H39 UNL A   1      27.139  28.445  22.000  1.00  0.00    +0.000 H 
ATOM    131  H40 UNL A   1      27.964  30.399  24.128  1.00  0.00    +0.000 H 
ATOM    132  H41 UNL A   1      27.060  30.726  22.704  1.00  0.00    +0.000 H 
ATOM    133  H42 UNL A   1      29.712  31.252  22.841  1.00  0.00    +0.000 H 
ATOM    134  H43 UNL A   1      29.032  30.791  21.353  1.00  0.00    +0.000 H 
ATOM     83  C60 UNL A   1      29.049  28.016  22.925  1.00  0.00    +0.000 C 
ATOM     84  C61 UNL A   1      27.657  28.657  22.911  1.00  0.00    +0.000 C 
ATOM     85  C62 UNL A   1      27.877  30.155  23.090  1.00  0.00    +0.000 C 
ATOM     86  C63 UNL A   1      29.177  30.461  22.360  1.00  0.00    +0.000 C 
ATOM     87  C64 UNL A   1      29.926  29.158  22.461  1.00  0.00    +0.000 C 
ATOM     88  O3  UNL A   1      31.111  29.032  22.175  1.00  0.00    +0.000 O 
ATOM    128  H37 UNL A   1      29.081  27.144  22.305  1.00  0.00    +0.000 H 
ENDBRANCH   82   83
ENDBRANCH   81   82
ENDBRANCH    2   78
ENDBRANCH    3    2
ENDBRANCH    5    3
ENDBRANCH    6    5
ENDBRANCH    7    6
ENDBRANCH    8    7
ENDBRANCH    9    8
ENDBRANCH   10    9
ENDBRANCH   11   10
ENDBRANCH   12   11
ENDBRANCH   13   12
ENDBRANCH   15   13
ENDBRANCH   19   18
BRANCH   23   24
ATOM     33  C24 UNL A   1      43.200  26.649  26.842  1.00  0.00    +0.000 C 
ATOM     34  F5  UNL A   1      43.776  27.858  26.927  1.00  0.00    +0.000 F 
ATOM     24  C19 UNL A   1      42.310  26.218  27.836  1.00  0.00    +0.000 C 
ATOM     25  C20 UNL A   1      41.730  24.949  27.697  1.00  0.00    +0.000 C 
ATOM     26  F1  UNL A   1      40.879  24.490  28.626  1.00  0.00    +0.000 F 
ATOM     27  C21 UNL A   1      42.035  24.140  26.604  1.00  0.00    +0.000 C 
ATOM     28  F2  UNL A   1      41.486  22.922  26.500  1.00  0.00    +0.000 F 
ATOM     29  C22 UNL A   1      42.904  24.594  25.623  1.00  0.00    +0.000 C 
ATOM     30  F3  UNL A   1      43.181  23.822  24.563  1.00  0.00    +0.000 F 
ATOM     31  C23 UNL A   1      43.486  25.848  25.740  1.00  0.00    +0.000 C 
ATOM     32  F4  UNL A   1      44.317  26.292  24.786  1.00  0.00    +0.000 F 
ENDBRANCH   23   24
BRANCH   40   41
ATOM     41  C30 UNL A   1      44.777  27.917  34.367  1.00  0.00    +0.000 C 
ATOM     42  C31 UNL A   1      44.728  26.776  35.181  1.00  0.00    +0.000 C 
ATOM     43  F6  UNL A   1      43.617  26.024  35.224  1.00  0.00    +0.000 F 
ATOM     44  C32 UNL A   1      45.810  26.424  35.983  1.00  0.00    +0.000 C 
ATOM     45  F7  UNL A   1      45.727  25.352  36.784  1.00  0.00    +0.000 F 
ATOM     46  C33 UNL A   1      46.968  27.186  35.964  1.00  0.00    +0.000 C 
ATOM     47  F8  UNL A   1      48.011  26.841  36.732  1.00  0.00    +0.000 F 
ATOM     48  C34 UNL A   1      47.042  28.311  35.155  1.00  0.00    +0.000 C 
ATOM     49  F9  UNL A   1      48.164  29.043  35.129  1.00  0.00    +0.000 F 
ATOM     50  C35 UNL A   1      45.953  28.681  34.372  1.00  0.00    +0.000 C 
ATOM     51  F10 UNL A   1      46.049  29.778  33.608  1.00  0.00    +0.000 F 
ENDBRANCH   40   41
BRANCH   55   56
ATOM     65  C44 UNL A   1      38.390  31.429  36.308  1.00  0.00    +0.000 C 
ATOM     66  F15 UNL A   1      37.993  30.155  36.180  1.00  0.00    +0.000 F 
ATOM     56  C39 UNL A   1      39.231  32.003  35.343  1.00  0.00    +0.000 C 
ATOM     57  C40 UNL A   1      39.613  33.339  35.522  1.00  0.00    +0.000 C 
ATOM     58  F11 UNL A   1      40.436  33.924  34.638  1.00  0.00    +0.000 F 
ATOM     59  C41 UNL A   1      39.192  34.066  36.634  1.00  0.00    +0.000 C 
ATOM     60  F12 UNL A   1      39.614  35.325  36.807  1.00  0.00    +0.000 F 
ATOM     61  C42 UNL A   1      38.357  33.478  37.573  1.00  0.00    +0.000 C 
ATOM     62  F13 UNL A   1      37.955  34.176  38.644  1.00  0.00    +0.000 F 
ATOM     63  C43 UNL A   1      37.947  32.164  37.405  1.00  0.00    +0.000 C 
ATOM     64  F14 UNL A   1      37.131  31.597  38.303  1.00  0.00    +0.000 F 
ENDBRANCH   55   56
TORSDOF 19
ENDMDL
MODEL 2
REMARK VINA RESULT:     -10.9      1.174      7.461
ROOT
ATOM     19  C15 UNL A   1      37.926  29.914  29.948  1.00  0.00    +0.000 C 
ATOM     20  C16 UNL A   1      38.178  30.419  31.340  1.00  0.00    +0.000 C 
ATOM     21  N3  UNL A   1      39.199  30.190  32.127  1.00  0.00    +0.000 N 
ATOM     22  C17 UNL A   1      38.960  30.927  33.280  1.00  0.00    +0.000 C 
ATOM     23  C18 UNL A   1      39.708  30.991  34.406  1.00  0.00    +0.000 C 
ATOM     35  C25 UNL A   1      40.924  30.251  34.620  1.00  0.00    +0.000 C 
ATOM     36  C26 UNL A   1      41.687  30.161  35.772  1.00  0.00    +0.000 C 
ATOM     37  C27 UNL A   1      42.808  29.375  35.494  1.00  0.00    +0.000 C 
ATOM     38  C28 UNL A   1      42.725  28.943  34.180  1.00  0.00    +0.000 C 
ATOM     39  N4  UNL A   1      41.559  29.479  33.659  1.00  0.00    +0.000 N 
ATOM     40  C29 UNL A   1      43.644  28.113  33.448  1.00  0.00    +0.000 C 
ATOM     52  C36 UNL A   1      43.448  27.669  32.183  1.00  0.00    +0.000 C 
ATOM     53  N5  UNL A   1      42.379  27.907  31.332  1.00  0.00    +0.000 N 
ATOM     54  C37 UNL A   1      42.661  27.282  30.217  1.00  0.00    +0.000 C 
ATOM     55  C38 UNL A   1      41.853  27.189  28.951  1.00  0.00    +0.000 C 
ATOM     67  C45 UNL A   1      40.650  27.790  28.891  1.00  0.00    +0.000 C 
ATOM     68  C46 UNL A   1      39.767  27.795  27.729  1.00  0.00    +0.000 C 
ATOM     69  C47 UNL A   1      38.700  28.564  27.994  1.00  0.00    +0.000 C 
ATOM     70  C48 UNL A   1      38.805  29.078  29.361  1.00  0.00    +0.000 C 
ATOM     71  N6  UNL A   1      39.978  28.536  29.829  1.00  0.00    +0.000 N 
ATOM     72  C49 UNL A   1      43.957  26.588  30.230  1.00  0.00    +0.000 C 
ATOM     73  C50 UNL A   1      44.379  26.827  31.463  1.00  0.00    +0.000 C 
ATOM     74  C51 UNL A   1      37.713  31.634  33.080  1.00  0.00    +0.000 C 
ATOM     75  C52 UNL A   1      37.164  31.316  31.915  1.00  0.00    +0.000 C 
ATOM    112  H21 UNL A   1      41.465  30.599  36.680  1.00  0.00    +0.000 H 
ATOM    113  H22 UNL A   1      43.571  29.154  36.154  1.00  0.00    +0.000 H 
ATOM    114  H23 UNL A   1      41.229  29.333  32.743  1.00  0.00    +0.000 H 
ATOM    115  H24 UNL A   1      39.936  27.288  26.846  1.00  0.00    +0.000 H 
ATOM    116  H25 UNL A   1      37.928  28.762  27.339  1.00  0.00    +0.000 H 
ATOM    117  H26 UNL A   1      40.304  28.668  30.748  1.00  0.00    +0.000 H 
ATOM    118  H27 UNL A   1      44.417  26.054  29.476  1.00  0.00    +0.000 H 
ATOM    119  H28 UNL A   1      45.258  26.459  31.859  1.00  0.00    +0.000 H 
ATOM    120  H29 UNL A   1      37.306  32.300  33.755  1.00  0.00    +0.000 H 
ATOM    121  H30 UNL A   1      36.261  31.618  31.516  1.00  0.00    +0.000 H 
ENDROOT
BRANCH   19   18
ATOM     76  C53 UNL A   1      35.718  29.519  28.851  1.00  0.00    +0.000 C 
ATOM     77  C54 UNL A   1      34.574  29.980  28.201  1.00  0.00    +0.000 C 
ATOM    110  H19 UNL A   1      35.402  33.221  27.931  1.00  0.00    +0.000 H 
ATOM     15  C11 UNL A   1      34.430  31.345  27.936  1.00  0.00    +0.000 C 
ATOM     16  C12 UNL A   1      35.486  32.226  28.188  1.00  0.00    +0.000 C 
ATOM     17  C13 UNL A   1      36.655  31.752  28.788  1.00  0.00    +0.000 C 
ATOM    111  H20 UNL A   1      37.445  32.397  28.954  1.00  0.00    +0.000 H 
ATOM     18  C14 UNL A   1      36.761  30.404  29.166  1.00  0.00    +0.000 C 
ATOM    122  H31 UNL A   1      35.800  28.521  29.100  1.00  0.00    +0.000 H 
ATOM    123  H32 UNL A   1      33.837  29.317  27.917  1.00  0.00    +0.000 H 
BRANCH   15   13
ATOM     13  C10 UNL A   1      33.164  31.886  27.393  1.00  0.00    +0.000 C 
ATOM     14  O2  UNL A   1      33.011  33.101  27.303  1.00  0.00    +0.000 O 
BRANCH   13   12
ATOM     12  N2  UNL A   1      32.158  31.031  27.016  1.00  0.00    +0.000 N 
ATOM    109  H18 UNL A   1      31.496  30.825  27.714  1.00  0.00    +0.000 H 
BRANCH   12   11
ATOM     11  C9  UNL A   1      31.932  30.386  25.733  1.00  0.00    +0.000 C 
ATOM    108  H17 UNL A   1      32.754  30.632  25.094  1.00  0.00    +0.000 H 
ATOM    107  H16 UNL A   1      31.004  30.737  25.330  1.00  0.00    +0.000 H 
BRANCH   11   10
ATOM    105  H14 UNL A   1      31.642  28.616  26.862  1.00  0.00    +0.000 H 
ATOM     10  C8  UNL A   1      31.871  28.865  25.847  1.00  0.00    +0.000 C 
ATOM    106  H15 UNL A   1      31.123  28.542  25.152  1.00  0.00    +0.000 H 
BRANCH   10    9
ATOM      9  C7  UNL A   1      33.160  28.135  25.458  1.00  0.00    +0.000 C 
ATOM    103  H12 UNL A   1      33.076  27.841  24.433  1.00  0.00    +0.000 H 
ATOM    104  H13 UNL A   1      33.956  28.826  25.643  1.00  0.00    +0.000 H 
BRANCH    9    8
ATOM    101  H10 UNL A   1      34.181  27.167  27.045  1.00  0.00    +0.000 H 
ATOM    102  H11 UNL A   1      32.544  26.540  26.668  1.00  0.00    +0.000 H 
ATOM      8  C6  UNL A   1      33.481  26.887  26.286  1.00  0.00    +0.000 C 
BRANCH    8    7
ATOM     99  H8  UNL A   1      33.660  25.716  24.519  1.00  0.00    +0.000 H 
ATOM    100  H9  UNL A   1      35.140  25.849  25.509  1.00  0.00    +0.000 H 
ATOM      7  C5  UNL A   1      34.079  25.709  25.503  1.00  0.00    +0.000 C 
BRANCH    7    6
ATOM     97  H6  UNL A   1      34.683  23.718  25.982  1.00  0.00    +0.000 H 
ATOM     98  H7  UNL A   1      33.618  24.465  27.166  1.00  0.00    +0.000 H 
ATOM      6  C4  UNL A   1      33.819  24.334  26.123  1.00  0.00    +0.000 C 
BRANCH    6    5
ATOM      5  N1  UNL A   1      32.676  23.695  25.509  1.00  0.00    +0.000 N 
ATOM     96  H5  UNL A   1      32.880  22.862  25.027  1.00  0.00    +0.000 H 
BRANCH    5    3
ATOM      3  C3  UNL A   1      31.361  24.056  25.490  1.00  0.00    +0.000 C 
ATOM      4  O1  UNL A   1      30.838  24.259  26.589  1.00  0.00    +0.000 O 
BRANCH    3    2
ATOM      2  C2  UNL A   1      30.596  24.155  24.155  1.00  0.00    +0.000 C 
ATOM     95  H4  UNL A   1      29.605  23.817  24.373  1.00  0.00    +0.000 H 
BRANCH    2    1
ATOM      1  C1  UNL A   1      31.180  23.249  23.065  1.00  0.00    +0.000 C 
ATOM     92  H1  UNL A   1      30.394  22.681  22.614  1.00  0.00    +0.000 H 
ATOM     93  H2  UNL A   1      31.896  22.584  23.500  1.00  0.00    +0.000 H 
ATOM     94  H3  UNL A   1      31.660  23.850  22.320  1.00  0.00    +0.000 H 
ENDBRANCH    2    1
BRANCH    2   78
ATOM    135  H44 UNL A   1      32.055  27.874  21.678  1.00  0.00    +0.000 H 
ATOM     78  C55 UNL A   1      30.532  25.594  23.635  1.00  0.00    +0.000 C 
ATOM     79  C56 UNL A   1      29.453  26.408  24.036  1.00  0.00    +0.000 C 
ATOM     80  C57 UNL A   1      29.318  27.720  23.584  1.00  0.00    +0.000 C 
ATOM     81  C58 UNL A   1      30.249  28.261  22.696  1.00  0.00    +0.000 C 
ATOM     89  C65 UNL A   1      31.344  27.477  22.312  1.00  0.00    +0.000 C 
ATOM     90  C66 UNL A   1      31.488  26.159  22.775  1.00  0.00    +0.000 C 
ATOM     91 Br1  UNL A   1      33.030  25.221  22.176  1.00  0.00    +0.000 Br
ATOM    124  H33 UNL A   1      28.746  26.024  24.681  1.00  0.00    +0.000 H 
ATOM    125  H34 UNL A   1      28.525  28.295  23.909  1.00  0.00    +0.000 H 
BRANCH   81   82
ATOM     82  C59 UNL A   1      30.055  29.652  22.143  1.00  0.00    +0.000 C 
ATOM    126  H35 UNL A   1      30.099  29.588  21.075  1.00  0.00    +0.000 H 
ATOM    127  H36 UNL A   1      30.832  30.245  22.580  1.00  0.00    +0.000 H 
BRANCH   82   83
ATOM    129  H38 UNL A   1      29.673  31.179  24.273  1.00  0.00    +0.000 H 
ATOM    130  H39 UNL A   1      27.955  31.311  24.291  1.00  0.00    +0.000 H 
ATOM    131  H40 UNL A   1      29.952  32.957  22.765  1.00  0.00    +0.000 H 
ATOM    132  H41 UNL A   1      28.592  33.522  23.650  1.00  0.00    +0.000 H 
ATOM    133  H42 UNL A   1      28.509  33.255  20.956  1.00  0.00    +0.000 H 
ATOM    134  H43 UNL A   1      27.092  33.001  21.862  1.00  0.00    +0.000 H 
ATOM     83  C60 UNL A   1      28.743  30.353  22.517  1.00  0.00    +0.000 C 
ATOM     84  C61 UNL A   1      28.817  31.370  23.661  1.00  0.00    +0.000 C 
ATOM     85  C62 UNL A   1      28.932  32.740  23.003  1.00  0.00    +0.000 C 
ATOM     86  C63 UNL A   1      28.095  32.651  21.735  1.00  0.00    +0.000 C 
ATOM     87  C64 UNL A   1      28.178  31.187  21.390  1.00  0.00    +0.000 C 
ATOM     88  O3  UNL A   1      27.806  30.720  20.319  1.00  0.00    +0.000 O 
ATOM    128  H37 UNL A   1      28.150  29.504  22.791  1.00  0.00    +0.000 H 
ENDBRANCH   82   83
ENDBRANCH   81   82
ENDBRANCH    2   78
ENDBRANCH    3    2
ENDBRANCH    5    3
ENDBRANCH    6    5
ENDBRANCH    7    6
ENDBRANCH    8    7
ENDBRANCH    9    8
ENDBRANCH   10    9
ENDBRANCH   11   10
ENDBRANCH   12   11
ENDBRANCH   13   12
ENDBRANCH   15   13
ENDBRANCH   19   18
BRANCH   23   24
ATOM     33  C24 UNL A   1      39.705  33.204  35.603  1.00  0.00    +0.000 C 
ATOM     34  F5  UNL A   1      40.512  33.702  34.655  1.00  0.00    +0.000 F 
ATOM     24  C19 UNL A   1      39.239  31.884  35.514  1.00  0.00    +0.000 C 
ATOM     25  C20 UNL A   1      38.403  31.410  36.535  1.00  0.00    +0.000 C 
ATOM     26  F1  UNL A   1      37.926  30.157  36.490  1.00  0.00    +0.000 F 
ATOM     27  C21 UNL A   1      38.043  32.229  37.603  1.00  0.00    +0.000 C 
ATOM     28  F2  UNL A   1      37.226  31.763  38.557  1.00  0.00    +0.000 F 
ATOM     29  C22 UNL A   1      38.530  33.526  37.680  1.00  0.00    +0.000 C 
ATOM     30  F3  UNL A   1      38.198  34.306  38.718  1.00  0.00    +0.000 F 
ATOM     31  C23 UNL A   1      39.361  34.014  36.682  1.00  0.00    +0.000 C 
ATOM     32  F4  UNL A   1      39.841  35.263  36.763  1.00  0.00    +0.000 F 
ENDBRANCH   23   24
BRANCH   40   41
ATOM     41  C30 UNL A   1      44.910  27.695  34.133  1.00  0.00    +0.000 C 
ATOM     42  C31 UNL A   1      46.063  28.492  34.081  1.00  0.00    +0.000 C 
ATOM     43  F6  UNL A   1      46.068  29.625  33.362  1.00  0.00    +0.000 F 
ATOM     44  C32 UNL A   1      47.228  28.107  34.739  1.00  0.00    +0.000 C 
ATOM     45  F7  UNL A   1      48.330  28.863  34.642  1.00  0.00    +0.000 F 
ATOM     46  C33 UNL A   1      47.253  26.938  35.483  1.00  0.00    +0.000 C 
ATOM     47  F8  UNL A   1      48.373  26.573  36.123  1.00  0.00    +0.000 F 
ATOM     48  C34 UNL A   1      46.119  26.142  35.560  1.00  0.00    +0.000 C 
ATOM     49  F9  UNL A   1      46.139  25.016  36.287  1.00  0.00    +0.000 F 
ATOM     50  C35 UNL A   1      44.961  26.510  34.882  1.00  0.00    +0.000 C 
ATOM     51  F10 UNL A   1      43.883  25.717  34.965  1.00  0.00    +0.000 F 
ENDBRANCH   40   41
BRANCH   55   56
ATOM     65  C44 UNL A   1      43.180  27.081  26.815  1.00  0.00    +0.000 C 
ATOM     66  F15 UNL A   1      43.468  28.385  26.934  1.00  0.00    +0.000 F 
ATOM     56  C39 UNL A   1      42.377  26.448  27.775  1.00  0.00    +0.000 C 
ATOM     57  C40 UNL A   1      42.102  25.085  27.600  1.00  0.00    +0.000 C 
ATOM     58  F11 UNL A   1      41.358  24.432  28.506  1.00  0.00    +0.000 F 
ATOM     59  C41 UNL A   1      42.632  24.376  26.524  1.00  0.00    +0.000 C 
ATOM     60  F12 UNL A   1      42.396  23.062  26.410  1.00  0.00    +0.000 F 
ATOM     61  C42 UNL A   1      43.421  25.024  25.585  1.00  0.00    +0.000 C 
ATOM     62  F13 UNL A   1      43.932  24.341  24.552  1.00  0.00    +0.000 F 
ATOM     63  C43 UNL A   1      43.687  26.378  25.724  1.00  0.00    +0.000 C 
ATOM     64  F14 UNL A   1      44.438  27.010  24.813  1.00  0.00    +0.000 F 
ENDBRANCH   55   56
TORSDOF 19
ENDMDL
MODEL 3
REMARK VINA RESULT:     -10.8      4.122      7.147
ROOT
ATOM     19  C15 UNL A   1      41.277  26.494  27.615  1.00  0.00    +0.000 C 
ATOM     20  C16 UNL A   1      42.695  26.736  27.185  1.00  0.00    +0.000 C 
ATOM     21  N3  UNL A   1      43.464  27.769  27.425  1.00  0.00    +0.000 N 
ATOM     22  C17 UNL A   1      44.689  27.472  26.842  1.00  0.00    +0.000 C 
ATOM     23  C18 UNL A   1      45.801  28.241  26.784  1.00  0.00    +0.000 C 
ATOM     35  C25 UNL A   1      45.898  29.574  27.321  1.00  0.00    +0.000 C 
ATOM     36  C26 UNL A   1      46.944  30.474  27.208  1.00  0.00    +0.000 C 
ATOM     37  C27 UNL A   1      46.616  31.620  27.937  1.00  0.00    +0.000 C 
ATOM     38  C28 UNL A   1      45.350  31.450  28.473  1.00  0.00    +0.000 C 
ATOM     39  N4  UNL A   1      44.917  30.194  28.079  1.00  0.00    +0.000 N 
ATOM     40  C29 UNL A   1      44.594  32.357  29.294  1.00  0.00    +0.000 C 
ATOM     52  C36 UNL A   1      43.323  32.146  29.714  1.00  0.00    +0.000 C 
ATOM     53  N5  UNL A   1      42.497  31.057  29.478  1.00  0.00    +0.000 N 
ATOM     54  C37 UNL A   1      41.379  31.310  30.110  1.00  0.00    +0.000 C 
ATOM     55  C38 UNL A   1      40.126  30.479  30.191  1.00  0.00    +0.000 C 
ATOM     67  C45 UNL A   1      40.067  29.308  29.530  1.00  0.00    +0.000 C 
ATOM     68  C46 UNL A   1      38.928  28.397  29.530  1.00  0.00    +0.000 C 
ATOM     69  C47 UNL A   1      39.253  27.290  28.843  1.00  0.00    +0.000 C 
ATOM     70  C48 UNL A   1      40.614  27.431  28.322  1.00  0.00    +0.000 C 
ATOM     71  N6  UNL A   1      41.004  28.677  28.749  1.00  0.00    +0.000 N 
ATOM     72  C49 UNL A   1      41.376  32.588  30.836  1.00  0.00    +0.000 C 
ATOM     73  C50 UNL A   1      42.571  33.073  30.533  1.00  0.00    +0.000 C 
ATOM     74  C51 UNL A   1      44.574  26.150  26.264  1.00  0.00    +0.000 C 
ATOM     75  C52 UNL A   1      43.344  25.672  26.405  1.00  0.00    +0.000 C 
ATOM    112  H21 UNL A   1      47.816  30.325  26.675  1.00  0.00    +0.000 H 
ATOM    113  H22 UNL A   1      47.215  32.453  28.057  1.00  0.00    +0.000 H 
ATOM    114  H23 UNL A   1      44.043  29.801  28.303  1.00  0.00    +0.000 H 
ATOM    115  H24 UNL A   1      38.019  28.574  29.985  1.00  0.00    +0.000 H 
ATOM    116  H25 UNL A   1      38.641  26.471  28.706  1.00  0.00    +0.000 H 
ATOM    117  H26 UNL A   1      41.872  29.080  28.516  1.00  0.00    +0.000 H 
ATOM    118  H27 UNL A   1      40.637  33.000  31.427  1.00  0.00    +0.000 H 
ATOM    119  H28 UNL A   1      42.921  33.994  30.840  1.00  0.00    +0.000 H 
ATOM    120  H29 UNL A   1      45.347  25.646  25.803  1.00  0.00    +0.000 H 
ATOM    121  H30 UNL A   1      42.947  24.785  26.059  1.00  0.00    +0.000 H 
ENDROOT
BRANCH   19   18
ATOM     76  C53 UNL A   1      39.452  25.142  26.578  1.00  0.00    +0.000 C 
ATOM     77  C54 UNL A   1      38.876  23.917  26.243  1.00  0.00    +0.000 C 
ATOM    110  H19 UNL A   1      41.066  21.878  27.761  1.00  0.00    +0.000 H 
ATOM     15  C11 UNL A   1      39.510  22.727  26.612  1.00  0.00    +0.000 C 
ATOM     16  C12 UNL A   1      40.638  22.759  27.436  1.00  0.00    +0.000 C 
ATOM     17  C13 UNL A   1      41.184  23.987  27.818  1.00  0.00    +0.000 C 
ATOM    111  H20 UNL A   1      42.003  24.012  28.446  1.00  0.00    +0.000 H 
ATOM     18  C14 UNL A   1      40.621  25.187  27.354  1.00  0.00    +0.000 C 
ATOM    122  H31 UNL A   1      39.017  26.020  26.255  1.00  0.00    +0.000 H 
ATOM    123  H32 UNL A   1      37.984  23.890  25.724  1.00  0.00    +0.000 H 
BRANCH   15   13
ATOM     13  C10 UNL A   1      39.010  21.418  26.137  1.00  0.00    +0.000 C 
ATOM     14  O2  UNL A   1      39.771  20.457  26.092  1.00  0.00    +0.000 O 
BRANCH   13   12
ATOM     12  N2  UNL A   1      37.706  21.290  25.725  1.00  0.00    +0.000 N 
ATOM    109  H18 UNL A   1      37.042  21.214  26.448  1.00  0.00    +0.000 H 
BRANCH   12   11
ATOM     11  C9  UNL A   1      37.166  21.251  24.376  1.00  0.00    +0.000 C 
ATOM    108  H17 UNL A   1      36.491  20.422  24.319  1.00  0.00    +0.000 H 
ATOM    107  H16 UNL A   1      37.976  21.147  23.684  1.00  0.00    +0.000 H 
BRANCH   11   10
ATOM    105  H14 UNL A   1      37.067  23.226  23.615  1.00  0.00    +0.000 H 
ATOM     10  C8  UNL A   1      36.382  22.513  24.024  1.00  0.00    +0.000 C 
ATOM    106  H15 UNL A   1      35.622  22.211  23.335  1.00  0.00    +0.000 H 
BRANCH   10    9
ATOM      9  C7  UNL A   1      35.657  23.173  25.200  1.00  0.00    +0.000 C 
ATOM    103  H12 UNL A   1      34.807  22.571  25.443  1.00  0.00    +0.000 H 
ATOM    104  H13 UNL A   1      36.376  23.240  25.990  1.00  0.00    +0.000 H 
BRANCH    9    8
ATOM    101  H10 UNL A   1      36.014  25.255  25.016  1.00  0.00    +0.000 H 
ATOM    102  H11 UNL A   1      34.707  24.590  23.984  1.00  0.00    +0.000 H 
ATOM      8  C6  UNL A   1      35.168  24.603  24.949  1.00  0.00    +0.000 C 
BRANCH    8    7
ATOM     99  H8  UNL A   1      33.201  24.556  25.758  1.00  0.00    +0.000 H 
ATOM    100  H9  UNL A   1      34.497  24.993  26.906  1.00  0.00    +0.000 H 
ATOM      7  C5  UNL A   1      34.097  25.117  25.922  1.00  0.00    +0.000 C 
BRANCH    7    6
ATOM     97  H6  UNL A   1      34.058  27.119  26.663  1.00  0.00    +0.000 H 
ATOM     98  H7  UNL A   1      34.289  26.987  24.925  1.00  0.00    +0.000 H 
ATOM      6  C4  UNL A   1      33.762  26.603  25.773  1.00  0.00    +0.000 C 
BRANCH    6    5
ATOM      5  N1  UNL A   1      32.344  26.798  25.561  1.00  0.00    +0.000 N 
ATOM     96  H5  UNL A   1      31.812  26.873  26.385  1.00  0.00    +0.000 H 
BRANCH    5    3
ATOM      3  C3  UNL A   1      31.624  26.896  24.407  1.00  0.00    +0.000 C 
ATOM      4  O1  UNL A   1      31.801  27.920  23.742  1.00  0.00    +0.000 O 
BRANCH    3    2
ATOM      2  C2  UNL A   1      30.628  25.787  24.011  1.00  0.00    +0.000 C 
ATOM     95  H4  UNL A   1      30.277  26.060  23.039  1.00  0.00    +0.000 H 
BRANCH    2    1
ATOM      1  C1  UNL A   1      29.420  25.708  24.951  1.00  0.00    +0.000 C 
ATOM     92  H1  UNL A   1      28.645  25.132  24.488  1.00  0.00    +0.000 H 
ATOM     93  H2  UNL A   1      29.058  26.696  25.150  1.00  0.00    +0.000 H 
ATOM     94  H3  UNL A   1      29.711  25.244  25.870  1.00  0.00    +0.000 H 
ENDBRANCH    2    1
BRANCH    2   78
ATOM    135  H44 UNL A   1      33.449  22.501  22.182  1.00  0.00    +0.000 H 
ATOM     78  C55 UNL A   1      31.299  24.413  23.935  1.00  0.00    +0.000 C 
ATOM     79  C56 UNL A   1      31.013  23.467  24.942  1.00  0.00    +0.000 C 
ATOM     80  C57 UNL A   1      31.605  22.205  24.951  1.00  0.00    +0.000 C 
ATOM     81  C58 UNL A   1      32.522  21.848  23.961  1.00  0.00    +0.000 C 
ATOM     89  C65 UNL A   1      32.794  22.763  22.936  1.00  0.00    +0.000 C 
ATOM     90  C66 UNL A   1      32.190  24.030  22.919  1.00  0.00    +0.000 C 
ATOM     91 Br1  UNL A   1      32.648  25.161  21.460  1.00  0.00    +0.000 Br
ATOM    124  H33 UNL A   1      30.349  23.716  25.690  1.00  0.00    +0.000 H 
ATOM    125  H34 UNL A   1      31.363  21.530  25.693  1.00  0.00    +0.000 H 
BRANCH   81   82
ATOM     82  C59 UNL A   1      33.225  20.513  24.019  1.00  0.00    +0.000 C 
ATOM    126  H35 UNL A   1      33.772  20.471  24.938  1.00  0.00    +0.000 H 
ATOM    127  H36 UNL A   1      33.836  20.473  23.141  1.00  0.00    +0.000 H 
BRANCH   82   83
ATOM    129  H38 UNL A   1      32.682  19.116  21.835  1.00  0.00    +0.000 H 
ATOM    130  H39 UNL A   1      31.363  18.145  22.374  1.00  0.00    +0.000 H 
ATOM    131  H40 UNL A   1      34.312  17.637  22.653  1.00  0.00    +0.000 H 
ATOM    132  H41 UNL A   1      33.100  16.517  22.174  1.00  0.00    +0.000 H 
ATOM    133  H42 UNL A   1      34.057  16.561  24.707  1.00  0.00    +0.000 H 
ATOM    134  H43 UNL A   1      32.437  16.122  24.438  1.00  0.00    +0.000 H 
ATOM     83  C60 UNL A   1      32.326  19.272  23.952  1.00  0.00    +0.000 C 
ATOM     84  C61 UNL A   1      32.341  18.490  22.634  1.00  0.00    +0.000 C 
ATOM     85  C62 UNL A   1      33.305  17.328  22.841  1.00  0.00    +0.000 C 
ATOM     86  C63 UNL A   1      33.137  16.919  24.298  1.00  0.00    +0.000 C 
ATOM     87  C64 UNL A   1      32.715  18.208  24.953  1.00  0.00    +0.000 C 
ATOM     88  O3  UNL A   1      32.669  18.368  26.168  1.00  0.00    +0.000 O 
ATOM    128  H37 UNL A   1      31.371  19.724  24.123  1.00  0.00    +0.000 H 
ENDBRANCH   82   83
ENDBRANCH   81   82
ENDBRANCH    2   78
ENDBRANCH    3    2
ENDBRANCH    5    3
ENDBRANCH    6    5
ENDBRANCH    7    6
ENDBRANCH    8    7
ENDBRANCH    9    8
ENDBRANCH   10    9
ENDBRANCH   11   10
ENDBRANCH   12   11
ENDBRANCH   13   12
ENDBRANCH   15   13
ENDBRANCH   19   18
BRANCH   23   24
ATOM     33  C24 UNL A   1      48.055  27.125  26.870  1.00  0.00    +0.000 C 
ATOM     34  F5  UNL A   1      47.938  27.025  28.202  1.00  0.00    +0.000 F 
ATOM     24  C19 UNL A   1      47.014  27.679  26.108  1.00  0.00    +0.000 C 
ATOM     25  C20 UNL A   1      47.188  27.767  24.720  1.00  0.00    +0.000 C 
ATOM     26  F1  UNL A   1      46.219  28.282  23.950  1.00  0.00    +0.000 F 
ATOM     27  C21 UNL A   1      48.359  27.313  24.116  1.00  0.00    +0.000 C 
ATOM     28  F2  UNL A   1      48.497  27.389  22.786  1.00  0.00    +0.000 F 
ATOM     29  C22 UNL A   1      49.382  26.787  24.890  1.00  0.00    +0.000 C 
ATOM     30  F3  UNL A   1      50.516  26.368  24.309  1.00  0.00    +0.000 F 
ATOM     31  C23 UNL A   1      49.232  26.693  26.266  1.00  0.00    +0.000 C 
ATOM     32  F4  UNL A   1      50.225  26.194  27.016  1.00  0.00    +0.000 F 
ENDBRANCH   23   24
BRANCH   40   41
ATOM     41  C30 UNL A   1      45.249  33.640  29.711  1.00  0.00    +0.000 C 
ATOM     42  C31 UNL A   1      46.030  33.713  30.872  1.00  0.00    +0.000 C 
ATOM     43  F6  UNL A   1      46.159  32.641  31.669  1.00  0.00    +0.000 F 
ATOM     44  C32 UNL A   1      46.654  34.902  31.239  1.00  0.00    +0.000 C 
ATOM     45  F7  UNL A   1      47.363  34.961  32.375  1.00  0.00    +0.000 F 
ATOM     46  C33 UNL A   1      46.533  36.028  30.439  1.00  0.00    +0.000 C 
ATOM     47  F8  UNL A   1      47.141  37.170  30.790  1.00  0.00    +0.000 F 
ATOM     48  C34 UNL A   1      45.776  35.973  29.278  1.00  0.00    +0.000 C 
ATOM     49  F9  UNL A   1      45.666  37.058  28.499  1.00  0.00    +0.000 F 
ATOM     50  C35 UNL A   1      45.129  34.793  28.922  1.00  0.00    +0.000 C 
ATOM     51  F10 UNL A   1      44.396  34.771  27.799  1.00  0.00    +0.000 F 
ENDBRANCH   40   41
BRANCH   55   56
ATOM     65  C44 UNL A   1      38.880  30.661  32.371  1.00  0.00    +0.000 C 
ATOM     66  F15 UNL A   1      39.839  29.944  32.974  1.00  0.00    +0.000 F 
ATOM     56  C39 UNL A   1      38.968  30.939  30.999  1.00  0.00    +0.000 C 
ATOM     57  C40 UNL A   1      37.936  31.689  30.418  1.00  0.00    +0.000 C 
ATOM     58  F11 UNL A   1      37.989  32.001  29.114  1.00  0.00    +0.000 F 
ATOM     59  C41 UNL A   1      36.872  32.163  31.183  1.00  0.00    +0.000 C 
ATOM     60  F12 UNL A   1      35.926  32.921  30.612  1.00  0.00    +0.000 F 
ATOM     61  C42 UNL A   1      36.804  31.871  32.537  1.00  0.00    +0.000 C 
ATOM     62  F13 UNL A   1      35.783  32.330  33.272  1.00  0.00    +0.000 F 
ATOM     63  C43 UNL A   1      37.802  31.112  33.129  1.00  0.00    +0.000 C 
ATOM     64  F14 UNL A   1      37.734  30.818  34.434  1.00  0.00    +0.000 F 
ENDBRANCH   55   56
TORSDOF 19
ENDMDL
MODEL 4
REMARK VINA RESULT:     -10.8      0.535      7.144
ROOT
ATOM     19  C15 UNL A   1      38.200  29.864  29.933  1.00  0.00    +0.000 C 
ATOM     20  C16 UNL A   1      38.413  30.397  31.320  1.00  0.00    +0.000 C 
ATOM     21  N3  UNL A   1      39.423  30.204  32.132  1.00  0.00    +0.000 N 
ATOM     22  C17 UNL A   1      39.145  30.955  33.266  1.00  0.00    +0.000 C 
ATOM     23  C18 UNL A   1      39.868  31.054  34.407  1.00  0.00    +0.000 C 
ATOM     35  C25 UNL A   1      41.094  30.344  34.658  1.00  0.00    +0.000 C 
ATOM     36  C26 UNL A   1      41.835  30.290  35.826  1.00  0.00    +0.000 C 
ATOM     37  C27 UNL A   1      42.978  29.522  35.585  1.00  0.00    +0.000 C 
ATOM     38  C28 UNL A   1      42.930  29.066  34.278  1.00  0.00    +0.000 C 
ATOM     39  N4  UNL A   1      41.764  29.569  33.724  1.00  0.00    +0.000 N 
ATOM     40  C29 UNL A   1      43.881  28.243  33.580  1.00  0.00    +0.000 C 
ATOM     52  C36 UNL A   1      43.720  27.773  32.319  1.00  0.00    +0.000 C 
ATOM     53  N5  UNL A   1      42.664  27.973  31.443  1.00  0.00    +0.000 N 
ATOM     54  C37 UNL A   1      42.982  27.336  30.344  1.00  0.00    +0.000 C 
ATOM     55  C38 UNL A   1      42.202  27.204  29.065  1.00  0.00    +0.000 C 
ATOM     67  C45 UNL A   1      40.988  27.779  28.969  1.00  0.00    +0.000 C 
ATOM     68  C46 UNL A   1      40.130  27.745  27.790  1.00  0.00    +0.000 C 
ATOM     69  C47 UNL A   1      39.042  28.496  28.019  1.00  0.00    +0.000 C 
ATOM     70  C48 UNL A   1      39.109  29.036  29.379  1.00  0.00    +0.000 C 
ATOM     71  N6  UNL A   1      40.282  28.526  29.880  1.00  0.00    +0.000 N 
ATOM     72  C49 UNL A   1      44.292  26.669  30.396  1.00  0.00    +0.000 C 
ATOM     73  C50 UNL A   1      44.683  26.938  31.633  1.00  0.00    +0.000 C 
ATOM     74  C51 UNL A   1      37.889  31.633  33.029  1.00  0.00    +0.000 C 
ATOM     75  C52 UNL A   1      37.370  31.283  31.859  1.00  0.00    +0.000 C 
ATOM    112  H21 UNL A   1      41.585  30.739  36.722  1.00  0.00    +0.000 H 
ATOM    113  H22 UNL A   1      43.731  29.329  36.265  1.00  0.00    +0.000 H 
ATOM    114  H23 UNL A   1      41.456  29.400  32.804  1.00  0.00    +0.000 H 
ATOM    115  H24 UNL A   1      40.327  27.226  26.920  1.00  0.00    +0.000 H 
ATOM    116  H25 UNL A   1      38.281  28.667  27.345  1.00  0.00    +0.000 H 
ATOM    117  H26 UNL A   1      40.587  28.681  30.803  1.00  0.00    +0.000 H 
ATOM    118  H27 UNL A   1      44.778  26.132  29.661  1.00  0.00    +0.000 H 
ATOM    119  H28 UNL A   1      45.561  26.595  32.053  1.00  0.00    +0.000 H 
ATOM    120  H29 UNL A   1      37.454  32.302  33.683  1.00  0.00    +0.000 H 
ATOM    121  H30 UNL A   1      36.470  31.559  31.437  1.00  0.00    +0.000 H 
ENDROOT
BRANCH   19   18
ATOM     76  C53 UNL A   1      36.012  29.411  28.821  1.00  0.00    +0.000 C 
ATOM     77  C54 UNL A   1      34.873  29.839  28.140  1.00  0.00    +0.000 C 
ATOM    110  H19 UNL A   1      35.676  33.076  27.768  1.00  0.00    +0.000 H 
ATOM     15  C11 UNL A   1      34.720  31.192  27.826  1.00  0.00    +0.000 C 
ATOM     16  C12 UNL A   1      35.765  32.091  28.061  1.00  0.00    +0.000 C 
ATOM     17  C13 UNL A   1      36.930  31.649  28.693  1.00  0.00    +0.000 C 
ATOM    111  H20 UNL A   1      37.712  32.306  28.847  1.00  0.00    +0.000 H 
ATOM     18  C14 UNL A   1      37.043  30.315  29.120  1.00  0.00    +0.000 C 
ATOM    122  H31 UNL A   1      36.098  28.422  29.106  1.00  0.00    +0.000 H 
ATOM    123  H32 UNL A   1      34.145  29.160  27.870  1.00  0.00    +0.000 H 
BRANCH   15   13
ATOM     13  C10 UNL A   1      33.458  31.703  27.248  1.00  0.00    +0.000 C 
ATOM     14  O2  UNL A   1      32.990  32.764  27.650  1.00  0.00    +0.000 O 
BRANCH   13   12
ATOM     12  N2  UNL A   1      32.802  30.978  26.284  1.00  0.00    +0.000 N 
ATOM    109  H18 UNL A   1      32.793  31.381  25.386  1.00  0.00    +0.000 H 
BRANCH   12   11
ATOM     11  C9  UNL A   1      32.119  29.699  26.398  1.00  0.00    +0.000 C 
ATOM    108  H17 UNL A   1      31.090  29.857  26.150  1.00  0.00    +0.000 H 
ATOM    107  H16 UNL A   1      32.231  29.338  27.400  1.00  0.00    +0.000 H 
BRANCH   11   10
ATOM    105  H14 UNL A   1      31.876  28.324  24.805  1.00  0.00    +0.000 H 
ATOM     10  C8  UNL A   1      32.675  28.652  25.436  1.00  0.00    +0.000 C 
ATOM    106  H15 UNL A   1      33.469  29.130  24.901  1.00  0.00    +0.000 H 
BRANCH   10    9
ATOM      9  C7  UNL A   1      33.289  27.420  26.105  1.00  0.00    +0.000 C 
ATOM    103  H12 UNL A   1      34.093  27.750  26.729  1.00  0.00    +0.000 H 
ATOM    104  H13 UNL A   1      32.493  26.950  26.644  1.00  0.00    +0.000 H 
BRANCH    9    8
ATOM    101  H10 UNL A   1      33.087  26.165  24.409  1.00  0.00    +0.000 H 
ATOM    102  H11 UNL A   1      34.743  26.764  24.748  1.00  0.00    +0.000 H 
ATOM      8  C6  UNL A   1      33.837  26.359  25.147  1.00  0.00    +0.000 C 
BRANCH    8    7
ATOM     99  H8  UNL A   1      34.690  25.225  26.732  1.00  0.00    +0.000 H 
ATOM    100  H9  UNL A   1      33.317  24.457  25.886  1.00  0.00    +0.000 H 
ATOM      7  C5  UNL A   1      34.223  25.020  25.792  1.00  0.00    +0.000 C 
BRANCH    7    6
ATOM     97  H6  UNL A   1      35.746  24.801  24.311  1.00  0.00    +0.000 H 
ATOM     98  H7  UNL A   1      35.829  23.635  25.625  1.00  0.00    +0.000 H 
ATOM      6  C4  UNL A   1      35.180  24.164  24.959  1.00  0.00    +0.000 C 
BRANCH    6    5
ATOM      5  N1  UNL A   1      34.455  23.200  24.160  1.00  0.00    +0.000 N 
ATOM     96  H5  UNL A   1      34.651  23.233  23.197  1.00  0.00    +0.000 H 
BRANCH    5    3
ATOM      3  C3  UNL A   1      33.544  22.252  24.523  1.00  0.00    +0.000 C 
ATOM      4  O1  UNL A   1      33.930  21.414  25.342  1.00  0.00    +0.000 O 
BRANCH    3    2
ATOM      2  C2  UNL A   1      32.136  22.238  23.894  1.00  0.00    +0.000 C 
ATOM     95  H4  UNL A   1      31.587  21.507  24.450  1.00  0.00    +0.000 H 
BRANCH    2    1
ATOM      1  C1  UNL A   1      32.145  21.812  22.422  1.00  0.00    +0.000 C 
ATOM     92  H1  UNL A   1      33.156  21.719  22.083  1.00  0.00    +0.000 H 
ATOM     93  H2  UNL A   1      31.639  22.549  21.834  1.00  0.00    +0.000 H 
ATOM     94  H3  UNL A   1      31.647  20.870  22.319  1.00  0.00    +0.000 H 
ENDBRANCH    2    1
BRANCH    2   78
ATOM    135  H44 UNL A   1      29.693  25.599  26.094  1.00  0.00    +0.000 H 
ATOM     78  C55 UNL A   1      31.437  23.595  24.022  1.00  0.00    +0.000 C 
ATOM     79  C56 UNL A   1      31.464  24.473  22.919  1.00  0.00    +0.000 C 
ATOM     80  C57 UNL A   1      30.870  25.734  22.971  1.00  0.00    +0.000 C 
ATOM     81  C58 UNL A   1      30.242  26.171  24.139  1.00  0.00    +0.000 C 
ATOM     89  C65 UNL A   1      30.179  25.299  25.234  1.00  0.00    +0.000 C 
ATOM     90  C66 UNL A   1      30.767  24.025  25.179  1.00  0.00    +0.000 C 
ATOM     91 Br1  UNL A   1      30.592  22.950  26.738  1.00  0.00    +0.000 Br
ATOM    124  H33 UNL A   1      31.935  24.176  22.052  1.00  0.00    +0.000 H 
ATOM    125  H34 UNL A   1      30.893  26.346  22.142  1.00  0.00    +0.000 H 
BRANCH   81   82
ATOM     82  C59 UNL A   1      29.673  27.566  24.222  1.00  0.00    +0.000 C 
ATOM    126  H35 UNL A   1      30.446  28.214  24.579  1.00  0.00    +0.000 H 
ATOM    127  H36 UNL A   1      28.826  27.492  24.872  1.00  0.00    +0.000 H 
BRANCH   82   83
ATOM    129  H38 UNL A   1      27.155  28.239  23.749  1.00  0.00    +0.000 H 
ATOM    130  H39 UNL A   1      27.177  28.452  22.039  1.00  0.00    +0.000 H 
ATOM    131  H40 UNL A   1      27.896  30.423  24.188  1.00  0.00    +0.000 H 
ATOM    132  H41 UNL A   1      26.936  30.705  22.792  1.00  0.00    +0.000 H 
ATOM    133  H42 UNL A   1      29.542  31.435  22.882  1.00  0.00    +0.000 H 
ATOM    134  H43 UNL A   1      28.864  30.951  21.400  1.00  0.00    +0.000 H 
ATOM     83  C60 UNL A   1      29.136  28.156  22.912  1.00  0.00    +0.000 C 
ATOM     84  C61 UNL A   1      27.698  28.686  22.942  1.00  0.00    +0.000 C 
ATOM     85  C62 UNL A   1      27.805  30.193  23.148  1.00  0.00    +0.000 C 
ATOM     86  C63 UNL A   1      29.059  30.614  22.396  1.00  0.00    +0.000 C 
ATOM     87  C64 UNL A   1      29.909  29.372  22.453  1.00  0.00    +0.000 C 
ATOM     88  O3  UNL A   1      31.093  29.345  22.138  1.00  0.00    +0.000 O 
ATOM    128  H37 UNL A   1      29.220  27.301  22.273  1.00  0.00    +0.000 H 
ENDBRANCH   82   83
ENDBRANCH   81   82
ENDBRANCH    2   78
ENDBRANCH    3    2
ENDBRANCH    5    3
ENDBRANCH    6    5
ENDBRANCH    7    6
ENDBRANCH    8    7
ENDBRANCH    9    8
ENDBRANCH   10    9
ENDBRANCH   11   10
ENDBRANCH   12   11
ENDBRANCH   13   12
ENDBRANCH   15   13
ENDBRANCH   19   18
BRANCH   23   24
ATOM     33  C24 UNL A   1      39.830  33.274  35.592  1.00  0.00    +0.000 C 
ATOM     34  F5  UNL A   1      40.682  33.760  34.677  1.00  0.00    +0.000 F 
ATOM     24  C19 UNL A   1      39.358  31.956  35.489  1.00  0.00    +0.000 C 
ATOM     25  C20 UNL A   1      38.474  31.494  36.474  1.00  0.00    +0.000 C 
ATOM     26  F1  UNL A   1      37.991  30.245  36.414  1.00  0.00    +0.000 F 
ATOM     27  C21 UNL A   1      38.075  32.321  37.521  1.00  0.00    +0.000 C 
ATOM     28  F2  UNL A   1      37.213  31.866  38.441  1.00  0.00    +0.000 F 
ATOM     29  C22 UNL A   1      38.568  33.615  37.614  1.00  0.00    +0.000 C 
ATOM     30  F3  UNL A   1      38.197  34.403  38.633  1.00  0.00    +0.000 F 
ATOM     31  C23 UNL A   1      39.446  34.091  36.651  1.00  0.00    +0.000 C 
ATOM     32  F4  UNL A   1      39.932  35.337  36.747  1.00  0.00    +0.000 F 
ENDBRANCH   23   24
BRANCH   40   41
ATOM     41  C30 UNL A   1      45.141  27.863  34.298  1.00  0.00    +0.000 C 
ATOM     42  C31 UNL A   1      45.225  26.677  35.042  1.00  0.00    +0.000 C 
ATOM     43  F6  UNL A   1      44.150  25.885  35.173  1.00  0.00    +0.000 F 
ATOM     44  C32 UNL A   1      46.406  26.321  35.686  1.00  0.00    +0.000 C 
ATOM     45  F7  UNL A   1      46.452  25.204  36.426  1.00  0.00    +0.000 F 
ATOM     46  C33 UNL A   1      47.530  27.124  35.575  1.00  0.00    +0.000 C 
ATOM     47  F8  UNL A   1      48.669  26.775  36.190  1.00  0.00    +0.000 F 
ATOM     48  C34 UNL A   1      47.473  28.294  34.831  1.00  0.00    +0.000 C 
ATOM     49  F9  UNL A   1      48.562  29.067  34.714  1.00  0.00    +0.000 F 
ATOM     50  C35 UNL A   1      46.287  28.668  34.208  1.00  0.00    +0.000 C 
ATOM     51  F10 UNL A   1      46.257  29.808  33.504  1.00  0.00    +0.000 F 
ENDBRANCH   40   41
BRANCH   55   56
ATOM     65  C44 UNL A   1      42.477  25.095  27.716  1.00  0.00    +0.000 C 
ATOM     66  F15 UNL A   1      41.701  24.441  28.591  1.00  0.00    +0.000 F 
ATOM     56  C39 UNL A   1      42.765  26.454  27.912  1.00  0.00    +0.000 C 
ATOM     57  C40 UNL A   1      43.586  27.090  26.970  1.00  0.00    +0.000 C 
ATOM     58  F11 UNL A   1      43.869  28.395  27.103  1.00  0.00    +0.000 F 
ATOM     59  C41 UNL A   1      44.076  26.402  25.862  1.00  0.00    +0.000 C 
ATOM     60  F12 UNL A   1      44.815  27.048  24.950  1.00  0.00    +0.000 F 
ATOM     61  C42 UNL A   1      43.781  25.058  25.691  1.00  0.00    +0.000 C 
ATOM     62  F13 UNL A   1      44.250  24.398  24.624  1.00  0.00    +0.000 F 
ATOM     63  C43 UNL A   1      42.990  24.402  26.622  1.00  0.00    +0.000 C 
ATOM     64  F14 UNL A   1      42.713  23.101  26.467  1.00  0.00    +0.000 F 
ENDBRANCH   55   56
TORSDOF 19
ENDMDL
MODEL 5
REMARK VINA RESULT:     -10.8      4.033      9.383
ROOT
ATOM     19  C15 UNL A   1      41.186  26.337  27.908  1.00  0.00    +0.000 C 
ATOM     20  C16 UNL A   1      40.522  27.478  28.623  1.00  0.00    +0.000 C 
ATOM     21  N3  UNL A   1      41.016  28.647  28.948  1.00  0.00    +0.000 N 
ATOM     22  C17 UNL A   1      39.976  29.341  29.553  1.00  0.00    +0.000 C 
ATOM     23  C18 UNL A   1      39.998  30.581  30.096  1.00  0.00    +0.000 C 
ATOM     35  C25 UNL A   1      41.166  31.420  30.164  1.00  0.00    +0.000 C 
ATOM     36  C26 UNL A   1      41.313  32.642  30.799  1.00  0.00    +0.000 C 
ATOM     37  C27 UNL A   1      42.605  33.112  30.550  1.00  0.00    +0.000 C 
ATOM     38  C28 UNL A   1      43.276  32.166  29.792  1.00  0.00    +0.000 C 
ATOM     39  N4  UNL A   1      42.384  31.129  29.572  1.00  0.00    +0.000 N 
ATOM     40  C29 UNL A   1      44.625  32.207  29.294  1.00  0.00    +0.000 C 
ATOM     52  C36 UNL A   1      45.234  31.199  28.623  1.00  0.00    +0.000 C 
ATOM     53  N5  UNL A   1      44.726  29.960  28.264  1.00  0.00    +0.000 N 
ATOM     54  C37 UNL A   1      45.686  29.352  27.613  1.00  0.00    +0.000 C 
ATOM     55  C38 UNL A   1      45.696  27.978  27.002  1.00  0.00    +0.000 C 
ATOM     67  C45 UNL A   1      44.605  27.197  27.117  1.00  0.00    +0.000 C 
ATOM     68  C46 UNL A   1      44.467  25.854  26.564  1.00  0.00    +0.000 C 
ATOM     69  C47 UNL A   1      43.220  25.413  26.791  1.00  0.00    +0.000 C 
ATOM     70  C48 UNL A   1      42.480  26.430  27.540  1.00  0.00    +0.000 C 
ATOM     71  N6  UNL A   1      43.394  27.439  27.720  1.00  0.00    +0.000 N 
ATOM     72  C49 UNL A   1      46.913  30.150  27.473  1.00  0.00    +0.000 C 
ATOM     73  C50 UNL A   1      46.596  31.252  28.136  1.00  0.00    +0.000 C 
ATOM     74  C51 UNL A   1      38.816  28.478  29.524  1.00  0.00    +0.000 C 
ATOM     75  C52 UNL A   1      39.113  27.294  29.004  1.00  0.00    +0.000 C 
ATOM    112  H21 UNL A   1      40.592  33.122  31.361  1.00  0.00    +0.000 H 
ATOM    113  H22 UNL A   1      42.995  34.012  30.874  1.00  0.00    +0.000 H 
ATOM    114  H23 UNL A   1      42.586  30.306  29.069  1.00  0.00    +0.000 H 
ATOM    115  H24 UNL A   1      45.210  25.327  26.077  1.00  0.00    +0.000 H 
ATOM    116  H25 UNL A   1      42.843  24.502  26.486  1.00  0.00    +0.000 H 
ATOM    117  H26 UNL A   1      43.201  28.257  28.233  1.00  0.00    +0.000 H 
ATOM    118  H27 UNL A   1      47.792  29.913  26.986  1.00  0.00    +0.000 H 
ATOM    119  H28 UNL A   1      47.238  32.046  28.287  1.00  0.00    +0.000 H 
ATOM    120  H29 UNL A   1      37.879  28.748  29.863  1.00  0.00    +0.000 H 
ATOM    121  H30 UNL A   1      38.513  26.461  28.894  1.00  0.00    +0.000 H 
ENDROOT
BRANCH   19   18
ATOM     76  C53 UNL A   1      39.241  25.294  26.742  1.00  0.00    +0.000 C 
ATOM     77  C54 UNL A   1      38.547  24.177  26.278  1.00  0.00    +0.000 C 
ATOM    110  H19 UNL A   1      40.515  21.777  27.553  1.00  0.00    +0.000 H 
ATOM     15  C11 UNL A   1      39.057  22.897  26.512  1.00  0.00    +0.000 C 
ATOM     16  C12 UNL A   1      40.179  22.726  27.328  1.00  0.00    +0.000 C 
ATOM     17  C13 UNL A   1      40.843  23.844  27.838  1.00  0.00    +0.000 C 
ATOM    111  H20 UNL A   1      41.658  23.719  28.460  1.00  0.00    +0.000 H 
ATOM     18  C14 UNL A   1      40.405  25.138  27.510  1.00  0.00    +0.000 C 
ATOM    122  H31 UNL A   1      38.897  26.241  26.519  1.00  0.00    +0.000 H 
ATOM    123  H32 UNL A   1      37.660  24.295  25.766  1.00  0.00    +0.000 H 
BRANCH   15   13
ATOM     13  C10 UNL A   1      38.431  21.704  25.900  1.00  0.00    +0.000 C 
ATOM     14  O2  UNL A   1      39.124  20.729  25.623  1.00  0.00    +0.000 O 
BRANCH   13   12
ATOM     12  N2  UNL A   1      37.086  21.701  25.624  1.00  0.00    +0.000 N 
ATOM    109  H18 UNL A   1      36.495  21.631  26.408  1.00  0.00    +0.000 H 
BRANCH   12   11
ATOM     11  C9  UNL A   1      36.409  21.785  24.340  1.00  0.00    +0.000 C 
ATOM    108  H17 UNL A   1      35.541  21.162  24.388  1.00  0.00    +0.000 H 
ATOM    107  H16 UNL A   1      37.083  21.460  23.574  1.00  0.00    +0.000 H 
BRANCH   11   10
ATOM    105  H14 UNL A   1      36.815  23.806  23.848  1.00  0.00    +0.000 H 
ATOM     10  C8  UNL A   1      35.947  23.203  24.016  1.00  0.00    +0.000 C 
ATOM    106  H15 UNL A   1      35.314  23.122  23.157  1.00  0.00    +0.000 H 
BRANCH   10    9
ATOM      9  C7  UNL A   1      35.107  23.875  25.105  1.00  0.00    +0.000 C 
ATOM    103  H12 UNL A   1      34.246  23.264  25.281  1.00  0.00    +0.000 H 
ATOM    104  H13 UNL A   1      35.749  23.967  25.957  1.00  0.00    +0.000 H 
BRANCH    9    8
ATOM    101  H10 UNL A   1      35.486  25.889  24.561  1.00  0.00    +0.000 H 
ATOM    102  H11 UNL A   1      33.947  25.190  23.960  1.00  0.00    +0.000 H 
ATOM      8  C6  UNL A   1      34.625  25.292  24.781  1.00  0.00    +0.000 C 
BRANCH    8    7
ATOM     99  H8  UNL A   1      32.831  25.630  25.873  1.00  0.00    +0.000 H 
ATOM    100  H9  UNL A   1      34.343  25.774  26.811  1.00  0.00    +0.000 H 
ATOM      7  C5  UNL A   1      33.836  25.995  25.895  1.00  0.00    +0.000 C 
BRANCH    7    6
ATOM     97  H6  UNL A   1      33.211  27.915  26.587  1.00  0.00    +0.000 H 
ATOM     98  H7  UNL A   1      34.795  27.893  25.823  1.00  0.00    +0.000 H 
ATOM      6  C4  UNL A   1      33.792  27.520  25.780  1.00  0.00    +0.000 C 
BRANCH    6    5
ATOM      5  N1  UNL A   1      33.202  27.930  24.525  1.00  0.00    +0.000 N 
ATOM     96  H5  UNL A   1      33.811  27.897  23.753  1.00  0.00    +0.000 H 
BRANCH    5    3
ATOM      3  C3  UNL A   1      31.938  28.355  24.235  1.00  0.00    +0.000 C 
ATOM      4  O1  UNL A   1      31.596  29.426  24.743  1.00  0.00    +0.000 O 
BRANCH    3    2
ATOM      2  C2  UNL A   1      31.008  27.499  23.352  1.00  0.00    +0.000 C 
ATOM     95  H4  UNL A   1      31.362  27.640  22.353  1.00  0.00    +0.000 H 
BRANCH    2    1
ATOM      1  C1  UNL A   1      29.546  27.954  23.410  1.00  0.00    +0.000 C 
ATOM     92  H1  UNL A   1      29.407  28.792  22.759  1.00  0.00    +0.000 H 
ATOM     93  H2  UNL A   1      29.300  28.237  24.413  1.00  0.00    +0.000 H 
ATOM     94  H3  UNL A   1      28.909  27.152  23.101  1.00  0.00    +0.000 H 
ENDBRANCH    2    1
BRANCH    2   78
ATOM    135  H44 UNL A   1      32.270  23.014  22.723  1.00  0.00    +0.000 H 
ATOM     78  C55 UNL A   1      31.089  26.012  23.708  1.00  0.00    +0.000 C 
ATOM     79  C56 UNL A   1      30.489  25.572  24.906  1.00  0.00    +0.000 C 
ATOM     80  C57 UNL A   1      30.542  24.237  25.306  1.00  0.00    +0.000 C 
ATOM     81  C58 UNL A   1      31.217  23.294  24.530  1.00  0.00    +0.000 C 
ATOM     89  C65 UNL A   1      31.792  23.707  23.321  1.00  0.00    +0.000 C 
ATOM     90  C66 UNL A   1      31.729  25.049  22.911  1.00  0.00    +0.000 C 
ATOM     91 Br1  UNL A   1      32.546  25.458  21.243  1.00  0.00    +0.000 Br
ATOM    124  H33 UNL A   1      29.997  26.255  25.501  1.00  0.00    +0.000 H 
ATOM    125  H34 UNL A   1      30.080  23.945  26.180  1.00  0.00    +0.000 H 
BRANCH   81   82
ATOM     82  C59 UNL A   1      31.347  21.867  25.005  1.00  0.00    +0.000 C 
ATOM    126  H35 UNL A   1      30.508  21.320  24.627  1.00  0.00    +0.000 H 
ATOM    127  H36 UNL A   1      31.391  21.924  26.072  1.00  0.00    +0.000 H 
BRANCH   82   83
ATOM    129  H38 UNL A   1      33.022  20.616  26.631  1.00  0.00    +0.000 H 
ATOM    130  H39 UNL A   1      34.373  20.357  25.592  1.00  0.00    +0.000 H 
ATOM    131  H40 UNL A   1      31.903  18.678  25.920  1.00  0.00    +0.000 H 
ATOM    132  H41 UNL A   1      33.531  18.135  25.836  1.00  0.00    +0.000 H 
ATOM    133  H42 UNL A   1      31.896  18.030  23.680  1.00  0.00    +0.000 H 
ATOM    134  H43 UNL A   1      33.559  18.295  23.450  1.00  0.00    +0.000 H 
ATOM     83  C60 UNL A   1      32.620  21.126  24.579  1.00  0.00    +0.000 C 
ATOM     84  C61 UNL A   1      33.308  20.280  25.656  1.00  0.00    +0.000 C 
ATOM     85  C62 UNL A   1      32.840  18.846  25.433  1.00  0.00    +0.000 C 
ATOM     86  C63 UNL A   1      32.691  18.700  23.926  1.00  0.00    +0.000 C 
ATOM     87  C64 UNL A   1      32.372  20.107  23.490  1.00  0.00    +0.000 C 
ATOM     88  O3  UNL A   1      31.976  20.395  22.366  1.00  0.00    +0.000 O 
ATOM    128  H37 UNL A   1      33.231  21.956  24.289  1.00  0.00    +0.000 H 
ENDBRANCH   82   83
ENDBRANCH   81   82
ENDBRANCH    2   78
ENDBRANCH    3    2
ENDBRANCH    5    3
ENDBRANCH    6    5
ENDBRANCH    7    6
ENDBRANCH    8    7
ENDBRANCH    9    8
ENDBRANCH   10    9
ENDBRANCH   11   10
ENDBRANCH   12   11
ENDBRANCH   13   12
ENDBRANCH   15   13
ENDBRANCH   19   18
BRANCH   23   24
ATOM     33  C24 UNL A   1      38.466  30.994  32.050  1.00  0.00    +0.000 C 
ATOM     34  F5  UNL A   1      39.388  30.462  32.866  1.00  0.00    +0.000 F 
ATOM     24  C19 UNL A   1      38.726  31.119  30.677  1.00  0.00    +0.000 C 
ATOM     25  C20 UNL A   1      37.726  31.676  29.866  1.00  0.00    +0.000 C 
ATOM     26  F1  UNL A   1      37.931  31.823  28.548  1.00  0.00    +0.000 F 
ATOM     27  C21 UNL A   1      36.515  32.096  30.410  1.00  0.00    +0.000 C 
ATOM     28  F2  UNL A   1      35.582  32.644  29.621  1.00  0.00    +0.000 F 
ATOM     29  C22 UNL A   1      36.273  31.945  31.768  1.00  0.00    +0.000 C 
ATOM     30  F3  UNL A   1      35.099  32.332  32.287  1.00  0.00    +0.000 F 
ATOM     31  C23 UNL A   1      37.247  31.394  32.588  1.00  0.00    +0.000 C 
ATOM     32  F4  UNL A   1      37.009  31.238  33.898  1.00  0.00    +0.000 F 
ENDBRANCH   23   24
BRANCH   40   41
ATOM     41  C30 UNL A   1      45.427  33.449  29.542  1.00  0.00    +0.000 C 
ATOM     42  C31 UNL A   1      46.241  33.574  30.677  1.00  0.00    +0.000 C 
ATOM     43  F6  UNL A   1      46.271  32.599  31.597  1.00  0.00    +0.000 F 
ATOM     44  C32 UNL A   1      47.001  34.722  30.887  1.00  0.00    +0.000 C 
ATOM     45  F7  UNL A   1      47.741  34.838  31.999  1.00  0.00    +0.000 F 
ATOM     46  C33 UNL A   1      46.983  35.749  29.956  1.00  0.00    +0.000 C 
ATOM     47  F8  UNL A   1      47.722  36.850  30.157  1.00  0.00    +0.000 F 
ATOM     48  C34 UNL A   1      46.196  35.639  28.819  1.00  0.00    +0.000 C 
ATOM     49  F9  UNL A   1      46.186  36.627  27.913  1.00  0.00    +0.000 F 
ATOM     50  C35 UNL A   1      45.415  34.505  28.618  1.00  0.00    +0.000 C 
ATOM     51  F10 UNL A   1      44.656  34.429  27.516  1.00  0.00    +0.000 F 
ENDBRANCH   40   41
BRANCH   55   56
ATOM     65  C44 UNL A   1      47.928  26.815  26.936  1.00  0.00    +0.000 C 
ATOM     66  F15 UNL A   1      47.864  26.629  28.262  1.00  0.00    +0.000 F 
ATOM     56  C39 UNL A   1      46.891  27.486  26.270  1.00  0.00    +0.000 C 
ATOM     57  C40 UNL A   1      47.009  27.658  24.884  1.00  0.00    +0.000 C 
ATOM     58  F11 UNL A   1      46.031  28.273  24.201  1.00  0.00    +0.000 F 
ATOM     59  C41 UNL A   1      48.106  27.156  24.187  1.00  0.00    +0.000 C 
ATOM     60  F12 UNL A   1      48.169  27.288  22.856  1.00  0.00    +0.000 F 
ATOM     61  C42 UNL A   1      49.121  26.498  24.868  1.00  0.00    +0.000 C 
ATOM     62  F13 UNL A   1      50.174  26.013  24.197  1.00  0.00    +0.000 F 
ATOM     63  C43 UNL A   1      49.037  26.337  26.242  1.00  0.00    +0.000 C 
ATOM     64  F14 UNL A   1      50.021  25.714  26.904  1.00  0.00    +0.000 F 
ENDBRANCH   55   56
TORSDOF 19
ENDMDL
MODEL 6
REMARK VINA RESULT:     -10.8      1.020      2.197
ROOT
ATOM     19  C15 UNL A   1      38.183  30.078  29.565  1.00  0.00    +0.000 C 
ATOM     20  C16 UNL A   1      39.200  29.098  29.053  1.00  0.00    +0.000 C 
ATOM     21  N3  UNL A   1      40.277  28.644  29.644  1.00  0.00    +0.000 N 
ATOM     22  C17 UNL A   1      40.837  27.733  28.759  1.00  0.00    +0.000 C 
ATOM     23  C18 UNL A   1      41.983  27.024  28.895  1.00  0.00    +0.000 C 
ATOM     35  C25 UNL A   1      42.870  27.119  30.025  1.00  0.00    +0.000 C 
ATOM     36  C26 UNL A   1      44.110  26.529  30.199  1.00  0.00    +0.000 C 
ATOM     37  C27 UNL A   1      44.577  26.859  31.474  1.00  0.00    +0.000 C 
ATOM     38  C28 UNL A   1      43.645  27.686  32.080  1.00  0.00    +0.000 C 
ATOM     39  N4  UNL A   1      42.608  27.845  31.176  1.00  0.00    +0.000 N 
ATOM     40  C29 UNL A   1      43.689  28.278  33.391  1.00  0.00    +0.000 C 
ATOM     52  C36 UNL A   1      42.769  29.143  33.881  1.00  0.00    +0.000 C 
ATOM     53  N5  UNL A   1      41.620  29.628  33.275  1.00  0.00    +0.000 N 
ATOM     54  C37 UNL A   1      41.053  30.414  34.156  1.00  0.00    +0.000 C 
ATOM     55  C38 UNL A   1      39.786  31.217  34.035  1.00  0.00    +0.000 C 
ATOM     67  C45 UNL A   1      39.093  31.187  32.880  1.00  0.00    +0.000 C 
ATOM     68  C46 UNL A   1      37.846  31.899  32.626  1.00  0.00    +0.000 C 
ATOM     69  C47 UNL A   1      37.393  31.567  31.407  1.00  0.00    +0.000 C 
ATOM     70  C48 UNL A   1      38.339  30.644  30.778  1.00  0.00    +0.000 C 
ATOM     71  N6  UNL A   1      39.337  30.505  31.712  1.00  0.00    +0.000 N 
ATOM     72  C49 UNL A   1      41.776  30.504  35.433  1.00  0.00    +0.000 C 
ATOM     73  C50 UNL A   1      42.832  29.738  35.199  1.00  0.00    +0.000 C 
ATOM     74  C51 UNL A   1      39.967  27.672  27.604  1.00  0.00    +0.000 C 
ATOM     75  C52 UNL A   1      38.965  28.535  27.714  1.00  0.00    +0.000 C 
ATOM    112  H21 UNL A   1      44.606  25.947  29.505  1.00  0.00    +0.000 H 
ATOM    113  H22 UNL A   1      45.465  26.541  31.894  1.00  0.00    +0.000 H 
ATOM    114  H23 UNL A   1      41.804  28.394  31.328  1.00  0.00    +0.000 H 
ATOM    115  H24 UNL A   1      37.387  32.554  33.279  1.00  0.00    +0.000 H 
ATOM    116  H25 UNL A   1      36.517  31.907  30.983  1.00  0.00    +0.000 H 
ATOM    117  H26 UNL A   1      40.148  29.969  31.559  1.00  0.00    +0.000 H 
ATOM    118  H27 UNL A   1      41.527  31.026  36.287  1.00  0.00    +0.000 H 
ATOM    119  H28 UNL A   1      43.600  29.585  35.871  1.00  0.00    +0.000 H 
ATOM    120  H29 UNL A   1      40.107  27.041  26.801  1.00  0.00    +0.000 H 
ATOM    121  H30 UNL A   1      38.217  28.755  27.039  1.00  0.00    +0.000 H 
ENDROOT
BRANCH   19   18
ATOM     76  C53 UNL A   1      36.085  29.306  28.454  1.00  0.00    +0.000 C 
ATOM     77  C54 UNL A   1      34.876  29.562  27.808  1.00  0.00    +0.000 C 
ATOM    110  H19 UNL A   1      35.099  32.903  27.595  1.00  0.00    +0.000 H 
ATOM     15  C11 UNL A   1      34.485  30.881  27.565  1.00  0.00    +0.000 C 
ATOM     16  C12 UNL A   1      35.363  31.935  27.835  1.00  0.00    +0.000 C 
ATOM     17  C13 UNL A   1      36.599  31.673  28.432  1.00  0.00    +0.000 C 
ATOM    111  H20 UNL A   1      37.257  32.448  28.611  1.00  0.00    +0.000 H 
ATOM     18  C14 UNL A   1      36.949  30.360  28.788  1.00  0.00    +0.000 C 
ATOM    122  H31 UNL A   1      36.347  28.335  28.687  1.00  0.00    +0.000 H 
ATOM    123  H32 UNL A   1      34.273  28.780  27.511  1.00  0.00    +0.000 H 
BRANCH   15   13
ATOM     13  C10 UNL A   1      33.142  31.192  27.028  1.00  0.00    +0.000 C 
ATOM     14  O2  UNL A   1      32.613  32.265  27.298  1.00  0.00    +0.000 O 
BRANCH   13   12
ATOM     12  N2  UNL A   1      32.485  30.270  26.250  1.00  0.00    +0.000 N 
ATOM    109  H18 UNL A   1      31.793  30.638  25.655  1.00  0.00    +0.000 H 
BRANCH   12   11
ATOM     11  C9  UNL A   1      32.664  28.829  26.181  1.00  0.00    +0.000 C 
ATOM    108  H17 UNL A   1      33.621  28.599  26.601  1.00  0.00    +0.000 H 
ATOM    107  H16 UNL A   1      32.602  28.524  25.157  1.00  0.00    +0.000 H 
BRANCH   11   10
ATOM    105  H14 UNL A   1      32.033  27.819  27.933  1.00  0.00    +0.000 H 
ATOM     10  C8  UNL A   1      31.610  28.070  26.983  1.00  0.00    +0.000 C 
ATOM    106  H15 UNL A   1      30.763  28.720  27.054  1.00  0.00    +0.000 H 
BRANCH   10    9
ATOM      9  C7  UNL A   1      31.107  26.780  26.331  1.00  0.00    +0.000 C 
ATOM    103  H12 UNL A   1      30.178  26.517  26.792  1.00  0.00    +0.000 H 
ATOM    104  H13 UNL A   1      31.022  26.992  25.285  1.00  0.00    +0.000 H 
BRANCH    9    8
ATOM    101  H10 UNL A   1      32.683  25.574  25.582  1.00  0.00    +0.000 H 
ATOM    102  H11 UNL A   1      32.576  25.704  27.367  1.00  0.00    +0.000 H 
ATOM      8  C6  UNL A   1      32.049  25.578  26.444  1.00  0.00    +0.000 C 
BRANCH    8    7
ATOM     99  H8  UNL A   1      30.624  24.252  27.303  1.00  0.00    +0.000 H 
ATOM    100  H9  UNL A   1      30.954  24.009  25.565  1.00  0.00    +0.000 H 
ATOM      7  C5  UNL A   1      31.366  24.205  26.533  1.00  0.00    +0.000 C 
BRANCH    7    6
ATOM     97  H6  UNL A   1      32.261  22.827  27.895  1.00  0.00    +0.000 H 
ATOM     98  H7  UNL A   1      32.002  22.192  26.276  1.00  0.00    +0.000 H 
ATOM      6  C4  UNL A   1      32.309  23.042  26.848  1.00  0.00    +0.000 C 
BRANCH    6    5
ATOM      5  N1  UNL A   1      33.673  23.369  26.493  1.00  0.00    +0.000 N 
ATOM     96  H5  UNL A   1      33.960  24.274  26.751  1.00  0.00    +0.000 H 
BRANCH    5    3
ATOM      3  C3  UNL A   1      34.627  22.628  25.859  1.00  0.00    +0.000 C 
ATOM      4  O1  UNL A   1      35.209  21.788  26.550  1.00  0.00    +0.000 O 
BRANCH    3    2
ATOM      2  C2  UNL A   1      34.957  22.883  24.375  1.00  0.00    +0.000 C 
ATOM     95  H4  UNL A   1      34.874  21.928  23.901  1.00  0.00    +0.000 H 
BRANCH    2    1
ATOM      1  C1  UNL A   1      36.385  23.399  24.162  1.00  0.00    +0.000 C 
ATOM     92  H1  UNL A   1      37.053  22.882  24.820  1.00  0.00    +0.000 H 
ATOM     93  H2  UNL A   1      36.420  24.448  24.371  1.00  0.00    +0.000 H 
ATOM     94  H3  UNL A   1      36.679  23.228  23.147  1.00  0.00    +0.000 H 
ENDBRANCH    2    1
BRANCH    2   78
ATOM    135  H44 UNL A   1      30.993  24.104  22.162  1.00  0.00    +0.000 H 
ATOM     78  C55 UNL A   1      33.967  23.854  23.725  1.00  0.00    +0.000 C 
ATOM     79  C56 UNL A   1      34.280  25.229  23.715  1.00  0.00    +0.000 C 
ATOM     80  C57 UNL A   1      33.416  26.173  23.163  1.00  0.00    +0.000 C 
ATOM     81  C58 UNL A   1      32.194  25.778  22.616  1.00  0.00    +0.000 C 
ATOM     89  C65 UNL A   1      31.881  24.413  22.590  1.00  0.00    +0.000 C 
ATOM     90  C66 UNL A   1      32.755  23.459  23.135  1.00  0.00    +0.000 C 
ATOM     91 Br1  UNL A   1      32.200  21.644  23.017  1.00  0.00    +0.000 Br
ATOM    124  H33 UNL A   1      35.171  25.544  24.127  1.00  0.00    +0.000 H 
ATOM    125  H34 UNL A   1      33.681  27.170  23.158  1.00  0.00    +0.000 H 
BRANCH   81   82
ATOM     82  C59 UNL A   1      31.223  26.809  22.095  1.00  0.00    +0.000 C 
ATOM    126  H35 UNL A   1      30.389  26.288  21.673  1.00  0.00    +0.000 H 
ATOM    127  H36 UNL A   1      31.777  27.395  21.392  1.00  0.00    +0.000 H 
BRANCH   82   83
ATOM    129  H38 UNL A   1      31.691  29.416  22.114  1.00  0.00    +0.000 H 
ATOM    130  H39 UNL A   1      31.133  29.849  23.687  1.00  0.00    +0.000 H 
ATOM    131  H40 UNL A   1      29.559  29.574  21.142  1.00  0.00    +0.000 H 
ATOM    132  H41 UNL A   1      29.457  30.837  22.301  1.00  0.00    +0.000 H 
ATOM    133  H42 UNL A   1      27.655  28.816  22.255  1.00  0.00    +0.000 H 
ATOM    134  H43 UNL A   1      28.067  29.530  23.742  1.00  0.00    +0.000 H 
ATOM     83  C60 UNL A   1      30.679  27.808  23.124  1.00  0.00    +0.000 C 
ATOM     84  C61 UNL A   1      30.885  29.293  22.807  1.00  0.00    +0.000 C 
ATOM     85  C62 UNL A   1      29.578  29.780  22.191  1.00  0.00    +0.000 C 
ATOM     86  C63 UNL A   1      28.481  29.006  22.907  1.00  0.00    +0.000 C 
ATOM     87  C64 UNL A   1      29.178  27.726  23.289  1.00  0.00    +0.000 C 
ATOM     88  O3  UNL A   1      28.593  26.734  23.709  1.00  0.00    +0.000 O 
ATOM    128  H37 UNL A   1      31.243  27.513  23.986  1.00  0.00    +0.000 H 
ENDBRANCH   82   83
ENDBRANCH   81   82
ENDBRANCH    2   78
ENDBRANCH    3    2
ENDBRANCH    5    3
ENDBRANCH    6    5
ENDBRANCH    7    6
ENDBRANCH    8    7
ENDBRANCH    9    8
ENDBRANCH   10    9
ENDBRANCH   11   10
ENDBRANCH   12   11
ENDBRANCH   13   12
ENDBRANCH   15   13
ENDBRANCH   19   18
BRANCH   23   24
ATOM     33  C24 UNL A   1      43.288  26.475  26.815  1.00  0.00    +0.000 C 
ATOM     34  F5  UNL A   1      43.896  27.668  26.900  1.00  0.00    +0.000 F 
ATOM     24  C19 UNL A   1      42.364  26.081  27.795  1.00  0.00    +0.000 C 
ATOM     25  C20 UNL A   1      41.752  24.827  27.657  1.00  0.00    +0.000 C 
ATOM     26  F1  UNL A   1      40.868  24.404  28.572  1.00  0.00    +0.000 F 
ATOM     27  C21 UNL A   1      42.058  23.997  26.581  1.00  0.00    +0.000 C 
ATOM     28  F2  UNL A   1      41.477  22.794  26.479  1.00  0.00    +0.000 F 
ATOM     29  C22 UNL A   1      42.961  24.414  25.615  1.00  0.00    +0.000 C 
ATOM     30  F3  UNL A   1      43.240  23.622  24.570  1.00  0.00    +0.000 F 
ATOM     31  C23 UNL A   1      43.576  25.653  25.730  1.00  0.00    +0.000 C 
ATOM     32  F4  UNL A   1      44.440  26.061  24.790  1.00  0.00    +0.000 F 
ENDBRANCH   23   24
BRANCH   40   41
ATOM     41  C30 UNL A   1      44.842  27.925  34.283  1.00  0.00    +0.000 C 
ATOM     42  C31 UNL A   1      46.003  28.711  34.315  1.00  0.00    +0.000 C 
ATOM     43  F6  UNL A   1      46.125  29.769  33.499  1.00  0.00    +0.000 F 
ATOM     44  C32 UNL A   1      47.059  28.389  35.163  1.00  0.00    +0.000 C 
ATOM     45  F7  UNL A   1      48.176  29.130  35.149  1.00  0.00    +0.000 F 
ATOM     46  C33 UNL A   1      46.962  27.297  36.012  1.00  0.00    +0.000 C 
ATOM     47  F8  UNL A   1      47.978  26.994  36.833  1.00  0.00    +0.000 F 
ATOM     48  C34 UNL A   1      45.817  26.515  36.006  1.00  0.00    +0.000 C 
ATOM     49  F9  UNL A   1      45.718  25.465  36.833  1.00  0.00    +0.000 F 
ATOM     50  C35 UNL A   1      44.770  26.818  35.141  1.00  0.00    +0.000 C 
ATOM     51  F10 UNL A   1      43.678  26.039  35.149  1.00  0.00    +0.000 F 
ENDBRANCH   40   41
BRANCH   55   56
ATOM     65  C44 UNL A   1      39.593  33.395  35.283  1.00  0.00    +0.000 C 
ATOM     66  F15 UNL A   1      40.357  33.988  34.354  1.00  0.00    +0.000 F 
ATOM     56  C39 UNL A   1      39.295  32.028  35.178  1.00  0.00    +0.000 C 
ATOM     57  C40 UNL A   1      38.497  31.456  36.178  1.00  0.00    +0.000 C 
ATOM     58  F11 UNL A   1      38.165  30.158  36.107  1.00  0.00    +0.000 F 
ATOM     59  C41 UNL A   1      37.994  32.225  37.225  1.00  0.00    +0.000 C 
ATOM     60  F12 UNL A   1      37.191  31.664  38.139  1.00  0.00    +0.000 F 
ATOM     61  C42 UNL A   1      38.306  33.574  37.310  1.00  0.00    +0.000 C 
ATOM     62  F13 UNL A   1      37.820  34.313  38.316  1.00  0.00    +0.000 F 
ATOM     63  C43 UNL A   1      39.113  34.156  36.345  1.00  0.00    +0.000 C 
ATOM     64  F14 UNL A   1      39.427  35.456  36.430  1.00  0.00    +0.000 F 
ENDBRANCH   55   56
TORSDOF 19
ENDMDL
MODEL 7
REMARK VINA RESULT:     -10.5      2.255      3.526
ROOT
ATOM     19  C15 UNL A   1      39.858  29.032  29.526  1.00  0.00    +0.000 C 
ATOM     20  C16 UNL A   1      40.542  27.801  29.003  1.00  0.00    +0.000 C 
ATOM     21  N3  UNL A   1      41.695  27.288  29.353  1.00  0.00    +0.000 N 
ATOM     22  C17 UNL A   1      41.838  26.131  28.598  1.00  0.00    +0.000 C 
ATOM     23  C18 UNL A   1      42.881  25.269  28.571  1.00  0.00    +0.000 C 
ATOM     35  C25 UNL A   1      44.089  25.427  29.339  1.00  0.00    +0.000 C 
ATOM     36  C26 UNL A   1      45.247  24.670  29.290  1.00  0.00    +0.000 C 
ATOM     37  C27 UNL A   1      46.131  25.159  30.255  1.00  0.00    +0.000 C 
ATOM     38  C28 UNL A   1      45.540  26.245  30.879  1.00  0.00    +0.000 C 
ATOM     39  N4  UNL A   1      44.292  26.405  30.300  1.00  0.00    +0.000 N 
ATOM     40  C29 UNL A   1      46.067  27.070  31.934  1.00  0.00    +0.000 C 
ATOM     52  C36 UNL A   1      45.453  28.169  32.437  1.00  0.00    +0.000 C 
ATOM     53  N5  UNL A   1      44.231  28.722  32.086  1.00  0.00    +0.000 N 
ATOM     54  C37 UNL A   1      44.067  29.758  32.869  1.00  0.00    +0.000 C 
ATOM     55  C38 UNL A   1      42.924  30.735  32.923  1.00  0.00    +0.000 C 
ATOM     67  C45 UNL A   1      41.899  30.600  32.060  1.00  0.00    +0.000 C 
ATOM     68  C46 UNL A   1      40.723  31.461  32.006  1.00  0.00    +0.000 C 
ATOM     69  C47 UNL A   1      39.869  30.978  31.090  1.00  0.00    +0.000 C 
ATOM     70  C48 UNL A   1      40.455  29.792  30.464  1.00  0.00    +0.000 C 
ATOM     71  N6  UNL A   1      41.678  29.665  31.078  1.00  0.00    +0.000 N 
ATOM     72  C49 UNL A   1      45.167  29.969  33.822  1.00  0.00    +0.000 C 
ATOM     73  C50 UNL A   1      46.001  28.994  33.493  1.00  0.00    +0.000 C 
ATOM     74  C51 UNL A   1      40.643  25.999  27.794  1.00  0.00    +0.000 C 
ATOM     75  C52 UNL A   1      39.830  27.033  27.970  1.00  0.00    +0.000 C 
ATOM    112  H21 UNL A   1      45.426  23.880  28.649  1.00  0.00    +0.000 H 
ATOM    113  H22 UNL A   1      47.066  24.776  30.468  1.00  0.00    +0.000 H 
ATOM    114  H23 UNL A   1      43.645  27.109  30.536  1.00  0.00    +0.000 H 
ATOM    115  H24 UNL A   1      40.572  32.305  32.580  1.00  0.00    +0.000 H 
ATOM    116  H25 UNL A   1      38.945  31.379  30.864  1.00  0.00    +0.000 H 
ATOM    117  H26 UNL A   1      42.334  28.971  30.836  1.00  0.00    +0.000 H 
ATOM    118  H27 UNL A   1      45.263  30.689  34.555  1.00  0.00    +0.000 H 
ATOM    119  H28 UNL A   1      46.922  28.843  33.932  1.00  0.00    +0.000 H 
ATOM    120  H29 UNL A   1      40.447  25.204  27.166  1.00  0.00    +0.000 H 
ATOM    121  H30 UNL A   1      38.934  27.244  27.505  1.00  0.00    +0.000 H 
ENDROOT
BRANCH   19   18
ATOM     76  C53 UNL A   1      38.256  29.811  27.777  1.00  0.00    +0.000 C 
ATOM     77  C54 UNL A   1      36.959  30.044  27.321  1.00  0.00    +0.000 C 
ATOM    110  H19 UNL A   1      35.276  29.235  30.109  1.00  0.00    +0.000 H 
ATOM     15  C11 UNL A   1      35.871  29.759  28.150  1.00  0.00    +0.000 C 
ATOM     16  C12 UNL A   1      36.080  29.381  29.480  1.00  0.00    +0.000 C 
ATOM     17  C13 UNL A   1      37.382  29.201  29.952  1.00  0.00    +0.000 C 
ATOM    111  H20 UNL A   1      37.539  28.944  30.940  1.00  0.00    +0.000 H 
ATOM     18  C14 UNL A   1      38.478  29.371  29.091  1.00  0.00    +0.000 C 
ATOM    122  H31 UNL A   1      39.058  29.965  27.145  1.00  0.00    +0.000 H 
ATOM    123  H32 UNL A   1      36.804  30.425  26.375  1.00  0.00    +0.000 H 
BRANCH   15   13
ATOM     13  C10 UNL A   1      34.483  29.844  27.643  1.00  0.00    +0.000 C 
ATOM     14  O2  UNL A   1      33.840  30.877  27.803  1.00  0.00    +0.000 O 
BRANCH   13   12
ATOM     12  N2  UNL A   1      33.914  28.762  27.018  1.00  0.00    +0.000 N 
ATOM    109  H18 UNL A   1      34.481  28.315  26.349  1.00  0.00    +0.000 H 
BRANCH   12   11
ATOM     11  C9  UNL A   1      32.594  28.181  27.203  1.00  0.00    +0.000 C 
ATOM    108  H17 UNL A   1      31.875  28.884  26.835  1.00  0.00    +0.000 H 
ATOM    107  H16 UNL A   1      32.449  27.981  28.244  1.00  0.00    +0.000 H 
BRANCH   11   10
ATOM    105  H14 UNL A   1      32.113  26.120  27.113  1.00  0.00    +0.000 H 
ATOM     10  C8  UNL A   1      32.413  26.881  26.424  1.00  0.00    +0.000 C 
ATOM    106  H15 UNL A   1      31.682  27.083  25.670  1.00  0.00    +0.000 H 
BRANCH   10    9
ATOM      9  C7  UNL A   1      33.662  26.389  25.689  1.00  0.00    +0.000 C 
ATOM    103  H12 UNL A   1      33.474  26.455  24.638  1.00  0.00    +0.000 H 
ATOM    104  H13 UNL A   1      34.465  27.014  26.021  1.00  0.00    +0.000 H 
BRANCH    9    8
ATOM    101  H10 UNL A   1      34.325  24.901  27.047  1.00  0.00    +0.000 H 
ATOM    102  H11 UNL A   1      33.260  24.333  25.720  1.00  0.00    +0.000 H 
ATOM      8  C6  UNL A   1      34.086  24.952  26.005  1.00  0.00    +0.000 C 
BRANCH    8    7
ATOM     99  H8  UNL A   1      34.995  24.287  24.200  1.00  0.00    +0.000 H 
ATOM    100  H9  UNL A   1      36.069  25.159  25.329  1.00  0.00    +0.000 H 
ATOM      7  C5  UNL A   1      35.296  24.428  25.217  1.00  0.00    +0.000 C 
BRANCH    7    6
ATOM     97  H6  UNL A   1      36.537  22.705  24.999  1.00  0.00    +0.000 H 
ATOM     98  H7  UNL A   1      36.387  23.296  26.649  1.00  0.00    +0.000 H 
ATOM      6  C4  UNL A   1      35.869  23.106  25.732  1.00  0.00    +0.000 C 
BRANCH    6    5
ATOM      5  N1  UNL A   1      34.816  22.148  25.989  1.00  0.00    +0.000 N 
ATOM     96  H5  UNL A   1      34.357  22.261  26.853  1.00  0.00    +0.000 H 
BRANCH    5    3
ATOM      3  C3  UNL A   1      34.353  21.113  25.231  1.00  0.00    +0.000 C 
ATOM      4  O1  UNL A   1      35.199  20.300  24.849  1.00  0.00    +0.000 O 
BRANCH    3    2
ATOM      2  C2  UNL A   1      32.859  21.021  24.861  1.00  0.00    +0.000 C 
ATOM     95  H4  UNL A   1      32.350  20.859  25.788  1.00  0.00    +0.000 H 
BRANCH    2    1
ATOM      1  C1  UNL A   1      32.546  19.842  23.933  1.00  0.00    +0.000 C 
ATOM     92  H1  UNL A   1      32.093  20.206  23.034  1.00  0.00    +0.000 H 
ATOM     93  H2  UNL A   1      31.874  19.170  24.423  1.00  0.00    +0.000 H 
ATOM     94  H3  UNL A   1      33.452  19.327  23.692  1.00  0.00    +0.000 H 
ENDBRANCH    2    1
BRANCH    2   78
ATOM    135  H44 UNL A   1      30.220  24.903  24.600  1.00  0.00    +0.000 H 
ATOM     78  C55 UNL A   1      32.345  22.315  24.224  1.00  0.00    +0.000 C 
ATOM     79  C56 UNL A   1      32.899  22.728  22.996  1.00  0.00    +0.000 C 
ATOM     80  C57 UNL A   1      32.497  23.907  22.369  1.00  0.00    +0.000 C 
ATOM     81  C58 UNL A   1      31.537  24.729  22.961  1.00  0.00    +0.000 C 
ATOM     89  C65 UNL A   1      30.953  24.319  24.166  1.00  0.00    +0.000 C 
ATOM     90  C66 UNL A   1      31.348  23.126  24.792  1.00  0.00    +0.000 C 
ATOM     91 Br1  UNL A   1      30.460  22.694  26.417  1.00  0.00    +0.000 Br
ATOM    124  H33 UNL A   1      33.621  22.143  22.548  1.00  0.00    +0.000 H 
ATOM    125  H34 UNL A   1      32.911  24.174  21.463  1.00  0.00    +0.000 H 
BRANCH   81   82
ATOM     82  C59 UNL A   1      31.163  26.046  22.324  1.00  0.00    +0.000 C 
ATOM    126  H35 UNL A   1      30.296  25.882  21.719  1.00  0.00    +0.000 H 
ATOM    127  H36 UNL A   1      32.029  26.355  21.777  1.00  0.00    +0.000 H 
BRANCH   82   83
ATOM    129  H38 UNL A   1      32.353  28.412  22.338  1.00  0.00    +0.000 H 
ATOM    130  H39 UNL A   1      31.825  29.048  23.850  1.00  0.00    +0.000 H 
ATOM    131  H40 UNL A   1      30.435  29.128  21.188  1.00  0.00    +0.000 H 
ATOM    132  H41 UNL A   1      30.611  30.414  22.313  1.00  0.00    +0.000 H 
ATOM    133  H42 UNL A   1      28.316  28.986  22.151  1.00  0.00    +0.000 H 
ATOM    134  H43 UNL A   1      28.801  29.613  23.655  1.00  0.00    +0.000 H 
ATOM     83  C60 UNL A   1      30.852  27.198  23.287  1.00  0.00    +0.000 C 
ATOM     84  C61 UNL A   1      31.496  28.550  22.963  1.00  0.00    +0.000 C 
ATOM     85  C62 UNL A   1      30.434  29.362  22.232  1.00  0.00    +0.000 C 
ATOM     86  C63 UNL A   1      29.110  28.960  22.866  1.00  0.00    +0.000 C 
ATOM     87  C64 UNL A   1      29.382  27.551  23.327  1.00  0.00    +0.000 C 
ATOM     88  O3  UNL A   1      28.508  26.784  23.714  1.00  0.00    +0.000 O 
ATOM    128  H37 UNL A   1      31.242  26.791  24.198  1.00  0.00    +0.000 H 
ENDBRANCH   82   83
ENDBRANCH   81   82
ENDBRANCH    2   78
ENDBRANCH    3    2
ENDBRANCH    5    3
ENDBRANCH    6    5
ENDBRANCH    7    6
ENDBRANCH    8    7
ENDBRANCH    9    8
ENDBRANCH   10    9
ENDBRANCH   11   10
ENDBRANCH   12   11
ENDBRANCH   13   12
ENDBRANCH   15   13
ENDBRANCH   19   18
BRANCH   23   24
ATOM     33  C24 UNL A   1      42.428  22.821  28.204  1.00  0.00    +0.000 C 
ATOM     34  F5  UNL A   1      42.096  22.704  29.498  1.00  0.00    +0.000 F 
ATOM     24  C19 UNL A   1      42.784  24.071  27.676  1.00  0.00    +0.000 C 
ATOM     25  C20 UNL A   1      43.128  24.139  26.319  1.00  0.00    +0.000 C 
ATOM     26  F1  UNL A   1      43.469  25.313  25.767  1.00  0.00    +0.000 F 
ATOM     27  C21 UNL A   1      43.112  22.999  25.519  1.00  0.00    +0.000 C 
ATOM     28  F2  UNL A   1      43.425  23.089  24.219  1.00  0.00    +0.000 F 
ATOM     29  C22 UNL A   1      42.774  21.770  26.066  1.00  0.00    +0.000 C 
ATOM     30  F3  UNL A   1      42.778  20.670  25.300  1.00  0.00    +0.000 F 
ATOM     31  C23 UNL A   1      42.433  21.680  27.408  1.00  0.00    +0.000 C 
ATOM     32  F4  UNL A   1      42.118  20.490  27.940  1.00  0.00    +0.000 F 
ENDBRANCH   23   24
BRANCH   40   41
ATOM     41  C30 UNL A   1      47.398  26.701  32.515  1.00  0.00    +0.000 C 
ATOM     42  C31 UNL A   1      48.584  27.283  32.045  1.00  0.00    +0.000 C 
ATOM     43  F6  UNL A   1      48.551  28.146  31.018  1.00  0.00    +0.000 F 
ATOM     44  C32 UNL A   1      49.814  26.952  32.607  1.00  0.00    +0.000 C 
ATOM     45  F7  UNL A   1      50.939  27.489  32.115  1.00  0.00    +0.000 F 
ATOM     46  C33 UNL A   1      49.878  26.058  33.664  1.00  0.00    +0.000 C 
ATOM     47  F8  UNL A   1      51.063  25.746  34.209  1.00  0.00    +0.000 F 
ATOM     48  C34 UNL A   1      48.715  25.481  34.154  1.00  0.00    +0.000 C 
ATOM     49  F9  UNL A   1      48.775  24.625  35.183  1.00  0.00    +0.000 F 
ATOM     50  C35 UNL A   1      47.487  25.790  33.578  1.00  0.00    +0.000 C 
ATOM     51  F10 UNL A   1      46.380  25.210  34.065  1.00  0.00    +0.000 F 
ENDBRANCH   40   41
BRANCH   55   56
ATOM     65  C44 UNL A   1      43.502  33.079  33.639  1.00  0.00    +0.000 C 
ATOM     66  F15 UNL A   1      44.103  33.285  32.458  1.00  0.00    +0.000 F 
ATOM     56  C39 UNL A   1      42.918  31.835  33.921  1.00  0.00    +0.000 C 
ATOM     57  C40 UNL A   1      42.307  31.670  35.171  1.00  0.00    +0.000 C 
ATOM     58  F11 UNL A   1      41.714  30.506  35.477  1.00  0.00    +0.000 F 
ATOM     59  C41 UNL A   1      42.257  32.715  36.092  1.00  0.00    +0.000 C 
ATOM     60  F12 UNL A   1      41.620  32.546  37.259  1.00  0.00    +0.000 F 
ATOM     61  C42 UNL A   1      42.844  33.935  35.792  1.00  0.00    +0.000 C 
ATOM     62  F13 UNL A   1      42.793  34.940  36.676  1.00  0.00    +0.000 F 
ATOM     63  C43 UNL A   1      43.475  34.114  34.570  1.00  0.00    +0.000 C 
ATOM     64  F14 UNL A   1      44.055  35.287  34.282  1.00  0.00    +0.000 F 
ENDBRANCH   55   56
TORSDOF 19
ENDMDL
MODEL 8
REMARK VINA RESULT:     -10.5      4.114      6.990
ROOT
ATOM     19  C15 UNL A   1      41.152  26.715  27.675  1.00  0.00    +0.000 C 
ATOM     20  C16 UNL A   1      42.595  26.945  27.329  1.00  0.00    +0.000 C 
ATOM     21  N3  UNL A   1      43.349  27.984  27.588  1.00  0.00    +0.000 N 
ATOM     22  C17 UNL A   1      44.608  27.670  27.092  1.00  0.00    +0.000 C 
ATOM     23  C18 UNL A   1      45.723  28.438  27.082  1.00  0.00    +0.000 C 
ATOM     35  C25 UNL A   1      45.789  29.785  27.587  1.00  0.00    +0.000 C 
ATOM     36  C26 UNL A   1      46.841  30.681  27.514  1.00  0.00    +0.000 C 
ATOM     37  C27 UNL A   1      46.470  31.848  28.189  1.00  0.00    +0.000 C 
ATOM     38  C28 UNL A   1      45.173  31.692  28.649  1.00  0.00    +0.000 C 
ATOM     39  N4  UNL A   1      44.764  30.427  28.263  1.00  0.00    +0.000 N 
ATOM     40  C29 UNL A   1      44.368  32.623  29.395  1.00  0.00    +0.000 C 
ATOM     52  C36 UNL A   1      43.073  32.423  29.740  1.00  0.00    +0.000 C 
ATOM     53  N5  UNL A   1      42.262  31.328  29.483  1.00  0.00    +0.000 N 
ATOM     54  C37 UNL A   1      41.106  31.599  30.036  1.00  0.00    +0.000 C 
ATOM     55  C38 UNL A   1      39.850  30.771  30.062  1.00  0.00    +0.000 C 
ATOM     67  C45 UNL A   1      39.830  29.582  29.431  1.00  0.00    +0.000 C 
ATOM     68  C46 UNL A   1      38.692  28.671  29.386  1.00  0.00    +0.000 C 
ATOM     69  C47 UNL A   1      39.057  27.546  28.751  1.00  0.00    +0.000 C 
ATOM     70  C48 UNL A   1      40.448  27.672  28.313  1.00  0.00    +0.000 C 
ATOM     71  N6  UNL A   1      40.813  28.929  28.728  1.00  0.00    +0.000 N 
ATOM     72  C49 UNL A   1      41.060  32.897  30.725  1.00  0.00    +0.000 C 
ATOM     73  C50 UNL A   1      42.273  33.373  30.484  1.00  0.00    +0.000 C 
ATOM     74  C51 UNL A   1      44.527  26.333  26.544  1.00  0.00    +0.000 C 
ATOM     75  C52 UNL A   1      43.290  25.859  26.621  1.00  0.00    +0.000 C 
ATOM    112  H21 UNL A   1      47.745  30.517  27.041  1.00  0.00    +0.000 H 
ATOM    113  H22 UNL A   1      47.062  32.683  28.323  1.00  0.00    +0.000 H 
ATOM    114  H23 UNL A   1      43.876  30.040  28.443  1.00  0.00    +0.000 H 
ATOM    115  H24 UNL A   1      37.756  28.861  29.777  1.00  0.00    +0.000 H 
ATOM    116  H25 UNL A   1      38.454  26.723  28.599  1.00  0.00    +0.000 H 
ATOM    117  H26 UNL A   1      41.695  29.325  28.539  1.00  0.00    +0.000 H 
ATOM    118  H27 UNL A   1      40.287  33.326  31.256  1.00  0.00    +0.000 H 
ATOM    119  H28 UNL A   1      42.605  34.302  30.787  1.00  0.00    +0.000 H 
ATOM    120  H29 UNL A   1      45.326  25.816  26.147  1.00  0.00    +0.000 H 
ATOM    121  H30 UNL A   1      42.913  24.962  26.276  1.00  0.00    +0.000 H 
ENDROOT
BRANCH   19   18
ATOM     76  C53 UNL A   1      39.345  25.344  26.633  1.00  0.00    +0.000 C 
ATOM     77  C54 UNL A   1      38.782  24.114  26.294  1.00  0.00    +0.000 C 
ATOM    110  H19 UNL A   1      40.993  22.097  27.811  1.00  0.00    +0.000 H 
ATOM     15  C11 UNL A   1      39.429  22.931  26.661  1.00  0.00    +0.000 C 
ATOM     16  C12 UNL A   1      40.556  22.973  27.488  1.00  0.00    +0.000 C 
ATOM     17  C13 UNL A   1      41.087  24.206  27.873  1.00  0.00    +0.000 C 
ATOM    111  H20 UNL A   1      41.905  24.239  28.502  1.00  0.00    +0.000 H 
ATOM     18  C14 UNL A   1      40.512  25.401  27.410  1.00  0.00    +0.000 C 
ATOM    122  H31 UNL A   1      38.900  26.218  26.311  1.00  0.00    +0.000 H 
ATOM    123  H32 UNL A   1      37.892  24.078  25.774  1.00  0.00    +0.000 H 
BRANCH   15   13
ATOM     13  C10 UNL A   1      38.945  21.618  26.182  1.00  0.00    +0.000 C 
ATOM     14  O2  UNL A   1      39.716  20.663  26.143  1.00  0.00    +0.000 O 
BRANCH   13   12
ATOM     12  N2  UNL A   1      37.645  21.477  25.762  1.00  0.00    +0.000 N 
ATOM    109  H18 UNL A   1      36.974  21.421  26.480  1.00  0.00    +0.000 H 
BRANCH   12   11
ATOM     11  C9  UNL A   1      37.118  21.400  24.410  1.00  0.00    +0.000 C 
ATOM    108  H17 UNL A   1      36.248  20.777  24.435  1.00  0.00    +0.000 H 
ATOM    107  H16 UNL A   1      37.873  20.993  23.769  1.00  0.00    +0.000 H 
BRANCH   11   10
ATOM    105  H14 UNL A   1      37.203  23.517  24.435  1.00  0.00    +0.000 H 
ATOM     10  C8  UNL A   1      36.698  22.764  23.867  1.00  0.00    +0.000 C 
ATOM    106  H15 UNL A   1      36.962  22.767  22.830  1.00  0.00    +0.000 H 
BRANCH   10    9
ATOM      9  C7  UNL A   1      35.196  23.050  23.929  1.00  0.00    +0.000 C 
ATOM    103  H12 UNL A   1      34.744  22.632  23.054  1.00  0.00    +0.000 H 
ATOM    104  H13 UNL A   1      34.850  22.612  24.842  1.00  0.00    +0.000 H 
BRANCH    9    8
ATOM    101  H10 UNL A   1      34.359  24.710  24.951  1.00  0.00    +0.000 H 
ATOM    102  H11 UNL A   1      35.722  25.076  23.843  1.00  0.00    +0.000 H 
ATOM      8  C6  UNL A   1      34.814  24.532  23.998  1.00  0.00    +0.000 C 
BRANCH    8    7
ATOM     99  H8  UNL A   1      34.258  24.772  21.959  1.00  0.00    +0.000 H 
ATOM    100  H9  UNL A   1      32.908  24.527  23.102  1.00  0.00    +0.000 H 
ATOM      7  C5  UNL A   1      33.841  25.017  22.913  1.00  0.00    +0.000 C 
BRANCH    7    6
ATOM     97  H6  UNL A   1      34.231  27.016  22.273  1.00  0.00    +0.000 H 
ATOM     98  H7  UNL A   1      32.543  26.678  22.633  1.00  0.00    +0.000 H 
ATOM      6  C4  UNL A   1      33.556  26.520  22.939  1.00  0.00    +0.000 C 
BRANCH    6    5
ATOM      5  N1  UNL A   1      33.724  27.058  24.271  1.00  0.00    +0.000 N 
ATOM     96  H5  UNL A   1      34.531  26.749  24.741  1.00  0.00    +0.000 H 
BRANCH    5    3
ATOM      3  C3  UNL A   1      32.947  27.924  24.983  1.00  0.00    +0.000 C 
ATOM      4  O1  UNL A   1      33.238  29.119  24.887  1.00  0.00    +0.000 O 
BRANCH    3    2
ATOM      2  C2  UNL A   1      31.806  27.398  25.877  1.00  0.00    +0.000 C 
ATOM     95  H4  UNL A   1      30.918  27.859  25.499  1.00  0.00    +0.000 H 
BRANCH    2    1
ATOM      1  C1  UNL A   1      31.965  27.802  27.347  1.00  0.00    +0.000 C 
ATOM     92  H1  UNL A   1      31.149  28.432  27.634  1.00  0.00    +0.000 H 
ATOM     93  H2  UNL A   1      32.886  28.333  27.473  1.00  0.00    +0.000 H 
ATOM     94  H3  UNL A   1      31.973  26.925  27.960  1.00  0.00    +0.000 H 
ENDBRANCH    2    1
BRANCH    2   78
ATOM    135  H44 UNL A   1      30.128  23.361  24.150  1.00  0.00    +0.000 H 
ATOM     78  C55 UNL A   1      31.660  25.876  25.785  1.00  0.00    +0.000 C 
ATOM     79  C56 UNL A   1      32.421  25.072  26.658  1.00  0.00    +0.000 C 
ATOM     80  C57 UNL A   1      32.357  23.680  26.616  1.00  0.00    +0.000 C 
ATOM     81  C58 UNL A   1      31.543  23.039  25.681  1.00  0.00    +0.000 C 
ATOM     89  C65 UNL A   1      30.756  23.822  24.826  1.00  0.00    +0.000 C 
ATOM     90  C66 UNL A   1      30.811  25.224  24.876  1.00  0.00    +0.000 C 
ATOM     91 Br1  UNL A   1      29.680  26.154  23.662  1.00  0.00    +0.000 Br
ATOM    124  H33 UNL A   1      33.040  25.526  27.347  1.00  0.00    +0.000 H 
ATOM    125  H34 UNL A   1      32.914  23.121  27.279  1.00  0.00    +0.000 H 
BRANCH   81   82
ATOM     82  C59 UNL A   1      31.538  21.533  25.580  1.00  0.00    +0.000 C 
ATOM    126  H35 UNL A   1      30.631  21.241  25.092  1.00  0.00    +0.000 H 
ATOM    127  H36 UNL A   1      31.631  21.178  26.585  1.00  0.00    +0.000 H 
BRANCH   82   83
ATOM    129  H38 UNL A   1      33.095  19.581  26.464  1.00  0.00    +0.000 H 
ATOM    130  H39 UNL A   1      34.382  19.629  25.318  1.00  0.00    +0.000 H 
ATOM    131  H40 UNL A   1      31.743  18.206  25.125  1.00  0.00    +0.000 H 
ATOM    132  H41 UNL A   1      33.295  17.587  24.723  1.00  0.00    +0.000 H 
ATOM    133  H42 UNL A   1      31.608  18.510  22.816  1.00  0.00    +0.000 H 
ATOM    134  H43 UNL A   1      33.285  18.682  22.597  1.00  0.00    +0.000 H 
ATOM     83  C60 UNL A   1      32.707  20.903  24.811  1.00  0.00    +0.000 C 
ATOM     84  C61 UNL A   1      33.317  19.636  25.419  1.00  0.00    +0.000 C 
ATOM     85  C62 UNL A   1      32.682  18.463  24.681  1.00  0.00    +0.000 C 
ATOM     86  C63 UNL A   1      32.482  18.946  23.252  1.00  0.00    +0.000 C 
ATOM     87  C64 UNL A   1      32.317  20.433  23.428  1.00  0.00    +0.000 C 
ATOM     88  O3  UNL A   1      31.931  21.183  22.539  1.00  0.00    +0.000 O 
ATOM    128  H37 UNL A   1      33.403  21.717  24.831  1.00  0.00    +0.000 H 
ENDBRANCH   82   83
ENDBRANCH   81   82
ENDBRANCH    2   78
ENDBRANCH    3    2
ENDBRANCH    5    3
ENDBRANCH    6    5
ENDBRANCH    7    6
ENDBRANCH    8    7
ENDBRANCH    9    8
ENDBRANCH   10    9
ENDBRANCH   11   10
ENDBRANCH   12   11
ENDBRANCH   13   12
ENDBRANCH   15   13
ENDBRANCH   19   18
BRANCH   23   24
ATOM     33  C24 UNL A   1      47.201  27.908  25.116  1.00  0.00    +0.000 C 
ATOM     34  F5  UNL A   1      46.337  28.547  24.313  1.00  0.00    +0.000 F 
ATOM     24  C19 UNL A   1      46.975  27.856  26.500  1.00  0.00    +0.000 C 
ATOM     25  C20 UNL A   1      47.905  27.170  27.295  1.00  0.00    +0.000 C 
ATOM     26  F1  UNL A   1      47.734  27.100  28.623  1.00  0.00    +0.000 F 
ATOM     27  C21 UNL A   1      49.022  26.564  26.725  1.00  0.00    +0.000 C 
ATOM     28  F2  UNL A   1      49.908  25.931  27.505  1.00  0.00    +0.000 F 
ATOM     29  C22 UNL A   1      49.216  26.612  25.353  1.00  0.00    +0.000 C 
ATOM     30  F3  UNL A   1      50.282  26.011  24.805  1.00  0.00    +0.000 F 
ATOM     31  C23 UNL A   1      48.307  27.282  24.548  1.00  0.00    +0.000 C 
ATOM     32  F4  UNL A   1      48.489  27.319  23.220  1.00  0.00    +0.000 F 
ENDBRANCH   23   24
BRANCH   40   41
ATOM     41  C30 UNL A   1      44.998  33.916  29.816  1.00  0.00    +0.000 C 
ATOM     42  C31 UNL A   1      45.700  34.024  31.025  1.00  0.00    +0.000 C 
ATOM     43  F6  UNL A   1      45.770  32.976  31.861  1.00  0.00    +0.000 F 
ATOM     44  C32 UNL A   1      46.301  35.223  31.397  1.00  0.00    +0.000 C 
ATOM     45  F7  UNL A   1      46.932  35.315  32.577  1.00  0.00    +0.000 F 
ATOM     46  C33 UNL A   1      46.239  36.323  30.557  1.00  0.00    +0.000 C 
ATOM     47  F8  UNL A   1      46.826  37.475  30.914  1.00  0.00    +0.000 F 
ATOM     48  C34 UNL A   1      45.562  36.234  29.349  1.00  0.00    +0.000 C 
ATOM     49  F9  UNL A   1      45.509  37.295  28.531  1.00  0.00    +0.000 F 
ATOM     50  C35 UNL A   1      44.937  35.045  28.986  1.00  0.00    +0.000 C 
ATOM     51  F10 UNL A   1      44.281  34.990  27.817  1.00  0.00    +0.000 F 
ENDBRANCH   40   41
BRANCH   55   56
ATOM     65  C44 UNL A   1      37.597  31.894  30.103  1.00  0.00    +0.000 C 
ATOM     66  F15 UNL A   1      37.683  32.104  28.782  1.00  0.00    +0.000 F 
ATOM     56  C39 UNL A   1      38.644  31.254  30.782  1.00  0.00    +0.000 C 
ATOM     57  C40 UNL A   1      38.505  31.063  32.164  1.00  0.00    +0.000 C 
ATOM     58  F11 UNL A   1      39.470  30.434  32.852  1.00  0.00    +0.000 F 
ATOM     59  C41 UNL A   1      37.354  31.471  32.835  1.00  0.00    +0.000 C 
ATOM     60  F12 UNL A   1      37.224  31.229  34.146  1.00  0.00    +0.000 F 
ATOM     61  C42 UNL A   1      36.333  32.105  32.142  1.00  0.00    +0.000 C 
ATOM     62  F13 UNL A   1      35.225  32.495  32.787  1.00  0.00    +0.000 F 
ATOM     63  C43 UNL A   1      36.458  32.326  30.779  1.00  0.00    +0.000 C 
ATOM     64  F14 UNL A   1      35.480  32.949  30.109  1.00  0.00    +0.000 F 
ENDBRANCH   55   56
TORSDOF 19
ENDMDL
MODEL 9
REMARK VINA RESULT:     -10.4      1.695      8.297
ROOT
ATOM     19  C15 UNL A   1      38.246  29.817  29.938  1.00  0.00    +0.000 C 
ATOM     20  C16 UNL A   1      38.503  30.342  31.321  1.00  0.00    +0.000 C 
ATOM     21  N3  UNL A   1      39.522  30.116  32.112  1.00  0.00    +0.000 N 
ATOM     22  C17 UNL A   1      39.290  30.875  33.252  1.00  0.00    +0.000 C 
ATOM     23  C18 UNL A   1      40.038  30.950  34.378  1.00  0.00    +0.000 C 
ATOM     35  C25 UNL A   1      41.246  30.201  34.605  1.00  0.00    +0.000 C 
ATOM     36  C26 UNL A   1      42.008  30.123  35.759  1.00  0.00    +0.000 C 
ATOM     37  C27 UNL A   1      43.120  29.319  35.495  1.00  0.00    +0.000 C 
ATOM     38  C28 UNL A   1      43.033  28.866  34.189  1.00  0.00    +0.000 C 
ATOM     39  N4  UNL A   1      41.873  29.405  33.658  1.00  0.00    +0.000 N 
ATOM     40  C29 UNL A   1      43.943  28.013  33.472  1.00  0.00    +0.000 C 
ATOM     52  C36 UNL A   1      43.743  27.549  32.215  1.00  0.00    +0.000 C 
ATOM     53  N5  UNL A   1      42.676  27.784  31.359  1.00  0.00    +0.000 N 
ATOM     54  C37 UNL A   1      42.952  27.138  30.255  1.00  0.00    +0.000 C 
ATOM     55  C38 UNL A   1      42.143  27.031  28.990  1.00  0.00    +0.000 C 
ATOM     67  C45 UNL A   1      40.947  27.645  28.919  1.00  0.00    +0.000 C 
ATOM     68  C46 UNL A   1      40.065  27.639  27.757  1.00  0.00    +0.000 C 
ATOM     69  C47 UNL A   1      39.006  28.425  28.008  1.00  0.00    +0.000 C 
ATOM     70  C48 UNL A   1      39.117  28.961  29.366  1.00  0.00    +0.000 C 
ATOM     71  N6  UNL A   1      40.283  28.414  29.844  1.00  0.00    +0.000 N 
ATOM     72  C49 UNL A   1      44.240  26.429  30.280  1.00  0.00    +0.000 C 
ATOM     73  C50 UNL A   1      44.664  26.684  31.510  1.00  0.00    +0.000 C 
ATOM     74  C51 UNL A   1      38.052  31.593  33.040  1.00  0.00    +0.000 C 
ATOM     75  C52 UNL A   1      37.499  31.260  31.880  1.00  0.00    +0.000 C 
ATOM    112  H21 UNL A   1      41.790  30.578  36.659  1.00  0.00    +0.000 H 
ATOM    113  H22 UNL A   1      43.880  29.101  36.160  1.00  0.00    +0.000 H 
ATOM    114  H23 UNL A   1      41.542  29.248  32.744  1.00  0.00    +0.000 H 
ATOM    115  H24 UNL A   1      40.228  27.115  26.883  1.00  0.00    +0.000 H 
ATOM    116  H25 UNL A   1      38.237  28.620  27.349  1.00  0.00    +0.000 H 
ATOM    117  H26 UNL A   1      40.610  28.558  30.761  1.00  0.00    +0.000 H 
ATOM    118  H27 UNL A   1      44.695  25.877  29.536  1.00  0.00    +0.000 H 
ATOM    119  H28 UNL A   1      45.539  26.313  31.913  1.00  0.00    +0.000 H 
ATOM    120  H29 UNL A   1      37.652  32.274  33.703  1.00  0.00    +0.000 H 
ATOM    121  H30 UNL A   1      36.600  31.565  31.476  1.00  0.00    +0.000 H 
ENDROOT
BRANCH   19   18
ATOM     76  C53 UNL A   1      36.074  29.408  28.778  1.00  0.00    +0.000 C 
ATOM     77  C54 UNL A   1      34.933  29.865  28.118  1.00  0.00    +0.000 C 
ATOM    110  H19 UNL A   1      35.687  33.132  27.979  1.00  0.00    +0.000 H 
ATOM     15  C11 UNL A   1      34.761  31.234  27.897  1.00  0.00    +0.000 C 
ATOM     16  C12 UNL A   1      35.790  32.130  28.203  1.00  0.00    +0.000 C 
ATOM     17  C13 UNL A   1      36.957  31.664  28.814  1.00  0.00    +0.000 C 
ATOM    111  H20 UNL A   1      37.726  32.320  29.020  1.00  0.00    +0.000 H 
ATOM     18  C14 UNL A   1      37.088  30.306  29.147  1.00  0.00    +0.000 C 
ATOM    122  H31 UNL A   1      36.174  28.404  28.994  1.00  0.00    +0.000 H 
ATOM    123  H32 UNL A   1      34.219  29.194  27.795  1.00  0.00    +0.000 H 
BRANCH   15   13
ATOM     13  C10 UNL A   1      33.495  31.764  27.345  1.00  0.00    +0.000 C 
ATOM     14  O2  UNL A   1      33.164  32.921  27.585  1.00  0.00    +0.000 O 
BRANCH   13   12
ATOM     12  N2  UNL A   1      32.685  30.954  26.588  1.00  0.00    +0.000 N 
ATOM    109  H18 UNL A   1      32.650  31.171  25.629  1.00  0.00    +0.000 H 
BRANCH   12   11
ATOM     11  C9  UNL A   1      31.872  29.821  27.000  1.00  0.00    +0.000 C 
ATOM    108  H17 UNL A   1      30.853  30.148  27.037  1.00  0.00    +0.000 H 
ATOM    107  H16 UNL A   1      32.211  29.484  27.958  1.00  0.00    +0.000 H 
BRANCH   11   10
ATOM    105  H14 UNL A   1      32.867  28.133  26.194  1.00  0.00    +0.000 H 
ATOM     10  C8  UNL A   1      31.951  28.656  26.016  1.00  0.00    +0.000 C 
ATOM    106  H15 UNL A   1      31.080  28.059  26.189  1.00  0.00    +0.000 H 
BRANCH   10    9
ATOM      9  C7  UNL A   1      31.911  29.054  24.539  1.00  0.00    +0.000 C 
ATOM    103  H12 UNL A   1      32.475  29.956  24.425  1.00  0.00    +0.000 H 
ATOM    104  H13 UNL A   1      32.317  28.224  23.999  1.00  0.00    +0.000 H 
BRANCH    9    8
ATOM    101  H10 UNL A   1      29.822  29.325  24.779  1.00  0.00    +0.000 H 
ATOM    102  H11 UNL A   1      30.574  30.207  23.411  1.00  0.00    +0.000 H 
ATOM      8  C6  UNL A   1      30.513  29.292  23.962  1.00  0.00    +0.000 C 
BRANCH    8    7
ATOM     99  H8  UNL A   1      29.499  28.735  22.177  1.00  0.00    +0.000 H 
ATOM    100  H9  UNL A   1      30.884  27.704  22.631  1.00  0.00    +0.000 H 
ATOM      7  C5  UNL A   1      30.017  28.233  22.967  1.00  0.00    +0.000 C 
BRANCH    7    6
ATOM     97  H6  UNL A   1      28.780  27.502  24.546  1.00  0.00    +0.000 H 
ATOM     98  H7  UNL A   1      28.220  27.096  22.929  1.00  0.00    +0.000 H 
ATOM      6  C4  UNL A   1      29.074  27.187  23.566  1.00  0.00    +0.000 C 
BRANCH    6    5
ATOM      5  N1  UNL A   1      29.721  25.896  23.658  1.00  0.00    +0.000 N 
ATOM     96  H5  UNL A   1      29.364  25.213  23.046  1.00  0.00    +0.000 H 
BRANCH    5    3
ATOM      3  C3  UNL A   1      30.744  25.470  24.452  1.00  0.00    +0.000 C 
ATOM      4  O1  UNL A   1      30.500  25.399  25.659  1.00  0.00    +0.000 O 
BRANCH    3    2
ATOM      2  C2  UNL A   1      32.124  25.145  23.844  1.00  0.00    +0.000 C 
ATOM     95  H4  UNL A   1      32.803  25.828  24.308  1.00  0.00    +0.000 H 
BRANCH    2    1
ATOM      1  C1  UNL A   1      32.176  25.374  22.329  1.00  0.00    +0.000 C 
ATOM     92  H1  UNL A   1      32.042  26.416  22.121  1.00  0.00    +0.000 H 
ATOM     93  H2  UNL A   1      31.396  24.814  21.856  1.00  0.00    +0.000 H 
ATOM     94  H3  UNL A   1      33.124  25.054  21.952  1.00  0.00    +0.000 H 
ENDBRANCH    2    1
BRANCH    2   78
ATOM    135  H44 UNL A   1      34.977  21.821  25.549  1.00  0.00    +0.000 H 
ATOM     78  C55 UNL A   1      32.563  23.711  24.152  1.00  0.00    +0.000 C 
ATOM     79  C56 UNL A   1      31.713  22.650  23.777  1.00  0.00    +0.000 C 
ATOM     80  C57 UNL A   1      32.037  21.321  24.046  1.00  0.00    +0.000 C 
ATOM     81  C58 UNL A   1      33.217  21.004  24.722  1.00  0.00    +0.000 C 
ATOM     89  C65 UNL A   1      34.087  22.043  25.075  1.00  0.00    +0.000 C 
ATOM     90  C66 UNL A   1      33.768  23.381  24.793  1.00  0.00    +0.000 C 
ATOM     91 Br1  UNL A   1      35.052  24.681  25.323  1.00  0.00    +0.000 Br
ATOM    124  H33 UNL A   1      30.830  22.863  23.289  1.00  0.00    +0.000 H 
ATOM    125  H34 UNL A   1      31.401  20.567  23.744  1.00  0.00    +0.000 H 
BRANCH   81   82
ATOM     82  C59 UNL A   1      33.525  19.572  25.087  1.00  0.00    +0.000 C 
ATOM    126  H35 UNL A   1      33.376  19.465  26.141  1.00  0.00    +0.000 H 
ATOM    127  H36 UNL A   1      34.532  19.406  24.766  1.00  0.00    +0.000 H 
BRANCH   82   83
ATOM    129  H38 UNL A   1      33.509  19.087  22.483  1.00  0.00    +0.000 H 
ATOM    130  H39 UNL A   1      32.121  18.075  22.336  1.00  0.00    +0.000 H 
ATOM    131  H40 UNL A   1      34.940  17.310  23.038  1.00  0.00    +0.000 H 
ATOM    132  H41 UNL A   1      33.886  16.517  21.937  1.00  0.00    +0.000 H 
ATOM    133  H42 UNL A   1      34.252  15.591  24.455  1.00  0.00    +0.000 H 
ATOM    134  H43 UNL A   1      32.741  15.384  23.704  1.00  0.00    +0.000 H 
ATOM     83  C60 UNL A   1      32.686  18.499  24.383  1.00  0.00    +0.000 C 
ATOM     84  C61 UNL A   1      33.010  18.241  22.907  1.00  0.00    +0.000 C 
ATOM     85  C62 UNL A   1      33.923  17.020  22.880  1.00  0.00    +0.000 C 
ATOM     86  C63 UNL A   1      33.440  16.130  24.016  1.00  0.00    +0.000 C 
ATOM     87  C64 UNL A   1      32.860  17.125  24.988  1.00  0.00    +0.000 C 
ATOM     88  O3  UNL A   1      32.541  16.842  26.138  1.00  0.00    +0.000 O 
ATOM    128  H37 UNL A   1      31.709  18.922  24.497  1.00  0.00    +0.000 H 
ENDBRANCH   82   83
ENDBRANCH   81   82
ENDBRANCH    2   78
ENDBRANCH    3    2
ENDBRANCH    5    3
ENDBRANCH    6    5
ENDBRANCH    7    6
ENDBRANCH    8    7
ENDBRANCH    9    8
ENDBRANCH   10    9
ENDBRANCH   11   10
ENDBRANCH   12   11
ENDBRANCH   13   12
ENDBRANCH   15   13
ENDBRANCH   19   18
BRANCH   23   24
ATOM     33  C24 UNL A   1      38.624  31.433  36.402  1.00  0.00    +0.000 C 
ATOM     34  F5  UNL A   1      38.174  30.170  36.371  1.00  0.00    +0.000 F 
ATOM     24  C19 UNL A   1      39.579  31.867  35.470  1.00  0.00    +0.000 C 
ATOM     25  C20 UNL A   1      40.012  33.199  35.542  1.00  0.00    +0.000 C 
ATOM     26  F1  UNL A   1      40.929  33.657  34.677  1.00  0.00    +0.000 F 
ATOM     27  C21 UNL A   1      39.512  34.062  36.514  1.00  0.00    +0.000 C 
ATOM     28  F2  UNL A   1      39.955  35.325  36.578  1.00  0.00    +0.000 F 
ATOM     29  C22 UNL A   1      38.555  33.617  37.414  1.00  0.00    +0.000 C 
ATOM     30  F3  UNL A   1      38.061  34.454  38.337  1.00  0.00    +0.000 F 
ATOM     31  C23 UNL A   1      38.110  32.304  37.359  1.00  0.00    +0.000 C 
ATOM     32  F4  UNL A   1      37.177  31.877  38.222  1.00  0.00    +0.000 F 
ENDBRANCH   23   24
BRANCH   40   41
ATOM     41  C30 UNL A   1      45.204  27.592  34.165  1.00  0.00    +0.000 C 
ATOM     42  C31 UNL A   1      46.388  28.331  34.031  1.00  0.00    +0.000 C 
ATOM     43  F6  UNL A   1      46.427  29.405  33.227  1.00  0.00    +0.000 F 
ATOM     44  C32 UNL A   1      47.549  27.947  34.696  1.00  0.00    +0.000 C 
ATOM     45  F7  UNL A   1      48.681  28.644  34.522  1.00  0.00    +0.000 F 
ATOM     46  C33 UNL A   1      47.540  26.838  35.528  1.00  0.00    +0.000 C 
ATOM     47  F8  UNL A   1      48.657  26.473  36.173  1.00  0.00    +0.000 F 
ATOM     48  C34 UNL A   1      46.375  26.101  35.685  1.00  0.00    +0.000 C 
ATOM     49  F9  UNL A   1      46.362  25.034  36.496  1.00  0.00    +0.000 F 
ATOM     50  C35 UNL A   1      45.220  26.467  35.001  1.00  0.00    +0.000 C 
ATOM     51  F10 UNL A   1      44.111  25.731  35.165  1.00  0.00    +0.000 F 
ENDBRANCH   40   41
BRANCH   55   56
ATOM     65  C44 UNL A   1      42.309  24.922  27.626  1.00  0.00    +0.000 C 
ATOM     66  F15 UNL A   1      41.514  24.296  28.506  1.00  0.00    +0.000 F 
ATOM     56  C39 UNL A   1      42.659  26.265  27.827  1.00  0.00    +0.000 C 
ATOM     57  C40 UNL A   1      43.496  26.870  26.880  1.00  0.00    +0.000 C 
ATOM     58  F11 UNL A   1      43.839  28.160  27.017  1.00  0.00    +0.000 F 
ATOM     59  C41 UNL A   1      43.943  26.168  25.762  1.00  0.00    +0.000 C 
ATOM     60  F12 UNL A   1      44.699  26.786  24.845  1.00  0.00    +0.000 F 
ATOM     61  C42 UNL A   1      43.586  24.840  25.586  1.00  0.00    +0.000 C 
ATOM     62  F13 UNL A   1      44.014  24.167  24.509  1.00  0.00    +0.000 F 
ATOM     63  C43 UNL A   1      42.778  24.213  26.522  1.00  0.00    +0.000 C 
ATOM     64  F14 UNL A   1      42.442  22.926  26.363  1.00  0.00    +0.000 F 
ENDBRANCH   55   56
TORSDOF 19
ENDMDL
MODEL 10
REMARK VINA RESULT:     -10.4      3.405      8.515
ROOT
ATOM     19  C15 UNL A   1      40.124  28.920  29.426  1.00  0.00    +0.000 C 
ATOM     20  C16 UNL A   1      41.015  29.878  30.163  1.00  0.00    +0.000 C 
ATOM     21  N3  UNL A   1      42.284  29.759  30.463  1.00  0.00    +0.000 N 
ATOM     22  C17 UNL A   1      42.633  30.939  31.105  1.00  0.00    +0.000 C 
ATOM     23  C18 UNL A   1      43.827  31.283  31.642  1.00  0.00    +0.000 C 
ATOM     35  C25 UNL A   1      44.987  30.431  31.660  1.00  0.00    +0.000 C 
ATOM     36  C26 UNL A   1      46.205  30.646  32.284  1.00  0.00    +0.000 C 
ATOM     37  C27 UNL A   1      47.047  29.572  31.982  1.00  0.00    +0.000 C 
ATOM     38  C28 UNL A   1      46.342  28.670  31.202  1.00  0.00    +0.000 C 
ATOM     39  N4  UNL A   1      45.077  29.204  31.021  1.00  0.00    +0.000 N 
ATOM     40  C29 UNL A   1      46.791  27.418  30.651  1.00  0.00    +0.000 C 
ATOM     52  C36 UNL A   1      46.010  26.552  29.961  1.00  0.00    +0.000 C 
ATOM     53  N5  UNL A   1      44.668  26.664  29.627  1.00  0.00    +0.000 N 
ATOM     54  C37 UNL A   1      44.377  25.587  28.942  1.00  0.00    +0.000 C 
ATOM     55  C38 UNL A   1      43.062  25.175  28.337  1.00  0.00    +0.000 C 
ATOM     67  C45 UNL A   1      41.984  25.966  28.498  1.00  0.00    +0.000 C 
ATOM     68  C46 UNL A   1      40.656  25.701  27.957  1.00  0.00    +0.000 C 
ATOM     69  C47 UNL A   1      39.855  26.741  28.234  1.00  0.00    +0.000 C 
ATOM     70  C48 UNL A   1      40.606  27.733  29.007  1.00  0.00    +0.000 C 
ATOM     71  N6  UNL A   1      41.851  27.169  29.147  1.00  0.00    +0.000 N 
ATOM     72  C49 UNL A   1      45.512  24.673  28.751  1.00  0.00    +0.000 C 
ATOM     73  C50 UNL A   1      46.473  25.292  29.421  1.00  0.00    +0.000 C 
ATOM     74  C51 UNL A   1      41.453  31.776  31.125  1.00  0.00    +0.000 C 
ATOM     75  C52 UNL A   1      40.410  31.146  30.599  1.00  0.00    +0.000 C 
ATOM    112  H21 UNL A   1      46.448  31.459  32.872  1.00  0.00    +0.000 H 
ATOM    113  H22 UNL A   1      48.028  29.469  32.287  1.00  0.00    +0.000 H 
ATOM    114  H23 UNL A   1      44.349  28.776  30.515  1.00  0.00    +0.000 H 
ATOM    115  H24 UNL A   1      40.377  24.850  27.443  1.00  0.00    +0.000 H 
ATOM    116  H25 UNL A   1      38.868  26.829  27.948  1.00  0.00    +0.000 H 
ATOM    117  H26 UNL A   1      42.577  27.587  29.664  1.00  0.00    +0.000 H 
ATOM    118  H27 UNL A   1      45.550  23.783  28.231  1.00  0.00    +0.000 H 
ATOM    119  H28 UNL A   1      47.429  24.922  29.543  1.00  0.00    +0.000 H 
ATOM    120  H29 UNL A   1      41.425  32.737  31.499  1.00  0.00    +0.000 H 
ATOM    121  H30 UNL A   1      39.431  31.462  30.516  1.00  0.00    +0.000 H 
ENDROOT
BRANCH   19   18
ATOM     76  C53 UNL A   1      37.726  29.248  30.038  1.00  0.00    +0.000 C 
ATOM     77  C54 UNL A   1      36.438  29.695  29.746  1.00  0.00    +0.000 C 
ATOM    110  H19 UNL A   1      36.931  30.653  26.567  1.00  0.00    +0.000 H 
ATOM     15  C11 UNL A   1      36.171  30.278  28.503  1.00  0.00    +0.000 C 
ATOM     16  C12 UNL A   1      37.150  30.282  27.505  1.00  0.00    +0.000 C 
ATOM     17  C13 UNL A   1      38.425  29.783  27.781  1.00  0.00    +0.000 C 
ATOM    111  H20 UNL A   1      39.142  29.765  27.038  1.00  0.00    +0.000 H 
ATOM     18  C14 UNL A   1      38.736  29.305  29.065  1.00  0.00    +0.000 C 
ATOM    122  H31 UNL A   1      37.938  28.873  30.976  1.00  0.00    +0.000 H 
ATOM    123  H32 UNL A   1      35.685  29.596  30.443  1.00  0.00    +0.000 H 
BRANCH   15   13
ATOM     13  C10 UNL A   1      34.861  30.903  28.220  1.00  0.00    +0.000 C 
ATOM     14  O2  UNL A   1      34.676  32.082  28.507  1.00  0.00    +0.000 O 
BRANCH   13   12
ATOM     12  N2  UNL A   1      33.851  30.159  27.662  1.00  0.00    +0.000 N 
ATOM    109  H18 UNL A   1      33.035  30.081  28.206  1.00  0.00    +0.000 H 
BRANCH   12   11
ATOM     11  C9  UNL A   1      33.816  29.469  26.383  1.00  0.00    +0.000 C 
ATOM    108  H17 UNL A   1      34.509  29.957  25.730  1.00  0.00    +0.000 H 
ATOM    107  H16 UNL A   1      32.818  29.510  25.997  1.00  0.00    +0.000 H 
BRANCH   11   10
ATOM    105  H14 UNL A   1      35.259  27.929  26.196  1.00  0.00    +0.000 H 
ATOM     10  C8  UNL A   1      34.236  28.006  26.496  1.00  0.00    +0.000 C 
ATOM    106  H15 UNL A   1      34.071  27.725  27.515  1.00  0.00    +0.000 H 
BRANCH   10    9
ATOM      9  C7  UNL A   1      33.418  27.030  25.646  1.00  0.00    +0.000 C 
ATOM    103  H12 UNL A   1      32.469  26.894  26.121  1.00  0.00    +0.000 H 
ATOM    104  H13 UNL A   1      33.351  27.471  24.673  1.00  0.00    +0.000 H 
BRANCH    9    8
ATOM    101  H10 UNL A   1      34.995  25.645  25.942  1.00  0.00    +0.000 H 
ATOM    102  H11 UNL A   1      33.347  24.945  25.839  1.00  0.00    +0.000 H 
ATOM      8  C6  UNL A   1      34.049  25.650  25.443  1.00  0.00    +0.000 C 
BRANCH    8    7
ATOM     99  H8  UNL A   1      34.923  25.963  23.529  1.00  0.00    +0.000 H 
ATOM    100  H9  UNL A   1      34.713  24.257  24.011  1.00  0.00    +0.000 H 
ATOM      7  C5  UNL A   1      34.283  25.236  23.983  1.00  0.00    +0.000 C 
BRANCH    7    6
ATOM     97  H6  UNL A   1      32.904  26.014  22.551  1.00  0.00    +0.000 H 
ATOM     98  H7  UNL A   1      33.094  24.266  22.509  1.00  0.00    +0.000 H 
ATOM      6  C4  UNL A   1      33.011  25.127  23.140  1.00  0.00    +0.000 C 
BRANCH    6    5
ATOM      5  N1  UNL A   1      31.842  24.972  23.979  1.00  0.00    +0.000 N 
ATOM     96  H5  UNL A   1      31.707  25.694  24.633  1.00  0.00    +0.000 H 
BRANCH    5    3
ATOM      3  C3  UNL A   1      30.897  23.989  24.011  1.00  0.00    +0.000 C 
ATOM      4  O1  UNL A   1      29.987  24.084  23.184  1.00  0.00    +0.000 O 
BRANCH    3    2
ATOM      2  C2  UNL A   1      30.975  22.863  25.063  1.00  0.00    +0.000 C 
ATOM     95  H4  UNL A   1      30.271  22.127  24.738  1.00  0.00    +0.000 H 
BRANCH    2    1
ATOM      1  C1  UNL A   1      30.566  23.329  26.465  1.00  0.00    +0.000 C 
ATOM     92  H1  UNL A   1      30.550  22.489  27.129  1.00  0.00    +0.000 H 
ATOM     93  H2  UNL A   1      29.592  23.769  26.425  1.00  0.00    +0.000 H 
ATOM     94  H3  UNL A   1      31.270  24.052  26.821  1.00  0.00    +0.000 H 
ENDBRANCH    2    1
BRANCH    2   78
ATOM    135  H44 UNL A   1      34.666  20.475  23.400  1.00  0.00    +0.000 H 
ATOM     78  C55 UNL A   1      32.369  22.233  25.126  1.00  0.00    +0.000 C 
ATOM     79  C56 UNL A   1      33.120  22.376  26.311  1.00  0.00    +0.000 C 
ATOM     80  C57 UNL A   1      34.405  21.848  26.432  1.00  0.00    +0.000 C 
ATOM     81  C58 UNL A   1      34.996  21.174  25.362  1.00  0.00    +0.000 C 
ATOM     89  C65 UNL A   1      34.252  20.996  24.189  1.00  0.00    +0.000 C 
ATOM     90  C66 UNL A   1      32.953  21.516  24.069  1.00  0.00    +0.000 C 
ATOM     91 Br1  UNL A   1      32.064  21.187  22.421  1.00  0.00    +0.000 Br
ATOM    124  H33 UNL A   1      32.708  22.882  27.109  1.00  0.00    +0.000 H 
ATOM    125  H34 UNL A   1      34.922  21.957  27.318  1.00  0.00    +0.000 H 
BRANCH   81   82
ATOM     82  C59 UNL A   1      36.417  20.678  25.465  1.00  0.00    +0.000 C 
ATOM    126  H35 UNL A   1      36.481  19.756  24.925  1.00  0.00    +0.000 H 
ATOM    127  H36 UNL A   1      36.614  20.588  26.513  1.00  0.00    +0.000 H 
BRANCH   82   83
ATOM    129  H38 UNL A   1      36.090  23.239  24.876  1.00  0.00    +0.000 H 
ATOM    130  H39 UNL A   1      37.530  23.569  23.988  1.00  0.00    +0.000 H 
ATOM    131  H40 UNL A   1      37.102  23.612  26.961  1.00  0.00    +0.000 H 
ATOM    132  H41 UNL A   1      37.934  24.775  26.009  1.00  0.00    +0.000 H 
ATOM    133  H42 UNL A   1      39.272  22.882  27.409  1.00  0.00    +0.000 H 
ATOM    134  H43 UNL A   1      39.915  23.438  25.936  1.00  0.00    +0.000 H 
ATOM     83  C60 UNL A   1      37.502  21.616  24.922  1.00  0.00    +0.000 C 
ATOM     84  C61 UNL A   1      37.152  23.107  24.875  1.00  0.00    +0.000 C 
ATOM     85  C62 UNL A   1      37.762  23.726  26.127  1.00  0.00    +0.000 C 
ATOM     86  C63 UNL A   1      39.057  22.963  26.365  1.00  0.00    +0.000 C 
ATOM     87  C64 UNL A   1      38.758  21.614  25.764  1.00  0.00    +0.000 C 
ATOM     88  O3  UNL A   1      39.470  20.628  25.922  1.00  0.00    +0.000 O 
ATOM    128  H37 UNL A   1      37.620  21.214  23.936  1.00  0.00    +0.000 H 
ENDBRANCH   82   83
ENDBRANCH   81   82
ENDBRANCH    2   78
ENDBRANCH    3    2
ENDBRANCH    5    3
ENDBRANCH    6    5
ENDBRANCH    7    6
ENDBRANCH    8    7
ENDBRANCH    9    8
ENDBRANCH   10    9
ENDBRANCH   11   10
ENDBRANCH   12   11
ENDBRANCH   13   12
ENDBRANCH   15   13
ENDBRANCH   19   18
BRANCH   23   24
ATOM     33  C24 UNL A   1      43.668  32.816  33.631  1.00  0.00    +0.000 C 
ATOM     34  F5  UNL A   1      43.352  31.762  34.399  1.00  0.00    +0.000 F 
ATOM     24  C19 UNL A   1      43.955  32.638  32.269  1.00  0.00    +0.000 C 
ATOM     25  C20 UNL A   1      44.273  33.772  31.509  1.00  0.00    +0.000 C 
ATOM     26  F1  UNL A   1      44.563  33.651  30.205  1.00  0.00    +0.000 F 
ATOM     27  C21 UNL A   1      44.307  35.037  32.092  1.00  0.00    +0.000 C 
ATOM     28  F2  UNL A   1      44.633  36.105  31.352  1.00  0.00    +0.000 F 
ATOM     29  C22 UNL A   1      44.001  35.192  33.436  1.00  0.00    +0.000 C 
ATOM     30  F3  UNL A   1      44.015  36.412  33.991  1.00  0.00    +0.000 F 
ATOM     31  C23 UNL A   1      43.681  34.083  34.206  1.00  0.00    +0.000 C 
ATOM     32  F4  UNL A   1      43.374  34.235  35.502  1.00  0.00    +0.000 F 
ENDBRANCH   23   24
BRANCH   40   41
ATOM     41  C30 UNL A   1      48.223  27.031  30.862  1.00  0.00    +0.000 C 
ATOM     42  C31 UNL A   1      49.231  27.472  29.992  1.00  0.00    +0.000 C 
ATOM     43  F6  UNL A   1      48.918  28.208  28.914  1.00  0.00    +0.000 F 
ATOM     44  C32 UNL A   1      50.562  27.128  30.208  1.00  0.00    +0.000 C 
ATOM     45  F7  UNL A   1      51.504  27.526  29.342  1.00  0.00    +0.000 F 
ATOM     46  C33 UNL A   1      50.913  26.363  31.310  1.00  0.00    +0.000 C 
ATOM     47  F8  UNL A   1      52.197  26.038  31.521  1.00  0.00    +0.000 F 
ATOM     48  C34 UNL A   1      49.933  25.928  32.191  1.00  0.00    +0.000 C 
ATOM     49  F9  UNL A   1      50.273  25.197  33.262  1.00  0.00    +0.000 F 
ATOM     50  C35 UNL A   1      48.598  26.248  31.963  1.00  0.00    +0.000 C 
ATOM     51  F10 UNL A   1      47.671  25.807  32.826  1.00  0.00    +0.000 F 
ENDBRANCH   40   41
BRANCH   55   56
ATOM     65  C44 UNL A   1      42.550  22.716  28.170  1.00  0.00    +0.000 C 
ATOM     66  F15 UNL A   1      42.281  22.688  29.483  1.00  0.00    +0.000 F 
ATOM     56  C39 UNL A   1      42.952  23.913  27.561  1.00  0.00    +0.000 C 
ATOM     57  C40 UNL A   1      43.226  23.886  26.186  1.00  0.00    +0.000 C 
ATOM     58  F11 UNL A   1      43.590  25.013  25.555  1.00  0.00    +0.000 F 
ATOM     59  C41 UNL A   1      43.077  22.715  25.446  1.00  0.00    +0.000 C 
ATOM     60  F12 UNL A   1      43.294  22.730  24.124  1.00  0.00    +0.000 F 
ATOM     61  C42 UNL A   1      42.682  21.542  26.071  1.00  0.00    +0.000 C 
ATOM     62  F13 UNL A   1      42.536  20.417  25.358  1.00  0.00    +0.000 F 
ATOM     63  C43 UNL A   1      42.428  21.539  27.434  1.00  0.00    +0.000 C 
ATOM     64  F14 UNL A   1      42.058  20.405  28.044  1.00  0.00    +0.000 F 
ENDBRANCH   55   56
TORSDOF 19
ENDMDL
