MODEL 1
REMARK VINA RESULT:      -8.0      0.000      0.000
ROOT
ATOM    131  H34 UNL A   1      18.589  53.177  -0.953  1.00  0.00    +0.000 H 
ATOM    132  H35 UNL A   1      18.102  50.683  -1.536  1.00  0.00    +0.000 H 
ATOM    133  H36 UNL A   1      15.712  51.760   1.670  1.00  0.00    +0.000 H 
ATOM    134  H37 UNL A   1      11.547  50.152   6.223  1.00  0.00    +0.000 H 
ATOM    135  H38 UNL A   1      11.988  52.598   6.744  1.00  0.00    +0.000 H 
ATOM    136  H39 UNL A   1      14.362  51.547   3.500  1.00  0.00    +0.000 H 
ATOM    137  H40 UNL A   1      13.220  46.770   2.435  1.00  0.00    +0.000 H 
ATOM    138  H41 UNL A   1      15.014  46.888   0.614  1.00  0.00    +0.000 H 
ATOM    139  H42 UNL A   1      16.502  56.629   2.585  1.00  0.00    +0.000 H 
ATOM    140  H43 UNL A   1      15.111  56.407   4.723  1.00  0.00    +0.000 H 
ATOM     37  C30 UNL A   1      13.895  53.843   5.040  1.00  0.00    +0.000 C 
ATOM     38  C31 UNL A   1      14.867  54.278   3.979  1.00  0.00    +0.000 C 
ATOM     39  N3  UNL A   1      15.367  53.589   2.983  1.00  0.00    +0.000 N 
ATOM     40  C32 UNL A   1      16.169  54.474   2.275  1.00  0.00    +0.000 C 
ATOM     41  C33 UNL A   1      16.940  54.228   1.190  1.00  0.00    +0.000 C 
ATOM     53  C40 UNL A   1      17.079  52.936   0.569  1.00  0.00    +0.000 C 
ATOM     54  C41 UNL A   1      17.906  52.566  -0.476  1.00  0.00    +0.000 C 
ATOM     55  C42 UNL A   1      17.658  51.224  -0.777  1.00  0.00    +0.000 C 
ATOM     56  C43 UNL A   1      16.717  50.742   0.117  1.00  0.00    +0.000 C 
ATOM     57  N4  UNL A   1      16.367  51.803   0.936  1.00  0.00    +0.000 N 
ATOM     58  C44 UNL A   1      16.174  49.411   0.217  1.00  0.00    +0.000 C 
ATOM     70  C51 UNL A   1      15.263  49.011   1.137  1.00  0.00    +0.000 C 
ATOM     71  N5  UNL A   1      14.666  49.748   2.151  1.00  0.00    +0.000 N 
ATOM     72  C52 UNL A   1      13.842  48.926   2.756  1.00  0.00    +0.000 C 
ATOM     73  C53 UNL A   1      12.953  49.176   3.943  1.00  0.00    +0.000 C 
ATOM     85  C60 UNL A   1      12.983  50.383   4.540  1.00  0.00    +0.000 C 
ATOM     86  C61 UNL A   1      12.191  50.770   5.703  1.00  0.00    +0.000 C 
ATOM     87  C62 UNL A   1      12.433  52.060   5.984  1.00  0.00    +0.000 C 
ATOM     88  C63 UNL A   1      13.426  52.581   5.046  1.00  0.00    +0.000 C 
ATOM     89  N6  UNL A   1      13.706  51.511   4.233  1.00  0.00    +0.000 N 
ATOM     90  C64 UNL A   1      13.806  47.577   2.172  1.00  0.00    +0.000 C 
ATOM     91  C65 UNL A   1      14.723  47.671   1.221  1.00  0.00    +0.000 C 
ATOM     92  C66 UNL A   1      16.060  55.761   2.927  1.00  0.00    +0.000 C 
ATOM     93  C67 UNL A   1      15.318  55.678   4.022  1.00  0.00    +0.000 C 
ENDROOT
BRANCH   37   36
ATOM     33  C26 UNL A   1      12.515  56.660   7.972  1.00  0.00    +0.000 C 
ATOM     34  C27 UNL A   1      11.840  56.535   6.755  1.00  0.00    +0.000 C 
ATOM     35  C28 UNL A   1      12.271  55.601   5.810  1.00  0.00    +0.000 C 
ATOM    129  H32 UNL A   1      11.022  57.133   6.555  1.00  0.00    +0.000 H 
ATOM    130  H33 UNL A   1      11.751  55.490   4.925  1.00  0.00    +0.000 H 
ATOM     36  C29 UNL A   1      13.406  54.813   6.055  1.00  0.00    +0.000 C 
ATOM    141  H44 UNL A   1      14.921  54.382   7.465  1.00  0.00    +0.000 H 
ATOM    142  H45 UNL A   1      14.050  55.856   9.181  1.00  0.00    +0.000 H 
ATOM     94  C68 UNL A   1      14.074  54.942   7.281  1.00  0.00    +0.000 C 
ATOM     95  C69 UNL A   1      13.600  55.822   8.253  1.00  0.00    +0.000 C 
BRANCH   33   31
ATOM     31  C25 UNL A   1      12.018  57.645   8.963  1.00  0.00    +0.000 C 
ATOM     32  O5  UNL A   1      12.370  58.819   8.887  1.00  0.00    +0.000 O 
BRANCH   31   30
ATOM     30  N2  UNL A   1      11.155  57.256   9.957  1.00  0.00    +0.000 N 
ATOM    128  H31 UNL A   1      10.934  57.941  10.629  1.00  0.00    +0.000 H 
BRANCH   30   29
ATOM     29  C24 UNL A   1      10.529  55.957  10.142  1.00  0.00    +0.000 C 
ATOM    126  H29 UNL A   1       9.537  56.101  10.516  1.00  0.00    +0.000 H 
ATOM    127  H30 UNL A   1      10.511  55.456   9.197  1.00  0.00    +0.000 H 
BRANCH   29   28
ATOM    124  H27 UNL A   1      12.237  54.822  10.667  1.00  0.00    +0.000 H 
ATOM     28  C23 UNL A   1      11.310  55.096  11.126  1.00  0.00    +0.000 C 
ATOM    125  H28 UNL A   1      11.438  55.686  12.010  1.00  0.00    +0.000 H 
BRANCH   28   27
ATOM    122  H25 UNL A   1      11.247  53.277  12.217  1.00  0.00    +0.000 H 
ATOM     27  C22 UNL A   1      10.595  53.815  11.560  1.00  0.00    +0.000 C 
ATOM    123  H26 UNL A   1       9.683  54.124  12.026  1.00  0.00    +0.000 H 
BRANCH   27   26
ATOM    121  H24 UNL A   1       9.676  53.485   9.701  1.00  0.00    +0.000 H 
ATOM     26  C21 UNL A   1      10.195  52.878  10.413  1.00  0.00    +0.000 C 
ATOM    120  H23 UNL A   1       9.595  52.092  10.823  1.00  0.00    +0.000 H 
BRANCH   26   25
ATOM     25  C20 UNL A   1      11.364  52.238   9.657  1.00  0.00    +0.000 C 
ATOM    118  H21 UNL A   1      11.195  52.362   8.608  1.00  0.00    +0.000 H 
ATOM    119  H22 UNL A   1      12.254  52.728   9.991  1.00  0.00    +0.000 H 
BRANCH   25   24
ATOM    116  H19 UNL A   1      10.692  50.221   9.572  1.00  0.00    +0.000 H 
ATOM    117  H20 UNL A   1      12.438  50.420   9.456  1.00  0.00    +0.000 H 
ATOM     24  C19 UNL A   1      11.544  50.752   9.942  1.00  0.00    +0.000 C 
BRANCH   24   23
ATOM    115  H18 UNL A   1      10.990  50.919  11.935  1.00  0.00    +0.000 H 
ATOM     23  N1  UNL A   1      11.674  50.502  11.362  1.00  0.00    +0.000 N 
BRANCH   23   21
ATOM     21  C18 UNL A   1      12.619  49.768  12.005  1.00  0.00    +0.000 C 
ATOM     22  O4  UNL A   1      13.811  49.940  11.783  1.00  0.00    +0.000 O 
BRANCH   21   20
ATOM    114  H17 UNL A   1      12.094  48.949  13.957  1.00  0.00    +0.000 H 
ATOM     20  C17 UNL A   1      12.191  48.722  12.955  1.00  0.00    +0.000 C 
BRANCH   20   19
ATOM    113  H16 UNL A   1      12.470  46.692  12.916  1.00  0.00    +0.000 H 
ATOM     19  C16 UNL A   1      11.930  47.479  12.524  1.00  0.00    +0.000 C 
BRANCH   19   18
ATOM      9  C8  UNL A   1      11.290  46.538  10.310  1.00  0.00    +0.000 C 
ATOM     10  C9  UNL A   1      10.351  46.320   9.289  1.00  0.00    +0.000 C 
ATOM     11  C10 UNL A   1       9.035  46.750   9.422  1.00  0.00    +0.000 C 
ATOM    105  H8  UNL A   1      10.641  45.832   8.427  1.00  0.00    +0.000 H 
ATOM    109  H12 UNL A   1       7.664  47.662  10.718  1.00  0.00    +0.000 H 
ATOM     14  C12 UNL A   1       8.647  47.370  10.604  1.00  0.00    +0.000 C 
ATOM     15  C13 UNL A   1       9.557  47.614  11.649  1.00  0.00    +0.000 C 
ATOM     18  C15 UNL A   1      10.900  47.198  11.512  1.00  0.00    +0.000 C 
BRANCH    9    8
ATOM    104  H7  UNL A   1      13.111  45.400  10.628  1.00  0.00    +0.000 H 
ATOM      8  C7  UNL A   1      12.670  46.099  10.009  1.00  0.00    +0.000 C 
BRANCH    8    7
ATOM    103  H6  UNL A   1      13.279  46.064   8.071  1.00  0.00    +0.000 H 
ATOM      7  C6  UNL A   1      13.376  46.569   8.966  1.00  0.00    +0.000 C 
BRANCH    7    6
ATOM     97  C71 UNL A   1      16.366  48.731   9.791  1.00  0.00    +0.000 C 
ATOM      3  C2  UNL A   1      16.090  49.919   9.120  1.00  0.00    +0.000 C 
ATOM      4  C3  UNL A   1      14.917  50.011   8.370  1.00  0.00    +0.000 C 
ATOM    101  H4  UNL A   1      14.703  50.885   7.864  1.00  0.00    +0.000 H 
ATOM      5  C4  UNL A   1      14.023  48.933   8.294  1.00  0.00    +0.000 C 
ATOM    102  H5  UNL A   1      13.167  49.020   7.725  1.00  0.00    +0.000 H 
ATOM      6  C5  UNL A   1      14.279  47.740   8.982  1.00  0.00    +0.000 C 
ATOM    143  H46 UNL A   1      15.687  46.782  10.227  1.00  0.00    +0.000 H 
ATOM    144  H47 UNL A   1      17.235  48.642  10.342  1.00  0.00    +0.000 H 
ATOM     96  C70 UNL A   1      15.468  47.655   9.722  1.00  0.00    +0.000 C 
BRANCH    3    2
ATOM      2  O1  UNL A   1      16.853  51.054   9.146  1.00  0.00    +0.000 O 
BRANCH    2    1
ATOM      1  C1  UNL A   1      18.099  51.003   8.463  1.00  0.00    +0.000 C 
ATOM     98  H1  UNL A   1      17.948  50.628   7.473  1.00  0.00    +0.000 H 
ATOM     99  H2  UNL A   1      18.769  50.357   8.991  1.00  0.00    +0.000 H 
ATOM    100  H3  UNL A   1      18.519  51.987   8.412  1.00  0.00    +0.000 H 
ENDBRANCH    2    1
ENDBRANCH    3    2
ENDBRANCH    7    6
ENDBRANCH    8    7
ENDBRANCH    9    8
BRANCH   11   12
ATOM     12  O2  UNL A   1       8.226  46.523   8.343  1.00  0.00    +0.000 O 
BRANCH   12   13
ATOM    106  H9  UNL A   1       6.290  46.276   7.722  1.00  0.00    +0.000 H 
ATOM    107  H10 UNL A   1       6.481  46.963   9.318  1.00  0.00    +0.000 H 
ATOM    108  H11 UNL A   1       6.782  45.262   9.058  1.00  0.00    +0.000 H 
ATOM     13  C11 UNL A   1       6.860  46.238   8.628  1.00  0.00    +0.000 C 
ENDBRANCH   12   13
ENDBRANCH   11   12
BRANCH   15   16
ATOM     16  O3  UNL A   1       8.929  48.304  12.651  1.00  0.00    +0.000 O 
BRANCH   16   17
ATOM     17  C14 UNL A   1       8.397  49.602  12.472  1.00  0.00    +0.000 C 
ATOM    110  H13 UNL A   1       8.785  50.025  11.569  1.00  0.00    +0.000 H 
ATOM    111  H14 UNL A   1       8.672  50.218  13.302  1.00  0.00    +0.000 H 
ATOM    112  H15 UNL A   1       7.330  49.544  12.408  1.00  0.00    +0.000 H 
ENDBRANCH   16   17
ENDBRANCH   15   16
ENDBRANCH   19   18
ENDBRANCH   20   19
ENDBRANCH   21   20
ENDBRANCH   23   21
ENDBRANCH   24   23
ENDBRANCH   25   24
ENDBRANCH   26   25
ENDBRANCH   27   26
ENDBRANCH   28   27
ENDBRANCH   29   28
ENDBRANCH   30   29
ENDBRANCH   31   30
ENDBRANCH   33   31
ENDBRANCH   37   36
BRANCH   41   42
ATOM     42  C34 UNL A   1      17.704  55.375   0.594  1.00  0.00    +0.000 C 
ATOM     43  C35 UNL A   1      17.176  56.151  -0.448  1.00  0.00    +0.000 C 
ATOM     44  F1  UNL A   1      15.993  55.833  -0.994  1.00  0.00    +0.000 F 
ATOM     45  C36 UNL A   1      17.875  57.246  -0.950  1.00  0.00    +0.000 C 
ATOM     46  F2  UNL A   1      17.367  57.953  -1.970  1.00  0.00    +0.000 F 
ATOM     47  C37 UNL A   1      19.097  57.605  -0.401  1.00  0.00    +0.000 C 
ATOM     48  F3  UNL A   1      19.759  58.670  -0.874  1.00  0.00    +0.000 F 
ATOM     49  C38 UNL A   1      19.632  56.858   0.638  1.00  0.00    +0.000 C 
ATOM     50  F4  UNL A   1      20.806  57.212   1.179  1.00  0.00    +0.000 F 
ATOM     51  C39 UNL A   1      18.950  55.747   1.123  1.00  0.00    +0.000 C 
ATOM     52  F5  UNL A   1      19.497  55.042   2.125  1.00  0.00    +0.000 F 
ENDBRANCH   41   42
BRANCH   58   59
ATOM     65  F8  UNL A   1      18.100  45.564  -3.445  1.00  0.00    +0.000 F 
ATOM     66  C49 UNL A   1      18.402  46.832  -1.475  1.00  0.00    +0.000 C 
ATOM     67  F9  UNL A   1      19.605  46.275  -1.284  1.00  0.00    +0.000 F 
ATOM     68  C50 UNL A   1      17.914  47.763  -0.562  1.00  0.00    +0.000 C 
ATOM     69  F10 UNL A   1      18.666  48.073   0.505  1.00  0.00    +0.000 F 
ATOM     59  C45 UNL A   1      16.668  48.378  -0.754  1.00  0.00    +0.000 C 
ATOM     60  C46 UNL A   1      15.926  48.023  -1.890  1.00  0.00    +0.000 C 
ATOM     61  F6  UNL A   1      14.723  48.572  -2.110  1.00  0.00    +0.000 F 
ATOM     62  C47 UNL A   1      16.402  47.068  -2.784  1.00  0.00    +0.000 C 
ATOM     63  F7  UNL A   1      15.654  46.706  -3.835  1.00  0.00    +0.000 F 
ATOM     64  C48 UNL A   1      17.641  46.479  -2.580  1.00  0.00    +0.000 C 
ENDBRANCH   58   59
BRANCH   73   74
ATOM     74  C54 UNL A   1      12.057  48.108   4.462  1.00  0.00    +0.000 C 
ATOM     75  C55 UNL A   1      10.686  48.112   4.172  1.00  0.00    +0.000 C 
ATOM     76  F11 UNL A   1      10.163  49.088   3.414  1.00  0.00    +0.000 F 
ATOM     77  C56 UNL A   1       9.835  47.142   4.700  1.00  0.00    +0.000 C 
ATOM     78  F12 UNL A   1       8.519  47.201   4.453  1.00  0.00    +0.000 F 
ATOM     79  C57 UNL A   1      10.345  46.129   5.497  1.00  0.00    +0.000 C 
ATOM     80  F13 UNL A   1       9.528  45.197   6.005  1.00  0.00    +0.000 F 
ATOM     81  C58 UNL A   1      11.703  46.089   5.775  1.00  0.00    +0.000 C 
ATOM     82  F14 UNL A   1      12.203  45.102   6.532  1.00  0.00    +0.000 F 
ATOM     83  C59 UNL A   1      12.549  47.077   5.274  1.00  0.00    +0.000 C 
ATOM     84  F15 UNL A   1      13.854  47.023   5.576  1.00  0.00    +0.000 F 
ENDBRANCH   73   74
TORSDOF 26
ENDMDL
MODEL 2
REMARK VINA RESULT:      -8.0     28.854     34.531
ROOT
ATOM    131  H34 UNL A   1      11.678  19.581  10.370  1.00  0.00    +0.000 H 
ATOM    132  H35 UNL A   1      11.291  21.640   8.817  1.00  0.00    +0.000 H 
ATOM    133  H36 UNL A   1      14.742  19.710   7.585  1.00  0.00    +0.000 H 
ATOM    134  H37 UNL A   1      19.905  19.503   3.848  1.00  0.00    +0.000 H 
ATOM    135  H38 UNL A   1      20.238  17.469   5.330  1.00  0.00    +0.000 H 
ATOM    136  H39 UNL A   1      16.751  19.367   6.553  1.00  0.00    +0.000 H 
ATOM    137  H40 UNL A   1      16.091  23.224   3.398  1.00  0.00    +0.000 H 
ATOM    138  H41 UNL A   1      14.034  23.837   4.791  1.00  0.00    +0.000 H 
ATOM    139  H42 UNL A   1      15.298  15.622  10.439  1.00  0.00    +0.000 H 
ATOM    140  H43 UNL A   1      17.617  15.275   9.412  1.00  0.00    +0.000 H 
ATOM     37  C30 UNL A   1      18.226  17.106   7.308  1.00  0.00    +0.000 C 
ATOM     38  C31 UNL A   1      17.020  17.100   8.205  1.00  0.00    +0.000 C 
ATOM     39  N3  UNL A   1      15.999  17.920   8.223  1.00  0.00    +0.000 N 
ATOM     40  C32 UNL A   1      15.143  17.439   9.205  1.00  0.00    +0.000 C 
ATOM     41  C33 UNL A   1      13.975  17.969   9.637  1.00  0.00    +0.000 C 
ATOM     53  C40 UNL A   1      13.405  19.194   9.137  1.00  0.00    +0.000 C 
ATOM     54  C41 UNL A   1      12.274  19.860   9.574  1.00  0.00    +0.000 C 
ATOM     55  C42 UNL A   1      12.077  20.974   8.753  1.00  0.00    +0.000 C 
ATOM     56  C43 UNL A   1      13.116  21.033   7.839  1.00  0.00    +0.000 C 
ATOM     57  N4  UNL A   1      13.923  19.934   8.084  1.00  0.00    +0.000 N 
ATOM     58  C44 UNL A   1      13.356  22.018   6.817  1.00  0.00    +0.000 C 
ATOM     70  C51 UNL A   1      14.413  22.016   5.968  1.00  0.00    +0.000 C 
ATOM     71  N5  UNL A   1      15.462  21.112   5.884  1.00  0.00    +0.000 N 
ATOM     72  C52 UNL A   1      16.215  21.525   4.894  1.00  0.00    +0.000 C 
ATOM     73  C53 UNL A   1      17.502  20.944   4.373  1.00  0.00    +0.000 C 
ATOM     85  C60 UNL A   1      18.029  19.867   4.985  1.00  0.00    +0.000 C 
ATOM     86  C61 UNL A   1      19.270  19.201   4.604  1.00  0.00    +0.000 C 
ATOM     87  C62 UNL A   1      19.451  18.133   5.396  1.00  0.00    +0.000 C 
ATOM     88  C63 UNL A   1      18.360  18.058   6.366  1.00  0.00    +0.000 C 
ATOM     89  N6  UNL A   1      17.569  19.137   6.056  1.00  0.00    +0.000 N 
ATOM     90  C64 UNL A   1      15.710  22.729   4.219  1.00  0.00    +0.000 C 
ATOM     91  C65 UNL A   1      14.636  23.012   4.941  1.00  0.00    +0.000 C 
ATOM     92  C66 UNL A   1      15.740  16.233   9.735  1.00  0.00    +0.000 C 
ATOM     93  C67 UNL A   1      16.931  16.014   9.194  1.00  0.00    +0.000 C 
ENDROOT
BRANCH   37   36
ATOM     33  C26 UNL A   1      21.178  14.009   7.661  1.00  0.00    +0.000 C 
ATOM     34  C27 UNL A   1      20.100  13.845   6.788  1.00  0.00    +0.000 C 
ATOM     35  C28 UNL A   1      19.152  14.862   6.651  1.00  0.00    +0.000 C 
ATOM    129  H32 UNL A   1      20.004  12.974   6.243  1.00  0.00    +0.000 H 
ATOM    130  H33 UNL A   1      18.374  14.751   5.982  1.00  0.00    +0.000 H 
ATOM     36  C29 UNL A   1      19.250  16.034   7.417  1.00  0.00    +0.000 C 
ATOM    141  H44 UNL A   1      20.411  17.039   8.871  1.00  0.00    +0.000 H 
ATOM    142  H45 UNL A   1      22.160  15.362   8.952  1.00  0.00    +0.000 H 
ATOM     94  C68 UNL A   1      20.339  16.191   8.288  1.00  0.00    +0.000 C 
ATOM     95  C69 UNL A   1      21.323  15.206   8.369  1.00  0.00    +0.000 C 
BRANCH   33   31
ATOM     31  C25 UNL A   1      22.180  12.920   7.765  1.00  0.00    +0.000 C 
ATOM     32  O5  UNL A   1      21.807  11.752   7.841  1.00  0.00    +0.000 O 
BRANCH   31   30
ATOM     30  N2  UNL A   1      23.522  13.207   7.763  1.00  0.00    +0.000 N 
ATOM    128  H31 UNL A   1      23.984  13.100   6.900  1.00  0.00    +0.000 H 
BRANCH   30   29
ATOM     29  C24 UNL A   1      24.346  13.648   8.876  1.00  0.00    +0.000 C 
ATOM    126  H29 UNL A   1      23.767  13.604   9.775  1.00  0.00    +0.000 H 
ATOM    127  H30 UNL A   1      25.197  13.003   8.939  1.00  0.00    +0.000 H 
BRANCH   29   28
ATOM    124  H27 UNL A   1      24.003  15.735   8.779  1.00  0.00    +0.000 H 
ATOM     28  C23 UNL A   1      24.839  15.074   8.675  1.00  0.00    +0.000 C 
ATOM    125  H28 UNL A   1      25.598  15.240   9.411  1.00  0.00    +0.000 H 
BRANCH   28   27
ATOM    122  H25 UNL A   1      25.749  14.396   6.882  1.00  0.00    +0.000 H 
ATOM     27  C22 UNL A   1      25.490  15.339   7.316  1.00  0.00    +0.000 C 
ATOM    123  H26 UNL A   1      24.771  15.887   6.742  1.00  0.00    +0.000 H 
BRANCH   27   26
ATOM    121  H24 UNL A   1      27.282  15.915   8.245  1.00  0.00    +0.000 H 
ATOM     26  C21 UNL A   1      26.754  16.206   7.362  1.00  0.00    +0.000 C 
ATOM    120  H23 UNL A   1      26.451  17.233   7.365  1.00  0.00    +0.000 H 
BRANCH   26   25
ATOM     25  C20 UNL A   1      27.726  16.002   6.196  1.00  0.00    +0.000 C 
ATOM    118  H21 UNL A   1      28.679  15.724   6.597  1.00  0.00    +0.000 H 
ATOM    119  H22 UNL A   1      27.306  15.243   5.571  1.00  0.00    +0.000 H 
BRANCH   25   24
ATOM    116  H19 UNL A   1      28.607  17.011   4.542  1.00  0.00    +0.000 H 
ATOM    117  H20 UNL A   1      26.964  17.517   4.922  1.00  0.00    +0.000 H 
ATOM     24  C19 UNL A   1      27.915  17.238   5.325  1.00  0.00    +0.000 C 
BRANCH   24   23
ATOM    115  H18 UNL A   1      29.362  18.268   6.400  1.00  0.00    +0.000 H 
ATOM     23  N1  UNL A   1      28.428  18.350   6.098  1.00  0.00    +0.000 N 
BRANCH   23   21
ATOM     21  C18 UNL A   1      27.785  19.490   6.461  1.00  0.00    +0.000 C 
ATOM     22  O4  UNL A   1      27.495  20.343   5.631  1.00  0.00    +0.000 O 
BRANCH   21   20
ATOM    114  H17 UNL A   1      28.190  19.538   8.604  1.00  0.00    +0.000 H 
ATOM     20  C17 UNL A   1      27.470  19.714   7.886  1.00  0.00    +0.000 C 
BRANCH   20   19
ATOM    113  H16 UNL A   1      25.920  21.055   7.902  1.00  0.00    +0.000 H 
ATOM     19  C16 UNL A   1      26.253  20.143   8.252  1.00  0.00    +0.000 C 
BRANCH   19   18
ATOM      9  C8  UNL A   1      24.193  18.786   8.583  1.00  0.00    +0.000 C 
ATOM     10  C9  UNL A   1      23.293  18.093   9.410  1.00  0.00    +0.000 C 
ATOM     11  C10 UNL A   1      23.528  17.964  10.774  1.00  0.00    +0.000 C 
ATOM    105  H8  UNL A   1      22.444  17.674   8.999  1.00  0.00    +0.000 H 
ATOM    109  H12 UNL A   1      24.886  18.377  12.316  1.00  0.00    +0.000 H 
ATOM     14  C12 UNL A   1      24.693  18.499  11.309  1.00  0.00    +0.000 C 
ATOM     15  C13 UNL A   1      25.619  19.205  10.518  1.00  0.00    +0.000 C 
ATOM     18  C15 UNL A   1      25.376  19.358   9.135  1.00  0.00    +0.000 C 
BRANCH    9    8
ATOM    104  H7  UNL A   1      24.169  19.696   6.613  1.00  0.00    +0.000 H 
ATOM      8  C7  UNL A   1      23.785  18.914   7.167  1.00  0.00    +0.000 C 
BRANCH    8    7
ATOM    103  H6  UNL A   1      22.014  17.931   7.013  1.00  0.00    +0.000 H 
ATOM      7  C6  UNL A   1      22.937  18.060   6.570  1.00  0.00    +0.000 C 
BRANCH    7    6
ATOM     97  C71 UNL A   1      24.600  16.977   3.352  1.00  0.00    +0.000 C 
ATOM      3  C2  UNL A   1      23.814  15.906   2.936  1.00  0.00    +0.000 C 
ATOM      4  C3  UNL A   1      22.732  15.518   3.728  1.00  0.00    +0.000 C 
ATOM    101  H4  UNL A   1      22.144  14.723   3.432  1.00  0.00    +0.000 H 
ATOM      5  C4  UNL A   1      22.432  16.194   4.919  1.00  0.00    +0.000 C 
ATOM    102  H5  UNL A   1      21.634  15.884   5.495  1.00  0.00    +0.000 H 
ATOM      6  C5  UNL A   1      23.203  17.286   5.338  1.00  0.00    +0.000 C 
ATOM    143  H46 UNL A   1      24.888  18.451   4.833  1.00  0.00    +0.000 H 
ATOM    144  H47 UNL A   1      25.411  17.270   2.783  1.00  0.00    +0.000 H 
ATOM     96  C70 UNL A   1      24.296  17.658   4.540  1.00  0.00    +0.000 C 
BRANCH    3    2
ATOM      2  O1  UNL A   1      23.971  15.193   1.779  1.00  0.00    +0.000 O 
BRANCH    2    1
ATOM      1  C1  UNL A   1      24.055  13.779   1.906  1.00  0.00    +0.000 C 
ATOM     98  H1  UNL A   1      25.027  13.451   1.604  1.00  0.00    +0.000 H 
ATOM     99  H2  UNL A   1      23.315  13.320   1.284  1.00  0.00    +0.000 H 
ATOM    100  H3  UNL A   1      23.886  13.501   2.926  1.00  0.00    +0.000 H 
ENDBRANCH    2    1
ENDBRANCH    3    2
ENDBRANCH    7    6
ENDBRANCH    8    7
ENDBRANCH    9    8
BRANCH   11   12
ATOM     12  O2  UNL A   1      22.557  17.310  11.483  1.00  0.00    +0.000 O 
BRANCH   12   13
ATOM    106  H9  UNL A   1      24.049  16.678  12.734  1.00  0.00    +0.000 H 
ATOM    107  H10 UNL A   1      22.839  15.478  12.350  1.00  0.00    +0.000 H 
ATOM    108  H11 UNL A   1      22.461  16.776  13.456  1.00  0.00    +0.000 H 
ATOM     13  C11 UNL A   1      23.004  16.510  12.574  1.00  0.00    +0.000 C 
ENDBRANCH   12   13
ENDBRANCH   11   12
BRANCH   15   16
ATOM     16  O3  UNL A   1      26.626  19.686  11.312  1.00  0.00    +0.000 O 
BRANCH   16   17
ATOM     17  C14 UNL A   1      26.717  19.399  12.694  1.00  0.00    +0.000 C 
ATOM    110  H13 UNL A   1      27.659  19.744  13.068  1.00  0.00    +0.000 H 
ATOM    111  H14 UNL A   1      26.637  18.343  12.845  1.00  0.00    +0.000 H 
ATOM    112  H15 UNL A   1      25.924  19.895  13.214  1.00  0.00    +0.000 H 
ENDBRANCH   16   17
ENDBRANCH   15   16
ENDBRANCH   19   18
ENDBRANCH   20   19
ENDBRANCH   21   20
ENDBRANCH   23   21
ENDBRANCH   24   23
ENDBRANCH   25   24
ENDBRANCH   26   25
ENDBRANCH   27   26
ENDBRANCH   28   27
ENDBRANCH   29   28
ENDBRANCH   30   29
ENDBRANCH   31   30
ENDBRANCH   33   31
ENDBRANCH   37   36
BRANCH   41   42
ATOM     42  C34 UNL A   1      13.223  17.236  10.710  1.00  0.00    +0.000 C 
ATOM     43  C35 UNL A   1      12.294  16.231  10.404  1.00  0.00    +0.000 C 
ATOM     44  F1  UNL A   1      11.996  15.953   9.125  1.00  0.00    +0.000 F 
ATOM     45  C36 UNL A   1      11.647  15.521  11.413  1.00  0.00    +0.000 C 
ATOM     46  F2  UNL A   1      10.737  14.589  11.097  1.00  0.00    +0.000 F 
ATOM     47  C37 UNL A   1      11.939  15.780  12.744  1.00  0.00    +0.000 C 
ATOM     48  F3  UNL A   1      11.329  15.085  13.713  1.00  0.00    +0.000 F 
ATOM     49  C38 UNL A   1      12.863  16.762  13.069  1.00  0.00    +0.000 C 
ATOM     50  F4  UNL A   1      13.157  17.004  14.354  1.00  0.00    +0.000 F 
ATOM     51  C39 UNL A   1      13.490  17.492  12.063  1.00  0.00    +0.000 C 
ATOM     52  F5  UNL A   1      14.374  18.439  12.411  1.00  0.00    +0.000 F 
ENDBRANCH   41   42
BRANCH   58   59
ATOM     65  F8  UNL A   1       9.658  26.272   6.423  1.00  0.00    +0.000 F 
ATOM     66  C49 UNL A   1      11.553  25.309   7.452  1.00  0.00    +0.000 C 
ATOM     67  F9  UNL A   1      11.654  26.357   8.280  1.00  0.00    +0.000 F 
ATOM     68  C50 UNL A   1      12.477  24.270   7.531  1.00  0.00    +0.000 C 
ATOM     69  F10 UNL A   1      13.463  24.353   8.437  1.00  0.00    +0.000 F 
ATOM     59  C45 UNL A   1      12.378  23.150   6.691  1.00  0.00    +0.000 C 
ATOM     60  C46 UNL A   1      11.323  23.112   5.767  1.00  0.00    +0.000 C 
ATOM     61  F6  UNL A   1      11.194  22.070   4.933  1.00  0.00    +0.000 F 
ATOM     62  C47 UNL A   1      10.421  24.168   5.669  1.00  0.00    +0.000 C 
ATOM     63  F7  UNL A   1       9.452  24.133   4.743  1.00  0.00    +0.000 F 
ATOM     64  C48 UNL A   1      10.532  25.261   6.515  1.00  0.00    +0.000 C 
ENDBRANCH   58   59
BRANCH   73   74
ATOM     74  C54 UNL A   1      18.192  21.550   3.203  1.00  0.00    +0.000 C 
ATOM     75  C55 UNL A   1      19.082  22.621   3.365  1.00  0.00    +0.000 C 
ATOM     76  F11 UNL A   1      19.323  23.114   4.589  1.00  0.00    +0.000 F 
ATOM     77  C56 UNL A   1      19.690  23.225   2.266  1.00  0.00    +0.000 C 
ATOM     78  F12 UNL A   1      20.493  24.283   2.444  1.00  0.00    +0.000 F 
ATOM     79  C57 UNL A   1      19.450  22.745   0.988  1.00  0.00    +0.000 C 
ATOM     80  F13 UNL A   1      20.034  23.326  -0.069  1.00  0.00    +0.000 F 
ATOM     81  C58 UNL A   1      18.594  21.669   0.805  1.00  0.00    +0.000 C 
ATOM     82  F14 UNL A   1      18.372  21.192  -0.427  1.00  0.00    +0.000 F 
ATOM     83  C59 UNL A   1      17.961  21.086   1.901  1.00  0.00    +0.000 C 
ATOM     84  F15 UNL A   1      17.125  20.060   1.692  1.00  0.00    +0.000 F 
ENDBRANCH   73   74
TORSDOF 26
ENDMDL
MODEL 3
REMARK VINA RESULT:      -7.8     43.235     47.462
ROOT
ATOM    131  H34 UNL A   1      19.997  34.976  50.369  1.00  0.00    +0.000 H 
ATOM    132  H35 UNL A   1      20.344  33.369  48.345  1.00  0.00    +0.000 H 
ATOM    133  H36 UNL A   1      23.809  35.576  48.864  1.00  0.00    +0.000 H 
ATOM    134  H37 UNL A   1      29.627  37.251  46.859  1.00  0.00    +0.000 H 
ATOM    135  H38 UNL A   1      29.297  38.770  48.868  1.00  0.00    +0.000 H 
ATOM    136  H39 UNL A   1      25.829  36.533  48.389  1.00  0.00    +0.000 H 
ATOM    137  H40 UNL A   1      26.703  33.421  44.541  1.00  0.00    +0.000 H 
ATOM    138  H41 UNL A   1      24.295  32.605  44.830  1.00  0.00    +0.000 H 
ATOM    139  H42 UNL A   1      23.181  38.462  52.918  1.00  0.00    +0.000 H 
ATOM    140  H43 UNL A   1      25.370  39.662  52.349  1.00  0.00    +0.000 H 
ATOM     37  C30 UNL A   1      26.766  38.514  50.138  1.00  0.00    +0.000 C 
ATOM     38  C31 UNL A   1      25.404  38.147  50.661  1.00  0.00    +0.000 C 
ATOM     39  N3  UNL A   1      24.570  37.237  50.224  1.00  0.00    +0.000 N 
ATOM     40  C32 UNL A   1      23.485  37.271  51.091  1.00  0.00    +0.000 C 
ATOM     41  C33 UNL A   1      22.338  36.554  51.033  1.00  0.00    +0.000 C 
ATOM     53  C40 UNL A   1      22.029  35.601  49.999  1.00  0.00    +0.000 C 
ATOM     54  C41 UNL A   1      20.857  34.893  49.803  1.00  0.00    +0.000 C 
ATOM     55  C42 UNL A   1      21.036  34.044  48.706  1.00  0.00    +0.000 C 
ATOM     56  C43 UNL A   1      22.300  34.264  48.185  1.00  0.00    +0.000 C 
ATOM     57  N4  UNL A   1      22.900  35.220  48.989  1.00  0.00    +0.000 N 
ATOM     58  C44 UNL A   1      22.918  33.648  47.039  1.00  0.00    +0.000 C 
ATOM     70  C51 UNL A   1      24.160  33.932  46.580  1.00  0.00    +0.000 C 
ATOM     71  N5  UNL A   1      25.088  34.837  47.076  1.00  0.00    +0.000 N 
ATOM     72  C52 UNL A   1      26.143  34.731  46.305  1.00  0.00    +0.000 C 
ATOM     73  C53 UNL A   1      27.440  35.491  46.360  1.00  0.00    +0.000 C 
ATOM     85  C60 UNL A   1      27.594  36.457  47.285  1.00  0.00    +0.000 C 
ATOM     86  C61 UNL A   1      28.783  37.284  47.454  1.00  0.00    +0.000 C 
ATOM     87  C62 UNL A   1      28.604  38.095  48.509  1.00  0.00    +0.000 C 
ATOM     88  C63 UNL A   1      27.272  37.872  49.069  1.00  0.00    +0.000 C 
ATOM     89  N6  UNL A   1      26.738  36.892  48.270  1.00  0.00    +0.000 N 
ATOM     90  C64 UNL A   1      26.010  33.721  45.244  1.00  0.00    +0.000 C 
ATOM     91  C65 UNL A   1      24.769  33.298  45.429  1.00  0.00    +0.000 C 
ATOM     92  C66 UNL A   1      23.781  38.261  52.103  1.00  0.00    +0.000 C 
ATOM     93  C67 UNL A   1      24.928  38.876  51.847  1.00  0.00    +0.000 C 
ENDROOT
BRANCH   37   36
ATOM     33  C26 UNL A   1      29.092  41.516  52.141  1.00  0.00    +0.000 C 
ATOM     34  C27 UNL A   1      29.346  40.164  52.382  1.00  0.00    +0.000 C 
ATOM     35  C28 UNL A   1      28.608  39.184  51.712  1.00  0.00    +0.000 C 
ATOM    129  H32 UNL A   1      30.079  39.888  53.055  1.00  0.00    +0.000 H 
ATOM    130  H33 UNL A   1      28.820  38.186  51.869  1.00  0.00    +0.000 H 
ATOM     36  C29 UNL A   1      27.582  39.548  50.827  1.00  0.00    +0.000 C 
ATOM    141  H44 UNL A   1      26.572  41.189  49.955  1.00  0.00    +0.000 H 
ATOM    142  H45 UNL A   1      27.989  42.878  50.962  1.00  0.00    +0.000 H 
ATOM     94  C68 UNL A   1      27.338  40.908  50.588  1.00  0.00    +0.000 C 
ATOM     95  C69 UNL A   1      28.123  41.884  51.202  1.00  0.00    +0.000 C 
BRANCH   33   31
ATOM     31  C25 UNL A   1      29.909  42.530  52.850  1.00  0.00    +0.000 C 
ATOM     32  O5  UNL A   1      29.948  42.533  54.078  1.00  0.00    +0.000 O 
BRANCH   31   30
ATOM     30  N2  UNL A   1      30.633  43.458  52.145  1.00  0.00    +0.000 N 
ATOM    128  H31 UNL A   1      30.216  44.344  52.042  1.00  0.00    +0.000 H 
BRANCH   30   29
ATOM     29  C24 UNL A   1      31.939  43.294  51.529  1.00  0.00    +0.000 C 
ATOM    126  H29 UNL A   1      32.204  44.203  51.029  1.00  0.00    +0.000 H 
ATOM    127  H30 UNL A   1      32.646  43.062  52.298  1.00  0.00    +0.000 H 
BRANCH   29   28
ATOM    124  H27 UNL A   1      32.954  41.851  50.359  1.00  0.00    +0.000 H 
ATOM     28  C23 UNL A   1      31.941  42.155  50.518  1.00  0.00    +0.000 C 
ATOM    125  H28 UNL A   1      31.331  41.379  50.933  1.00  0.00    +0.000 H 
BRANCH   28   27
ATOM    122  H25 UNL A   1      30.742  43.392  49.278  1.00  0.00    +0.000 H 
ATOM     27  C22 UNL A   1      31.330  42.506  49.159  1.00  0.00    +0.000 C 
ATOM    123  H26 UNL A   1      32.152  42.629  48.485  1.00  0.00    +0.000 H 
BRANCH   27   26
ATOM    121  H24 UNL A   1      29.636  41.269  49.248  1.00  0.00    +0.000 H 
ATOM     26  C21 UNL A   1      30.435  41.418  48.553  1.00  0.00    +0.000 C 
ATOM    120  H23 UNL A   1      31.035  40.545  48.397  1.00  0.00    +0.000 H 
BRANCH   26   25
ATOM     25  C20 UNL A   1      29.777  41.786  47.219  1.00  0.00    +0.000 C 
ATOM    118  H21 UNL A   1      30.261  42.660  46.835  1.00  0.00    +0.000 H 
ATOM    119  H22 UNL A   1      29.886  40.940  46.575  1.00  0.00    +0.000 H 
BRANCH   25   24
ATOM    116  H19 UNL A   1      28.060  42.387  48.323  1.00  0.00    +0.000 H 
ATOM    117  H20 UNL A   1      28.035  42.840  46.622  1.00  0.00    +0.000 H 
ATOM     24  C19 UNL A   1      28.284  42.073  47.326  1.00  0.00    +0.000 C 
BRANCH   24   23
ATOM    115  H18 UNL A   1      27.364  40.263  47.759  1.00  0.00    +0.000 H 
ATOM     23  N1  UNL A   1      27.502  40.895  47.015  1.00  0.00    +0.000 N 
BRANCH   23   21
ATOM     21  C18 UNL A   1      26.934  40.549  45.830  1.00  0.00    +0.000 C 
ATOM     22  O4  UNL A   1      27.553  40.657  44.779  1.00  0.00    +0.000 O 
BRANCH   21   20
ATOM    114  H17 UNL A   1      24.977  40.153  44.953  1.00  0.00    +0.000 H 
ATOM     20  C17 UNL A   1      25.537  40.073  45.816  1.00  0.00    +0.000 C 
BRANCH   20   19
ATOM    113  H16 UNL A   1      25.523  39.568  47.803  1.00  0.00    +0.000 H 
ATOM     19  C16 UNL A   1      24.991  39.539  46.919  1.00  0.00    +0.000 C 
BRANCH   19   18
ATOM      9  C8  UNL A   1      22.715  39.317  47.902  1.00  0.00    +0.000 C 
ATOM     10  C9  UNL A   1      21.460  38.690  47.975  1.00  0.00    +0.000 C 
ATOM     11  C10 UNL A   1      21.120  37.663  47.101  1.00  0.00    +0.000 C 
ATOM    105  H8  UNL A   1      20.779  38.996  48.688  1.00  0.00    +0.000 H 
ATOM    109  H12 UNL A   1      21.767  36.547  45.450  1.00  0.00    +0.000 H 
ATOM     14  C12 UNL A   1      22.030  37.286  46.120  1.00  0.00    +0.000 C 
ATOM     15  C13 UNL A   1      23.299  37.884  46.015  1.00  0.00    +0.000 C 
ATOM     18  C15 UNL A   1      23.659  38.914  46.914  1.00  0.00    +0.000 C 
BRANCH    9    8
ATOM    104  H7  UNL A   1      23.619  40.106  49.710  1.00  0.00    +0.000 H 
ATOM      8  C7  UNL A   1      22.976  40.340  48.938  1.00  0.00    +0.000 C 
BRANCH    8    7
ATOM    103  H6  UNL A   1      21.467  41.643  49.327  1.00  0.00    +0.000 H 
ATOM      7  C6  UNL A   1      22.411  41.560  48.919  1.00  0.00    +0.000 C 
BRANCH    7    6
ATOM     97  C71 UNL A   1      25.046  43.950  47.637  1.00  0.00    +0.000 C 
ATOM      3  C2  UNL A   1      24.313  45.097  47.342  1.00  0.00    +0.000 C 
ATOM      4  C3  UNL A   1      22.933  45.085  47.548  1.00  0.00    +0.000 C 
ATOM    101  H4  UNL A   1      22.378  45.927  47.329  1.00  0.00    +0.000 H 
ATOM      5  C4  UNL A   1      22.289  43.944  48.049  1.00  0.00    +0.000 C 
ATOM    102  H5  UNL A   1      21.266  43.954  48.183  1.00  0.00    +0.000 H 
ATOM      6  C5  UNL A   1      23.017  42.792  48.369  1.00  0.00    +0.000 C 
ATOM    143  H46 UNL A   1      24.960  41.970  48.361  1.00  0.00    +0.000 H 
ATOM    144  H47 UNL A   1      26.066  43.937  47.480  1.00  0.00    +0.000 H 
ATOM     96  C70 UNL A   1      24.402  42.811  48.146  1.00  0.00    +0.000 C 
BRANCH    3    2
ATOM      2  O1  UNL A   1      24.822  46.283  46.891  1.00  0.00    +0.000 O 
BRANCH    2    1
ATOM      1  C1  UNL A   1      24.075  47.455  47.190  1.00  0.00    +0.000 C 
ATOM     98  H1  UNL A   1      23.075  47.343  46.827  1.00  0.00    +0.000 H 
ATOM     99  H2  UNL A   1      24.532  48.301  46.721  1.00  0.00    +0.000 H 
ATOM    100  H3  UNL A   1      24.053  47.604  48.250  1.00  0.00    +0.000 H 
ENDBRANCH    2    1
ENDBRANCH    3    2
ENDBRANCH    7    6
ENDBRANCH    8    7
ENDBRANCH    9    8
BRANCH   11   12
ATOM     12  O2  UNL A   1      19.890  37.099  47.301  1.00  0.00    +0.000 O 
BRANCH   12   13
ATOM    106  H9  UNL A   1      17.980  37.029  46.567  1.00  0.00    +0.000 H 
ATOM    107  H10 UNL A   1      19.098  38.006  45.646  1.00  0.00    +0.000 H 
ATOM    108  H11 UNL A   1      18.489  38.585  47.177  1.00  0.00    +0.000 H 
ATOM     13  C11 UNL A   1      18.796  37.719  46.631  1.00  0.00    +0.000 C 
ENDBRANCH   12   13
ENDBRANCH   11   12
BRANCH   15   16
ATOM     16  O3  UNL A   1      24.012  37.271  45.020  1.00  0.00    +0.000 O 
BRANCH   16   17
ATOM     17  C14 UNL A   1      23.413  36.433  44.051  1.00  0.00    +0.000 C 
ATOM    110  H13 UNL A   1      23.961  36.500  43.134  1.00  0.00    +0.000 H 
ATOM    111  H14 UNL A   1      22.402  36.743  43.888  1.00  0.00    +0.000 H 
ATOM    112  H15 UNL A   1      23.425  35.421  44.399  1.00  0.00    +0.000 H 
ENDBRANCH   16   17
ENDBRANCH   15   16
ENDBRANCH   19   18
ENDBRANCH   20   19
ENDBRANCH   21   20
ENDBRANCH   23   21
ENDBRANCH   24   23
ENDBRANCH   25   24
ENDBRANCH   26   25
ENDBRANCH   27   26
ENDBRANCH   28   27
ENDBRANCH   29   28
ENDBRANCH   30   29
ENDBRANCH   31   30
ENDBRANCH   33   31
ENDBRANCH   37   36
BRANCH   41   42
ATOM     42  C34 UNL A   1      21.319  36.767  52.115  1.00  0.00    +0.000 C 
ATOM     43  C35 UNL A   1      20.165  37.536  51.901  1.00  0.00    +0.000 C 
ATOM     44  F1  UNL A   1      19.983  38.170  50.733  1.00  0.00    +0.000 F 
ATOM     45  C36 UNL A   1      19.203  37.675  52.899  1.00  0.00    +0.000 C 
ATOM     46  F2  UNL A   1      18.125  38.443  52.684  1.00  0.00    +0.000 F 
ATOM     47  C37 UNL A   1      19.359  37.025  54.114  1.00  0.00    +0.000 C 
ATOM     48  F3  UNL A   1      18.424  37.147  55.065  1.00  0.00    +0.000 F 
ATOM     49  C38 UNL A   1      20.487  36.251  54.342  1.00  0.00    +0.000 C 
ATOM     50  F4  UNL A   1      20.632  35.611  55.511  1.00  0.00    +0.000 F 
ATOM     51  C39 UNL A   1      21.463  36.132  53.358  1.00  0.00    +0.000 C 
ATOM     52  F5  UNL A   1      22.545  35.380  53.613  1.00  0.00    +0.000 F 
ENDBRANCH   41   42
BRANCH   58   59
ATOM     65  F8  UNL A   1      19.850  29.848  44.197  1.00  0.00    +0.000 F 
ATOM     66  C49 UNL A   1      20.363  32.103  44.680  1.00  0.00    +0.000 C 
ATOM     67  F9  UNL A   1      19.413  32.515  43.831  1.00  0.00    +0.000 F 
ATOM     68  C50 UNL A   1      21.136  33.036  45.364  1.00  0.00    +0.000 C 
ATOM     69  F10 UNL A   1      20.915  34.341  45.143  1.00  0.00    +0.000 F 
ATOM     59  C45 UNL A   1      22.121  32.629  46.278  1.00  0.00    +0.000 C 
ATOM     60  C46 UNL A   1      22.305  31.253  46.476  1.00  0.00    +0.000 C 
ATOM     61  F6  UNL A   1      23.243  30.813  47.327  1.00  0.00    +0.000 F 
ATOM     62  C47 UNL A   1      21.552  30.322  45.765  1.00  0.00    +0.000 C 
ATOM     63  F7  UNL A   1      21.781  29.011  45.933  1.00  0.00    +0.000 F 
ATOM     64  C48 UNL A   1      20.578  30.747  44.875  1.00  0.00    +0.000 C 
ENDBRANCH   58   59
BRANCH   73   74
ATOM     74  C54 UNL A   1      28.539  35.193  45.403  1.00  0.00    +0.000 C 
ATOM     75  C55 UNL A   1      29.340  34.053  45.555  1.00  0.00    +0.000 C 
ATOM     76  F11 UNL A   1      29.120  33.210  46.576  1.00  0.00    +0.000 F 
ATOM     77  C56 UNL A   1      30.403  33.798  44.691  1.00  0.00    +0.000 C 
ATOM     78  F12 UNL A   1      31.188  32.731  44.893  1.00  0.00    +0.000 F 
ATOM     79  C57 UNL A   1      30.662  34.659  43.635  1.00  0.00    +0.000 C 
ATOM     80  F13 UNL A   1      31.685  34.415  42.805  1.00  0.00    +0.000 F 
ATOM     81  C58 UNL A   1      29.867  35.779  43.448  1.00  0.00    +0.000 C 
ATOM     82  F14 UNL A   1      30.104  36.604  42.419  1.00  0.00    +0.000 F 
ATOM     83  C59 UNL A   1      28.824  36.051  44.332  1.00  0.00    +0.000 C 
ATOM     84  F15 UNL A   1      28.083  37.151  44.136  1.00  0.00    +0.000 F 
ENDBRANCH   73   74
TORSDOF 26
ENDMDL
MODEL 4
REMARK VINA RESULT:      -7.4     50.317     55.360
ROOT
ATOM    131  H34 UNL A   1      -2.832   6.409  34.525  1.00  0.00    +0.000 H 
ATOM    132  H35 UNL A   1      -1.382   4.243  34.480  1.00  0.00    +0.000 H 
ATOM    133  H36 UNL A   1       0.804   7.236  36.329  1.00  0.00    +0.000 H 
ATOM    134  H37 UNL A   1       6.272   9.284  38.893  1.00  0.00    +0.000 H 
ATOM    135  H38 UNL A   1       4.827  11.370  38.981  1.00  0.00    +0.000 H 
ATOM    136  H39 UNL A   1       2.604   8.368  37.163  1.00  0.00    +0.000 H 
ATOM    137  H40 UNL A   1       5.486   4.252  37.264  1.00  0.00    +0.000 H 
ATOM    138  H41 UNL A   1       3.610   3.071  35.985  1.00  0.00    +0.000 H 
ATOM    139  H42 UNL A   1      -2.123  11.299  36.615  1.00  0.00    +0.000 H 
ATOM    140  H43 UNL A   1      -0.100  12.646  37.420  1.00  0.00    +0.000 H 
ATOM     37  C30 UNL A   1       2.234  11.059  37.855  1.00  0.00    +0.000 C 
ATOM     38  C31 UNL A   1       0.919  10.624  37.271  1.00  0.00    +0.000 C 
ATOM     39  N3  UNL A   1       0.558   9.442  36.838  1.00  0.00    +0.000 N 
ATOM     40  C32 UNL A   1      -0.771   9.569  36.453  1.00  0.00    +0.000 C 
ATOM     41  C33 UNL A   1      -1.578   8.638  35.892  1.00  0.00    +0.000 C 
ATOM     53  C40 UNL A   1      -1.165   7.297  35.568  1.00  0.00    +0.000 C 
ATOM     54  C41 UNL A   1      -1.882   6.310  34.915  1.00  0.00    +0.000 C 
ATOM     55  C42 UNL A   1      -1.097   5.153  34.874  1.00  0.00    +0.000 C 
ATOM     56  C43 UNL A   1       0.129   5.437  35.453  1.00  0.00    +0.000 C 
ATOM     57  N4  UNL A   1       0.074   6.755  35.876  1.00  0.00    +0.000 N 
ATOM     58  C44 UNL A   1       1.269   4.570  35.610  1.00  0.00    +0.000 C 
ATOM     70  C51 UNL A   1       2.447   4.930  36.174  1.00  0.00    +0.000 C 
ATOM     71  N5  UNL A   1       2.820   6.155  36.709  1.00  0.00    +0.000 N 
ATOM     72  C52 UNL A   1       4.044   5.997  37.151  1.00  0.00    +0.000 C 
ATOM     73  C53 UNL A   1       4.955   7.002  37.802  1.00  0.00    +0.000 C 
ATOM     85  C60 UNL A   1       4.530   8.271  37.952  1.00  0.00    +0.000 C 
ATOM     86  C61 UNL A   1       5.300   9.355  38.551  1.00  0.00    +0.000 C 
ATOM     87  C62 UNL A   1       4.540  10.461  38.587  1.00  0.00    +0.000 C 
ATOM     88  C63 UNL A   1       3.241  10.175  37.979  1.00  0.00    +0.000 C 
ATOM     89  N6  UNL A   1       3.330   8.853  37.618  1.00  0.00    +0.000 N 
ATOM     90  C64 UNL A   1       4.576   4.639  36.969  1.00  0.00    +0.000 C 
ATOM     91  C65 UNL A   1       3.581   4.043  36.329  1.00  0.00    +0.000 C 
ATOM     92  C66 UNL A   1      -1.168  10.930  36.741  1.00  0.00    +0.000 C 
ATOM     93  C67 UNL A   1      -0.142  11.641  37.189  1.00  0.00    +0.000 C 
ENDROOT
BRANCH   37   36
ATOM     33  C26 UNL A   1       2.777  15.064  39.305  1.00  0.00    +0.000 C 
ATOM     34  C27 UNL A   1       3.242  14.716  38.034  1.00  0.00    +0.000 C 
ATOM     35  C28 UNL A   1       3.044  13.420  37.549  1.00  0.00    +0.000 C 
ATOM    129  H32 UNL A   1       3.732  15.415  37.453  1.00  0.00    +0.000 H 
ATOM    130  H33 UNL A   1       3.361  13.175  36.598  1.00  0.00    +0.000 H 
ATOM     36  C29 UNL A   1       2.416  12.451  38.346  1.00  0.00    +0.000 C 
ATOM    141  H44 UNL A   1       1.503  12.103  40.222  1.00  0.00    +0.000 H 
ATOM    142  H45 UNL A   1       1.667  14.401  40.975  1.00  0.00    +0.000 H 
ATOM     94  C68 UNL A   1       1.949  12.812  39.618  1.00  0.00    +0.000 C 
ATOM     95  C69 UNL A   1       2.082  14.124  40.072  1.00  0.00    +0.000 C 
BRANCH   33   31
ATOM     31  C25 UNL A   1       2.983  16.454  39.780  1.00  0.00    +0.000 C 
ATOM     32  O5  UNL A   1       3.108  17.365  38.966  1.00  0.00    +0.000 O 
BRANCH   31   30
ATOM     30  N2  UNL A   1       3.019  16.731  41.123  1.00  0.00    +0.000 N 
ATOM    128  H31 UNL A   1       2.146  16.784  41.576  1.00  0.00    +0.000 H 
BRANCH   30   29
ATOM     29  C24 UNL A   1       4.185  16.959  41.960  1.00  0.00    +0.000 C 
ATOM    126  H29 UNL A   1       4.761  16.057  42.006  1.00  0.00    +0.000 H 
ATOM    127  H30 UNL A   1       4.758  17.753  41.528  1.00  0.00    +0.000 H 
BRANCH   29   28
ATOM    124  H27 UNL A   1       4.644  17.799  43.848  1.00  0.00    +0.000 H 
ATOM     28  C23 UNL A   1       3.788  17.366  43.372  1.00  0.00    +0.000 C 
ATOM    125  H28 UNL A   1       2.973  18.052  43.273  1.00  0.00    +0.000 H 
BRANCH   28   27
ATOM    122  H25 UNL A   1       3.303  15.321  43.667  1.00  0.00    +0.000 H 
ATOM     27  C22 UNL A   1       3.285  16.219  44.250  1.00  0.00    +0.000 C 
ATOM    123  H26 UNL A   1       3.934  16.186  45.100  1.00  0.00    +0.000 H 
BRANCH   27   26
ATOM    121  H24 UNL A   1       1.500  17.317  44.384  1.00  0.00    +0.000 H 
ATOM     26  C21 UNL A   1       1.865  16.401  44.800  1.00  0.00    +0.000 C 
ATOM    120  H23 UNL A   1       1.923  16.412  45.869  1.00  0.00    +0.000 H 
BRANCH   26   25
ATOM     25  C20 UNL A   1       0.864  15.317  44.390  1.00  0.00    +0.000 C 
ATOM    118  H21 UNL A   1       0.554  14.794  45.271  1.00  0.00    +0.000 H 
ATOM    119  H22 UNL A   1       0.053  15.812  43.900  1.00  0.00    +0.000 H 
BRANCH   25   24
ATOM    116  H19 UNL A   1       1.264  14.657  42.407  1.00  0.00    +0.000 H 
ATOM    117  H20 UNL A   1       2.470  14.180  43.598  1.00  0.00    +0.000 H 
ATOM     24  C19 UNL A   1       1.425  14.301  43.402  1.00  0.00    +0.000 C 
BRANCH   24   23
ATOM    115  H18 UNL A   1       0.318  12.670  42.751  1.00  0.00    +0.000 H 
ATOM     23  N1  UNL A   1       0.779  13.014  43.551  1.00  0.00    +0.000 N 
BRANCH   23   21
ATOM     21  C18 UNL A   1       0.727  12.220  44.652  1.00  0.00    +0.000 C 
ATOM     22  O4  UNL A   1      -0.327  11.711  45.014  1.00  0.00    +0.000 O 
BRANCH   21   20
ATOM    114  H17 UNL A   1       2.034  12.405  46.388  1.00  0.00    +0.000 H 
ATOM     20  C17 UNL A   1       1.957  12.005  45.440  1.00  0.00    +0.000 C 
BRANCH   20   19
ATOM    113  H16 UNL A   1       3.930  11.476  45.273  1.00  0.00    +0.000 H 
ATOM     19  C16 UNL A   1       2.974  11.294  44.930  1.00  0.00    +0.000 C 
BRANCH   19   18
ATOM      9  C8  UNL A   1       3.287  10.503  42.591  1.00  0.00    +0.000 C 
ATOM     10  C9  UNL A   1       3.051   9.577  41.562  1.00  0.00    +0.000 C 
ATOM     11  C10 UNL A   1       2.307   8.424  41.791  1.00  0.00    +0.000 C 
ATOM    105  H8  UNL A   1       3.435   9.754  40.620  1.00  0.00    +0.000 H 
ATOM    109  H12 UNL A   1       1.303   7.307  43.252  1.00  0.00    +0.000 H 
ATOM     14  C12 UNL A   1       1.828   8.178  43.072  1.00  0.00    +0.000 C 
ATOM     15  C13 UNL A   1       2.037   9.081  44.131  1.00  0.00    +0.000 C 
ATOM     18  C15 UNL A   1       2.773  10.264  43.899  1.00  0.00    +0.000 C 
BRANCH    9    8
ATOM    104  H7  UNL A   1       3.487  12.567  41.949  1.00  0.00    +0.000 H 
ATOM      8  C7  UNL A   1       4.026  11.721  42.194  1.00  0.00    +0.000 C 
BRANCH    8    7
ATOM    103  H6  UNL A   1       5.888  11.223  42.834  1.00  0.00    +0.000 H 
ATOM      7  C6  UNL A   1       5.367  11.776  42.136  1.00  0.00    +0.000 C 
BRANCH    7    6
ATOM     97  C71 UNL A   1       6.573  14.712  40.081  1.00  0.00    +0.000 C 
ATOM      3  C2  UNL A   1       7.603  14.162  39.321  1.00  0.00    +0.000 C 
ATOM      4  C3  UNL A   1       7.921  12.815  39.494  1.00  0.00    +0.000 C 
ATOM    101  H4  UNL A   1       8.685  12.397  38.940  1.00  0.00    +0.000 H 
ATOM      5  C4  UNL A   1       7.218  12.020  40.411  1.00  0.00    +0.000 C 
ATOM    102  H5  UNL A   1       7.478  11.028  40.530  1.00  0.00    +0.000 H 
ATOM      6  C5  UNL A   1       6.167  12.555  41.166  1.00  0.00    +0.000 C 
ATOM    143  H46 UNL A   1       5.103  14.337  41.546  1.00  0.00    +0.000 H 
ATOM    144  H47 UNL A   1       6.332  15.710  39.973  1.00  0.00    +0.000 H 
ATOM     96  C70 UNL A   1       5.864  13.914  40.992  1.00  0.00    +0.000 C 
BRANCH    3    2
ATOM      2  O1  UNL A   1       8.335  14.813  38.367  1.00  0.00    +0.000 O 
BRANCH    2    1
ATOM      1  C1  UNL A   1       8.866  14.018  37.314  1.00  0.00    +0.000 C 
ATOM     98  H1  UNL A   1       8.797  14.556  36.392  1.00  0.00    +0.000 H 
ATOM     99  H2  UNL A   1       8.309  13.108  37.239  1.00  0.00    +0.000 H 
ATOM    100  H3  UNL A   1       9.892  13.793  37.519  1.00  0.00    +0.000 H 
ENDBRANCH    2    1
ENDBRANCH    3    2
ENDBRANCH    7    6
ENDBRANCH    8    7
ENDBRANCH    9    8
BRANCH   11   12
ATOM     12  O2  UNL A   1       2.104   7.624  40.700  1.00  0.00    +0.000 O 
BRANCH   12   13
ATOM    106  H9  UNL A   1       1.743   5.646  40.315  1.00  0.00    +0.000 H 
ATOM    107  H10 UNL A   1       0.328   6.609  40.666  1.00  0.00    +0.000 H 
ATOM    108  H11 UNL A   1       1.419   6.158  41.954  1.00  0.00    +0.000 H 
ATOM     13  C11 UNL A   1       1.351   6.435  40.923  1.00  0.00    +0.000 C 
ENDBRANCH   12   13
ENDBRANCH   11   12
BRANCH   15   16
ATOM     16  O3  UNL A   1       1.394   8.628  45.251  1.00  0.00    +0.000 O 
BRANCH   16   17
ATOM     17  C14 UNL A   1       0.237   7.816  45.197  1.00  0.00    +0.000 C 
ATOM    110  H13 UNL A   1       0.209   7.178  46.056  1.00  0.00    +0.000 H 
ATOM    111  H14 UNL A   1       0.260   7.221  44.309  1.00  0.00    +0.000 H 
ATOM    112  H15 UNL A   1      -0.635   8.438  45.187  1.00  0.00    +0.000 H 
ENDBRANCH   16   17
ENDBRANCH   15   16
ENDBRANCH   19   18
ENDBRANCH   20   19
ENDBRANCH   21   20
ENDBRANCH   23   21
ENDBRANCH   24   23
ENDBRANCH   25   24
ENDBRANCH   26   25
ENDBRANCH   27   26
ENDBRANCH   28   27
ENDBRANCH   29   28
ENDBRANCH   30   29
ENDBRANCH   31   30
ENDBRANCH   33   31
ENDBRANCH   37   36
BRANCH   41   42
ATOM     42  C34 UNL A   1      -2.995   9.027  35.585  1.00  0.00    +0.000 C 
ATOM     43  C35 UNL A   1      -3.362   9.551  34.337  1.00  0.00    +0.000 C 
ATOM     44  F1  UNL A   1      -2.429   9.791  33.404  1.00  0.00    +0.000 F 
ATOM     45  C36 UNL A   1      -4.692   9.853  34.051  1.00  0.00    +0.000 C 
ATOM     46  F2  UNL A   1      -5.014  10.386  32.863  1.00  0.00    +0.000 F 
ATOM     47  C37 UNL A   1      -5.680   9.609  34.991  1.00  0.00    +0.000 C 
ATOM     48  F3  UNL A   1      -6.961   9.884  34.707  1.00  0.00    +0.000 F 
ATOM     49  C38 UNL A   1      -5.341   9.081  36.228  1.00  0.00    +0.000 C 
ATOM     50  F4  UNL A   1      -6.297   8.831  37.133  1.00  0.00    +0.000 F 
ATOM     51  C39 UNL A   1      -4.011   8.803  36.527  1.00  0.00    +0.000 C 
ATOM     52  F5  UNL A   1      -3.714   8.299  37.735  1.00  0.00    +0.000 F 
ENDBRANCH   41   42
BRANCH   58   59
ATOM     65  F8  UNL A   1       0.896  -0.739  33.711  1.00  0.00    +0.000 F 
ATOM     66  C49 UNL A   1       0.640   0.820  35.468  1.00  0.00    +0.000 C 
ATOM     67  F9  UNL A   1       0.233  -0.155  36.291  1.00  0.00    +0.000 F 
ATOM     68  C50 UNL A   1       0.711   2.132  35.925  1.00  0.00    +0.000 C 
ATOM     69  F10 UNL A   1       0.353   2.392  37.193  1.00  0.00    +0.000 F 
ATOM     59  C45 UNL A   1       1.158   3.166  35.089  1.00  0.00    +0.000 C 
ATOM     60  C46 UNL A   1       1.526   2.838  33.776  1.00  0.00    +0.000 C 
ATOM     61  F6  UNL A   1       1.945   3.792  32.933  1.00  0.00    +0.000 F 
ATOM     62  C47 UNL A   1       1.423   1.529  33.312  1.00  0.00    +0.000 C 
ATOM     63  F7  UNL A   1       1.732   1.247  32.038  1.00  0.00    +0.000 F 
ATOM     64  C48 UNL A   1       0.988   0.521  34.159  1.00  0.00    +0.000 C 
ENDBRANCH   58   59
BRANCH   73   74
ATOM     74  C54 UNL A   1       6.311   6.610  38.269  1.00  0.00    +0.000 C 
ATOM     75  C55 UNL A   1       7.458   6.988  37.558  1.00  0.00    +0.000 C 
ATOM     76  F11 UNL A   1       7.342   7.717  36.437  1.00  0.00    +0.000 F 
ATOM     77  C56 UNL A   1       8.727   6.578  37.963  1.00  0.00    +0.000 C 
ATOM     78  F12 UNL A   1       9.801   6.907  37.233  1.00  0.00    +0.000 F 
ATOM     79  C57 UNL A   1       8.876   5.813  39.110  1.00  0.00    +0.000 C 
ATOM     80  F13 UNL A   1      10.095   5.418  39.501  1.00  0.00    +0.000 F 
ATOM     81  C58 UNL A   1       7.759   5.449  39.846  1.00  0.00    +0.000 C 
ATOM     82  F14 UNL A   1       7.900   4.724  40.964  1.00  0.00    +0.000 F 
ATOM     83  C59 UNL A   1       6.487   5.832  39.422  1.00  0.00    +0.000 C 
ATOM     84  F15 UNL A   1       5.424   5.449  40.144  1.00  0.00    +0.000 F 
ENDBRANCH   73   74
TORSDOF 26
ENDMDL
MODEL 5
REMARK VINA RESULT:      -7.4     33.703     38.645
ROOT
ATOM    131  H34 UNL A   1      49.789  56.066  16.256  1.00  0.00    +0.000 H 
ATOM    132  H35 UNL A   1      51.744  56.013  17.980  1.00  0.00    +0.000 H 
ATOM    133  H36 UNL A   1      49.469  52.590  18.486  1.00  0.00    +0.000 H 
ATOM    134  H37 UNL A   1      48.181  47.262  21.745  1.00  0.00    +0.000 H 
ATOM    135  H38 UNL A   1      46.315  47.298  20.023  1.00  0.00    +0.000 H 
ATOM    136  H39 UNL A   1      48.611  50.716  19.472  1.00  0.00    +0.000 H 
ATOM    137  H40 UNL A   1      52.385  50.401  22.777  1.00  0.00    +0.000 H 
ATOM    138  H41 UNL A   1      53.140  52.695  21.929  1.00  0.00    +0.000 H 
ATOM    139  H42 UNL A   1      45.879  52.620  14.983  1.00  0.00    +0.000 H 
ATOM    140  H43 UNL A   1      44.800  50.603  16.135  1.00  0.00    +0.000 H 
ATOM     37  C30 UNL A   1      46.336  49.565  18.306  1.00  0.00    +0.000 C 
ATOM     38  C31 UNL A   1      46.603  50.804  17.496  1.00  0.00    +0.000 C 
ATOM     39  N3  UNL A   1      47.581  51.668  17.607  1.00  0.00    +0.000 N 
ATOM     40  C32 UNL A   1      47.389  52.590  16.586  1.00  0.00    +0.000 C 
ATOM     41  C33 UNL A   1      48.107  53.704  16.310  1.00  0.00    +0.000 C 
ATOM     53  C40 UNL A   1      49.238  54.151  17.082  1.00  0.00    +0.000 C 
ATOM     54  C41 UNL A   1      49.974  55.314  16.938  1.00  0.00    +0.000 C 
ATOM     55  C42 UNL A   1      51.011  55.294  17.875  1.00  0.00    +0.000 C 
ATOM     56  C43 UNL A   1      50.889  54.146  18.639  1.00  0.00    +0.000 C 
ATOM     57  N4  UNL A   1      49.798  53.451  18.141  1.00  0.00    +0.000 N 
ATOM     58  C44 UNL A   1      51.707  53.711  19.742  1.00  0.00    +0.000 C 
ATOM     70  C51 UNL A   1      51.510  52.576  20.455  1.00  0.00    +0.000 C 
ATOM     71  N5  UNL A   1      50.525  51.609  20.303  1.00  0.00    +0.000 N 
ATOM     72  C52 UNL A   1      50.771  50.698  21.213  1.00  0.00    +0.000 C 
ATOM     73  C53 UNL A   1      50.009  49.438  21.525  1.00  0.00    +0.000 C 
ATOM     85  C60 UNL A   1      48.887  49.164  20.833  1.00  0.00    +0.000 C 
ATOM     86  C61 UNL A   1      48.040  47.993  21.029  1.00  0.00    +0.000 C 
ATOM     87  C62 UNL A   1      47.047  48.018  20.125  1.00  0.00    +0.000 C 
ATOM     88  C63 UNL A   1      47.165  49.226  19.311  1.00  0.00    +0.000 C 
ATOM     89  N6  UNL A   1      48.279  49.854  19.812  1.00  0.00    +0.000 N 
ATOM     90  C64 UNL A   1      51.961  50.974  22.031  1.00  0.00    +0.000 C 
ATOM     91  C65 UNL A   1      52.345  52.150  21.558  1.00  0.00    +0.000 C 
ATOM     92  C66 UNL A   1      46.227  52.160  15.839  1.00  0.00    +0.000 C 
ATOM     93  C67 UNL A   1      45.667  51.097  16.399  1.00  0.00    +0.000 C 
ENDROOT
BRANCH   37   36
ATOM     33  C26 UNL A   1      43.041  46.981  17.358  1.00  0.00    +0.000 C 
ATOM     34  C27 UNL A   1      42.816  48.163  18.069  1.00  0.00    +0.000 C 
ATOM     35  C28 UNL A   1      43.882  49.018  18.356  1.00  0.00    +0.000 C 
ATOM    129  H32 UNL A   1      41.862  48.404  18.381  1.00  0.00    +0.000 H 
ATOM    130  H33 UNL A   1      43.707  49.905  18.854  1.00  0.00    +0.000 H 
ATOM     36  C29 UNL A   1      45.189  48.680  17.972  1.00  0.00    +0.000 C 
ATOM    141  H44 UNL A   1      46.363  47.225  16.984  1.00  0.00    +0.000 H 
ATOM    142  H45 UNL A   1      44.485  45.848  16.312  1.00  0.00    +0.000 H 
ATOM     94  C68 UNL A   1      45.404  47.495  17.255  1.00  0.00    +0.000 C 
ATOM     95  C69 UNL A   1      44.330  46.678  16.905  1.00  0.00    +0.000 C 
BRANCH   33   31
ATOM     31  C25 UNL A   1      41.884  46.106  17.049  1.00  0.00    +0.000 C 
ATOM     32  O5  UNL A   1      41.716  45.700  15.902  1.00  0.00    +0.000 O 
BRANCH   31   30
ATOM     30  N2  UNL A   1      41.009  45.735  18.038  1.00  0.00    +0.000 N 
ATOM    128  H31 UNL A   1      40.206  46.297  18.137  1.00  0.00    +0.000 H 
BRANCH   30   29
ATOM     29  C24 UNL A   1      41.121  44.617  18.960  1.00  0.00    +0.000 C 
ATOM    126  H29 UNL A   1      41.547  44.965  19.878  1.00  0.00    +0.000 H 
ATOM    127  H30 UNL A   1      40.141  44.218  19.122  1.00  0.00    +0.000 H 
BRANCH   29   28
ATOM    124  H27 UNL A   1      41.529  42.573  18.594  1.00  0.00    +0.000 H 
ATOM     28  C23 UNL A   1      42.001  43.512  18.393  1.00  0.00    +0.000 C 
ATOM    125  H28 UNL A   1      42.105  43.713  17.346  1.00  0.00    +0.000 H 
BRANCH   28   27
ATOM    122  H25 UNL A   1      43.585  42.485  19.363  1.00  0.00    +0.000 H 
ATOM     27  C22 UNL A   1      43.418  43.466  18.967  1.00  0.00    +0.000 C 
ATOM    123  H26 UNL A   1      44.076  43.716  18.161  1.00  0.00    +0.000 H 
BRANCH   27   26
ATOM    121  H24 UNL A   1      43.333  44.042  20.985  1.00  0.00    +0.000 H 
ATOM     26  C21 UNL A   1      43.698  44.483  20.081  1.00  0.00    +0.000 C 
ATOM    120  H23 UNL A   1      43.206  45.398  19.824  1.00  0.00    +0.000 H 
BRANCH   26   25
ATOM     25  C20 UNL A   1      45.179  44.791  20.324  1.00  0.00    +0.000 C 
ATOM    118  H21 UNL A   1      45.291  45.851  20.416  1.00  0.00    +0.000 H 
ATOM    119  H22 UNL A   1      45.462  44.269  21.213  1.00  0.00    +0.000 H 
BRANCH   25   24
ATOM    116  H19 UNL A   1      45.507  43.961  18.392  1.00  0.00    +0.000 H 
ATOM    117  H20 UNL A   1      46.726  45.120  18.911  1.00  0.00    +0.000 H 
ATOM     24  C19 UNL A   1      46.101  44.305  19.211  1.00  0.00    +0.000 C 
BRANCH   24   23
ATOM    115  H18 UNL A   1      46.551  42.322  19.623  1.00  0.00    +0.000 H 
ATOM     23  N1  UNL A   1      46.947  43.223  19.668  1.00  0.00    +0.000 N 
BRANCH   23   21
ATOM     21  C18 UNL A   1      48.215  43.291  20.149  1.00  0.00    +0.000 C 
ATOM     22  O4  UNL A   1      48.692  42.372  20.803  1.00  0.00    +0.000 O 
BRANCH   21   20
ATOM    114  H17 UNL A   1      49.210  45.156  20.689  1.00  0.00    +0.000 H 
ATOM     20  C17 UNL A   1      49.009  44.512  19.908  1.00  0.00    +0.000 C 
BRANCH   20   19
ATOM    113  H16 UNL A   1      48.826  44.715  17.876  1.00  0.00    +0.000 H 
ATOM     19  C16 UNL A   1      49.471  44.789  18.679  1.00  0.00    +0.000 C 
BRANCH   19   18
ATOM      9  C8  UNL A   1      51.111  46.514  17.951  1.00  0.00    +0.000 C 
ATOM     10  C9  UNL A   1      52.420  46.915  17.636  1.00  0.00    +0.000 C 
ATOM     11  C10 UNL A   1      53.491  46.039  17.777  1.00  0.00    +0.000 C 
ATOM    105  H8  UNL A   1      52.590  47.874  17.295  1.00  0.00    +0.000 H 
ATOM    109  H12 UNL A   1      54.052  44.122  18.410  1.00  0.00    +0.000 H 
ATOM     14  C12 UNL A   1      53.254  44.763  18.274  1.00  0.00    +0.000 C 
ATOM     15  C13 UNL A   1      51.958  44.319  18.597  1.00  0.00    +0.000 C 
ATOM     18  C15 UNL A   1      50.863  45.197  18.436  1.00  0.00    +0.000 C 
BRANCH    9    8
ATOM    104  H7  UNL A   1      50.065  48.396  18.224  1.00  0.00    +0.000 H 
ATOM      8  C7  UNL A   1      50.057  47.517  17.683  1.00  0.00    +0.000 C 
BRANCH    8    7
ATOM    103  H6  UNL A   1      48.262  46.796  17.065  1.00  0.00    +0.000 H 
ATOM      7  C6  UNL A   1      49.090  47.335  16.768  1.00  0.00    +0.000 C 
BRANCH    7    6
ATOM     97  C71 UNL A   1      50.164  47.785  13.171  1.00  0.00    +0.000 C 
ATOM      3  C2  UNL A   1      49.257  48.726  12.687  1.00  0.00    +0.000 C 
ATOM      4  C3  UNL A   1      48.268  49.209  13.544  1.00  0.00    +0.000 C 
ATOM    101  H4  UNL A   1      47.588  49.903  13.196  1.00  0.00    +0.000 H 
ATOM      5  C4  UNL A   1      48.184  48.765  14.872  1.00  0.00    +0.000 C 
ATOM    102  H5  UNL A   1      47.438  49.128  15.485  1.00  0.00    +0.000 H 
ATOM      6  C5  UNL A   1      49.102  47.835  15.376  1.00  0.00    +0.000 C 
ATOM    143  H46 UNL A   1      50.766  46.651  14.844  1.00  0.00    +0.000 H 
ATOM    144  H47 UNL A   1      50.895  47.409  12.547  1.00  0.00    +0.000 H 
ATOM     96  C70 UNL A   1      50.085  47.347  14.501  1.00  0.00    +0.000 C 
BRANCH    3    2
ATOM      2  O1  UNL A   1      49.255  49.270  11.432  1.00  0.00    +0.000 O 
BRANCH    2    1
ATOM      1  C1  UNL A   1      48.265  48.794  10.530  1.00  0.00    +0.000 C 
ATOM     98  H1  UNL A   1      47.446  49.482  10.503  1.00  0.00    +0.000 H 
ATOM     99  H2  UNL A   1      47.916  47.836  10.856  1.00  0.00    +0.000 H 
ATOM    100  H3  UNL A   1      48.687  48.705   9.550  1.00  0.00    +0.000 H 
ENDBRANCH    2    1
ENDBRANCH    3    2
ENDBRANCH    7    6
ENDBRANCH    8    7
ENDBRANCH    9    8
BRANCH   11   12
ATOM     12  O2  UNL A   1      54.710  46.527  17.394  1.00  0.00    +0.000 O 
BRANCH   12   13
ATOM    106  H9  UNL A   1      53.757  47.452  15.836  1.00  0.00    +0.000 H 
ATOM    107  H10 UNL A   1      55.483  47.258  15.646  1.00  0.00    +0.000 H 
ATOM    108  H11 UNL A   1      54.855  48.462  16.744  1.00  0.00    +0.000 H 
ATOM     13  C11 UNL A   1      54.701  47.485  16.339  1.00  0.00    +0.000 C 
ENDBRANCH   12   13
ENDBRANCH   11   12
BRANCH   15   16
ATOM     16  O3  UNL A   1      52.008  43.007  18.985  1.00  0.00    +0.000 O 
BRANCH   16   17
ATOM     17  C14 UNL A   1      52.452  42.602  20.265  1.00  0.00    +0.000 C 
ATOM    110  H13 UNL A   1      53.030  43.387  20.707  1.00  0.00    +0.000 H 
ATOM    111  H14 UNL A   1      53.055  41.723  20.172  1.00  0.00    +0.000 H 
ATOM    112  H15 UNL A   1      51.606  42.390  20.886  1.00  0.00    +0.000 H 
ENDBRANCH   16   17
ENDBRANCH   15   16
ENDBRANCH   19   18
ENDBRANCH   20   19
ENDBRANCH   21   20
ENDBRANCH   23   21
ENDBRANCH   24   23
ENDBRANCH   25   24
ENDBRANCH   26   25
ENDBRANCH   27   26
ENDBRANCH   28   27
ENDBRANCH   29   28
ENDBRANCH   30   29
ENDBRANCH   31   30
ENDBRANCH   33   31
ENDBRANCH   37   36
BRANCH   41   42
ATOM     42  C34 UNL A   1      47.699  54.530  15.126  1.00  0.00    +0.000 C 
ATOM     43  C35 UNL A   1      47.955  54.111  13.811  1.00  0.00    +0.000 C 
ATOM     44  F1  UNL A   1      48.647  52.985  13.584  1.00  0.00    +0.000 F 
ATOM     45  C36 UNL A   1      47.519  54.863  12.723  1.00  0.00    +0.000 C 
ATOM     46  F2  UNL A   1      47.805  54.461  11.476  1.00  0.00    +0.000 F 
ATOM     47  C37 UNL A   1      46.794  56.028  12.925  1.00  0.00    +0.000 C 
ATOM     48  F3  UNL A   1      46.360  56.740  11.876  1.00  0.00    +0.000 F 
ATOM     49  C38 UNL A   1      46.520  56.454  14.216  1.00  0.00    +0.000 C 
ATOM     50  F4  UNL A   1      45.808  57.572  14.414  1.00  0.00    +0.000 F 
ATOM     51  C39 UNL A   1      46.978  55.720  15.306  1.00  0.00    +0.000 C 
ATOM     52  F5  UNL A   1      46.702  56.163  16.542  1.00  0.00    +0.000 F 
ENDBRANCH   41   42
BRANCH   58   59
ATOM     65  F8  UNL A   1      56.056  56.955  21.320  1.00  0.00    +0.000 F 
ATOM     66  C49 UNL A   1      55.235  55.078  20.143  1.00  0.00    +0.000 C 
ATOM     67  F9  UNL A   1      56.477  54.763  19.752  1.00  0.00    +0.000 F 
ATOM     68  C50 UNL A   1      54.159  54.295  19.737  1.00  0.00    +0.000 C 
ATOM     69  F10 UNL A   1      54.395  53.238  18.944  1.00  0.00    +0.000 F 
ATOM     59  C45 UNL A   1      52.852  54.590  20.154  1.00  0.00    +0.000 C 
ATOM     60  C46 UNL A   1      52.663  55.701  20.988  1.00  0.00    +0.000 C 
ATOM     61  F6  UNL A   1      51.432  56.034  21.402  1.00  0.00    +0.000 F 
ATOM     62  C47 UNL A   1      53.738  56.502  21.365  1.00  0.00    +0.000 C 
ATOM     63  F7  UNL A   1      53.527  57.589  22.121  1.00  0.00    +0.000 F 
ATOM     64  C48 UNL A   1      55.022  56.186  20.950  1.00  0.00    +0.000 C 
ENDBRANCH   58   59
BRANCH   73   74
ATOM     74  C54 UNL A   1      50.478  48.509  22.587  1.00  0.00    +0.000 C 
ATOM     75  C55 UNL A   1      51.259  47.388  22.274  1.00  0.00    +0.000 C 
ATOM     76  F11 UNL A   1      51.596  47.141  20.999  1.00  0.00    +0.000 F 
ATOM     77  C56 UNL A   1      51.655  46.487  23.260  1.00  0.00    +0.000 C 
ATOM     78  F12 UNL A   1      52.353  45.393  22.924  1.00  0.00    +0.000 F 
ATOM     79  C57 UNL A   1      51.311  46.710  24.584  1.00  0.00    +0.000 C 
ATOM     80  F13 UNL A   1      51.691  45.843  25.532  1.00  0.00    +0.000 F 
ATOM     81  C58 UNL A   1      50.561  47.826  24.923  1.00  0.00    +0.000 C 
ATOM     82  F14 UNL A   1      50.240  48.054  26.204  1.00  0.00    +0.000 F 
ATOM     83  C59 UNL A   1      50.137  48.710  23.932  1.00  0.00    +0.000 C 
ATOM     84  F15 UNL A   1      49.399  49.771  24.287  1.00  0.00    +0.000 F 
ENDBRANCH   73   74
TORSDOF 26
ENDMDL
MODEL 6
REMARK VINA RESULT:      -7.2     43.520     48.463
ROOT
ATOM    131  H34 UNL A   1      37.038  33.070  34.556  1.00  0.00    +0.000 H 
ATOM    132  H35 UNL A   1      36.159  32.793  32.117  1.00  0.00    +0.000 H 
ATOM    133  H36 UNL A   1      39.581  30.498  32.535  1.00  0.00    +0.000 H 
ATOM    134  H37 UNL A   1      44.069  26.777  29.953  1.00  0.00    +0.000 H 
ATOM    135  H38 UNL A   1      44.882  27.009  32.347  1.00  0.00    +0.000 H 
ATOM    136  H39 UNL A   1      41.426  29.282  31.958  1.00  0.00    +0.000 H 
ATOM    137  H40 UNL A   1      39.804  28.548  27.258  1.00  0.00    +0.000 H 
ATOM    138  H41 UNL A   1      37.935  30.215  27.787  1.00  0.00    +0.000 H 
ATOM    139  H42 UNL A   1      41.082  30.866  37.307  1.00  0.00    +0.000 H 
ATOM    140  H43 UNL A   1      43.234  29.628  36.679  1.00  0.00    +0.000 H 
ATOM     37  C30 UNL A   1      43.270  28.686  33.984  1.00  0.00    +0.000 C 
ATOM     38  C31 UNL A   1      42.232  29.549  34.646  1.00  0.00    +0.000 C 
ATOM     39  N3  UNL A   1      41.134  30.054  34.141  1.00  0.00    +0.000 N 
ATOM     40  C32 UNL A   1      40.511  30.725  35.185  1.00  0.00    +0.000 C 
ATOM     41  C33 UNL A   1      39.370  31.453  35.157  1.00  0.00    +0.000 C 
ATOM     53  C40 UNL A   1      38.582  31.680  33.973  1.00  0.00    +0.000 C 
ATOM     54  C41 UNL A   1      37.461  32.478  33.824  1.00  0.00    +0.000 C 
ATOM     55  C42 UNL A   1      37.000  32.344  32.511  1.00  0.00    +0.000 C 
ATOM     56  C43 UNL A   1      37.866  31.506  31.827  1.00  0.00    +0.000 C 
ATOM     57  N4  UNL A   1      38.830  31.103  32.736  1.00  0.00    +0.000 N 
ATOM     58  C44 UNL A   1      37.817  31.101  30.446  1.00  0.00    +0.000 C 
ATOM     70  C51 UNL A   1      38.717  30.287  29.842  1.00  0.00    +0.000 C 
ATOM     71  N5  UNL A   1      39.843  29.680  30.381  1.00  0.00    +0.000 N 
ATOM     72  C52 UNL A   1      40.372  28.976  29.411  1.00  0.00    +0.000 C 
ATOM     73  C53 UNL A   1      41.621  28.137  29.418  1.00  0.00    +0.000 C 
ATOM     85  C60 UNL A   1      42.367  28.084  30.537  1.00  0.00    +0.000 C 
ATOM     86  C61 UNL A   1      43.604  27.327  30.693  1.00  0.00    +0.000 C 
ATOM     87  C62 UNL A   1      44.040  27.459  31.956  1.00  0.00    +0.000 C 
ATOM     88  C63 UNL A   1      43.134  28.341  32.690  1.00  0.00    +0.000 C 
ATOM     89  N6  UNL A   1      42.177  28.676  31.763  1.00  0.00    +0.000 N 
ATOM     90  C64 UNL A   1      39.621  29.037  28.148  1.00  0.00    +0.000 C 
ATOM     91  C65 UNL A   1      38.650  29.884  28.454  1.00  0.00    +0.000 C 
ATOM     92  C66 UNL A   1      41.328  30.531  36.362  1.00  0.00    +0.000 C 
ATOM     93  C67 UNL A   1      42.436  29.864  36.068  1.00  0.00    +0.000 C 
ENDROOT
BRANCH   37   36
ATOM     33  C26 UNL A   1      46.609  27.214  36.246  1.00  0.00    +0.000 C 
ATOM     34  C27 UNL A   1      45.319  26.768  36.541  1.00  0.00    +0.000 C 
ATOM     35  C28 UNL A   1      44.233  27.225  35.790  1.00  0.00    +0.000 C 
ATOM    129  H32 UNL A   1      45.167  26.100  37.314  1.00  0.00    +0.000 H 
ATOM    130  H33 UNL A   1      43.285  26.869  35.990  1.00  0.00    +0.000 H 
ATOM     36  C29 UNL A   1      44.423  28.164  34.764  1.00  0.00    +0.000 C 
ATOM    141  H44 UNL A   1      45.873  29.308  33.735  1.00  0.00    +0.000 H 
ATOM    142  H45 UNL A   1      47.772  28.358  34.904  1.00  0.00    +0.000 H 
ATOM     94  C68 UNL A   1      45.723  28.602  34.473  1.00  0.00    +0.000 C 
ATOM     95  C69 UNL A   1      46.813  28.090  35.175  1.00  0.00    +0.000 C 
BRANCH   33   31
ATOM     31  C25 UNL A   1      47.742  26.692  37.048  1.00  0.00    +0.000 C 
ATOM     32  O5  UNL A   1      48.554  27.472  37.539  1.00  0.00    +0.000 O 
BRANCH   31   30
ATOM     30  N2  UNL A   1      47.882  25.343  37.257  1.00  0.00    +0.000 N 
ATOM    128  H31 UNL A   1      48.416  25.081  38.042  1.00  0.00    +0.000 H 
BRANCH   30   29
ATOM     29  C24 UNL A   1      47.342  24.252  36.462  1.00  0.00    +0.000 C 
ATOM    126  H29 UNL A   1      47.424  23.342  37.020  1.00  0.00    +0.000 H 
ATOM    127  H30 UNL A   1      46.318  24.473  36.243  1.00  0.00    +0.000 H 
BRANCH   29   28
ATOM    124  H27 UNL A   1      48.775  24.914  35.052  1.00  0.00    +0.000 H 
ATOM     28  C23 UNL A   1      48.092  24.095  35.146  1.00  0.00    +0.000 C 
ATOM    125  H28 UNL A   1      48.581  23.144  35.187  1.00  0.00    +0.000 H 
BRANCH   28   27
ATOM    122  H25 UNL A   1      47.492  24.884  33.269  1.00  0.00    +0.000 H 
ATOM     27  C22 UNL A   1      47.201  24.071  33.903  1.00  0.00    +0.000 C 
ATOM    123  H26 UNL A   1      47.342  23.111  33.453  1.00  0.00    +0.000 H 
BRANCH   27   26
ATOM    121  H24 UNL A   1      45.317  24.881  33.450  1.00  0.00    +0.000 H 
ATOM     26  C21 UNL A   1      45.699  24.199  34.181  1.00  0.00    +0.000 C 
ATOM    120  H23 UNL A   1      45.577  24.541  35.188  1.00  0.00    +0.000 H 
BRANCH   26   25
ATOM     25  C20 UNL A   1      44.894  22.906  34.018  1.00  0.00    +0.000 C 
ATOM    118  H21 UNL A   1      43.901  23.163  33.715  1.00  0.00    +0.000 H 
ATOM    119  H22 UNL A   1      45.405  22.312  33.291  1.00  0.00    +0.000 H 
BRANCH   25   24
ATOM    116  H19 UNL A   1      45.457  22.487  36.028  1.00  0.00    +0.000 H 
ATOM    117  H20 UNL A   1      43.791  22.077  35.630  1.00  0.00    +0.000 H 
ATOM     24  C19 UNL A   1      44.806  22.069  35.290  1.00  0.00    +0.000 C 
BRANCH   24   23
ATOM    115  H18 UNL A   1      44.477  20.096  34.736  1.00  0.00    +0.000 H 
ATOM     23  N1  UNL A   1      45.195  20.697  35.042  1.00  0.00    +0.000 N 
BRANCH   23   21
ATOM     21  C18 UNL A   1      46.423  20.132  35.178  1.00  0.00    +0.000 C 
ATOM     22  O4  UNL A   1      47.154  19.970  34.209  1.00  0.00    +0.000 O 
BRANCH   21   20
ATOM    114  H17 UNL A   1      47.852  19.750  36.781  1.00  0.00    +0.000 H 
ATOM     20  C17 UNL A   1      46.858  19.675  36.513  1.00  0.00    +0.000 C 
BRANCH   20   19
ATOM    113  H16 UNL A   1      44.986  19.065  37.082  1.00  0.00    +0.000 H 
ATOM     19  C16 UNL A   1      45.970  19.163  37.378  1.00  0.00    +0.000 C 
BRANCH   19   18
ATOM      9  C8  UNL A   1      45.709  17.588  39.287  1.00  0.00    +0.000 C 
ATOM     10  C9  UNL A   1      45.990  17.193  40.606  1.00  0.00    +0.000 C 
ATOM     11  C10 UNL A   1      46.881  17.911  41.395  1.00  0.00    +0.000 C 
ATOM    105  H8  UNL A   1      45.528  16.356  40.995  1.00  0.00    +0.000 H 
ATOM    109  H12 UNL A   1      48.212  19.529  41.420  1.00  0.00    +0.000 H 
ATOM     14  C12 UNL A   1      47.526  19.014  40.847  1.00  0.00    +0.000 C 
ATOM     15  C13 UNL A   1      47.270  19.447  39.533  1.00  0.00    +0.000 C 
ATOM     18  C15 UNL A   1      46.349  18.734  38.733  1.00  0.00    +0.000 C 
BRANCH    9    8
ATOM    104  H7  UNL A   1      44.963  16.269  37.734  1.00  0.00    +0.000 H 
ATOM      8  C7  UNL A   1      44.686  16.782  38.586  1.00  0.00    +0.000 C 
BRANCH    8    7
ATOM    103  H6  UNL A   1      42.716  17.269  38.518  1.00  0.00    +0.000 H 
ATOM      7  C6  UNL A   1      43.414  16.687  39.007  1.00  0.00    +0.000 C 
BRANCH    7    6
ATOM     97  C71 UNL A   1      41.858  13.725  40.768  1.00  0.00    +0.000 C 
ATOM      3  C2  UNL A   1      41.913  14.092  42.110  1.00  0.00    +0.000 C 
ATOM      4  C3  UNL A   1      42.484  15.319  42.449  1.00  0.00    +0.000 C 
ATOM    101  H4  UNL A   1      42.535  15.601  43.441  1.00  0.00    +0.000 H 
ATOM      5  C4  UNL A   1      42.989  16.176  41.461  1.00  0.00    +0.000 C 
ATOM    102  H5  UNL A   1      43.417  17.075  41.735  1.00  0.00    +0.000 H 
ATOM      6  C5  UNL A   1      42.921  15.828  40.106  1.00  0.00    +0.000 C 
ATOM    143  H46 UNL A   1      42.306  14.299  38.788  1.00  0.00    +0.000 H 
ATOM    144  H47 UNL A   1      41.449  12.815  40.501  1.00  0.00    +0.000 H 
ATOM     96  C70 UNL A   1      42.356  14.586  39.779  1.00  0.00    +0.000 C 
BRANCH    3    2
ATOM      2  O1  UNL A   1      41.420  13.371  43.163  1.00  0.00    +0.000 O 
BRANCH    2    1
ATOM      1  C1  UNL A   1      40.916  12.074  42.870  1.00  0.00    +0.000 C 
ATOM     98  H1  UNL A   1      40.308  12.118  41.990  1.00  0.00    +0.000 H 
ATOM     99  H2  UNL A   1      40.328  11.725  43.693  1.00  0.00    +0.000 H 
ATOM    100  H3  UNL A   1      41.733  11.403  42.704  1.00  0.00    +0.000 H 
ENDBRANCH    2    1
ENDBRANCH    3    2
ENDBRANCH    7    6
ENDBRANCH    8    7
ENDBRANCH    9    8
BRANCH   11   12
ATOM     12  O2  UNL A   1      47.037  17.457  42.676  1.00  0.00    +0.000 O 
BRANCH   12   13
ATOM    106  H9  UNL A   1      47.712  18.493  44.308  1.00  0.00    +0.000 H 
ATOM    107  H10 UNL A   1      48.598  18.771  42.827  1.00  0.00    +0.000 H 
ATOM    108  H11 UNL A   1      48.800  17.270  43.697  1.00  0.00    +0.000 H 
ATOM     13  C11 UNL A   1      48.104  18.034  43.423  1.00  0.00    +0.000 C 
ENDBRANCH   12   13
ENDBRANCH   11   12
BRANCH   15   16
ATOM     16  O3  UNL A   1      47.978  20.593  39.283  1.00  0.00    +0.000 O 
BRANCH   16   17
ATOM     17  C14 UNL A   1      47.424  21.885  39.437  1.00  0.00    +0.000 C 
ATOM    110  H13 UNL A   1      47.178  22.048  40.465  1.00  0.00    +0.000 H 
ATOM    111  H14 UNL A   1      46.541  21.969  38.840  1.00  0.00    +0.000 H 
ATOM    112  H15 UNL A   1      48.138  22.618  39.121  1.00  0.00    +0.000 H 
ENDBRANCH   16   17
ENDBRANCH   15   16
ENDBRANCH   19   18
ENDBRANCH   20   19
ENDBRANCH   21   20
ENDBRANCH   23   21
ENDBRANCH   24   23
ENDBRANCH   25   24
ENDBRANCH   26   25
ENDBRANCH   27   26
ENDBRANCH   28   27
ENDBRANCH   29   28
ENDBRANCH   30   29
ENDBRANCH   31   30
ENDBRANCH   33   31
ENDBRANCH   37   36
BRANCH   41   42
ATOM     42  C34 UNL A   1      38.894  32.068  36.441  1.00  0.00    +0.000 C 
ATOM     43  C35 UNL A   1      39.246  33.375  36.809  1.00  0.00    +0.000 C 
ATOM     44  F1  UNL A   1      40.090  34.086  36.046  1.00  0.00    +0.000 F 
ATOM     45  C36 UNL A   1      38.750  33.949  37.977  1.00  0.00    +0.000 C 
ATOM     46  F2  UNL A   1      39.128  35.187  38.325  1.00  0.00    +0.000 F 
ATOM     47  C37 UNL A   1      37.869  33.242  38.781  1.00  0.00    +0.000 C 
ATOM     48  F3  UNL A   1      37.379  33.802  39.895  1.00  0.00    +0.000 F 
ATOM     49  C38 UNL A   1      37.499  31.952  38.431  1.00  0.00    +0.000 C 
ATOM     50  F4  UNL A   1      36.637  31.272  39.200  1.00  0.00    +0.000 F 
ATOM     51  C39 UNL A   1      38.015  31.365  37.280  1.00  0.00    +0.000 C 
ATOM     52  F5  UNL A   1      37.642  30.114  36.972  1.00  0.00    +0.000 F 
ENDBRANCH   41   42
BRANCH   58   59
ATOM     65  F8  UNL A   1      33.626  33.057  27.200  1.00  0.00    +0.000 F 
ATOM     66  C49 UNL A   1      34.670  31.253  28.311  1.00  0.00    +0.000 C 
ATOM     67  F9  UNL A   1      33.731  30.412  27.857  1.00  0.00    +0.000 F 
ATOM     68  C50 UNL A   1      35.691  30.779  29.130  1.00  0.00    +0.000 C 
ATOM     69  F10 UNL A   1      35.701  29.477  29.458  1.00  0.00    +0.000 F 
ATOM     59  C45 UNL A   1      36.699  31.635  29.598  1.00  0.00    +0.000 C 
ATOM     60  C46 UNL A   1      36.644  32.985  29.219  1.00  0.00    +0.000 C 
ATOM     61  F6  UNL A   1      37.576  33.846  29.652  1.00  0.00    +0.000 F 
ATOM     62  C47 UNL A   1      35.604  33.462  28.427  1.00  0.00    +0.000 C 
ATOM     63  F7  UNL A   1      35.544  34.766  28.119  1.00  0.00    +0.000 F 
ATOM     64  C48 UNL A   1      34.623  32.596  27.968  1.00  0.00    +0.000 C 
ENDBRANCH   58   59
BRANCH   73   74
ATOM     74  C54 UNL A   1      42.037  27.380  28.207  1.00  0.00    +0.000 C 
ATOM     75  C55 UNL A   1      42.984  27.905  27.316  1.00  0.00    +0.000 C 
ATOM     76  F11 UNL A   1      43.531  29.107  27.551  1.00  0.00    +0.000 F 
ATOM     77  C56 UNL A   1      43.336  27.221  26.154  1.00  0.00    +0.000 C 
ATOM     78  F12 UNL A   1      44.202  27.772  25.292  1.00  0.00    +0.000 F 
ATOM     79  C57 UNL A   1      42.778  25.982  25.879  1.00  0.00    +0.000 C 
ATOM     80  F13 UNL A   1      43.116  25.326  24.762  1.00  0.00    +0.000 F 
ATOM     81  C58 UNL A   1      41.859  25.430  26.759  1.00  0.00    +0.000 C 
ATOM     82  F14 UNL A   1      41.329  24.226  26.505  1.00  0.00    +0.000 F 
ATOM     83  C59 UNL A   1      41.481  26.129  27.905  1.00  0.00    +0.000 C 
ATOM     84  F15 UNL A   1      40.577  25.578  28.727  1.00  0.00    +0.000 F 
ENDBRANCH   73   74
TORSDOF 26
ENDMDL
MODEL 7
REMARK VINA RESULT:      -7.2     43.431     48.170
ROOT
ATOM    131  H34 UNL A   1      27.191  34.819  42.928  1.00  0.00    +0.000 H 
ATOM    132  H35 UNL A   1      24.667  34.501  43.499  1.00  0.00    +0.000 H 
ATOM    133  H36 UNL A   1      26.704  35.310  47.012  1.00  0.00    +0.000 H 
ATOM    134  H37 UNL A   1      26.734  35.838  53.367  1.00  0.00    +0.000 H 
ATOM    135  H38 UNL A   1      29.180  36.202  52.790  1.00  0.00    +0.000 H 
ATOM    136  H39 UNL A   1      27.146  35.435  49.250  1.00  0.00    +0.000 H 
ATOM    137  H40 UNL A   1      22.302  34.967  50.506  1.00  0.00    +0.000 H 
ATOM    138  H41 UNL A   1      21.852  34.449  48.041  1.00  0.00    +0.000 H 
ATOM    139  H42 UNL A   1      31.502  36.162  45.825  1.00  0.00    +0.000 H 
ATOM    140  H43 UNL A   1      32.072  36.172  48.321  1.00  0.00    +0.000 H 
ATOM     37  C30 UNL A   1      29.786  35.981  50.020  1.00  0.00    +0.000 C 
ATOM     38  C31 UNL A   1      29.832  35.880  48.521  1.00  0.00    +0.000 C 
ATOM     39  N3  UNL A   1      28.851  35.683  47.676  1.00  0.00    +0.000 N 
ATOM     40  C32 UNL A   1      29.425  35.727  46.412  1.00  0.00    +0.000 C 
ATOM     41  C33 UNL A   1      28.833  35.529  45.210  1.00  0.00    +0.000 C 
ATOM     53  C40 UNL A   1      27.441  35.205  45.036  1.00  0.00    +0.000 C 
ATOM     54  C41 UNL A   1      26.768  34.896  43.867  1.00  0.00    +0.000 C 
ATOM     55  C42 UNL A   1      25.418  34.708  44.176  1.00  0.00    +0.000 C 
ATOM     56  C43 UNL A   1      25.259  34.844  45.545  1.00  0.00    +0.000 C 
ATOM     57  N4  UNL A   1      26.507  35.152  46.061  1.00  0.00    +0.000 N 
ATOM     58  C44 UNL A   1      24.057  34.706  46.326  1.00  0.00    +0.000 C 
ATOM     70  C51 UNL A   1      23.987  34.838  47.673  1.00  0.00    +0.000 C 
ATOM     71  N5  UNL A   1      25.001  35.123  48.576  1.00  0.00    +0.000 N 
ATOM     72  C52 UNL A   1      24.432  35.169  49.755  1.00  0.00    +0.000 C 
ATOM     73  C53 UNL A   1      25.055  35.413  51.103  1.00  0.00    +0.000 C 
ATOM     85  C60 UNL A   1      26.389  35.582  51.185  1.00  0.00    +0.000 C 
ATOM     86  C61 UNL A   1      27.136  35.815  52.416  1.00  0.00    +0.000 C 
ATOM     87  C62 UNL A   1      28.431  35.996  52.112  1.00  0.00    +0.000 C 
ATOM     88  C63 UNL A   1      28.612  35.855  50.668  1.00  0.00    +0.000 C 
ATOM     89  N6  UNL A   1      27.348  35.596  50.200  1.00  0.00    +0.000 N 
ATOM     90  C64 UNL A   1      22.979  34.943  49.728  1.00  0.00    +0.000 C 
ATOM     91  C65 UNL A   1      22.769  34.702  48.443  1.00  0.00    +0.000 C 
ATOM     92  C66 UNL A   1      30.831  36.011  46.594  1.00  0.00    +0.000 C 
ATOM     93  C67 UNL A   1      31.146  36.052  47.882  1.00  0.00    +0.000 C 
ENDROOT
BRANCH   37   36
ATOM     33  C26 UNL A   1      33.336  36.841  52.277  1.00  0.00    +0.000 C 
ATOM     34  C27 UNL A   1      32.967  35.514  52.039  1.00  0.00    +0.000 C 
ATOM     35  C28 UNL A   1      31.827  35.231  51.283  1.00  0.00    +0.000 C 
ATOM    129  H32 UNL A   1      33.538  34.743  52.421  1.00  0.00    +0.000 H 
ATOM    130  H33 UNL A   1      31.575  34.250  51.083  1.00  0.00    +0.000 H 
ATOM     36  C29 UNL A   1      31.022  36.272  50.793  1.00  0.00    +0.000 C 
ATOM    141  H44 UNL A   1      30.809  38.373  50.696  1.00  0.00    +0.000 H 
ATOM    142  H45 UNL A   1      32.895  38.858  51.831  1.00  0.00    +0.000 H 
ATOM     94  C68 UNL A   1      31.403  37.600  51.033  1.00  0.00    +0.000 C 
ATOM     95  C69 UNL A   1      32.580  37.881  51.725  1.00  0.00    +0.000 C 
BRANCH   33   31
ATOM     31  C25 UNL A   1      34.565  37.107  53.063  1.00  0.00    +0.000 C 
ATOM     32  O5  UNL A   1      34.520  37.091  54.290  1.00  0.00    +0.000 O 
BRANCH   31   30
ATOM     30  N2  UNL A   1      35.756  37.356  52.428  1.00  0.00    +0.000 N 
ATOM    128  H31 UNL A   1      36.069  38.289  52.449  1.00  0.00    +0.000 H 
BRANCH   30   29
ATOM     29  C24 UNL A   1      36.612  36.413  51.728  1.00  0.00    +0.000 C 
ATOM    126  H29 UNL A   1      37.611  36.508  52.100  1.00  0.00    +0.000 H 
ATOM    127  H30 UNL A   1      36.235  35.427  51.899  1.00  0.00    +0.000 H 
BRANCH   29   28
ATOM    124  H27 UNL A   1      36.399  37.707  50.066  1.00  0.00    +0.000 H 
ATOM     28  C23 UNL A   1      36.616  36.672  50.227  1.00  0.00    +0.000 C 
ATOM    125  H28 UNL A   1      37.585  36.387  49.873  1.00  0.00    +0.000 H 
BRANCH   28   27
ATOM    122  H25 UNL A   1      36.142  35.261  48.714  1.00  0.00    +0.000 H 
ATOM     27  C22 UNL A   1      35.604  35.843  49.434  1.00  0.00    +0.000 C 
ATOM    123  H26 UNL A   1      35.076  35.249  50.151  1.00  0.00    +0.000 H 
BRANCH   27   26
ATOM    121  H24 UNL A   1      33.635  36.548  49.245  1.00  0.00    +0.000 H 
ATOM     26  C21 UNL A   1      34.542  36.660  48.688  1.00  0.00    +0.000 C 
ATOM    120  H23 UNL A   1      34.478  36.285  47.688  1.00  0.00    +0.000 H 
BRANCH   26   25
ATOM     25  C20 UNL A   1      34.813  38.166  48.614  1.00  0.00    +0.000 C 
ATOM    118  H21 UNL A   1      35.179  38.489  49.566  1.00  0.00    +0.000 H 
ATOM    119  H22 UNL A   1      35.523  38.315  47.828  1.00  0.00    +0.000 H 
BRANCH   25   24
ATOM    116  H19 UNL A   1      32.706  38.419  48.454  1.00  0.00    +0.000 H 
ATOM    117  H20 UNL A   1      33.592  39.882  48.867  1.00  0.00    +0.000 H 
ATOM     24  C19 UNL A   1      33.585  38.998  48.265  1.00  0.00    +0.000 C 
BRANCH   24   23
ATOM    115  H18 UNL A   1      34.425  39.825  46.557  1.00  0.00    +0.000 H 
ATOM     23  N1  UNL A   1      33.598  39.393  46.872  1.00  0.00    +0.000 N 
BRANCH   23   21
ATOM     21  C18 UNL A   1      32.616  39.244  45.945  1.00  0.00    +0.000 C 
ATOM     22  O4  UNL A   1      32.867  38.822  44.823  1.00  0.00    +0.000 O 
BRANCH   21   20
ATOM    114  H17 UNL A   1      30.791  39.246  47.140  1.00  0.00    +0.000 H 
ATOM     20  C17 UNL A   1      31.236  39.634  46.294  1.00  0.00    +0.000 C 
BRANCH   20   19
ATOM    113  H16 UNL A   1      30.694  40.451  44.493  1.00  0.00    +0.000 H 
ATOM     19  C16 UNL A   1      30.556  40.489  45.515  1.00  0.00    +0.000 C 
BRANCH   19   18
ATOM      9  C8  UNL A   1      28.230  41.158  46.095  1.00  0.00    +0.000 C 
ATOM     10  C9  UNL A   1      27.296  42.106  46.546  1.00  0.00    +0.000 C 
ATOM     11  C10 UNL A   1      27.701  43.371  46.957  1.00  0.00    +0.000 C 
ATOM    105  H8  UNL A   1      26.294  41.860  46.572  1.00  0.00    +0.000 H 
ATOM    109  H12 UNL A   1      29.363  44.604  47.289  1.00  0.00    +0.000 H 
ATOM     14  C12 UNL A   1      29.057  43.677  46.954  1.00  0.00    +0.000 C 
ATOM     15  C13 UNL A   1      30.025  42.759  46.506  1.00  0.00    +0.000 C 
ATOM     18  C15 UNL A   1      29.618  41.479  46.067  1.00  0.00    +0.000 C 
BRANCH    9    8
ATOM    104  H7  UNL A   1      27.454  39.779  44.609  1.00  0.00    +0.000 H 
ATOM      8  C7  UNL A   1      27.658  39.881  45.616  1.00  0.00    +0.000 C 
BRANCH    8    7
ATOM    103  H6  UNL A   1      27.402  37.905  46.012  1.00  0.00    +0.000 H 
ATOM      7  C6  UNL A   1      27.391  38.847  46.432  1.00  0.00    +0.000 C 
BRANCH    7    6
ATOM     97  C71 UNL A   1      27.916  39.264  50.153  1.00  0.00    +0.000 C 
ATOM      3  C2  UNL A   1      26.634  39.100  50.672  1.00  0.00    +0.000 C 
ATOM      4  C3  UNL A   1      25.576  38.867  49.792  1.00  0.00    +0.000 C 
ATOM    101  H4  UNL A   1      24.621  38.749  50.164  1.00  0.00    +0.000 H 
ATOM      5  C4  UNL A   1      25.793  38.792  48.408  1.00  0.00    +0.000 C 
ATOM    102  H5  UNL A   1      24.995  38.629  47.775  1.00  0.00    +0.000 H 
ATOM      6  C5  UNL A   1      27.081  38.934  47.876  1.00  0.00    +0.000 C 
ATOM    143  H46 UNL A   1      29.091  39.302  48.402  1.00  0.00    +0.000 H 
ATOM    144  H47 UNL A   1      28.708  39.447  50.790  1.00  0.00    +0.000 H 
ATOM     96  C70 UNL A   1      28.134  39.180  48.770  1.00  0.00    +0.000 C 
BRANCH    3    2
ATOM      2  O1  UNL A   1      26.295  39.108  51.997  1.00  0.00    +0.000 O 
BRANCH    2    1
ATOM      1  C1  UNL A   1      27.287  39.562  52.909  1.00  0.00    +0.000 C 
ATOM     98  H1  UNL A   1      27.336  40.630  52.879  1.00  0.00    +0.000 H 
ATOM     99  H2  UNL A   1      28.237  39.153  52.635  1.00  0.00    +0.000 H 
ATOM    100  H3  UNL A   1      27.034  39.245  53.899  1.00  0.00    +0.000 H 
ENDBRANCH    2    1
ENDBRANCH    3    2
ENDBRANCH    7    6
ENDBRANCH    8    7
ENDBRANCH    9    8
BRANCH   11   12
ATOM     12  O2  UNL A   1      26.697  44.223  47.328  1.00  0.00    +0.000 O 
BRANCH   12   13
ATOM    106  H9  UNL A   1      25.216  43.559  48.577  1.00  0.00    +0.000 H 
ATOM    107  H10 UNL A   1      25.397  42.660  47.089  1.00  0.00    +0.000 H 
ATOM    108  H11 UNL A   1      24.667  44.247  47.067  1.00  0.00    +0.000 H 
ATOM     13  C11 UNL A   1      25.414  43.635  47.527  1.00  0.00    +0.000 C 
ENDBRANCH   12   13
ENDBRANCH   11   12
BRANCH   15   16
ATOM     16  O3  UNL A   1      31.261  43.346  46.537  1.00  0.00    +0.000 O 
BRANCH   16   17
ATOM     17  C14 UNL A   1      31.536  44.517  47.282  1.00  0.00    +0.000 C 
ATOM    110  H13 UNL A   1      30.976  45.335  46.880  1.00  0.00    +0.000 H 
ATOM    111  H14 UNL A   1      32.581  44.737  47.228  1.00  0.00    +0.000 H 
ATOM    112  H15 UNL A   1      31.256  44.362  48.304  1.00  0.00    +0.000 H 
ENDBRANCH   16   17
ENDBRANCH   15   16
ENDBRANCH   19   18
ENDBRANCH   20   19
ENDBRANCH   21   20
ENDBRANCH   23   21
ENDBRANCH   24   23
ENDBRANCH   25   24
ENDBRANCH   26   25
ENDBRANCH   27   26
ENDBRANCH   28   27
ENDBRANCH   29   28
ENDBRANCH   30   29
ENDBRANCH   31   30
ENDBRANCH   33   31
ENDBRANCH   37   36
BRANCH   41   42
ATOM     42  C34 UNL A   1      29.682  35.653  43.979  1.00  0.00    +0.000 C 
ATOM     43  C35 UNL A   1      30.008  36.903  43.430  1.00  0.00    +0.000 C 
ATOM     44  F1  UNL A   1      29.497  38.026  43.957  1.00  0.00    +0.000 F 
ATOM     45  C36 UNL A   1      30.843  37.001  42.319  1.00  0.00    +0.000 C 
ATOM     46  F2  UNL A   1      31.112  38.204  41.791  1.00  0.00    +0.000 F 
ATOM     47  C37 UNL A   1      31.392  35.859  41.757  1.00  0.00    +0.000 C 
ATOM     48  F3  UNL A   1      32.209  35.958  40.700  1.00  0.00    +0.000 F 
ATOM     49  C38 UNL A   1      31.092  34.615  42.290  1.00  0.00    +0.000 C 
ATOM     50  F4  UNL A   1      31.634  33.511  41.756  1.00  0.00    +0.000 F 
ATOM     51  C39 UNL A   1      30.236  34.511  43.382  1.00  0.00    +0.000 C 
ATOM     52  F5  UNL A   1      29.961  33.292  43.871  1.00  0.00    +0.000 F 
ENDBRANCH   41   42
BRANCH   58   59
ATOM     65  F8  UNL A   1      19.232  33.462  43.662  1.00  0.00    +0.000 F 
ATOM     66  C49 UNL A   1      20.641  35.057  44.687  1.00  0.00    +0.000 C 
ATOM     67  F9  UNL A   1      19.743  36.022  44.450  1.00  0.00    +0.000 F 
ATOM     68  C50 UNL A   1      21.841  35.364  45.322  1.00  0.00    +0.000 C 
ATOM     69  F10 UNL A   1      22.075  36.638  45.675  1.00  0.00    +0.000 F 
ATOM     59  C45 UNL A   1      22.786  34.366  45.603  1.00  0.00    +0.000 C 
ATOM     60  C46 UNL A   1      22.488  33.051  45.219  1.00  0.00    +0.000 C 
ATOM     61  F6  UNL A   1      23.365  32.064  45.451  1.00  0.00    +0.000 F 
ATOM     62  C47 UNL A   1      21.301  32.752  44.554  1.00  0.00    +0.000 C 
ATOM     63  F7  UNL A   1      21.060  31.497  44.151  1.00  0.00    +0.000 F 
ATOM     64  C48 UNL A   1      20.377  33.753  44.296  1.00  0.00    +0.000 C 
ENDBRANCH   58   59
BRANCH   73   74
ATOM     74  C54 UNL A   1      24.219  35.460  52.332  1.00  0.00    +0.000 C 
ATOM     75  C55 UNL A   1      23.458  36.595  52.645  1.00  0.00    +0.000 C 
ATOM     76  F11 UNL A   1      23.476  37.660  51.829  1.00  0.00    +0.000 F 
ATOM     77  C56 UNL A   1      22.715  36.663  53.822  1.00  0.00    +0.000 C 
ATOM     78  F12 UNL A   1      22.042  37.781  54.124  1.00  0.00    +0.000 F 
ATOM     79  C57 UNL A   1      22.689  35.582  54.690  1.00  0.00    +0.000 C 
ATOM     80  F13 UNL A   1      21.975  35.646  55.822  1.00  0.00    +0.000 F 
ATOM     81  C58 UNL A   1      23.412  34.438  54.389  1.00  0.00    +0.000 C 
ATOM     82  F14 UNL A   1      23.376  33.385  55.217  1.00  0.00    +0.000 F 
ATOM     83  C59 UNL A   1      24.181  34.383  53.227  1.00  0.00    +0.000 C 
ATOM     84  F15 UNL A   1      24.885  33.271  52.972  1.00  0.00    +0.000 F 
ENDBRANCH   73   74
TORSDOF 26
ENDMDL
MODEL 8
REMARK VINA RESULT:      -7.2      1.186      3.770
ROOT
ATOM    131  H34 UNL A   1      19.081  53.301  -1.410  1.00  0.00    +0.000 H 
ATOM    132  H35 UNL A   1      18.518  50.814  -1.955  1.00  0.00    +0.000 H 
ATOM    133  H36 UNL A   1      16.130  52.026   1.203  1.00  0.00    +0.000 H 
ATOM    134  H37 UNL A   1      11.865  50.637   5.736  1.00  0.00    +0.000 H 
ATOM    135  H38 UNL A   1      12.381  53.076   6.219  1.00  0.00    +0.000 H 
ATOM    136  H39 UNL A   1      14.753  51.890   3.021  1.00  0.00    +0.000 H 
ATOM    137  H40 UNL A   1      13.467  47.134   2.027  1.00  0.00    +0.000 H 
ATOM    138  H41 UNL A   1      15.283  47.162   0.225  1.00  0.00    +0.000 H 
ATOM    139  H42 UNL A   1      17.070  56.881   2.042  1.00  0.00    +0.000 H 
ATOM    140  H43 UNL A   1      15.649  56.744   4.168  1.00  0.00    +0.000 H 
ATOM     37  C30 UNL A   1      14.346  54.227   4.515  1.00  0.00    +0.000 C 
ATOM     38  C31 UNL A   1      15.344  54.611   3.458  1.00  0.00    +0.000 C 
ATOM     39  N3  UNL A   1      15.831  53.889   2.480  1.00  0.00    +0.000 N 
ATOM     40  C32 UNL A   1      16.669  54.734   1.766  1.00  0.00    +0.000 C 
ATOM     41  C33 UNL A   1      17.444  54.444   0.694  1.00  0.00    +0.000 C 
ATOM     53  C40 UNL A   1      17.547  53.136   0.098  1.00  0.00    +0.000 C 
ATOM     54  C41 UNL A   1      18.373  52.721  -0.931  1.00  0.00    +0.000 C 
ATOM     55  C42 UNL A   1      18.084  51.382  -1.211  1.00  0.00    +0.000 C 
ATOM     56  C43 UNL A   1      17.118  50.947  -0.320  1.00  0.00    +0.000 C 
ATOM     57  N4  UNL A   1      16.794  52.034   0.477  1.00  0.00    +0.000 N 
ATOM     58  C44 UNL A   1      16.530  49.638  -0.203  1.00  0.00    +0.000 C 
ATOM     70  C51 UNL A   1      15.596  49.284   0.714  1.00  0.00    +0.000 C 
ATOM     71  N5  UNL A   1      15.012  50.058   1.708  1.00  0.00    +0.000 N 
ATOM     72  C52 UNL A   1      14.156  49.275   2.317  1.00  0.00    +0.000 C 
ATOM     73  C53 UNL A   1      13.262  49.575   3.490  1.00  0.00    +0.000 C 
ATOM     85  C60 UNL A   1      13.325  50.790   4.066  1.00  0.00    +0.000 C 
ATOM     86  C61 UNL A   1      12.534  51.224   5.212  1.00  0.00    +0.000 C 
ATOM     87  C62 UNL A   1      12.815  52.510   5.474  1.00  0.00    +0.000 C 
ATOM     88  C63 UNL A   1      13.835  52.982   4.538  1.00  0.00    +0.000 C 
ATOM     89  N6  UNL A   1      14.089  51.889   3.747  1.00  0.00    +0.000 N 
ATOM     90  C64 UNL A   1      14.082  47.917   1.757  1.00  0.00    +0.000 C 
ATOM     91  C65 UNL A   1      15.011  47.964   0.814  1.00  0.00    +0.000 C 
ATOM     92  C66 UNL A   1      16.596  56.035   2.394  1.00  0.00    +0.000 C 
ATOM     93  C67 UNL A   1      15.840  55.996   3.482  1.00  0.00    +0.000 C 
ENDROOT
BRANCH   37   36
ATOM     33  C26 UNL A   1      13.028  57.141   7.380  1.00  0.00    +0.000 C 
ATOM     34  C27 UNL A   1      12.345  56.998   6.169  1.00  0.00    +0.000 C 
ATOM     35  C28 UNL A   1      12.756  56.033   5.246  1.00  0.00    +0.000 C 
ATOM    129  H32 UNL A   1      11.538  57.605   5.957  1.00  0.00    +0.000 H 
ATOM    130  H33 UNL A   1      12.231  55.910   4.366  1.00  0.00    +0.000 H 
ATOM     36  C29 UNL A   1      13.878  55.230   5.507  1.00  0.00    +0.000 C 
ATOM    141  H44 UNL A   1      15.390  54.808   6.923  1.00  0.00    +0.000 H 
ATOM    142  H45 UNL A   1      14.551  56.339   8.604  1.00  0.00    +0.000 H 
ATOM     94  C68 UNL A   1      14.552  55.378   6.728  1.00  0.00    +0.000 C 
ATOM     95  C69 UNL A   1      14.098  56.291   7.679  1.00  0.00    +0.000 C 
BRANCH   33   31
ATOM     31  C25 UNL A   1      12.552  58.158   8.349  1.00  0.00    +0.000 C 
ATOM     32  O5  UNL A   1      12.965  59.312   8.274  1.00  0.00    +0.000 O 
BRANCH   31   30
ATOM     30  N2  UNL A   1      11.640  57.823   9.318  1.00  0.00    +0.000 N 
ATOM    128  H31 UNL A   1      11.458  58.513   9.996  1.00  0.00    +0.000 H 
BRANCH   30   29
ATOM     29  C24 UNL A   1      10.912  56.575   9.470  1.00  0.00    +0.000 C 
ATOM    126  H29 UNL A   1       9.949  56.783   9.887  1.00  0.00    +0.000 H 
ATOM    127  H30 UNL A   1      10.818  56.122   8.504  1.00  0.00    +0.000 H 
BRANCH   29   28
ATOM    124  H27 UNL A   1      12.335  55.040   9.787  1.00  0.00    +0.000 H 
ATOM     28  C23 UNL A   1      11.649  55.605  10.384  1.00  0.00    +0.000 C 
ATOM    125  H28 UNL A   1      12.134  56.200  11.129  1.00  0.00    +0.000 H 
BRANCH   28   27
ATOM    122  H25 UNL A   1      11.363  54.033  11.780  1.00  0.00    +0.000 H 
ATOM     27  C22 UNL A   1      10.747  54.622  11.133  1.00  0.00    +0.000 C 
ATOM    123  H26 UNL A   1      10.028  55.217  11.657  1.00  0.00    +0.000 H 
BRANCH   27   26
ATOM    121  H24 UNL A   1       9.248  54.279   9.703  1.00  0.00    +0.000 H 
ATOM     26  C21 UNL A   1       9.946  53.669  10.238  1.00  0.00    +0.000 C 
ATOM    120  H23 UNL A   1       9.480  52.938  10.866  1.00  0.00    +0.000 H 
BRANCH   26   25
ATOM     25  C20 UNL A   1      10.766  52.929   9.177  1.00  0.00    +0.000 C 
ATOM    118  H21 UNL A   1      10.204  52.913   8.267  1.00  0.00    +0.000 H 
ATOM    119  H22 UNL A   1      11.693  53.453   9.079  1.00  0.00    +0.000 H 
BRANCH   25   24
ATOM    116  H19 UNL A   1      11.486  51.474  10.553  1.00  0.00    +0.000 H 
ATOM    117  H20 UNL A   1      10.222  50.900   9.472  1.00  0.00    +0.000 H 
ATOM     24  C19 UNL A   1      11.110  51.492   9.553  1.00  0.00    +0.000 C 
BRANCH   24   23
ATOM    115  H18 UNL A   1      12.772  51.583   8.314  1.00  0.00    +0.000 H 
ATOM     23  N1  UNL A   1      12.110  50.942   8.663  1.00  0.00    +0.000 N 
BRANCH   23   21
ATOM     21  C18 UNL A   1      12.252  49.657   8.247  1.00  0.00    +0.000 C 
ATOM     22  O4  UNL A   1      11.299  49.028   7.804  1.00  0.00    +0.000 O 
BRANCH   21   20
ATOM    114  H17 UNL A   1      14.100  48.754   7.522  1.00  0.00    +0.000 H 
ATOM     20  C17 UNL A   1      13.570  49.004   8.371  1.00  0.00    +0.000 C 
BRANCH   20   19
ATOM    113  H16 UNL A   1      14.330  47.757   9.810  1.00  0.00    +0.000 H 
ATOM     19  C16 UNL A   1      14.081  48.732   9.582  1.00  0.00    +0.000 C 
BRANCH   19   18
ATOM      9  C8  UNL A   1      13.583  49.694  11.823  1.00  0.00    +0.000 C 
ATOM     10  C9  UNL A   1      13.710  50.711  12.783  1.00  0.00    +0.000 C 
ATOM     11  C10 UNL A   1      14.521  51.817  12.553  1.00  0.00    +0.000 C 
ATOM    105  H8  UNL A   1      13.193  50.637  13.674  1.00  0.00    +0.000 H 
ATOM    109  H12 UNL A   1      15.868  52.691  11.207  1.00  0.00    +0.000 H 
ATOM     14  C12 UNL A   1      15.241  51.887  11.366  1.00  0.00    +0.000 C 
ATOM     15  C13 UNL A   1      15.139  50.893  10.375  1.00  0.00    +0.000 C 
ATOM     18  C15 UNL A   1      14.301  49.777  10.594  1.00  0.00    +0.000 C 
BRANCH    9    8
ATOM    104  H7  UNL A   1      13.007  47.717  12.510  1.00  0.00    +0.000 H 
ATOM      8  C7  UNL A   1      12.631  48.614  12.163  1.00  0.00    +0.000 C 
BRANCH    8    7
ATOM    103  H6  UNL A   1      10.831  49.385  12.701  1.00  0.00    +0.000 H 
ATOM      7  C6  UNL A   1      11.300  48.747  12.039  1.00  0.00    +0.000 C 
BRANCH    7    6
ATOM     97  C71 UNL A   1      10.194  46.226   9.447  1.00  0.00    +0.000 C 
ATOM      3  C2  UNL A   1       8.921  46.670   9.099  1.00  0.00    +0.000 C 
ATOM      4  C3  UNL A   1       8.406  47.801   9.734  1.00  0.00    +0.000 C 
ATOM    101  H4  UNL A   1       7.462  48.138   9.488  1.00  0.00    +0.000 H 
ATOM      5  C4  UNL A   1       9.155  48.488  10.701  1.00  0.00    +0.000 C 
ATOM    102  H5  UNL A   1       8.750  49.316  11.166  1.00  0.00    +0.000 H 
ATOM      6  C5  UNL A   1      10.444  48.064  11.045  1.00  0.00    +0.000 C 
ATOM    143  H46 UNL A   1      11.889  46.576  10.654  1.00  0.00    +0.000 H 
ATOM    144  H47 UNL A   1      10.586  45.384   8.995  1.00  0.00    +0.000 H 
ATOM     96  C70 UNL A   1      10.946  46.918  10.409  1.00  0.00    +0.000 C 
BRANCH    3    2
ATOM      2  O1  UNL A   1       8.109  46.120   8.147  1.00  0.00    +0.000 O 
BRANCH    2    1
ATOM      1  C1  UNL A   1       7.207  47.001   7.488  1.00  0.00    +0.000 C 
ATOM     98  H1  UNL A   1       7.318  46.897   6.428  1.00  0.00    +0.000 H 
ATOM     99  H2  UNL A   1       7.422  48.010   7.772  1.00  0.00    +0.000 H 
ATOM    100  H3  UNL A   1       6.203  46.758   7.766  1.00  0.00    +0.000 H 
ENDBRANCH    2    1
ENDBRANCH    3    2
ENDBRANCH    7    6
ENDBRANCH    8    7
ENDBRANCH    9    8
BRANCH   11   12
ATOM     12  O2  UNL A   1      14.526  52.764  13.540  1.00  0.00    +0.000 O 
BRANCH   12   13
ATOM    106  H9  UNL A   1      13.155  54.163  14.137  1.00  0.00    +0.000 H 
ATOM    107  H10 UNL A   1      13.147  53.790  12.429  1.00  0.00    +0.000 H 
ATOM    108  H11 UNL A   1      14.432  54.761  13.105  1.00  0.00    +0.000 H 
ATOM     13  C11 UNL A   1      13.767  53.943  13.287  1.00  0.00    +0.000 C 
ENDBRANCH   12   13
ENDBRANCH   11   12
BRANCH   15   16
ATOM     16  O3  UNL A   1      15.890  51.252   9.288  1.00  0.00    +0.000 O 
BRANCH   16   17
ATOM     17  C14 UNL A   1      17.230  50.839   9.110  1.00  0.00    +0.000 C 
ATOM    110  H13 UNL A   1      17.740  50.865  10.051  1.00  0.00    +0.000 H 
ATOM    111  H14 UNL A   1      17.718  51.495   8.421  1.00  0.00    +0.000 H 
ATOM    112  H15 UNL A   1      17.246  49.840   8.724  1.00  0.00    +0.000 H 
ENDBRANCH   16   17
ENDBRANCH   15   16
ENDBRANCH   19   18
ENDBRANCH   20   19
ENDBRANCH   21   20
ENDBRANCH   23   21
ENDBRANCH   24   23
ENDBRANCH   25   24
ENDBRANCH   26   25
ENDBRANCH   27   26
ENDBRANCH   28   27
ENDBRANCH   29   28
ENDBRANCH   30   29
ENDBRANCH   31   30
ENDBRANCH   33   31
ENDBRANCH   37   36
BRANCH   41   42
ATOM     42  C34 UNL A   1      18.252  55.553   0.088  1.00  0.00    +0.000 C 
ATOM     43  C35 UNL A   1      19.474  55.965   0.641  1.00  0.00    +0.000 C 
ATOM     44  F1  UNL A   1      19.914  55.419   1.785  1.00  0.00    +0.000 F 
ATOM     45  C36 UNL A   1      20.238  56.958   0.033  1.00  0.00    +0.000 C 
ATOM     46  F2  UNL A   1      21.385  57.359   0.599  1.00  0.00    +0.000 F 
ATOM     47  C37 UNL A   1      19.813  57.535  -1.154  1.00  0.00    +0.000 C 
ATOM     48  F3  UNL A   1      20.558  58.478  -1.747  1.00  0.00    +0.000 F 
ATOM     49  C38 UNL A   1      18.614  57.136  -1.725  1.00  0.00    +0.000 C 
ATOM     50  F4  UNL A   1      18.209  57.683  -2.880  1.00  0.00    +0.000 F 
ATOM     51  C39 UNL A   1      17.835  56.163  -1.105  1.00  0.00    +0.000 C 
ATOM     52  F5  UNL A   1      16.677  55.803  -1.680  1.00  0.00    +0.000 F 
ENDBRANCH   41   42
BRANCH   58   59
ATOM     65  F8  UNL A   1      18.372  45.658  -3.765  1.00  0.00    +0.000 F 
ATOM     66  C49 UNL A   1      18.597  46.830  -1.727  1.00  0.00    +0.000 C 
ATOM     67  F9  UNL A   1      19.689  46.117  -1.421  1.00  0.00    +0.000 F 
ATOM     68  C50 UNL A   1      18.127  47.795  -0.841  1.00  0.00    +0.000 C 
ATOM     69  F10 UNL A   1      18.781  47.980   0.317  1.00  0.00    +0.000 F 
ATOM     59  C45 UNL A   1      17.000  48.572  -1.149  1.00  0.00    +0.000 C 
ATOM     60  C46 UNL A   1      16.359  48.343  -2.376  1.00  0.00    +0.000 C 
ATOM     61  F6  UNL A   1      15.269  49.048  -2.710  1.00  0.00    +0.000 F 
ATOM     62  C47 UNL A   1      16.812  47.354  -3.245  1.00  0.00    +0.000 C 
ATOM     63  F7  UNL A   1      16.153  47.117  -4.388  1.00  0.00    +0.000 F 
ATOM     64  C48 UNL A   1      17.934  46.605  -2.924  1.00  0.00    +0.000 C 
ENDBRANCH   58   59
BRANCH   73   74
ATOM     74  C54 UNL A   1      12.326  48.547   4.017  1.00  0.00    +0.000 C 
ATOM     75  C55 UNL A   1      10.986  48.512   3.607  1.00  0.00    +0.000 C 
ATOM     76  F11 UNL A   1      10.530  49.415   2.725  1.00  0.00    +0.000 F 
ATOM     77  C56 UNL A   1      10.093  47.583   4.139  1.00  0.00    +0.000 C 
ATOM     78  F12 UNL A   1       8.805  47.608   3.772  1.00  0.00    +0.000 F 
ATOM     79  C57 UNL A   1      10.533  46.646   5.061  1.00  0.00    +0.000 C 
ATOM     80  F13 UNL A   1       9.676  45.753   5.573  1.00  0.00    +0.000 F 
ATOM     81  C58 UNL A   1      11.861  46.643   5.461  1.00  0.00    +0.000 C 
ATOM     82  F14 UNL A   1      12.293  45.729   6.340  1.00  0.00    +0.000 F 
ATOM     83  C59 UNL A   1      12.746  47.593   4.955  1.00  0.00    +0.000 C 
ATOM     84  F15 UNL A   1      14.019  47.577   5.374  1.00  0.00    +0.000 F 
ENDBRANCH   73   74
TORSDOF 26
ENDMDL
MODEL 9
REMARK VINA RESULT:      -7.2     33.697     38.751
ROOT
ATOM    131  H34 UNL A   1      50.157  57.129  16.426  1.00  0.00    +0.000 H 
ATOM    132  H35 UNL A   1      52.137  56.910  18.108  1.00  0.00    +0.000 H 
ATOM    133  H36 UNL A   1      49.743  53.550  18.469  1.00  0.00    +0.000 H 
ATOM    134  H37 UNL A   1      48.308  48.102  21.457  1.00  0.00    +0.000 H 
ATOM    135  H38 UNL A   1      46.418  48.301  19.774  1.00  0.00    +0.000 H 
ATOM    136  H39 UNL A   1      48.831  51.658  19.368  1.00  0.00    +0.000 H 
ATOM    137  H40 UNL A   1      52.644  51.023  22.581  1.00  0.00    +0.000 H 
ATOM    138  H41 UNL A   1      53.471  53.331  21.845  1.00  0.00    +0.000 H 
ATOM    139  H42 UNL A   1      46.100  53.904  15.040  1.00  0.00    +0.000 H 
ATOM    140  H43 UNL A   1      44.965  51.868  16.099  1.00  0.00    +0.000 H 
ATOM     37  C30 UNL A   1      46.496  50.657  18.183  1.00  0.00    +0.000 C 
ATOM     38  C31 UNL A   1      46.796  51.927  17.437  1.00  0.00    +0.000 C 
ATOM     39  N3  UNL A   1      47.808  52.748  17.576  1.00  0.00    +0.000 N 
ATOM     40  C32 UNL A   1      47.634  53.731  16.610  1.00  0.00    +0.000 C 
ATOM     41  C33 UNL A   1      48.389  54.831  16.382  1.00  0.00    +0.000 C 
ATOM     53  C40 UNL A   1      49.548  55.193  17.157  1.00  0.00    +0.000 C 
ATOM     54  C41 UNL A   1      50.325  56.334  17.062  1.00  0.00    +0.000 C 
ATOM     55  C42 UNL A   1      51.376  56.225  17.978  1.00  0.00    +0.000 C 
ATOM     56  C43 UNL A   1      51.223  55.042  18.681  1.00  0.00    +0.000 C 
ATOM     57  N4  UNL A   1      50.099  54.416  18.166  1.00  0.00    +0.000 N 
ATOM     58  C44 UNL A   1      52.041  54.518  19.743  1.00  0.00    +0.000 C 
ATOM     70  C51 UNL A   1      51.813  53.353  20.397  1.00  0.00    +0.000 C 
ATOM     71  N5  UNL A   1      50.791  52.433  20.211  1.00  0.00    +0.000 N 
ATOM     72  C52 UNL A   1      51.017  51.465  21.065  1.00  0.00    +0.000 C 
ATOM     73  C53 UNL A   1      50.214  50.219  21.323  1.00  0.00    +0.000 C 
ATOM     85  C60 UNL A   1      49.071  50.024  20.637  1.00  0.00    +0.000 C 
ATOM     86  C61 UNL A   1      48.183  48.876  20.784  1.00  0.00    +0.000 C 
ATOM     87  C62 UNL A   1      47.177  48.987  19.902  1.00  0.00    +0.000 C 
ATOM     88  C63 UNL A   1      47.328  50.233  19.153  1.00  0.00    +0.000 C 
ATOM     89  N6  UNL A   1      48.473  50.791  19.666  1.00  0.00    +0.000 N 
ATOM     90  C64 UNL A   1      52.229  51.652  21.875  1.00  0.00    +0.000 C 
ATOM     91  C65 UNL A   1      52.650  52.837  21.460  1.00  0.00    +0.000 C 
ATOM     92  C66 UNL A   1      46.444  53.386  15.863  1.00  0.00    +0.000 C 
ATOM     93  C67 UNL A   1      45.854  52.314  16.375  1.00  0.00    +0.000 C 
ENDROOT
BRANCH   37   36
ATOM     33  C26 UNL A   1      43.094  48.250  17.150  1.00  0.00    +0.000 C 
ATOM     34  C27 UNL A   1      42.968  49.256  18.111  1.00  0.00    +0.000 C 
ATOM     35  C28 UNL A   1      44.066  50.058  18.431  1.00  0.00    +0.000 C 
ATOM    129  H32 UNL A   1      42.063  49.407  18.585  1.00  0.00    +0.000 H 
ATOM    130  H33 UNL A   1      43.961  50.820  19.119  1.00  0.00    +0.000 H 
ATOM     36  C29 UNL A   1      45.311  49.835  17.822  1.00  0.00    +0.000 C 
ATOM    141  H44 UNL A   1      46.341  48.638  16.415  1.00  0.00    +0.000 H 
ATOM    142  H45 UNL A   1      44.385  47.388  15.718  1.00  0.00    +0.000 H 
ATOM     94  C68 UNL A   1      45.426  48.826  16.855  1.00  0.00    +0.000 C 
ATOM     95  C69 UNL A   1      44.312  48.074  16.484  1.00  0.00    +0.000 C 
BRANCH   33   31
ATOM     31  C25 UNL A   1      41.903  47.432  16.816  1.00  0.00    +0.000 C 
ATOM     32  O5  UNL A   1      41.317  47.612  15.752  1.00  0.00    +0.000 O 
BRANCH   31   30
ATOM     30  N2  UNL A   1      41.458  46.466  17.683  1.00  0.00    +0.000 N 
ATOM    128  H31 UNL A   1      40.502  46.502  17.917  1.00  0.00    +0.000 H 
BRANCH   30   29
ATOM     29  C24 UNL A   1      42.223  45.395  18.300  1.00  0.00    +0.000 C 
ATOM    126  H29 UNL A   1      42.880  45.816  19.033  1.00  0.00    +0.000 H 
ATOM    127  H30 UNL A   1      41.537  44.710  18.752  1.00  0.00    +0.000 H 
BRANCH   29   28
ATOM    124  H27 UNL A   1      42.608  43.672  17.132  1.00  0.00    +0.000 H 
ATOM     28  C23 UNL A   1      43.051  44.636  17.272  1.00  0.00    +0.000 C 
ATOM    125  H28 UNL A   1      43.049  45.231  16.381  1.00  0.00    +0.000 H 
BRANCH   28   27
ATOM    122  H25 UNL A   1      44.686  43.387  17.793  1.00  0.00    +0.000 H 
ATOM     27  C22 UNL A   1      44.518  44.436  17.655  1.00  0.00    +0.000 C 
ATOM    123  H26 UNL A   1      45.096  44.856  16.858  1.00  0.00    +0.000 H 
BRANCH   27   26
ATOM    121  H24 UNL A   1      44.862  44.448  19.726  1.00  0.00    +0.000 H 
ATOM     26  C21 UNL A   1      44.958  45.160  18.933  1.00  0.00    +0.000 C 
ATOM    120  H23 UNL A   1      44.334  46.022  19.056  1.00  0.00    +0.000 H 
BRANCH   26   25
ATOM     25  C20 UNL A   1      46.418  45.624  18.949  1.00  0.00    +0.000 C 
ATOM    118  H21 UNL A   1      46.463  46.577  19.433  1.00  0.00    +0.000 H 
ATOM    119  H22 UNL A   1      46.976  44.873  19.468  1.00  0.00    +0.000 H 
BRANCH   25   24
ATOM    116  H19 UNL A   1      46.655  44.985  16.933  1.00  0.00    +0.000 H 
ATOM    117  H20 UNL A   1      46.788  46.724  17.174  1.00  0.00    +0.000 H 
ATOM     24  C19 UNL A   1      47.038  45.759  17.564  1.00  0.00    +0.000 C 
BRANCH   24   23
ATOM    115  H18 UNL A   1      48.861  44.811  17.267  1.00  0.00    +0.000 H 
ATOM     23  N1  UNL A   1      48.480  45.648  17.622  1.00  0.00    +0.000 N 
BRANCH   23   21
ATOM     21  C18 UNL A   1      49.375  46.549  18.105  1.00  0.00    +0.000 C 
ATOM     22  O4  UNL A   1      50.013  46.321  19.125  1.00  0.00    +0.000 O 
BRANCH   21   20
ATOM    114  H17 UNL A   1      49.341  48.720  17.895  1.00  0.00    +0.000 H 
ATOM     20  C17 UNL A   1      49.546  47.837  17.403  1.00  0.00    +0.000 C 
BRANCH   20   19
ATOM    113  H16 UNL A   1      49.591  47.166  15.466  1.00  0.00    +0.000 H 
ATOM     19  C16 UNL A   1      49.964  47.864  16.128  1.00  0.00    +0.000 C 
BRANCH   19   18
ATOM      9  C8  UNL A   1      50.455  49.968  14.893  1.00  0.00    +0.000 C 
ATOM     10  C9  UNL A   1      51.359  50.896  14.348  1.00  0.00    +0.000 C 
ATOM     11  C10 UNL A   1      52.731  50.741  14.514  1.00  0.00    +0.000 C 
ATOM    105  H8  UNL A   1      50.999  51.704  13.816  1.00  0.00    +0.000 H 
ATOM    109  H12 UNL A   1      54.216  49.572  15.417  1.00  0.00    +0.000 H 
ATOM     14  C12 UNL A   1      53.200  49.670  15.265  1.00  0.00    +0.000 C 
ATOM     15  C13 UNL A   1      52.330  48.716  15.824  1.00  0.00    +0.000 C 
ATOM     18  C15 UNL A   1      50.936  48.855  15.641  1.00  0.00    +0.000 C 
BRANCH    9    8
ATOM    104  H7  UNL A   1      48.570  51.042  14.979  1.00  0.00    +0.000 H 
ATOM      8  C7  UNL A   1      49.030  50.209  14.577  1.00  0.00    +0.000 C 
BRANCH    8    7
ATOM    103  H6  UNL A   1      47.397  49.074  14.162  1.00  0.00    +0.000 H 
ATOM      7  C6  UNL A   1      48.307  49.393  13.792  1.00  0.00    +0.000 C 
BRANCH    7    6
ATOM     97  C71 UNL A   1      50.327  47.714  11.073  1.00  0.00    +0.000 C 
ATOM      3  C2  UNL A   1      49.566  47.942   9.929  1.00  0.00    +0.000 C 
ATOM      4  C3  UNL A   1      48.364  48.640  10.049  1.00  0.00    +0.000 C 
ATOM    101  H4  UNL A   1      47.789  48.812   9.209  1.00  0.00    +0.000 H 
ATOM      5  C4  UNL A   1      47.926  49.113  11.295  1.00  0.00    +0.000 C 
ATOM    102  H5  UNL A   1      47.029  49.618  11.362  1.00  0.00    +0.000 H 
ATOM      6  C5  UNL A   1      48.692  48.909  12.449  1.00  0.00    +0.000 C 
ATOM    143  H46 UNL A   1      50.470  48.018  13.156  1.00  0.00    +0.000 H 
ATOM    144  H47 UNL A   1      51.214  47.190  11.004  1.00  0.00    +0.000 H 
ATOM     96  C70 UNL A   1      49.893  48.194  12.318  1.00  0.00    +0.000 C 
BRANCH    3    2
ATOM      2  O1  UNL A   1      49.899  47.574   8.655  1.00  0.00    +0.000 O 
BRANCH    2    1
ATOM      1  C1  UNL A   1      50.986  46.668   8.513  1.00  0.00    +0.000 C 
ATOM     98  H1  UNL A   1      50.927  45.919   9.274  1.00  0.00    +0.000 H 
ATOM     99  H2  UNL A   1      51.909  47.201   8.608  1.00  0.00    +0.000 H 
ATOM    100  H3  UNL A   1      50.940  46.203   7.551  1.00  0.00    +0.000 H 
ENDBRANCH    2    1
ENDBRANCH    3    2
ENDBRANCH    7    6
ENDBRANCH    8    7
ENDBRANCH    9    8
BRANCH   11   12
ATOM     12  O2  UNL A   1      53.511  51.681  13.898  1.00  0.00    +0.000 O 
BRANCH   12   13
ATOM    106  H9  UNL A   1      55.124  52.804  14.468  1.00  0.00    +0.000 H 
ATOM    107  H10 UNL A   1      55.508  51.319  13.630  1.00  0.00    +0.000 H 
ATOM    108  H11 UNL A   1      54.956  51.270  15.287  1.00  0.00    +0.000 H 
ATOM     13  C11 UNL A   1      54.859  51.774  14.349  1.00  0.00    +0.000 C 
ENDBRANCH   12   13
ENDBRANCH   11   12
BRANCH   15   16
ATOM     16  O3  UNL A   1      53.062  47.736  16.440  1.00  0.00    +0.000 O 
BRANCH   16   17
ATOM     17  C14 UNL A   1      53.386  47.771  17.816  1.00  0.00    +0.000 C 
ATOM    110  H13 UNL A   1      54.444  47.662  17.936  1.00  0.00    +0.000 H 
ATOM    111  H14 UNL A   1      52.885  46.973  18.322  1.00  0.00    +0.000 H 
ATOM    112  H15 UNL A   1      53.076  48.707  18.232  1.00  0.00    +0.000 H 
ENDBRANCH   16   17
ENDBRANCH   15   16
ENDBRANCH   19   18
ENDBRANCH   20   19
ENDBRANCH   21   20
ENDBRANCH   23   21
ENDBRANCH   24   23
ENDBRANCH   25   24
ENDBRANCH   26   25
ENDBRANCH   27   26
ENDBRANCH   28   27
ENDBRANCH   29   28
ENDBRANCH   30   29
ENDBRANCH   31   30
ENDBRANCH   33   31
ENDBRANCH   37   36
BRANCH   41   42
ATOM     42  C34 UNL A   1      47.993  55.735  15.252  1.00  0.00    +0.000 C 
ATOM     43  C35 UNL A   1      47.170  56.853  15.454  1.00  0.00    +0.000 C 
ATOM     44  F1  UNL A   1      46.648  57.096  16.666  1.00  0.00    +0.000 F 
ATOM     45  C36 UNL A   1      46.859  57.713  14.403  1.00  0.00    +0.000 C 
ATOM     46  F2  UNL A   1      46.042  58.755  14.613  1.00  0.00    +0.000 F 
ATOM     47  C37 UNL A   1      47.390  57.492  13.142  1.00  0.00    +0.000 C 
ATOM     48  F3  UNL A   1      47.103  58.331  12.137  1.00  0.00    +0.000 F 
ATOM     49  C38 UNL A   1      48.215  56.400  12.922  1.00  0.00    +0.000 C 
ATOM     50  F4  UNL A   1      48.740  56.193  11.706  1.00  0.00    +0.000 F 
ATOM     51  C39 UNL A   1      48.505  55.523  13.962  1.00  0.00    +0.000 C 
ATOM     52  F5  UNL A   1      49.302  54.472  13.716  1.00  0.00    +0.000 F 
ENDBRANCH   41   42
BRANCH   58   59
ATOM     65  F8  UNL A   1      56.535  57.508  21.414  1.00  0.00    +0.000 F 
ATOM     66  C49 UNL A   1      55.624  55.735  20.147  1.00  0.00    +0.000 C 
ATOM     67  F9  UNL A   1      56.846  55.400  19.711  1.00  0.00    +0.000 F 
ATOM     68  C50 UNL A   1      54.512  55.015  19.719  1.00  0.00    +0.000 C 
ATOM     69  F10 UNL A   1      54.694  53.999  18.860  1.00  0.00    +0.000 F 
ATOM     59  C45 UNL A   1      53.226  55.330  20.181  1.00  0.00    +0.000 C 
ATOM     60  C46 UNL A   1      53.093  56.395  21.083  1.00  0.00    +0.000 C 
ATOM     61  F6  UNL A   1      51.883  56.746  21.542  1.00  0.00    +0.000 F 
ATOM     62  C47 UNL A   1      54.203  57.134  21.484  1.00  0.00    +0.000 C 
ATOM     63  F7  UNL A   1      54.047  58.181  22.307  1.00  0.00    +0.000 F 
ATOM     64  C48 UNL A   1      55.467  56.799  21.022  1.00  0.00    +0.000 C 
ENDBRANCH   58   59
BRANCH   73   74
ATOM     74  C54 UNL A   1      50.664  49.216  22.324  1.00  0.00    +0.000 C 
ATOM     75  C55 UNL A   1      51.541  48.182  21.967  1.00  0.00    +0.000 C 
ATOM     76  F11 UNL A   1      51.988  48.087  20.706  1.00  0.00    +0.000 F 
ATOM     77  C56 UNL A   1      51.923  47.210  22.890  1.00  0.00    +0.000 C 
ATOM     78  F12 UNL A   1      52.718  46.201  22.508  1.00  0.00    +0.000 F 
ATOM     79  C57 UNL A   1      51.467  47.276  24.198  1.00  0.00    +0.000 C 
ATOM     80  F13 UNL A   1      51.833  46.342  25.085  1.00  0.00    +0.000 F 
ATOM     81  C58 UNL A   1      50.620  48.305  24.581  1.00  0.00    +0.000 C 
ATOM     82  F14 UNL A   1      50.189  48.380  25.848  1.00  0.00    +0.000 F 
ATOM     83  C59 UNL A   1      50.211  49.258  23.650  1.00  0.00    +0.000 C 
ATOM     84  F15 UNL A   1      49.377  50.230  24.045  1.00  0.00    +0.000 F 
ENDBRANCH   73   74
TORSDOF 26
ENDMDL
MODEL 10
REMARK VINA RESULT:      -7.1     48.858     53.302
ROOT
ATOM    131  H34 UNL A   1      59.401  18.083   7.597  1.00  0.00    +0.000 H 
ATOM    132  H35 UNL A   1      58.256  17.182   5.435  1.00  0.00    +0.000 H 
ATOM    133  H36 UNL A   1      55.351  18.926   7.816  1.00  0.00    +0.000 H 
ATOM    134  H37 UNL A   1      49.213  20.221   8.963  1.00  0.00    +0.000 H 
ATOM    135  H38 UNL A   1      50.350  21.145  11.038  1.00  0.00    +0.000 H 
ATOM    136  H39 UNL A   1      53.284  19.438   8.642  1.00  0.00    +0.000 H 
ATOM    137  H40 UNL A   1      50.938  17.865   4.484  1.00  0.00    +0.000 H 
ATOM    138  H41 UNL A   1      53.201  16.947   3.718  1.00  0.00    +0.000 H 
ATOM    139  H42 UNL A   1      57.643  20.864  11.835  1.00  0.00    +0.000 H 
ATOM    140  H43 UNL A   1      55.346  21.331  12.865  1.00  0.00    +0.000 H 
ATOM     37  C30 UNL A   1      53.166  20.753  11.115  1.00  0.00    +0.000 C 
ATOM     38  C31 UNL A   1      54.627  20.484  10.888  1.00  0.00    +0.000 C 
ATOM     39  N3  UNL A   1      55.215  19.932   9.855  1.00  0.00    +0.000 N 
ATOM     40  C32 UNL A   1      56.576  19.971  10.129  1.00  0.00    +0.000 C 
ATOM     41  C33 UNL A   1      57.598  19.477   9.390  1.00  0.00    +0.000 C 
ATOM     53  C40 UNL A   1      57.432  18.778   8.142  1.00  0.00    +0.000 C 
ATOM     54  C41 UNL A   1      58.397  18.161   7.366  1.00  0.00    +0.000 C 
ATOM     55  C42 UNL A   1      57.781  17.661   6.215  1.00  0.00    +0.000 C 
ATOM     56  C43 UNL A   1      56.422  17.918   6.301  1.00  0.00    +0.000 C 
ATOM     57  N4  UNL A   1      56.222  18.606   7.487  1.00  0.00    +0.000 N 
ATOM     58  C44 UNL A   1      55.382  17.565   5.369  1.00  0.00    +0.000 C 
ATOM     70  C51 UNL A   1      54.065  17.838   5.535  1.00  0.00    +0.000 C 
ATOM     71  N5  UNL A   1      53.435  18.490   6.585  1.00  0.00    +0.000 N 
ATOM     72  C52 UNL A   1      52.162  18.529   6.273  1.00  0.00    +0.000 C 
ATOM     73  C53 UNL A   1      51.009  19.093   7.058  1.00  0.00    +0.000 C 
ATOM     85  C60 UNL A   1      51.240  19.617   8.276  1.00  0.00    +0.000 C 
ATOM     86  C61 UNL A   1      50.227  20.189   9.157  1.00  0.00    +0.000 C 
ATOM     87  C62 UNL A   1      50.827  20.667  10.258  1.00  0.00    +0.000 C 
ATOM     88  C63 UNL A   1      52.263  20.402  10.180  1.00  0.00    +0.000 C 
ATOM     89  N6  UNL A   1      52.416  19.762   8.975  1.00  0.00    +0.000 N 
ATOM     90  C64 UNL A   1      51.846  17.925   4.970  1.00  0.00    +0.000 C 
ATOM     91  C65 UNL A   1      53.033  17.480   4.585  1.00  0.00    +0.000 C 
ATOM     92  C66 UNL A   1      56.734  20.636  11.403  1.00  0.00    +0.000 C 
ATOM     93  C67 UNL A   1      55.556  20.917  11.943  1.00  0.00    +0.000 C 
ENDROOT
BRANCH   37   36
ATOM     33  C26 UNL A   1      51.885  22.759  14.689  1.00  0.00    +0.000 C 
ATOM     34  C27 UNL A   1      52.164  23.499  13.537  1.00  0.00    +0.000 C 
ATOM     35  C28 UNL A   1      52.556  22.847  12.365  1.00  0.00    +0.000 C 
ATOM    129  H32 UNL A   1      52.081  24.528  13.552  1.00  0.00    +0.000 H 
ATOM    130  H33 UNL A   1      52.732  23.395  11.509  1.00  0.00    +0.000 H 
ATOM     36  C29 UNL A   1      52.712  21.453  12.346  1.00  0.00    +0.000 C 
ATOM    141  H44 UNL A   1      52.555  19.694  13.509  1.00  0.00    +0.000 H 
ATOM    142  H45 UNL A   1      51.680  20.809  15.475  1.00  0.00    +0.000 H 
ATOM     94  C68 UNL A   1      52.424  20.718  13.505  1.00  0.00    +0.000 C 
ATOM     95  C69 UNL A   1      51.964  21.363  14.652  1.00  0.00    +0.000 C 
BRANCH   33   31
ATOM     31  C25 UNL A   1      51.448  23.480  15.909  1.00  0.00    +0.000 C 
ATOM     32  O5  UNL A   1      50.251  23.574  16.167  1.00  0.00    +0.000 O 
BRANCH   31   30
ATOM     30  N2  UNL A   1      52.374  24.029  16.760  1.00  0.00    +0.000 N 
ATOM    128  H31 UNL A   1      52.011  24.502  17.544  1.00  0.00    +0.000 H 
BRANCH   30   29
ATOM     29  C24 UNL A   1      53.822  24.003  16.647  1.00  0.00    +0.000 C 
ATOM    126  H29 UNL A   1      54.092  24.117  15.618  1.00  0.00    +0.000 H 
ATOM    127  H30 UNL A   1      54.219  24.803  17.236  1.00  0.00    +0.000 H 
BRANCH   29   28
ATOM    124  H27 UNL A   1      54.882  22.889  18.102  1.00  0.00    +0.000 H 
ATOM     28  C23 UNL A   1      54.399  22.693  17.167  1.00  0.00    +0.000 C 
ATOM    125  H28 UNL A   1      53.577  22.013  17.255  1.00  0.00    +0.000 H 
BRANCH   28   27
ATOM    122  H25 UNL A   1      54.957  21.156  15.814  1.00  0.00    +0.000 H 
ATOM     27  C22 UNL A   1      55.414  22.027  16.236  1.00  0.00    +0.000 C 
ATOM    123  H26 UNL A   1      55.677  22.764  15.505  1.00  0.00    +0.000 H 
BRANCH   27   26
ATOM    121  H24 UNL A   1      56.475  20.791  17.561  1.00  0.00    +0.000 H 
ATOM     26  C21 UNL A   1      56.725  21.601  16.907  1.00  0.00    +0.000 C 
ATOM    120  H23 UNL A   1      57.128  22.452  17.417  1.00  0.00    +0.000 H 
BRANCH   26   25
ATOM     25  C20 UNL A   1      57.799  21.065  15.956  1.00  0.00    +0.000 C 
ATOM    118  H21 UNL A   1      58.184  21.885  15.387  1.00  0.00    +0.000 H 
ATOM    119  H22 UNL A   1      58.546  20.598  16.562  1.00  0.00    +0.000 H 
BRANCH   25   24
ATOM    116  H19 UNL A   1      56.446  20.392  14.458  1.00  0.00    +0.000 H 
ATOM    117  H20 UNL A   1      58.082  19.761  14.307  1.00  0.00    +0.000 H 
ATOM     24  C19 UNL A   1      57.291  20.005  14.985  1.00  0.00    +0.000 C 
BRANCH   24   23
ATOM    115  H18 UNL A   1      56.586  18.924  16.610  1.00  0.00    +0.000 H 
ATOM     23  N1  UNL A   1      56.899  18.800  15.685  1.00  0.00    +0.000 N 
BRANCH   23   21
ATOM     21  C18 UNL A   1      56.909  17.520  15.228  1.00  0.00    +0.000 C 
ATOM     22  O4  UNL A   1      55.905  17.017  14.740  1.00  0.00    +0.000 O 
BRANCH   21   20
ATOM    114  H17 UNL A   1      58.458  16.131  14.576  1.00  0.00    +0.000 H 
ATOM     20  C17 UNL A   1      58.143  16.721  15.361  1.00  0.00    +0.000 C 
BRANCH   20   19
ATOM    113  H16 UNL A   1      58.532  16.198  17.305  1.00  0.00    +0.000 H 
ATOM     19  C16 UNL A   1      58.854  16.755  16.498  1.00  0.00    +0.000 C 
BRANCH   19   18
ATOM      9  C8  UNL A   1      60.108  18.590  17.619  1.00  0.00    +0.000 C 
ATOM     10  C9  UNL A   1      61.231  19.428  17.729  1.00  0.00    +0.000 C 
ATOM     11  C10 UNL A   1      62.322  19.279  16.880  1.00  0.00    +0.000 C 
ATOM    105  H8  UNL A   1      61.246  20.165  18.451  1.00  0.00    +0.000 H 
ATOM    109  H12 UNL A   1      63.127  18.125  15.327  1.00  0.00    +0.000 H 
ATOM     14  C12 UNL A   1      62.305  18.258  15.937  1.00  0.00    +0.000 C 
ATOM     15  C13 UNL A   1      61.199  17.400  15.789  1.00  0.00    +0.000 C 
ATOM     18  C15 UNL A   1      60.078  17.560  16.635  1.00  0.00    +0.000 C 
BRANCH    9    8
ATOM    104  H7  UNL A   1      58.121  18.350  18.458  1.00  0.00    +0.000 H 
ATOM      8  C7  UNL A   1      58.988  18.905  18.532  1.00  0.00    +0.000 C 
BRANCH    8    7
ATOM    103  H6  UNL A   1      58.911  20.848  19.118  1.00  0.00    +0.000 H 
ATOM      7  C6  UNL A   1      59.048  19.882  19.453  1.00  0.00    +0.000 C 
BRANCH    7    6
ATOM     97  C71 UNL A   1      60.662  18.678  22.653  1.00  0.00    +0.000 C 
ATOM      3  C2  UNL A   1      59.865  19.250  23.642  1.00  0.00    +0.000 C 
ATOM      4  C3  UNL A   1      58.793  20.057  23.259  1.00  0.00    +0.000 C 
ATOM    101  H4  UNL A   1      58.197  20.489  23.982  1.00  0.00    +0.000 H 
ATOM      5  C4  UNL A   1      58.512  20.287  21.904  1.00  0.00    +0.000 C 
ATOM    102  H5  UNL A   1      57.721  20.896  21.644  1.00  0.00    +0.000 H 
ATOM      6  C5  UNL A   1      59.293  19.702  20.900  1.00  0.00    +0.000 C 
ATOM    143  H46 UNL A   1      60.976  18.470  20.578  1.00  0.00    +0.000 H 
ATOM    144  H47 UNL A   1      61.466  18.088  22.919  1.00  0.00    +0.000 H 
ATOM     96  C70 UNL A   1      60.377  18.903  21.298  1.00  0.00    +0.000 C 
BRANCH    3    2
ATOM      2  O1  UNL A   1      60.004  19.071  24.991  1.00  0.00    +0.000 O 
BRANCH    2    1
ATOM      1  C1  UNL A   1      60.352  17.764  25.431  1.00  0.00    +0.000 C 
ATOM     98  H1  UNL A   1      59.463  17.181  25.554  1.00  0.00    +0.000 H 
ATOM     99  H2  UNL A   1      60.870  17.828  26.364  1.00  0.00    +0.000 H 
ATOM    100  H3  UNL A   1      60.984  17.299  24.702  1.00  0.00    +0.000 H 
ENDBRANCH    2    1
ENDBRANCH    3    2
ENDBRANCH    7    6
ENDBRANCH    8    7
ENDBRANCH    9    8
BRANCH   11   12
ATOM     12  O2  UNL A   1      63.333  20.183  17.052  1.00  0.00    +0.000 O 
BRANCH   12   13
ATOM    106  H9  UNL A   1      65.288  19.752  17.481  1.00  0.00    +0.000 H 
ATOM    107  H10 UNL A   1      64.106  18.879  18.427  1.00  0.00    +0.000 H 
ATOM    108  H11 UNL A   1      64.408  20.570  18.750  1.00  0.00    +0.000 H 
ATOM     13  C11 UNL A   1      64.347  19.823  17.986  1.00  0.00    +0.000 C 
ENDBRANCH   12   13
ENDBRANCH   11   12
BRANCH   15   16
ATOM     16  O3  UNL A   1      61.419  16.546  14.742  1.00  0.00    +0.000 O 
BRANCH   16   17
ATOM     17  C14 UNL A   1      61.774  15.189  14.920  1.00  0.00    +0.000 C 
ATOM    110  H13 UNL A   1      61.870  14.717  13.964  1.00  0.00    +0.000 H 
ATOM    111  H14 UNL A   1      61.015  14.694  15.489  1.00  0.00    +0.000 H 
ATOM    112  H15 UNL A   1      62.707  15.130  15.441  1.00  0.00    +0.000 H 
ENDBRANCH   16   17
ENDBRANCH   15   16
ENDBRANCH   19   18
ENDBRANCH   20   19
ENDBRANCH   21   20
ENDBRANCH   23   21
ENDBRANCH   24   23
ENDBRANCH   25   24
ENDBRANCH   26   25
ENDBRANCH   27   26
ENDBRANCH   28   27
ENDBRANCH   29   28
ENDBRANCH   30   29
ENDBRANCH   31   30
ENDBRANCH   33   31
ENDBRANCH   37   36
BRANCH   41   42
ATOM     42  C34 UNL A   1      58.995  19.669   9.904  1.00  0.00    +0.000 C 
ATOM     43  C35 UNL A   1      59.602  18.735  10.757  1.00  0.00    +0.000 C 
ATOM     44  F1  UNL A   1      58.909  17.674  11.199  1.00  0.00    +0.000 F 
ATOM     45  C36 UNL A   1      60.919  18.900  11.179  1.00  0.00    +0.000 C 
ATOM     46  F2  UNL A   1      61.467  18.012  12.021  1.00  0.00    +0.000 F 
ATOM     47  C37 UNL A   1      61.663  19.981  10.733  1.00  0.00    +0.000 C 
ATOM     48  F3  UNL A   1      62.936  20.129  11.126  1.00  0.00    +0.000 F 
ATOM     49  C38 UNL A   1      61.087  20.911   9.881  1.00  0.00    +0.000 C 
ATOM     50  F4  UNL A   1      61.809  21.950   9.438  1.00  0.00    +0.000 F 
ATOM     51  C39 UNL A   1      59.763  20.764   9.479  1.00  0.00    +0.000 C 
ATOM     52  F5  UNL A   1      59.232  21.684   8.659  1.00  0.00    +0.000 F 
ENDBRANCH   41   42
BRANCH   58   59
ATOM     65  F8  UNL A   1      56.831  14.798   0.661  1.00  0.00    +0.000 F 
ATOM     66  C49 UNL A   1      56.784  16.798   1.916  1.00  0.00    +0.000 C 
ATOM     67  F9  UNL A   1      57.402  17.452   0.923  1.00  0.00    +0.000 F 
ATOM     68  C50 UNL A   1      56.446  17.472   3.086  1.00  0.00    +0.000 C 
ATOM     69  F10 UNL A   1      56.764  18.771   3.196  1.00  0.00    +0.000 F 
ATOM     59  C45 UNL A   1      55.777  16.815   4.130  1.00  0.00    +0.000 C 
ATOM     60  C46 UNL A   1      55.463  15.459   3.960  1.00  0.00    +0.000 C 
ATOM     61  F6  UNL A   1      54.838  14.783   4.934  1.00  0.00    +0.000 F 
ATOM     62  C47 UNL A   1      55.832  14.780   2.801  1.00  0.00    +0.000 C 
ATOM     63  F7  UNL A   1      55.567  13.471   2.682  1.00  0.00    +0.000 F 
ATOM     64  C48 UNL A   1      56.484  15.451   1.778  1.00  0.00    +0.000 C 
ENDBRANCH   58   59
BRANCH   73   74
ATOM     74  C54 UNL A   1      49.628  19.068   6.506  1.00  0.00    +0.000 C 
ATOM     75  C55 UNL A   1      48.816  17.933   6.642  1.00  0.00    +0.000 C 
ATOM     76  F11 UNL A   1      49.281  16.848   7.280  1.00  0.00    +0.000 F 
ATOM     77  C56 UNL A   1      47.541  17.888   6.081  1.00  0.00    +0.000 C 
ATOM     78  F12 UNL A   1      46.808  16.770   6.178  1.00  0.00    +0.000 F 
ATOM     79  C57 UNL A   1      47.039  18.990   5.406  1.00  0.00    +0.000 C 
ATOM     80  F13 UNL A   1      45.814  18.946   4.866  1.00  0.00    +0.000 F 
ATOM     81  C58 UNL A   1      47.813  20.133   5.281  1.00  0.00    +0.000 C 
ATOM     82  F14 UNL A   1      47.326  21.206   4.644  1.00  0.00    +0.000 F 
ATOM     83  C59 UNL A   1      49.101  20.167   5.814  1.00  0.00    +0.000 C 
ATOM     84  F15 UNL A   1      49.833  21.280   5.662  1.00  0.00    +0.000 F 
ENDBRANCH   73   74
TORSDOF 26
ENDMDL
