MODEL 1
REMARK VINA RESULT:     -11.6      0.000      0.000
REMARK  Name = 
REMARK  15 active torsions:
REMARK  status: ('A' for Active; 'I' for Inactive)
REMARK    1  A    between atoms: C_2  and  C_3
REMARK    2  A    between atoms: C_3  and  C_4
REMARK    3  A    between atoms: N_7  and  C_8
REMARK    4  A    between atoms: N_14  and  C_15
REMARK    5  A    between atoms: C_15  and  C_16
REMARK    6  A    between atoms: C_16  and  C_17
REMARK    7  A    between atoms: C_17  and  C_18
REMARK    8  A    between atoms: C_18  and  C_19
REMARK    9  A    between atoms: C_19  and  C_20
REMARK   10  A    between atoms: C_20  and  N_21
REMARK   11  A    between atoms: C_22  and  C_24
REMARK   12  A    between atoms: C_27  and  C_28
REMARK   13  A    between atoms: C_32  and  C_33
REMARK   14  A    between atoms: C_49  and  C_50
REMARK   15  A    between atoms: C_64  and  C_65
REMARK                            x       y       z     vdW  Elec       q    Type
REMARK                         _______ _______ _______ _____ _____    ______ ____
ROOT
ATOM      1  C   UNL A   1      53.405  19.899  11.702  0.00  0.00    +0.000 C 
ATOM      2  C   UNL A   1      54.755  19.291  11.510  0.00  0.00    +0.000 C 
ATOM      3  N   UNL A   1      55.768  19.271  12.334  0.00  0.00    +0.000 NA
ATOM      4  C   UNL A   1      56.773  18.589  11.673  0.00  0.00    +0.000 C 
ATOM      5  C   UNL A   1      58.031  18.339  12.097  0.00  0.00    +0.000 C 
ATOM      6  C   UNL A   1      58.553  18.746  13.371  0.00  0.00    +0.000 A 
ATOM      7  C   UNL A   1      59.835  18.564  13.861  0.00  0.00    +0.000 A 
ATOM      8  C   UNL A   1      59.877  19.057  15.169  0.00  0.00    +0.000 A 
ATOM      9  C   UNL A   1      58.637  19.590  15.478  0.00  0.00    +0.000 A 
ATOM     10  N   UNL A   1      57.826  19.398  14.362  0.00  0.00    +0.000 N 
ATOM     11  C   UNL A   1      58.227  20.210  16.707  0.00  0.00    +0.000 C 
ATOM     12  C   UNL A   1      56.997  20.729  16.921  0.00  0.00    +0.000 C 
ATOM     13  N   UNL A   1      55.929  20.778  16.043  0.00  0.00    +0.000 NA
ATOM     14  C   UNL A   1      54.958  21.363  16.700  0.00  0.00    +0.000 C 
ATOM     15  C   UNL A   1      53.581  21.692  16.235  0.00  0.00    +0.000 C 
ATOM     16  C   UNL A   1      53.198  21.338  14.995  0.00  0.00    +0.000 A 
ATOM     17  C   UNL A   1      51.888  21.628  14.421  0.00  0.00    +0.000 A 
ATOM     18  C   UNL A   1      51.833  21.122  13.180  0.00  0.00    +0.000 A 
ATOM     19  C   UNL A   1      53.113  20.490  12.871  0.00  0.00    +0.000 A 
ATOM     20  N   UNL A   1      53.871  20.662  14.006  0.00  0.00    +0.000 N 
ATOM     21  C   UNL A   1      55.302  21.748  18.075  0.00  0.00    +0.000 C 
ATOM     22  C   UNL A   1      56.564  21.348  18.154  0.00  0.00    +0.000 C 
ATOM     23  C   UNL A   1      56.243  18.185  10.389  0.00  0.00    +0.000 C 
ATOM     24  C   UNL A   1      55.001  18.617  10.228  0.00  0.00    +0.000 C 
ATOM     25  H   UNL A   1      56.846  19.684  14.286  0.00  0.00    +0.000 HD
ATOM     26  H   UNL A   1      54.839  20.340  14.096  0.00  0.00    +0.000 HD
ENDROOT
BRANCH   5  27
ATOM     27  C   UNL A   1      58.929  17.594  11.161  0.00  0.00    +0.000 A 
ATOM     28  C   UNL A   1      59.731  18.277  10.236  0.00  0.00    +0.000 A 
ATOM     29  F   UNL A   1      59.684  19.615  10.162  0.00  0.00    +0.000 F 
ATOM     30  C   UNL A   1      60.567  17.582   9.369  0.00  0.00    +0.000 A 
ATOM     31  F   UNL A   1      61.305  18.250   8.470  0.00  0.00    +0.000 F 
ATOM     32  C   UNL A   1      60.629  16.196   9.420  0.00  0.00    +0.000 A 
ATOM     33  F   UNL A   1      61.424  15.529   8.573  0.00  0.00    +0.000 F 
ATOM     34  C   UNL A   1      59.850  15.504  10.336  0.00  0.00    +0.000 A 
ATOM     35  F   UNL A   1      59.903  14.165  10.379  0.00  0.00    +0.000 F 
ATOM     36  C   UNL A   1      59.002  16.195  11.198  0.00  0.00    +0.000 A 
ATOM     37  F   UNL A   1      58.235  15.501  12.051  0.00  0.00    +0.000 F 
ENDBRANCH   5  27
BRANCH  11  38
ATOM     38  C   UNL A   1      59.208  20.301  17.835  0.00  0.00    +0.000 A 
ATOM     39  C   UNL A   1      59.479  19.192  18.648  0.00  0.00    +0.000 A 
ATOM     40  F   UNL A   1      58.863  18.022  18.418  0.00  0.00    +0.000 F 
ATOM     41  C   UNL A   1      60.373  19.286  19.713  0.00  0.00    +0.000 A 
ATOM     42  F   UNL A   1      60.594  18.223  20.496  0.00  0.00    +0.000 F 
ATOM     43  C   UNL A   1      61.024  20.485  19.975  0.00  0.00    +0.000 A 
ATOM     44  F   UNL A   1      61.874  20.575  21.008  0.00  0.00    +0.000 F 
ATOM     45  C   UNL A   1      60.781  21.589  19.169  0.00  0.00    +0.000 A 
ATOM     46  F   UNL A   1      61.406  22.748  19.422  0.00  0.00    +0.000 F 
ATOM     47  C   UNL A   1      59.882  21.499  18.110  0.00  0.00    +0.000 A 
ATOM     48  F   UNL A   1      59.650  22.587  17.359  0.00  0.00    +0.000 F 
ENDBRANCH  11  38
BRANCH  15  49
ATOM     49  C   UNL A   1      52.626  22.410  17.106  0.00  0.00    +0.000 A 
ATOM     50  C   UNL A   1      51.838  21.722  18.036  0.00  0.00    +0.000 A 
ATOM     51  F   UNL A   1      52.010  20.405  18.216  0.00  0.00    +0.000 F 
ATOM     52  C   UNL A   1      50.866  22.388  18.780  0.00  0.00    +0.000 A 
ATOM     53  F   UNL A   1      50.110  21.708  19.653  0.00  0.00    +0.000 F 
ATOM     54  C   UNL A   1      50.675  23.751  18.609  0.00  0.00    +0.000 A 
ATOM     55  F   UNL A   1      49.732  24.390  19.317  0.00  0.00    +0.000 F 
ATOM     56  C   UNL A   1      51.463  24.454  17.708  0.00  0.00    +0.000 A 
ATOM     57  F   UNL A   1      51.292  25.774  17.550  0.00  0.00    +0.000 F 
ATOM     58  C   UNL A   1      52.434  23.788  16.963  0.00  0.00    +0.000 A 
ATOM     59  F   UNL A   1      53.185  24.475  16.089  0.00  0.00    +0.000 F 
ENDBRANCH  15  49
BRANCH   1  63
ATOM     60  C   UNL A   1      50.681  19.661   8.413  0.00  0.00    +0.000 A 
ATOM     61  C   UNL A   1      51.400  20.842   8.641  0.00  0.00    +0.000 A 
ATOM     62  C   UNL A   1      52.260  20.935   9.738  0.00  0.00    +0.000 A 
ATOM     63  C   UNL A   1      52.404  19.849  10.614  0.00  0.00    +0.000 A 
ATOM     64  C   UNL A   1      51.633  18.696  10.420  0.00  0.00    +0.000 A 
ATOM     65  C   UNL A   1      50.775  18.601   9.322  0.00  0.00    +0.000 A 
BRANCH  60  67
ATOM     66  N   UNL A   1      49.276  18.195   7.076  0.00  0.00    +0.000 N 
ATOM     67  C   UNL A   1      49.834  19.458   7.209  0.00  0.00    +0.000 C 
ATOM     68  O   UNL A   1      49.635  20.415   6.467  0.00  0.00    +0.000 OA
ATOM     69  H   UNL A   1      49.457  17.485   7.780  0.00  0.00    +0.000 HD
BRANCH  66  70
ATOM     70  C   UNL A   1      48.337  17.853   6.014  0.00  0.00    +0.000 C 
BRANCH  70  71
ATOM     71  C   UNL A   1      47.022  18.610   6.162  0.00  0.00    +0.000 C 
BRANCH  71  72
ATOM     72  C   UNL A   1      46.731  19.452   4.918  0.00  0.00    +0.000 C 
BRANCH  72  73
ATOM     73  C   UNL A   1      46.035  18.628   3.833  0.00  0.00    +0.000 C 
BRANCH  73  74
ATOM     74  C   UNL A   1      44.724  19.275   3.376  0.00  0.00    +0.000 C 
BRANCH  74  75
ATOM     75  C   UNL A   1      44.819  19.724   1.919  0.00  0.00    +0.000 C 
BRANCH  75  78
ATOM     76  O   UNL A   1      42.834  21.710   1.475  0.00  0.00    +0.000 OA
ATOM     77  C   UNL A   1      42.670  20.578   1.028  0.00  0.00    +0.000 C 
ATOM     78  N   UNL A   1      43.571  19.552   1.202  0.00  0.00    +0.000 N 
ATOM     79  H   UNL A   1      43.405  18.672   0.734  0.00  0.00    +0.000 HD
BRANCH  77  80
ATOM     80  C   UNL A   1      41.436  20.190   0.210  0.00  0.00    +0.000 C 
BRANCH  80  81
ATOM     81  C   UNL A   1      40.134  20.349   0.957  0.00  0.00    +0.000 A 
ATOM     82  C   UNL A   1      39.141  21.256   0.415  0.00  0.00    +0.000 A 
ATOM     83  C   UNL A   1      38.021  21.518   1.103  0.00  0.00    +0.000 A 
ATOM     84  N   UNL A   1      37.765  20.917   2.319  0.00  0.00    +0.000 N 
ATOM     85  C   UNL A   1      38.643  20.024   2.906  0.00  0.00    +0.000 A 
ATOM     86  O   UNL A   1      38.436  19.453   3.969  0.00  0.00    +0.000 OA
ATOM     87  C   UNL A   1      39.900  19.760   2.144  0.00  0.00    +0.000 A 
BRANCH  84  88
ATOM     88  C   UNL A   1      36.608  21.269   3.094  0.00  0.00    +0.000 C 
ATOM     89  F   UNL A   1      36.955  22.174   4.050  0.00  0.00    +0.000 F 
ATOM     90  F   UNL A   1      35.657  21.868   2.331  0.00  0.00    +0.000 F 
ENDBRANCH  84  88
ENDBRANCH  80  81
ENDBRANCH  77  80
ENDBRANCH  75  78
ENDBRANCH  74  75
ENDBRANCH  73  74
ENDBRANCH  72  73
ENDBRANCH  71  72
ENDBRANCH  70  71
ENDBRANCH  66  70
ENDBRANCH  60  67
ENDBRANCH   1  63
TORSDOF 15
ENDMDL
MODEL 2
REMARK VINA RESULT:     -11.3     39.857     46.359
REMARK  Name = 
REMARK  15 active torsions:
REMARK  status: ('A' for Active; 'I' for Inactive)
REMARK    1  A    between atoms: C_2  and  C_3
REMARK    2  A    between atoms: C_3  and  C_4
REMARK    3  A    between atoms: N_7  and  C_8
REMARK    4  A    between atoms: N_14  and  C_15
REMARK    5  A    between atoms: C_15  and  C_16
REMARK    6  A    between atoms: C_16  and  C_17
REMARK    7  A    between atoms: C_17  and  C_18
REMARK    8  A    between atoms: C_18  and  C_19
REMARK    9  A    between atoms: C_19  and  C_20
REMARK   10  A    between atoms: C_20  and  N_21
REMARK   11  A    between atoms: C_22  and  C_24
REMARK   12  A    between atoms: C_27  and  C_28
REMARK   13  A    between atoms: C_32  and  C_33
REMARK   14  A    between atoms: C_49  and  C_50
REMARK   15  A    between atoms: C_64  and  C_65
REMARK                            x       y       z     vdW  Elec       q    Type
REMARK                         _______ _______ _______ _____ _____    ______ ____
ROOT
ATOM      1  C   UNL A   1      26.045  35.458  45.501  0.00  0.00    +0.000 C 
ATOM      2  C   UNL A   1      27.367  35.418  44.806  0.00  0.00    +0.000 C 
ATOM      3  N   UNL A   1      28.368  36.251  44.906  0.00  0.00    +0.000 NA
ATOM      4  C   UNL A   1      29.344  35.763  44.056  0.00  0.00    +0.000 C 
ATOM      5  C   UNL A   1      30.554  36.297  43.782  0.00  0.00    +0.000 C 
ATOM      6  C   UNL A   1      31.059  37.507  44.366  0.00  0.00    +0.000 A 
ATOM      7  C   UNL A   1      32.264  38.136  44.109  0.00  0.00    +0.000 A 
ATOM      8  C   UNL A   1      32.367  39.246  44.954  0.00  0.00    +0.000 A 
ATOM      9  C   UNL A   1      31.207  39.337  45.702  0.00  0.00    +0.000 A 
ATOM     10  N   UNL A   1      30.401  38.263  45.332  0.00  0.00    +0.000 N 
ATOM     11  C   UNL A   1      30.872  40.323  46.692  0.00  0.00    +0.000 C 
ATOM     12  C   UNL A   1      29.701  40.356  47.366  0.00  0.00    +0.000 C 
ATOM     13  N   UNL A   1      28.625  39.493  47.245  0.00  0.00    +0.000 NA
ATOM     14  C   UNL A   1      27.733  39.920  48.104  0.00  0.00    +0.000 C 
ATOM     15  C   UNL A   1      26.374  39.377  48.386  0.00  0.00    +0.000 C 
ATOM     16  C   UNL A   1      25.952  38.278  47.736  0.00  0.00    +0.000 A 
ATOM     17  C   UNL A   1      24.636  37.669  47.910  0.00  0.00    +0.000 A 
ATOM     18  C   UNL A   1      24.550  36.583  47.128  0.00  0.00    +0.000 A 
ATOM     19  C   UNL A   1      25.800  36.434  46.388  0.00  0.00    +0.000 A 
ATOM     20  N   UNL A   1      26.583  37.484  46.809  0.00  0.00    +0.000 N 
ATOM     21  C   UNL A   1      28.145  41.102  48.871  0.00  0.00    +0.000 C 
ATOM     22  C   UNL A   1      29.352  41.335  48.371  0.00  0.00    +0.000 C 
ATOM     23  C   UNL A   1      28.829  34.546  43.468  0.00  0.00    +0.000 C 
ATOM     24  C   UNL A   1      27.595  34.300  43.882  0.00  0.00    +0.000 C 
ATOM     25  H   UNL A   1      29.476  38.057  45.716  0.00  0.00    +0.000 HD
ATOM     26  H   UNL A   1      27.526  37.667  46.454  0.00  0.00    +0.000 HD
ENDROOT
BRANCH   5  27
ATOM     27  C   UNL A   1      31.411  35.568  42.795  0.00  0.00    +0.000 A 
ATOM     28  C   UNL A   1      32.226  34.502  43.198  0.00  0.00    +0.000 A 
ATOM     29  F   UNL A   1      32.266  34.134  44.488  0.00  0.00    +0.000 F 
ATOM     30  C   UNL A   1      33.020  33.824  42.279  0.00  0.00    +0.000 A 
ATOM     31  F   UNL A   1      33.816  32.826  42.688  0.00  0.00    +0.000 F 
ATOM     32  C   UNL A   1      33.002  34.189  40.940  0.00  0.00    +0.000 A 
ATOM     33  F   UNL A   1      33.780  33.545  40.059  0.00  0.00    +0.000 F 
ATOM     34  C   UNL A   1      32.195  35.236  40.520  0.00  0.00    +0.000 A 
ATOM     35  F   UNL A   1      32.185  35.596  39.229  0.00  0.00    +0.000 F 
ATOM     36  C   UNL A   1      31.408  35.926  41.440  0.00  0.00    +0.000 A 
ATOM     37  F   UNL A   1      30.661  36.955  41.015  0.00  0.00    +0.000 F 
ENDBRANCH   5  27
BRANCH  11  38
ATOM     38  C   UNL A   1      31.869  41.395  47.012  0.00  0.00    +0.000 A 
ATOM     39  C   UNL A   1      31.697  42.704  46.543  0.00  0.00    +0.000 A 
ATOM     40  F   UNL A   1      30.624  43.018  45.802  0.00  0.00    +0.000 F 
ATOM     41  C   UNL A   1      32.639  43.693  46.821  0.00  0.00    +0.000 A 
ATOM     42  F   UNL A   1      32.472  44.931  46.337  0.00  0.00    +0.000 F 
ATOM     43  C   UNL A   1      33.761  43.396  47.584  0.00  0.00    +0.000 A 
ATOM     44  F   UNL A   1      34.672  44.347  47.838  0.00  0.00    +0.000 F 
ATOM     45  C   UNL A   1      33.938  42.108  48.071  0.00  0.00    +0.000 A 
ATOM     46  F   UNL A   1      35.022  41.818  48.806  0.00  0.00    +0.000 F 
ATOM     47  C   UNL A   1      33.003  41.117  47.788  0.00  0.00    +0.000 A 
ATOM     48  F   UNL A   1      33.209  39.876  48.255  0.00  0.00    +0.000 F 
ENDBRANCH  11  38
BRANCH  15  49
ATOM     49  C   UNL A   1      25.473  40.027  49.362  0.00  0.00    +0.000 A 
ATOM     50  C   UNL A   1      25.447  39.623  50.702  0.00  0.00    +0.000 A 
ATOM     51  F   UNL A   1      26.313  38.700  51.141  0.00  0.00    +0.000 F 
ATOM     52  C   UNL A   1      24.523  40.167  51.594  0.00  0.00    +0.000 A 
ATOM     53  F   UNL A   1      24.502  39.754  52.868  0.00  0.00    +0.000 F 
ATOM     54  C   UNL A   1      23.620  41.125  51.157  0.00  0.00    +0.000 A 
ATOM     55  F   UNL A   1      22.723  41.639  52.013  0.00  0.00    +0.000 F 
ATOM     56  C   UNL A   1      23.647  41.554  49.838  0.00  0.00    +0.000 A 
ATOM     57  F   UNL A   1      22.786  42.491  49.416  0.00  0.00    +0.000 F 
ATOM     58  C   UNL A   1      24.569  41.011  48.946  0.00  0.00    +0.000 A 
ATOM     59  F   UNL A   1      24.582  41.426  47.671  0.00  0.00    +0.000 F 
ENDBRANCH  15  49
BRANCH   1  63
ATOM     60  C   UNL A   1      22.937  32.601  44.815  0.00  0.00    +0.000 A 
ATOM     61  C   UNL A   1      23.908  32.355  45.795  0.00  0.00    +0.000 A 
ATOM     62  C   UNL A   1      24.947  33.269  45.993  0.00  0.00    +0.000 A 
ATOM     63  C   UNL A   1      25.021  34.431  45.211  0.00  0.00    +0.000 A 
ATOM     64  C   UNL A   1      24.087  34.638  44.188  0.00  0.00    +0.000 A 
ATOM     65  C   UNL A   1      23.047  33.727  43.991  0.00  0.00    +0.000 A 
BRANCH  60  67
ATOM     66  N   UNL A   1      20.519  32.356  44.744  0.00  0.00    +0.000 N 
ATOM     67  C   UNL A   1      21.750  31.727  44.626  0.00  0.00    +0.000 C 
ATOM     68  O   UNL A   1      21.932  30.552  44.323  0.00  0.00    +0.000 OA
ATOM     69  H   UNL A   1      20.477  33.351  44.942  0.00  0.00    +0.000 HD
BRANCH  66  70
ATOM     70  C   UNL A   1      19.255  31.675  44.487  0.00  0.00    +0.000 C 
BRANCH  70  71
ATOM     71  C   UNL A   1      18.886  31.715  43.009  0.00  0.00    +0.000 C 
BRANCH  71  72
ATOM     72  C   UNL A   1      17.761  32.720  42.750  0.00  0.00    +0.000 C 
BRANCH  72  73
ATOM     73  C   UNL A   1      16.708  32.680  43.858  0.00  0.00    +0.000 C 
BRANCH  73  74
ATOM     74  C   UNL A   1      15.451  31.919  43.425  0.00  0.00    +0.000 C 
BRANCH  74  75
ATOM     75  C   UNL A   1      15.808  30.782  42.467  0.00  0.00    +0.000 C 
BRANCH  75  78
ATOM     76  O   UNL A   1      16.927  28.288  43.244  0.00  0.00    +0.000 OA
ATOM     77  C   UNL A   1      15.709  28.398  43.136  0.00  0.00    +0.000 C 
ATOM     78  N   UNL A   1      15.080  29.563  42.757  0.00  0.00    +0.000 N 
ATOM     79  H   UNL A   1      14.071  29.599  42.771  0.00  0.00    +0.000 HD
BRANCH  77  80
ATOM     80  C   UNL A   1      14.752  27.241  43.428  0.00  0.00    +0.000 C 
BRANCH  80  81
ATOM     81  C   UNL A   1      14.830  26.116  42.426  0.00  0.00    +0.000 A 
ATOM     82  C   UNL A   1      14.668  26.436  41.022  0.00  0.00    +0.000 A 
ATOM     83  C   UNL A   1      14.613  25.458  40.108  0.00  0.00    +0.000 A 
ATOM     84  N   UNL A   1      14.738  24.130  40.466  0.00  0.00    +0.000 N 
ATOM     85  C   UNL A   1      14.915  23.728  41.777  0.00  0.00    +0.000 A 
ATOM     86  O   UNL A   1      15.056  22.563  42.127  0.00  0.00    +0.000 OA
ATOM     87  C   UNL A   1      14.948  24.825  42.790  0.00  0.00    +0.000 A 
BRANCH  84  88
ATOM     88  C   UNL A   1      14.587  23.081  39.496  0.00  0.00    +0.000 C 
ATOM     89  F   UNL A   1      13.811  23.517  38.467  0.00  0.00    +0.000 F 
ATOM     90  F   UNL A   1      15.780  22.727  38.951  0.00  0.00    +0.000 F 
ENDBRANCH  84  88
ENDBRANCH  80  81
ENDBRANCH  77  80
ENDBRANCH  75  78
ENDBRANCH  74  75
ENDBRANCH  73  74
ENDBRANCH  72  73
ENDBRANCH  71  72
ENDBRANCH  70  71
ENDBRANCH  66  70
ENDBRANCH  60  67
ENDBRANCH   1  63
TORSDOF 15
ENDMDL
MODEL 3
REMARK VINA RESULT:     -11.3     40.363     47.320
REMARK  Name = 
REMARK  15 active torsions:
REMARK  status: ('A' for Active; 'I' for Inactive)
REMARK    1  A    between atoms: C_2  and  C_3
REMARK    2  A    between atoms: C_3  and  C_4
REMARK    3  A    between atoms: N_7  and  C_8
REMARK    4  A    between atoms: N_14  and  C_15
REMARK    5  A    between atoms: C_15  and  C_16
REMARK    6  A    between atoms: C_16  and  C_17
REMARK    7  A    between atoms: C_17  and  C_18
REMARK    8  A    between atoms: C_18  and  C_19
REMARK    9  A    between atoms: C_19  and  C_20
REMARK   10  A    between atoms: C_20  and  N_21
REMARK   11  A    between atoms: C_22  and  C_24
REMARK   12  A    between atoms: C_27  and  C_28
REMARK   13  A    between atoms: C_32  and  C_33
REMARK   14  A    between atoms: C_49  and  C_50
REMARK   15  A    between atoms: C_64  and  C_65
REMARK                            x       y       z     vdW  Elec       q    Type
REMARK                         _______ _______ _______ _____ _____    ______ ____
ROOT
ATOM      1  C   UNL A   1      25.748  35.203  45.435  0.00  0.00    +0.000 C 
ATOM      2  C   UNL A   1      27.096  35.194  44.793  0.00  0.00    +0.000 C 
ATOM      3  N   UNL A   1      28.071  36.054  44.927  0.00  0.00    +0.000 NA
ATOM      4  C   UNL A   1      29.092  35.587  44.119  0.00  0.00    +0.000 C 
ATOM      5  C   UNL A   1      30.298  36.150  43.889  0.00  0.00    +0.000 C 
ATOM      6  C   UNL A   1      30.747  37.377  44.484  0.00  0.00    +0.000 A 
ATOM      7  C   UNL A   1      31.945  38.036  44.270  0.00  0.00    +0.000 A 
ATOM      8  C   UNL A   1      31.986  39.153  45.111  0.00  0.00    +0.000 A 
ATOM      9  C   UNL A   1      30.795  39.218  45.813  0.00  0.00    +0.000 A 
ATOM     10  N   UNL A   1      30.032  38.121  45.418  0.00  0.00    +0.000 N 
ATOM     11  C   UNL A   1      30.396  40.201  46.781  0.00  0.00    +0.000 C 
ATOM     12  C   UNL A   1      29.198  40.206  47.408  0.00  0.00    +0.000 C 
ATOM     13  N   UNL A   1      28.151  39.316  47.251  0.00  0.00    +0.000 NA
ATOM     14  C   UNL A   1      27.215  39.724  48.071  0.00  0.00    +0.000 C 
ATOM     15  C   UNL A   1      25.861  39.147  48.304  0.00  0.00    +0.000 C 
ATOM     16  C   UNL A   1      25.493  38.033  47.645  0.00  0.00    +0.000 A 
ATOM     17  C   UNL A   1      24.188  37.392  47.771  0.00  0.00    +0.000 A 
ATOM     18  C   UNL A   1      24.161  36.299  46.994  0.00  0.00    +0.000 A 
ATOM     19  C   UNL A   1      25.442  36.179  46.305  0.00  0.00    +0.000 A 
ATOM     20  N   UNL A   1      26.180  37.251  46.749  0.00  0.00    +0.000 N 
ATOM     21  C   UNL A   1      27.565  40.921  48.846  0.00  0.00    +0.000 C 
ATOM     22  C   UNL A   1      28.785  41.182  48.392  0.00  0.00    +0.000 C 
ATOM     23  C   UNL A   1      28.633  34.354  43.519  0.00  0.00    +0.000 C 
ATOM     24  C   UNL A   1      27.390  34.077  43.886  0.00  0.00    +0.000 C 
ATOM     25  H   UNL A   1      29.098  37.893  45.767  0.00  0.00    +0.000 HD
ATOM     26  H   UNL A   1      27.132  37.457  46.430  0.00  0.00    +0.000 HD
ENDROOT
BRANCH   5  27
ATOM     27  C   UNL A   1      31.211  35.439  42.942  0.00  0.00    +0.000 A 
ATOM     28  C   UNL A   1      31.975  34.343  43.365  0.00  0.00    +0.000 A 
ATOM     29  F   UNL A   1      31.914  33.930  44.639  0.00  0.00    +0.000 F 
ATOM     30  C   UNL A   1      32.822  33.681  42.482  0.00  0.00    +0.000 A 
ATOM     31  F   UNL A   1      33.568  32.653  42.912  0.00  0.00    +0.000 F 
ATOM     32  C   UNL A   1      32.910  34.092  41.159  0.00  0.00    +0.000 A 
ATOM     33  F   UNL A   1      33.739  33.463  40.315  0.00  0.00    +0.000 F 
ATOM     34  C   UNL A   1      32.155  35.170  40.720  0.00  0.00    +0.000 A 
ATOM     35  F   UNL A   1      32.246  35.573  39.444  0.00  0.00    +0.000 F 
ATOM     36  C   UNL A   1      31.315  35.843  41.604  0.00  0.00    +0.000 A 
ATOM     37  F   UNL A   1      30.620  36.901  41.163  0.00  0.00    +0.000 F 
ENDBRANCH   5  27
BRANCH  11  38
ATOM     38  C   UNL A   1      31.351  41.300  47.133  0.00  0.00    +0.000 A 
ATOM     39  C   UNL A   1      31.170  42.600  46.640  0.00  0.00    +0.000 A 
ATOM     40  F   UNL A   1      30.125  42.878  45.846  0.00  0.00    +0.000 F 
ATOM     41  C   UNL A   1      32.074  43.614  46.947  0.00  0.00    +0.000 A 
ATOM     42  F   UNL A   1      31.900  44.841  46.440  0.00  0.00    +0.000 F 
ATOM     43  C   UNL A   1      33.166  43.353  47.766  0.00  0.00    +0.000 A 
ATOM     44  F   UNL A   1      34.041  44.329  48.049  0.00  0.00    +0.000 F 
ATOM     45  C   UNL A   1      33.352  42.077  48.277  0.00  0.00    +0.000 A 
ATOM     46  F   UNL A   1      34.406  41.821  49.065  0.00  0.00    +0.000 F 
ATOM     47  C   UNL A   1      32.454  41.059  47.964  0.00  0.00    +0.000 A 
ATOM     48  F   UNL A   1      32.667  39.829  48.455  0.00  0.00    +0.000 F 
ENDBRANCH  11  38
BRANCH  15  49
ATOM     49  C   UNL A   1      24.904  39.779  49.239  0.00  0.00    +0.000 A 
ATOM     50  C   UNL A   1      24.818  39.365  50.573  0.00  0.00    +0.000 A 
ATOM     51  F   UNL A   1      25.674  38.449  51.048  0.00  0.00    +0.000 F 
ATOM     52  C   UNL A   1      23.845  39.891  51.422  0.00  0.00    +0.000 A 
ATOM     53  F   UNL A   1      23.768  39.469  52.691  0.00  0.00    +0.000 F 
ATOM     54  C   UNL A   1      22.953  40.841  50.949  0.00  0.00    +0.000 A 
ATOM     55  F   UNL A   1      22.010  41.338  51.763  0.00  0.00    +0.000 F 
ATOM     56  C   UNL A   1      23.039  41.280  49.635  0.00  0.00    +0.000 A 
ATOM     57  F   UNL A   1      22.188  42.209  49.178  0.00  0.00    +0.000 F 
ATOM     58  C   UNL A   1      24.010  40.755  48.786  0.00  0.00    +0.000 A 
ATOM     59  F   UNL A   1      24.080  41.179  47.516  0.00  0.00    +0.000 F 
ENDBRANCH  15  49
BRANCH   1  63
ATOM     60  C   UNL A   1      22.767  32.230  44.685  0.00  0.00    +0.000 A 
ATOM     61  C   UNL A   1      23.867  31.927  45.498  0.00  0.00    +0.000 A 
ATOM     62  C   UNL A   1      24.862  32.884  45.712  0.00  0.00    +0.000 A 
ATOM     63  C   UNL A   1      24.763  34.148  45.112  0.00  0.00    +0.000 A 
ATOM     64  C   UNL A   1      23.697  34.423  44.246  0.00  0.00    +0.000 A 
ATOM     65  C   UNL A   1      22.700  33.467  44.034  0.00  0.00    +0.000 A 
BRANCH  60  67
ATOM     66  N   UNL A   1      20.417  31.890  44.160  0.00  0.00    +0.000 N 
ATOM     67  C   UNL A   1      21.624  31.297  44.503  0.00  0.00    +0.000 C 
ATOM     68  O   UNL A   1      21.832  30.092  44.602  0.00  0.00    +0.000 OA
ATOM     69  H   UNL A   1      20.363  32.898  44.045  0.00  0.00    +0.000 HD
BRANCH  66  70
ATOM     70  C   UNL A   1      19.220  31.120  43.841  0.00  0.00    +0.000 C 
BRANCH  70  71
ATOM     71  C   UNL A   1      18.420  31.767  42.716  0.00  0.00    +0.000 C 
BRANCH  71  72
ATOM     72  C   UNL A   1      16.993  31.215  42.670  0.00  0.00    +0.000 C 
BRANCH  72  73
ATOM     73  C   UNL A   1      16.013  32.243  42.101  0.00  0.00    +0.000 C 
BRANCH  73  74
ATOM     74  C   UNL A   1      15.190  32.919  43.202  0.00  0.00    +0.000 C 
BRANCH  74  75
ATOM     75  C   UNL A   1      15.544  34.402  43.311  0.00  0.00    +0.000 C 
BRANCH  75  78
ATOM     76  O   UNL A   1      16.811  34.801  45.824  0.00  0.00    +0.000 OA
ATOM     77  C   UNL A   1      17.486  34.796  44.799  0.00  0.00    +0.000 C 
ATOM     78  N   UNL A   1      16.958  34.620  43.539  0.00  0.00    +0.000 N 
ATOM     79  H   UNL A   1      17.588  34.546  42.752  0.00  0.00    +0.000 HD
BRANCH  77  80
ATOM     80  C   UNL A   1      19.006  34.975  44.816  0.00  0.00    +0.000 C 
BRANCH  80  81
ATOM     81  C   UNL A   1      19.600  35.014  46.203  0.00  0.00    +0.000 A 
ATOM     82  C   UNL A   1      19.908  36.307  46.781  0.00  0.00    +0.000 A 
ATOM     83  C   UNL A   1      20.544  36.386  47.958  0.00  0.00    +0.000 A 
ATOM     84  N   UNL A   1      20.894  35.254  48.665  0.00  0.00    +0.000 N 
ATOM     85  C   UNL A   1      20.625  33.978  48.205  0.00  0.00    +0.000 A 
ATOM     86  O   UNL A   1      20.897  32.953  48.817  0.00  0.00    +0.000 OA
ATOM     87  C   UNL A   1      19.940  33.901  46.879  0.00  0.00    +0.000 A 
BRANCH  84  88
ATOM     88  C   UNL A   1      21.654  35.341  49.880  0.00  0.00    +0.000 C 
ATOM     89  F   UNL A   1      21.946  36.643  50.145  0.00  0.00    +0.000 F 
ATOM     90  F   UNL A   1      20.949  34.884  50.948  0.00  0.00    +0.000 F 
ENDBRANCH  84  88
ENDBRANCH  80  81
ENDBRANCH  77  80
ENDBRANCH  75  78
ENDBRANCH  74  75
ENDBRANCH  73  74
ENDBRANCH  72  73
ENDBRANCH  71  72
ENDBRANCH  70  71
ENDBRANCH  66  70
ENDBRANCH  60  67
ENDBRANCH   1  63
TORSDOF 15
ENDMDL
MODEL 4
REMARK VINA RESULT:     -11.2     40.393     47.344
REMARK  Name = 
REMARK  15 active torsions:
REMARK  status: ('A' for Active; 'I' for Inactive)
REMARK    1  A    between atoms: C_2  and  C_3
REMARK    2  A    between atoms: C_3  and  C_4
REMARK    3  A    between atoms: N_7  and  C_8
REMARK    4  A    between atoms: N_14  and  C_15
REMARK    5  A    between atoms: C_15  and  C_16
REMARK    6  A    between atoms: C_16  and  C_17
REMARK    7  A    between atoms: C_17  and  C_18
REMARK    8  A    between atoms: C_18  and  C_19
REMARK    9  A    between atoms: C_19  and  C_20
REMARK   10  A    between atoms: C_20  and  N_21
REMARK   11  A    between atoms: C_22  and  C_24
REMARK   12  A    between atoms: C_27  and  C_28
REMARK   13  A    between atoms: C_32  and  C_33
REMARK   14  A    between atoms: C_49  and  C_50
REMARK   15  A    between atoms: C_64  and  C_65
REMARK                            x       y       z     vdW  Elec       q    Type
REMARK                         _______ _______ _______ _____ _____    ______ ____
ROOT
ATOM      1  C   UNL A   1      25.955  35.047  45.528  0.00  0.00    +0.000 C 
ATOM      2  C   UNL A   1      27.285  35.071  44.851  0.00  0.00    +0.000 C 
ATOM      3  N   UNL A   1      28.237  35.960  44.950  0.00  0.00    +0.000 NA
ATOM      4  C   UNL A   1      29.250  35.516  44.119  0.00  0.00    +0.000 C 
ATOM      5  C   UNL A   1      30.432  36.112  43.852  0.00  0.00    +0.000 C 
ATOM      6  C   UNL A   1      30.860  37.357  44.424  0.00  0.00    +0.000 A 
ATOM      7  C   UNL A   1      32.032  38.049  44.172  0.00  0.00    +0.000 A 
ATOM      8  C   UNL A   1      32.062  39.175  45.002  0.00  0.00    +0.000 A 
ATOM      9  C   UNL A   1      30.888  39.212  45.734  0.00  0.00    +0.000 A 
ATOM     10  N   UNL A   1      30.149  38.089  45.370  0.00  0.00    +0.000 N 
ATOM     11  C   UNL A   1      30.487  40.192  46.705  0.00  0.00    +0.000 C 
ATOM     12  C   UNL A   1      29.306  40.168  47.363  0.00  0.00    +0.000 C 
ATOM     13  N   UNL A   1      28.282  39.245  47.243  0.00  0.00    +0.000 NA
ATOM     14  C   UNL A   1      27.356  39.634  48.084  0.00  0.00    +0.000 C 
ATOM     15  C   UNL A   1      26.027  39.019  48.358  0.00  0.00    +0.000 C 
ATOM     16  C   UNL A   1      25.675  37.889  47.720  0.00  0.00    +0.000 A 
ATOM     17  C   UNL A   1      24.393  37.211  47.886  0.00  0.00    +0.000 A 
ATOM     18  C   UNL A   1      24.377  36.110  47.120  0.00  0.00    +0.000 A 
ATOM     19  C   UNL A   1      25.644  36.021  46.398  0.00  0.00    +0.000 A 
ATOM     20  N   UNL A   1      26.361  37.119  46.812  0.00  0.00    +0.000 N 
ATOM     21  C   UNL A   1      27.691  40.848  48.838  0.00  0.00    +0.000 C 
ATOM     22  C   UNL A   1      28.890  41.141  48.350  0.00  0.00    +0.000 C 
ATOM     23  C   UNL A   1      28.811  34.264  43.543  0.00  0.00    +0.000 C 
ATOM     24  C   UNL A   1      27.587  33.955  43.946  0.00  0.00    +0.000 C 
ATOM     25  H   UNL A   1      29.231  37.837  45.746  0.00  0.00    +0.000 HD
ATOM     26  H   UNL A   1      27.297  37.349  46.465  0.00  0.00    +0.000 HD
ENDROOT
BRANCH   5  27
ATOM     27  C   UNL A   1      31.340  35.419  42.887  0.00  0.00    +0.000 A 
ATOM     28  C   UNL A   1      31.375  35.791  41.536  0.00  0.00    +0.000 A 
ATOM     29  F   UNL A   1      30.570  36.764  41.084  0.00  0.00    +0.000 F 
ATOM     30  C   UNL A   1      32.222  35.147  40.640  0.00  0.00    +0.000 A 
ATOM     31  F   UNL A   1      32.220  35.496  39.346  0.00  0.00    +0.000 F 
ATOM     32  C   UNL A   1      33.060  34.132  41.081  0.00  0.00    +0.000 A 
ATOM     33  F   UNL A   1      33.864  33.502  40.213  0.00  0.00    +0.000 F 
ATOM     34  C   UNL A   1      33.047  33.756  42.416  0.00  0.00    +0.000 A 
ATOM     35  F   UNL A   1      33.849  32.769  42.840  0.00  0.00    +0.000 F 
ATOM     36  C   UNL A   1      32.191  34.390  43.314  0.00  0.00    +0.000 A 
ATOM     37  F   UNL A   1      32.173  33.987  44.592  0.00  0.00    +0.000 F 
ENDBRANCH   5  27
BRANCH  11  38
ATOM     38  C   UNL A   1      31.417  41.322  47.020  0.00  0.00    +0.000 A 
ATOM     39  C   UNL A   1      32.573  41.115  47.786  0.00  0.00    +0.000 A 
ATOM     40  F   UNL A   1      32.865  39.888  48.244  0.00  0.00    +0.000 F 
ATOM     41  C   UNL A   1      33.423  42.173  48.100  0.00  0.00    +0.000 A 
ATOM     42  F   UNL A   1      34.505  41.958  48.859  0.00  0.00    +0.000 F 
ATOM     43  C   UNL A   1      33.144  43.454  47.641  0.00  0.00    +0.000 A 
ATOM     44  F   UNL A   1      33.958  44.472  47.955  0.00  0.00    +0.000 F 
ATOM     45  C   UNL A   1      32.014  43.675  46.867  0.00  0.00    +0.000 A 
ATOM     46  F   UNL A   1      31.740  44.911  46.424  0.00  0.00    +0.000 F 
ATOM     47  C   UNL A   1      31.158  42.621  46.559  0.00  0.00    +0.000 A 
ATOM     48  F   UNL A   1      30.061  42.865  45.825  0.00  0.00    +0.000 F 
ENDBRANCH  11  38
BRANCH  15  49
ATOM     49  C   UNL A   1      25.077  39.632  49.313  0.00  0.00    +0.000 A 
ATOM     50  C   UNL A   1      24.159  40.602  48.895  0.00  0.00    +0.000 A 
ATOM     51  F   UNL A   1      24.063  40.921  47.597  0.00  0.00    +0.000 F 
ATOM     52  C   UNL A   1      23.339  41.252  49.817  0.00  0.00    +0.000 A 
ATOM     53  F   UNL A   1      22.478  42.191  49.400  0.00  0.00    +0.000 F 
ATOM     54  C   UNL A   1      23.423  40.935  51.164  0.00  0.00    +0.000 A 
ATOM     55  F   UNL A   1      22.641  41.568  52.052  0.00  0.00    +0.000 F 
ATOM     56  C   UNL A   1      24.312  39.959  51.593  0.00  0.00    +0.000 A 
ATOM     57  F   UNL A   1      24.386  39.638  52.892  0.00  0.00    +0.000 F 
ATOM     58  C   UNL A   1      25.132  39.310  50.673  0.00  0.00    +0.000 A 
ATOM     59  F   UNL A   1      25.993  38.374  51.098  0.00  0.00    +0.000 F 
ENDBRANCH  15  49
BRANCH   1  63
ATOM     60  C   UNL A   1      23.032  31.995  44.869  0.00  0.00    +0.000 A 
ATOM     61  C   UNL A   1      24.091  31.767  45.757  0.00  0.00    +0.000 A 
ATOM     62  C   UNL A   1      25.069  32.748  45.944  0.00  0.00    +0.000 A 
ATOM     63  C   UNL A   1      24.993  33.960  45.241  0.00  0.00    +0.000 A 
ATOM     64  C   UNL A   1      23.970  34.155  44.305  0.00  0.00    +0.000 A 
ATOM     65  C   UNL A   1      22.991  33.176  44.119  0.00  0.00    +0.000 A 
BRANCH  60  67
ATOM     66  N   UNL A   1      20.635  31.598  44.761  0.00  0.00    +0.000 N 
ATOM     67  C   UNL A   1      21.905  31.040  44.705  0.00  0.00    +0.000 C 
ATOM     68  O   UNL A   1      22.165  29.864  44.472  0.00  0.00    +0.000 OA
ATOM     69  H   UNL A   1      20.528  32.598  44.902  0.00  0.00    +0.000 HD
BRANCH  66  70
ATOM     70  C   UNL A   1      19.422  30.827  44.517  0.00  0.00    +0.000 C 
BRANCH  70  71
ATOM     71  C   UNL A   1      18.255  31.727  44.125  0.00  0.00    +0.000 C 
BRANCH  71  72
ATOM     72  C   UNL A   1      16.916  31.021  44.353  0.00  0.00    +0.000 C 
BRANCH  72  73
ATOM     73  C   UNL A   1      15.785  31.702  43.579  0.00  0.00    +0.000 C 
BRANCH  73  74
ATOM     74  C   UNL A   1      15.289  32.966  44.286  0.00  0.00    +0.000 C 
BRANCH  74  75
ATOM     75  C   UNL A   1      15.559  34.206  43.434  0.00  0.00    +0.000 C 
BRANCH  75  78
ATOM     76  O   UNL A   1      15.793  35.436  45.985  0.00  0.00    +0.000 OA
ATOM     77  C   UNL A   1      16.714  35.533  45.178  0.00  0.00    +0.000 C 
ATOM     78  N   UNL A   1      16.684  34.980  43.918  0.00  0.00    +0.000 N 
ATOM     79  H   UNL A   1      17.512  35.033  43.342  0.00  0.00    +0.000 HD
BRANCH  77  80
ATOM     80  C   UNL A   1      18.010  36.280  45.499  0.00  0.00    +0.000 C 
BRANCH  80  81
ATOM     81  C   UNL A   1      18.807  35.665  46.624  0.00  0.00    +0.000 A 
ATOM     82  C   UNL A   1      19.263  36.530  47.694  0.00  0.00    +0.000 A 
ATOM     83  C   UNL A   1      20.071  36.053  48.650  0.00  0.00    +0.000 A 
ATOM     84  N   UNL A   1      20.465  34.729  48.666  0.00  0.00    +0.000 N 
ATOM     85  C   UNL A   1      20.065  33.824  47.700  0.00  0.00    +0.000 A 
ATOM     86  O   UNL A   1      20.373  32.639  47.697  0.00  0.00    +0.000 OA
ATOM     87  C   UNL A   1      19.187  34.373  46.624  0.00  0.00    +0.000 A 
BRANCH  84  88
ATOM     88  C   UNL A   1      21.402  34.244  49.640  0.00  0.00    +0.000 C 
ATOM     89  F   UNL A   1      22.600  34.868  49.473  0.00  0.00    +0.000 F 
ATOM     90  F   UNL A   1      21.000  34.525  50.907  0.00  0.00    +0.000 F 
ENDBRANCH  84  88
ENDBRANCH  80  81
ENDBRANCH  77  80
ENDBRANCH  75  78
ENDBRANCH  74  75
ENDBRANCH  73  74
ENDBRANCH  72  73
ENDBRANCH  71  72
ENDBRANCH  70  71
ENDBRANCH  66  70
ENDBRANCH  60  67
ENDBRANCH   1  63
TORSDOF 15
ENDMDL
MODEL 5
REMARK VINA RESULT:     -11.2     39.953     46.398
REMARK  Name = 
REMARK  15 active torsions:
REMARK  status: ('A' for Active; 'I' for Inactive)
REMARK    1  A    between atoms: C_2  and  C_3
REMARK    2  A    between atoms: C_3  and  C_4
REMARK    3  A    between atoms: N_7  and  C_8
REMARK    4  A    between atoms: N_14  and  C_15
REMARK    5  A    between atoms: C_15  and  C_16
REMARK    6  A    between atoms: C_16  and  C_17
REMARK    7  A    between atoms: C_17  and  C_18
REMARK    8  A    between atoms: C_18  and  C_19
REMARK    9  A    between atoms: C_19  and  C_20
REMARK   10  A    between atoms: C_20  and  N_21
REMARK   11  A    between atoms: C_22  and  C_24
REMARK   12  A    between atoms: C_27  and  C_28
REMARK   13  A    between atoms: C_32  and  C_33
REMARK   14  A    between atoms: C_49  and  C_50
REMARK   15  A    between atoms: C_64  and  C_65
REMARK                            x       y       z     vdW  Elec       q    Type
REMARK                         _______ _______ _______ _____ _____    ______ ____
ROOT
ATOM      1  C   UNL A   1      25.863  35.387  45.368  0.00  0.00    +0.000 C 
ATOM      2  C   UNL A   1      27.201  35.356  44.704  0.00  0.00    +0.000 C 
ATOM      3  N   UNL A   1      28.198  36.189  44.836  0.00  0.00    +0.000 NA
ATOM      4  C   UNL A   1      29.194  35.712  44.004  0.00  0.00    +0.000 C 
ATOM      5  C   UNL A   1      30.409  36.251  43.763  0.00  0.00    +0.000 C 
ATOM      6  C   UNL A   1      30.899  37.455  44.373  0.00  0.00    +0.000 A 
ATOM      7  C   UNL A   1      32.109  38.089  44.151  0.00  0.00    +0.000 A 
ATOM      8  C   UNL A   1      32.191  39.189  45.010  0.00  0.00    +0.000 A 
ATOM      9  C   UNL A   1      31.013  39.270  45.733  0.00  0.00    +0.000 A 
ATOM     10  N   UNL A   1      30.217  38.199  45.332  0.00  0.00    +0.000 N 
ATOM     11  C   UNL A   1      30.654  40.245  46.725  0.00  0.00    +0.000 C 
ATOM     12  C   UNL A   1      29.467  40.268  47.372  0.00  0.00    +0.000 C 
ATOM     13  N   UNL A   1      28.396  39.406  47.217  0.00  0.00    +0.000 NA
ATOM     14  C   UNL A   1      27.484  39.822  48.059  0.00  0.00    +0.000 C 
ATOM     15  C   UNL A   1      26.119  39.274  48.304  0.00  0.00    +0.000 C 
ATOM     16  C   UNL A   1      25.714  38.181  47.632  0.00  0.00    +0.000 A 
ATOM     17  C   UNL A   1      24.396  37.570  47.768  0.00  0.00    +0.000 A 
ATOM     18  C   UNL A   1      24.329  36.492  46.972  0.00  0.00    +0.000 A 
ATOM     19  C   UNL A   1      25.596  36.353  46.260  0.00  0.00    +0.000 A 
ATOM     20  N   UNL A   1      26.367  37.399  46.711  0.00  0.00    +0.000 N 
ATOM     21  C   UNL A   1      27.876  40.996  48.849  0.00  0.00    +0.000 C 
ATOM     22  C   UNL A   1      29.094  41.235  48.380  0.00  0.00    +0.000 C 
ATOM     23  C   UNL A   1      28.695  34.502  43.390  0.00  0.00    +0.000 C 
ATOM     24  C   UNL A   1      27.451  34.249  43.772  0.00  0.00    +0.000 C 
ATOM     25  H   UNL A   1      29.284  37.988  45.692  0.00  0.00    +0.000 HD
ATOM     26  H   UNL A   1      27.318  37.587  46.379  0.00  0.00    +0.000 HD
ENDROOT
BRANCH   5  27
ATOM     27  C   UNL A   1      31.290  35.535  42.789  0.00  0.00    +0.000 A 
ATOM     28  C   UNL A   1      32.077  34.448  43.193  0.00  0.00    +0.000 A 
ATOM     29  F   UNL A   1      32.068  34.048  44.474  0.00  0.00    +0.000 F 
ATOM     30  C   UNL A   1      32.893  33.782  42.285  0.00  0.00    +0.000 A 
ATOM     31  F   UNL A   1      33.662  32.763  42.696  0.00  0.00    +0.000 F 
ATOM     32  C   UNL A   1      32.926  34.179  40.955  0.00  0.00    +0.000 A 
ATOM     33  F   UNL A   1      33.725  33.545  40.086  0.00  0.00    +0.000 F 
ATOM     34  C   UNL A   1      32.147  35.247  40.534  0.00  0.00    +0.000 A 
ATOM     35  F   UNL A   1      32.185  35.637  39.252  0.00  0.00    +0.000 F 
ATOM     36  C   UNL A   1      31.338  35.924  41.443  0.00  0.00    +0.000 A 
ATOM     37  F   UNL A   1      30.619  36.973  41.019  0.00  0.00    +0.000 F 
ENDBRANCH   5  27
BRANCH  11  38
ATOM     38  C   UNL A   1      31.641  41.314  47.080  0.00  0.00    +0.000 A 
ATOM     39  C   UNL A   1      32.741  41.038  47.905  0.00  0.00    +0.000 A 
ATOM     40  F   UNL A   1      32.927  39.799  48.385  0.00  0.00    +0.000 F 
ATOM     41  C   UNL A   1      33.643  42.041  48.254  0.00  0.00    +0.000 A 
ATOM     42  F   UNL A   1      34.669  41.763  49.069  0.00  0.00    +0.000 F 
ATOM     43  C   UNL A   1      33.473  43.333  47.772  0.00  0.00    +0.000 A 
ATOM     44  F   UNL A   1      34.337  44.298  48.121  0.00  0.00    +0.000 F 
ATOM     45  C   UNL A   1      32.400  43.620  46.941  0.00  0.00    +0.000 A 
ATOM     46  F   UNL A   1      32.233  44.867  46.477  0.00  0.00    +0.000 F 
ATOM     47  C   UNL A   1      31.492  42.622  46.597  0.00  0.00    +0.000 A 
ATOM     48  F   UNL A   1      30.453  42.931  45.807  0.00  0.00    +0.000 F 
ENDBRANCH  11  38
BRANCH  15  49
ATOM     49  C   UNL A   1      25.195  39.912  49.266  0.00  0.00    +0.000 A 
ATOM     50  C   UNL A   1      24.324  40.931  48.862  0.00  0.00    +0.000 A 
ATOM     51  F   UNL A   1      24.249  41.277  47.570  0.00  0.00    +0.000 F 
ATOM     52  C   UNL A   1      23.530  41.601  49.792  0.00  0.00    +0.000 A 
ATOM     53  F   UNL A   1      22.715  42.585  49.389  0.00  0.00    +0.000 F 
ATOM     54  C   UNL A   1      23.592  41.255  51.134  0.00  0.00    +0.000 A 
ATOM     55  F   UNL A   1      22.836  41.908  52.030  0.00  0.00    +0.000 F 
ATOM     56  C   UNL A   1      24.433  40.232  51.548  0.00  0.00    +0.000 A 
ATOM     57  F   UNL A   1      24.485  39.884  52.841  0.00  0.00    +0.000 F 
ATOM     58  C   UNL A   1      25.228  39.563  50.620  0.00  0.00    +0.000 A 
ATOM     59  F   UNL A   1      26.043  38.581  51.031  0.00  0.00    +0.000 F 
ENDBRANCH  15  49
BRANCH   1  63
ATOM     60  C   UNL A   1      22.794  32.507  44.610  0.00  0.00    +0.000 A 
ATOM     61  C   UNL A   1      23.875  32.174  45.436  0.00  0.00    +0.000 A 
ATOM     62  C   UNL A   1      24.899  33.100  45.653  0.00  0.00    +0.000 A 
ATOM     63  C   UNL A   1      24.848  34.362  45.043  0.00  0.00    +0.000 A 
ATOM     64  C   UNL A   1      23.800  34.665  44.164  0.00  0.00    +0.000 A 
ATOM     65  C   UNL A   1      22.774  33.740  43.949  0.00  0.00    +0.000 A 
BRANCH  60  67
ATOM     66  N   UNL A   1      20.489  32.210  43.892  0.00  0.00    +0.000 N 
ATOM     67  C   UNL A   1      21.623  31.611  44.423  0.00  0.00    +0.000 C 
ATOM     68  O   UNL A   1      21.752  30.419  44.683  0.00  0.00    +0.000 OA
ATOM     69  H   UNL A   1      20.504  33.198  43.657  0.00  0.00    +0.000 HD
BRANCH  66  70
ATOM     70  C   UNL A   1      19.287  31.461  43.546  0.00  0.00    +0.000 C 
BRANCH  70  71
ATOM     71  C   UNL A   1      18.261  32.341  42.842  0.00  0.00    +0.000 C 
BRANCH  71  72
ATOM     72  C   UNL A   1      16.970  31.567  42.565  0.00  0.00    +0.000 C 
BRANCH  72  73
ATOM     73  C   UNL A   1      16.507  30.791  43.799  0.00  0.00    +0.000 C 
BRANCH  73  74
ATOM     74  C   UNL A   1      15.655  29.575  43.423  0.00  0.00    +0.000 C 
BRANCH  74  75
ATOM     75  C   UNL A   1      16.489  28.540  42.668  0.00  0.00    +0.000 C 
BRANCH  75  78
ATOM     76  O   UNL A   1      14.513  26.778  41.632  0.00  0.00    +0.000 OA
ATOM     77  C   UNL A   1      15.249  26.398  42.539  0.00  0.00    +0.000 C 
ATOM     78  N   UNL A   1      16.225  27.185  43.109  0.00  0.00    +0.000 N 
ATOM     79  H   UNL A   1      16.844  26.774  43.794  0.00  0.00    +0.000 HD
BRANCH  77  80
ATOM     80  C   UNL A   1      15.162  24.990  43.130  0.00  0.00    +0.000 C 
BRANCH  80  81
ATOM     81  C   UNL A   1      14.553  23.972  42.197  0.00  0.00    +0.000 A 
ATOM     82  C   UNL A   1      13.918  22.805  42.776  0.00  0.00    +0.000 A 
ATOM     83  C   UNL A   1      13.468  21.820  41.986  0.00  0.00    +0.000 A 
ATOM     84  N   UNL A   1      13.564  21.898  40.611  0.00  0.00    +0.000 N 
ATOM     85  C   UNL A   1      14.135  22.980  39.967  0.00  0.00    +0.000 A 
ATOM     86  O   UNL A   1      14.214  23.094  38.750  0.00  0.00    +0.000 OA
ATOM     87  C   UNL A   1      14.658  24.059  40.857  0.00  0.00    +0.000 A 
BRANCH  84  88
ATOM     88  C   UNL A   1      13.164  20.801  39.774  0.00  0.00    +0.000 C 
ATOM     89  F   UNL A   1      13.124  19.656  40.508  0.00  0.00    +0.000 F 
ATOM     90  F   UNL A   1      11.912  20.980  39.279  0.00  0.00    +0.000 F 
ENDBRANCH  84  88
ENDBRANCH  80  81
ENDBRANCH  77  80
ENDBRANCH  75  78
ENDBRANCH  74  75
ENDBRANCH  73  74
ENDBRANCH  72  73
ENDBRANCH  71  72
ENDBRANCH  70  71
ENDBRANCH  66  70
ENDBRANCH  60  67
ENDBRANCH   1  63
TORSDOF 15
ENDMDL
MODEL 6
REMARK VINA RESULT:     -11.2      1.758      2.636
REMARK  Name = 
REMARK  15 active torsions:
REMARK  status: ('A' for Active; 'I' for Inactive)
REMARK    1  A    between atoms: C_2  and  C_3
REMARK    2  A    between atoms: C_3  and  C_4
REMARK    3  A    between atoms: N_7  and  C_8
REMARK    4  A    between atoms: N_14  and  C_15
REMARK    5  A    between atoms: C_15  and  C_16
REMARK    6  A    between atoms: C_16  and  C_17
REMARK    7  A    between atoms: C_17  and  C_18
REMARK    8  A    between atoms: C_18  and  C_19
REMARK    9  A    between atoms: C_19  and  C_20
REMARK   10  A    between atoms: C_20  and  N_21
REMARK   11  A    between atoms: C_22  and  C_24
REMARK   12  A    between atoms: C_27  and  C_28
REMARK   13  A    between atoms: C_32  and  C_33
REMARK   14  A    between atoms: C_49  and  C_50
REMARK   15  A    between atoms: C_64  and  C_65
REMARK                            x       y       z     vdW  Elec       q    Type
REMARK                         _______ _______ _______ _____ _____    ______ ____
ROOT
ATOM      1  C   UNL A   1      53.501  18.702  10.590  0.00  0.00    +0.000 C 
ATOM      2  C   UNL A   1      54.759  17.898  10.555  0.00  0.00    +0.000 C 
ATOM      3  N   UNL A   1      55.774  17.934  11.376  0.00  0.00    +0.000 NA
ATOM      4  C   UNL A   1      56.673  16.999  10.897  0.00  0.00    +0.000 C 
ATOM      5  C   UNL A   1      57.896  16.691  11.381  0.00  0.00    +0.000 C 
ATOM      6  C   UNL A   1      58.487  17.302  12.539  0.00  0.00    +0.000 A 
ATOM      7  C   UNL A   1      59.743  17.073  13.073  0.00  0.00    +0.000 A 
ATOM      8  C   UNL A   1      59.869  17.835  14.238  0.00  0.00    +0.000 A 
ATOM      9  C   UNL A   1      58.713  18.578  14.404  0.00  0.00    +0.000 A 
ATOM     10  N   UNL A   1      57.865  18.247  13.349  0.00  0.00    +0.000 N 
ATOM     11  C   UNL A   1      58.405  19.504  15.458  0.00  0.00    +0.000 C 
ATOM     12  C   UNL A   1      57.255  20.211  15.535  0.00  0.00    +0.000 C 
ATOM     13  N   UNL A   1      56.188  20.199  14.655  0.00  0.00    +0.000 NA
ATOM     14  C   UNL A   1      55.310  21.035  15.153  0.00  0.00    +0.000 C 
ATOM     15  C   UNL A   1      53.979  21.425  14.608  0.00  0.00    +0.000 C 
ATOM     16  C   UNL A   1      53.534  20.855  13.474  0.00  0.00    +0.000 A 
ATOM     17  C   UNL A   1      52.262  21.174  12.834  0.00  0.00    +0.000 A 
ATOM     18  C   UNL A   1      52.122  20.415  11.736  0.00  0.00    +0.000 A 
ATOM     19  C   UNL A   1      53.305  19.572  11.593  0.00  0.00    +0.000 A 
ATOM     20  N   UNL A   1      54.098  19.895  12.670  0.00  0.00    +0.000 N 
ATOM     21  C   UNL A   1      55.722  21.670  16.411  0.00  0.00    +0.000 C 
ATOM     22  C   UNL A   1      56.925  21.140  16.593  0.00  0.00    +0.000 C 
ATOM     23  C   UNL A   1      56.075  16.390   9.729  0.00  0.00    +0.000 C 
ATOM     24  C   UNL A   1      54.895  16.930   9.460  0.00  0.00    +0.000 C 
ATOM     25  H   UNL A   1      56.929  18.631  13.200  0.00  0.00    +0.000 HD
ATOM     26  H   UNL A   1      55.018  19.480  12.842  0.00  0.00    +0.000 HD
ENDROOT
BRANCH   5  27
ATOM     27  C   UNL A   1      58.676  15.647  10.648  0.00  0.00    +0.000 A 
ATOM     28  C   UNL A   1      58.784  14.343  11.150  0.00  0.00    +0.000 A 
ATOM     29  F   UNL A   1      58.205  14.020  12.315  0.00  0.00    +0.000 F 
ATOM     30  C   UNL A   1      59.508  13.373  10.465  0.00  0.00    +0.000 A 
ATOM     31  F   UNL A   1      59.626  12.139  10.976  0.00  0.00    +0.000 F 
ATOM     32  C   UNL A   1      60.123  13.684   9.260  0.00  0.00    +0.000 A 
ATOM     33  F   UNL A   1      60.833  12.752   8.610  0.00  0.00    +0.000 F 
ATOM     34  C   UNL A   1      60.020  14.967   8.742  0.00  0.00    +0.000 A 
ATOM     35  F   UNL A   1      60.622  15.270   7.583  0.00  0.00    +0.000 F 
ATOM     36  C   UNL A   1      59.306  15.944   9.431  0.00  0.00    +0.000 A 
ATOM     37  F   UNL A   1      59.248  17.185   8.927  0.00  0.00    +0.000 F 
ENDBRANCH   5  27
BRANCH  11  38
ATOM     38  C   UNL A   1      59.408  19.718  16.549  0.00  0.00    +0.000 A 
ATOM     39  C   UNL A   1      59.486  18.844  17.642  0.00  0.00    +0.000 A 
ATOM     40  F   UNL A   1      58.659  17.790  17.720  0.00  0.00    +0.000 F 
ATOM     41  C   UNL A   1      60.403  19.061  18.668  0.00  0.00    +0.000 A 
ATOM     42  F   UNL A   1      60.438  18.230  19.719  0.00  0.00    +0.000 F 
ATOM     43  C   UNL A   1      61.269  20.145  18.614  0.00  0.00    +0.000 A 
ATOM     44  F   UNL A   1      62.141  20.357  19.611  0.00  0.00    +0.000 F 
ATOM     45  C   UNL A   1      61.219  21.011  17.532  0.00  0.00    +0.000 A 
ATOM     46  F   UNL A   1      62.052  22.060  17.478  0.00  0.00    +0.000 F 
ATOM     47  C   UNL A   1      60.297  20.802  16.509  0.00  0.00    +0.000 A 
ATOM     48  F   UNL A   1      60.256  21.666  15.483  0.00  0.00    +0.000 F 
ENDBRANCH  11  38
BRANCH  15  49
ATOM     49  C   UNL A   1      53.137  22.436  15.285  0.00  0.00    +0.000 A 
ATOM     50  C   UNL A   1      53.197  23.786  14.920  0.00  0.00    +0.000 A 
ATOM     51  F   UNL A   1      53.952  24.167  13.880  0.00  0.00    +0.000 F 
ATOM     52  C   UNL A   1      52.481  24.749  15.629  0.00  0.00    +0.000 A 
ATOM     53  F   UNL A   1      52.564  26.039  15.275  0.00  0.00    +0.000 F 
ATOM     54  C   UNL A   1      51.692  24.373  16.706  0.00  0.00    +0.000 A 
ATOM     55  F   UNL A   1      51.012  25.302  17.395  0.00  0.00    +0.000 F 
ATOM     56  C   UNL A   1      51.604  23.036  17.068  0.00  0.00    +0.000 A 
ATOM     57  F   UNL A   1      50.831  22.666  18.098  0.00  0.00    +0.000 F 
ATOM     58  C   UNL A   1      52.320  22.073  16.360  0.00  0.00    +0.000 A 
ATOM     59  F   UNL A   1      52.233  20.785  16.722  0.00  0.00    +0.000 F 
ENDBRANCH  15  49
BRANCH   1  63
ATOM     60  C   UNL A   1      50.708  18.071   7.413  0.00  0.00    +0.000 A 
ATOM     61  C   UNL A   1      51.632  19.122   7.332  0.00  0.00    +0.000 A 
ATOM     62  C   UNL A   1      52.518  19.353   8.387  0.00  0.00    +0.000 A 
ATOM     63  C   UNL A   1      52.484  18.538   9.528  0.00  0.00    +0.000 A 
ATOM     64  C   UNL A   1      51.514  17.533   9.632  0.00  0.00    +0.000 A 
ATOM     65  C   UNL A   1      50.629  17.299   8.577  0.00  0.00    +0.000 A 
BRANCH  60  67
ATOM     66  N   UNL A   1      48.653  17.027   6.638  0.00  0.00    +0.000 N 
ATOM     67  C   UNL A   1      49.812  17.705   6.285  0.00  0.00    +0.000 C 
ATOM     68  O   UNL A   1      50.114  18.073   5.155  0.00  0.00    +0.000 OA
ATOM     69  H   UNL A   1      48.466  16.819   7.614  0.00  0.00    +0.000 HD
BRANCH  66  70
ATOM     70  C   UNL A   1      47.614  16.683   5.674  0.00  0.00    +0.000 C 
BRANCH  70  71
ATOM     71  C   UNL A   1      46.573  17.791   5.552  0.00  0.00    +0.000 C 
BRANCH  71  72
ATOM     72  C   UNL A   1      45.493  17.420   4.533  0.00  0.00    +0.000 C 
BRANCH  72  73
ATOM     73  C   UNL A   1      45.068  18.631   3.702  0.00  0.00    +0.000 C 
BRANCH  73  74
ATOM     74  C   UNL A   1      43.946  18.284   2.718  0.00  0.00    +0.000 C 
BRANCH  74  75
ATOM     75  C   UNL A   1      42.685  19.091   3.024  0.00  0.00    +0.000 C 
BRANCH  75  78
ATOM     76  O   UNL A   1      40.444  18.743   1.311  0.00  0.00    +0.000 OA
ATOM     77  C   UNL A   1      41.184  19.710   1.152  0.00  0.00    +0.000 C 
ATOM     78  N   UNL A   1      42.296  19.953   1.926  0.00  0.00    +0.000 N 
ATOM     79  H   UNL A   1      42.809  20.813   1.788  0.00  0.00    +0.000 HD
BRANCH  77  80
ATOM     80  C   UNL A   1      40.937  20.763   0.071  0.00  0.00    +0.000 C 
BRANCH  80  81
ATOM     81  C   UNL A   1      39.494  21.189  -0.048  0.00  0.00    +0.000 A 
ATOM     82  C   UNL A   1      39.121  22.046  -1.156  0.00  0.00    +0.000 A 
ATOM     83  C   UNL A   1      37.880  22.544  -1.237  0.00  0.00    +0.000 A 
ATOM     84  N   UNL A   1      36.917  22.234  -0.297  0.00  0.00    +0.000 N 
ATOM     85  C   UNL A   1      37.172  21.410   0.783  0.00  0.00    +0.000 A 
ATOM     86  O   UNL A   1      36.337  21.094   1.621  0.00  0.00    +0.000 OA
ATOM     87  C   UNL A   1      38.566  20.883   0.879  0.00  0.00    +0.000 A 
BRANCH  84  88
ATOM     88  C   UNL A   1      35.616  22.841  -0.337  0.00  0.00    +0.000 C 
ATOM     89  F   UNL A   1      35.659  23.966  -1.102  0.00  0.00    +0.000 F 
ATOM     90  F   UNL A   1      34.698  22.023  -0.915  0.00  0.00    +0.000 F 
ENDBRANCH  84  88
ENDBRANCH  80  81
ENDBRANCH  77  80
ENDBRANCH  75  78
ENDBRANCH  74  75
ENDBRANCH  73  74
ENDBRANCH  72  73
ENDBRANCH  71  72
ENDBRANCH  70  71
ENDBRANCH  66  70
ENDBRANCH  60  67
ENDBRANCH   1  63
TORSDOF 15
ENDMDL
MODEL 7
REMARK VINA RESULT:     -11.0     46.239     51.708
REMARK  Name = 
REMARK  15 active torsions:
REMARK  status: ('A' for Active; 'I' for Inactive)
REMARK    1  A    between atoms: C_2  and  C_3
REMARK    2  A    between atoms: C_3  and  C_4
REMARK    3  A    between atoms: N_7  and  C_8
REMARK    4  A    between atoms: N_14  and  C_15
REMARK    5  A    between atoms: C_15  and  C_16
REMARK    6  A    between atoms: C_16  and  C_17
REMARK    7  A    between atoms: C_17  and  C_18
REMARK    8  A    between atoms: C_18  and  C_19
REMARK    9  A    between atoms: C_19  and  C_20
REMARK   10  A    between atoms: C_20  and  N_21
REMARK   11  A    between atoms: C_22  and  C_24
REMARK   12  A    between atoms: C_27  and  C_28
REMARK   13  A    between atoms: C_32  and  C_33
REMARK   14  A    between atoms: C_49  and  C_50
REMARK   15  A    between atoms: C_64  and  C_65
REMARK                            x       y       z     vdW  Elec       q    Type
REMARK                         _______ _______ _______ _____ _____    ______ ____
ROOT
ATOM      1  C   UNL A   1      14.121  54.199   5.202  0.00  0.00    +0.000 C 
ATOM      2  C   UNL A   1      13.720  52.764   5.288  0.00  0.00    +0.000 C 
ATOM      3  N   UNL A   1      14.032  51.778   4.489  0.00  0.00    +0.000 NA
ATOM      4  C   UNL A   1      13.404  50.662   5.012  0.00  0.00    +0.000 C 
ATOM      5  C   UNL A   1      13.392  49.404   4.520  0.00  0.00    +0.000 C 
ATOM      6  C   UNL A   1      14.075  48.994   3.325  0.00  0.00    +0.000 A 
ATOM      7  C   UNL A   1      14.080  47.741   2.737  0.00  0.00    +0.000 A 
ATOM      8  C   UNL A   1      14.932  47.781   1.630  0.00  0.00    +0.000 A 
ATOM      9  C   UNL A   1      15.420  49.069   1.497  0.00  0.00    +0.000 A 
ATOM     10  N   UNL A   1      14.884  49.815   2.545  0.00  0.00    +0.000 N 
ATOM     11  C   UNL A   1      16.322  49.571   0.498  0.00  0.00    +0.000 C 
ATOM     12  C   UNL A   1      16.733  50.857   0.424  0.00  0.00    +0.000 C 
ATOM     13  N   UNL A   1      16.386  51.911   1.250  0.00  0.00    +0.000 NA
ATOM     14  C   UNL A   1      17.039  52.949   0.791  0.00  0.00    +0.000 C 
ATOM     15  C   UNL A   1      17.027  54.354   1.288  0.00  0.00    +0.000 C 
ATOM     16  C   UNL A   1      16.298  54.667   2.374  0.00  0.00    +0.000 A 
ATOM     17  C   UNL A   1      16.189  56.009   2.937  0.00  0.00    +0.000 A 
ATOM     18  C   UNL A   1      15.401  55.965   4.022  0.00  0.00    +0.000 A 
ATOM     19  C   UNL A   1      14.941  54.593   4.215  0.00  0.00    +0.000 A 
ATOM     20  N   UNL A   1      15.521  53.882   3.191  0.00  0.00    +0.000 N 
ATOM     21  C   UNL A   1      17.881  52.669  -0.379  0.00  0.00    +0.000 C 
ATOM     22  C   UNL A   1      17.647  51.376  -0.569  0.00  0.00    +0.000 C 
ATOM     23  C   UNL A   1      12.715  51.082   6.212  0.00  0.00    +0.000 C 
ATOM     24  C   UNL A   1      12.859  52.384   6.416  0.00  0.00    +0.000 C 
ATOM     25  H   UNL A   1      15.064  50.806   2.719  0.00  0.00    +0.000 HD
ATOM     26  H   UNL A   1      15.373  52.880   3.040  0.00  0.00    +0.000 HD
ENDROOT
BRANCH   5  27
ATOM     27  C   UNL A   1      12.605  48.384   5.279  0.00  0.00    +0.000 A 
ATOM     28  C   UNL A   1      11.270  48.112   4.948  0.00  0.00    +0.000 A 
ATOM     29  F   UNL A   1      10.672  48.785   3.954  0.00  0.00    +0.000 F 
ATOM     30  C   UNL A   1      10.540  47.161   5.654  0.00  0.00    +0.000 A 
ATOM     31  F   UNL A   1       9.256  46.935   5.342  0.00  0.00    +0.000 F 
ATOM     32  C   UNL A   1      11.134  46.455   6.691  0.00  0.00    +0.000 A 
ATOM     33  F   UNL A   1      10.424  45.551   7.379  0.00  0.00    +0.000 F 
ATOM     34  C   UNL A   1      12.457  46.704   7.027  0.00  0.00    +0.000 A 
ATOM     35  F   UNL A   1      13.028  46.030   8.036  0.00  0.00    +0.000 F 
ATOM     36  C   UNL A   1      13.187  47.665   6.331  0.00  0.00    +0.000 A 
ATOM     37  F   UNL A   1      14.454  47.910   6.696  0.00  0.00    +0.000 F 
ENDBRANCH   5  27
BRANCH  11  38
ATOM     38  C   UNL A   1      16.848  48.629  -0.541  0.00  0.00    +0.000 A 
ATOM     39  C   UNL A   1      16.124  48.365  -1.711  0.00  0.00    +0.000 A 
ATOM     40  F   UNL A   1      14.942  48.965  -1.921  0.00  0.00    +0.000 F 
ATOM     41  C   UNL A   1      16.605  47.469  -2.664  0.00  0.00    +0.000 A 
ATOM     42  F   UNL A   1      15.881  47.207  -3.760  0.00  0.00    +0.000 F 
ATOM     43  C   UNL A   1      17.824  46.832  -2.472  0.00  0.00    +0.000 A 
ATOM     44  F   UNL A   1      18.277  45.960  -3.384  0.00  0.00    +0.000 F 
ATOM     45  C   UNL A   1      18.563  47.094  -1.327  0.00  0.00    +0.000 A 
ATOM     46  F   UNL A   1      19.739  46.478  -1.138  0.00  0.00    +0.000 F 
ATOM     47  C   UNL A   1      18.081  47.983  -0.370  0.00  0.00    +0.000 A 
ATOM     48  F   UNL A   1      18.806  48.204   0.737  0.00  0.00    +0.000 F 
ENDBRANCH  11  38
BRANCH  15  49
ATOM     49  C   UNL A   1      17.794  55.419   0.604  0.00  0.00    +0.000 A 
ATOM     50  C   UNL A   1      17.304  56.032  -0.554  0.00  0.00    +0.000 A 
ATOM     51  F   UNL A   1      16.080  55.726  -1.008  0.00  0.00    +0.000 F 
ATOM     52  C   UNL A   1      18.076  56.959  -1.253  0.00  0.00    +0.000 A 
ATOM     53  F   UNL A   1      17.596  57.522  -2.370  0.00  0.00    +0.000 F 
ATOM     54  C   UNL A   1      19.344  57.288  -0.797  0.00  0.00    +0.000 A 
ATOM     55  F   UNL A   1      20.091  58.172  -1.476  0.00  0.00    +0.000 F 
ATOM     56  C   UNL A   1      19.837  56.707   0.362  0.00  0.00    +0.000 A 
ATOM     57  F   UNL A   1      21.055  57.034   0.814  0.00  0.00    +0.000 F 
ATOM     58  C   UNL A   1      19.066  55.780   1.060  0.00  0.00    +0.000 A 
ATOM     59  F   UNL A   1      19.555  55.218   2.176  0.00  0.00    +0.000 F 
ENDBRANCH  15  49
BRANCH   1  63
ATOM     60  C   UNL A   1      12.781  57.188   7.952  0.00  0.00    +0.000 A 
ATOM     61  C   UNL A   1      13.952  56.467   8.220  0.00  0.00    +0.000 A 
ATOM     62  C   UNL A   1      14.370  55.463   7.342  0.00  0.00    +0.000 A 
ATOM     63  C   UNL A   1      13.617  55.173   6.195  0.00  0.00    +0.000 A 
ATOM     64  C   UNL A   1      12.413  55.851   5.967  0.00  0.00    +0.000 A 
ATOM     65  C   UNL A   1      11.996  56.857   6.842  0.00  0.00    +0.000 A 
BRANCH  60  67
ATOM     66  N   UNL A   1      11.350  58.056   9.716  0.00  0.00    +0.000 N 
ATOM     67  C   UNL A   1      12.340  58.337   8.785  0.00  0.00    +0.000 C 
ATOM     68  O   UNL A   1      12.912  59.414   8.645  0.00  0.00    +0.000 OA
ATOM     69  H   UNL A   1      10.981  57.113   9.792  0.00  0.00    +0.000 HD
BRANCH  66  70
ATOM     70  C   UNL A   1      10.873  59.036  10.684  0.00  0.00    +0.000 C 
BRANCH  70  71
ATOM     71  C   UNL A   1      10.508  58.382  12.012  0.00  0.00    +0.000 C 
BRANCH  71  72
ATOM     72  C   UNL A   1      10.627  56.859  11.925  0.00  0.00    +0.000 C 
BRANCH  72  73
ATOM     73  C   UNL A   1      10.343  56.196  13.274  0.00  0.00    +0.000 C 
BRANCH  73  74
ATOM     74  C   UNL A   1      11.617  56.032  14.109  0.00  0.00    +0.000 C 
BRANCH  74  75
ATOM     75  C   UNL A   1      12.161  54.608  13.995  0.00  0.00    +0.000 C 
BRANCH  75  78
ATOM     76  O   UNL A   1      11.933  53.513  11.382  0.00  0.00    +0.000 OA
ATOM     77  C   UNL A   1      13.013  53.956  11.761  0.00  0.00    +0.000 C 
ATOM     78  N   UNL A   1      13.219  54.495  13.011  0.00  0.00    +0.000 N 
ATOM     79  H   UNL A   1      14.115  54.914  13.220  0.00  0.00    +0.000 HD
BRANCH  77  80
ATOM     80  C   UNL A   1      14.255  53.966  10.868  0.00  0.00    +0.000 C 
BRANCH  80  81
ATOM     81  C   UNL A   1      14.681  52.596  10.399  0.00  0.00    +0.000 A 
ATOM     82  C   UNL A   1      14.780  51.535  11.382  0.00  0.00    +0.000 A 
ATOM     83  C   UNL A   1      15.266  50.336  11.035  0.00  0.00    +0.000 A 
ATOM     84  N   UNL A   1      15.654  50.064   9.738  0.00  0.00    +0.000 N 
ATOM     85  C   UNL A   1      15.578  51.004   8.728  0.00  0.00    +0.000 A 
ATOM     86  O   UNL A   1      15.888  50.791   7.562  0.00  0.00    +0.000 OA
ATOM     87  C   UNL A   1      15.060  52.346   9.132  0.00  0.00    +0.000 A 
BRANCH  84  88
ATOM     88  C   UNL A   1      16.258  48.808   9.390  0.00  0.00    +0.000 C 
ATOM     89  F   UNL A   1      17.611  48.908   9.489  0.00  0.00    +0.000 F 
ATOM     90  F   UNL A   1      15.885  47.819  10.244  0.00  0.00    +0.000 F 
ENDBRANCH  84  88
ENDBRANCH  80  81
ENDBRANCH  77  80
ENDBRANCH  75  78
ENDBRANCH  74  75
ENDBRANCH  73  74
ENDBRANCH  72  73
ENDBRANCH  71  72
ENDBRANCH  70  71
ENDBRANCH  66  70
ENDBRANCH  60  67
ENDBRANCH   1  63
TORSDOF 15
ENDMDL
MODEL 8
REMARK VINA RESULT:     -11.0     46.591     51.672
REMARK  Name = 
REMARK  15 active torsions:
REMARK  status: ('A' for Active; 'I' for Inactive)
REMARK    1  A    between atoms: C_2  and  C_3
REMARK    2  A    between atoms: C_3  and  C_4
REMARK    3  A    between atoms: N_7  and  C_8
REMARK    4  A    between atoms: N_14  and  C_15
REMARK    5  A    between atoms: C_15  and  C_16
REMARK    6  A    between atoms: C_16  and  C_17
REMARK    7  A    between atoms: C_17  and  C_18
REMARK    8  A    between atoms: C_18  and  C_19
REMARK    9  A    between atoms: C_19  and  C_20
REMARK   10  A    between atoms: C_20  and  N_21
REMARK   11  A    between atoms: C_22  and  C_24
REMARK   12  A    between atoms: C_27  and  C_28
REMARK   13  A    between atoms: C_32  and  C_33
REMARK   14  A    between atoms: C_49  and  C_50
REMARK   15  A    between atoms: C_64  and  C_65
REMARK                            x       y       z     vdW  Elec       q    Type
REMARK                         _______ _______ _______ _____ _____    ______ ____
ROOT
ATOM      1  C   UNL A   1      13.691  53.774   5.413  0.00  0.00    +0.000 C 
ATOM      2  C   UNL A   1      13.303  52.333   5.444  0.00  0.00    +0.000 C 
ATOM      3  N   UNL A   1      13.625  51.381   4.610  0.00  0.00    +0.000 NA
ATOM      4  C   UNL A   1      13.005  50.240   5.088  0.00  0.00    +0.000 C 
ATOM      5  C   UNL A   1      13.006  49.002   4.550  0.00  0.00    +0.000 C 
ATOM      6  C   UNL A   1      13.695  48.642   3.342  0.00  0.00    +0.000 A 
ATOM      7  C   UNL A   1      13.713  47.413   2.708  0.00  0.00    +0.000 A 
ATOM      8  C   UNL A   1      14.567  47.501   1.605  0.00  0.00    +0.000 A 
ATOM      9  C   UNL A   1      15.044  48.798   1.523  0.00  0.00    +0.000 A 
ATOM     10  N   UNL A   1      14.499  49.499   2.595  0.00  0.00    +0.000 N 
ATOM     11  C   UNL A   1      15.943  49.345   0.545  0.00  0.00    +0.000 C 
ATOM     12  C   UNL A   1      16.344  50.636   0.520  0.00  0.00    +0.000 C 
ATOM     13  N   UNL A   1      15.985  51.655   1.384  0.00  0.00    +0.000 NA
ATOM     14  C   UNL A   1      16.631  52.715   0.966  0.00  0.00    +0.000 C 
ATOM     15  C   UNL A   1      16.605  54.101   1.515  0.00  0.00    +0.000 C 
ATOM     16  C   UNL A   1      15.871  54.366   2.610  0.00  0.00    +0.000 A 
ATOM     17  C   UNL A   1      15.748  55.685   3.223  0.00  0.00    +0.000 A 
ATOM     18  C   UNL A   1      14.959  55.594   4.304  0.00  0.00    +0.000 A 
ATOM     19  C   UNL A   1      14.510  54.212   4.444  0.00  0.00    +0.000 A 
ATOM     20  N   UNL A   1      15.099  53.544   3.395  0.00  0.00    +0.000 N 
ATOM     21  C   UNL A   1      17.478  52.486  -0.211  0.00  0.00    +0.000 C 
ATOM     22  C   UNL A   1      17.256  51.200  -0.450  0.00  0.00    +0.000 C 
ATOM     23  C   UNL A   1      12.310  50.609   6.302  0.00  0.00    +0.000 C 
ATOM     24  C   UNL A   1      12.442  51.903   6.554  0.00  0.00    +0.000 C 
ATOM     25  H   UNL A   1      14.670  50.485   2.807  0.00  0.00    +0.000 HD
ATOM     26  H   UNL A   1      14.960  52.547   3.207  0.00  0.00    +0.000 HD
ENDROOT
BRANCH   5  27
ATOM     27  C   UNL A   1      12.226  47.947   5.268  0.00  0.00    +0.000 A 
ATOM     28  C   UNL A   1      12.782  47.253   6.352  0.00  0.00    +0.000 A 
ATOM     29  F   UNL A   1      14.037  47.512   6.746  0.00  0.00    +0.000 F 
ATOM     30  C   UNL A   1      12.054  46.275   7.020  0.00  0.00    +0.000 A 
ATOM     31  F   UNL A   1      12.612  45.600   8.036  0.00  0.00    +0.000 F 
ATOM     32  C   UNL A   1      10.754  45.983   6.629  0.00  0.00    +0.000 A 
ATOM     33  F   UNL A   1      10.061  45.028   7.264  0.00  0.00    +0.000 F 
ATOM     34  C   UNL A   1      10.184  46.665   5.564  0.00  0.00    +0.000 A 
ATOM     35  F   UNL A   1       8.933  46.377   5.179  0.00  0.00    +0.000 F 
ATOM     36  C   UNL A   1      10.914  47.637   4.884  0.00  0.00    +0.000 A 
ATOM     37  F   UNL A   1      10.353  48.260   3.839  0.00  0.00    +0.000 F 
ENDBRANCH   5  27
BRANCH  11  38
ATOM     38  C   UNL A   1      16.481  48.447  -0.527  0.00  0.00    +0.000 A 
ATOM     39  C   UNL A   1      17.788  47.946  -0.462  0.00  0.00    +0.000 A 
ATOM     40  F   UNL A   1      18.579  48.261   0.575  0.00  0.00    +0.000 F 
ATOM     41  C   UNL A   1      18.293  47.131  -1.473  0.00  0.00    +0.000 A 
ATOM     42  F   UNL A   1      19.556  46.689  -1.407  0.00  0.00    +0.000 F 
ATOM     43  C   UNL A   1      17.498  46.790  -2.559  0.00  0.00    +0.000 A 
ATOM     44  F   UNL A   1      17.992  46.016  -3.537  0.00  0.00    +0.000 F 
ATOM     45  C   UNL A   1      16.195  47.263  -2.632  0.00  0.00    +0.000 A 
ATOM     46  F   UNL A   1      15.426  46.937  -3.681  0.00  0.00    +0.000 F 
ATOM     47  C   UNL A   1      15.691  48.084  -1.627  0.00  0.00    +0.000 A 
ATOM     48  F   UNL A   1      14.434  48.543  -1.731  0.00  0.00    +0.000 F 
ENDBRANCH  11  38
BRANCH  15  49
ATOM     49  C   UNL A   1      17.365  55.197   0.874  0.00  0.00    +0.000 A 
ATOM     50  C   UNL A   1      16.870  55.851  -0.260  0.00  0.00    +0.000 A 
ATOM     51  F   UNL A   1      15.649  55.554  -0.726  0.00  0.00    +0.000 F 
ATOM     52  C   UNL A   1      17.635  56.810  -0.922  0.00  0.00    +0.000 A 
ATOM     53  F   UNL A   1      17.151  57.412  -2.016  0.00  0.00    +0.000 F 
ATOM     54  C   UNL A   1      18.901  57.131  -0.453  0.00  0.00    +0.000 A 
ATOM     55  F   UNL A   1      19.641  58.046  -1.096  0.00  0.00    +0.000 F 
ATOM     56  C   UNL A   1      19.398  56.509   0.684  0.00  0.00    +0.000 A 
ATOM     57  F   UNL A   1      20.614  56.827   1.149  0.00  0.00    +0.000 F 
ATOM     58  C   UNL A   1      18.634  55.550   1.345  0.00  0.00    +0.000 A 
ATOM     59  F   UNL A   1      19.126  54.948   2.438  0.00  0.00    +0.000 F 
ENDBRANCH  15  49
BRANCH   1  63
ATOM     60  C   UNL A   1      12.326  56.645   8.275  0.00  0.00    +0.000 A 
ATOM     61  C   UNL A   1      13.479  55.893   8.535  0.00  0.00    +0.000 A 
ATOM     62  C   UNL A   1      13.904  54.927   7.619  0.00  0.00    +0.000 A 
ATOM     63  C   UNL A   1      13.177  54.706   6.440  0.00  0.00    +0.000 A 
ATOM     64  C   UNL A   1      11.988  55.412   6.217  0.00  0.00    +0.000 A 
ATOM     65  C   UNL A   1      11.564  56.380   7.131  0.00  0.00    +0.000 A 
BRANCH  60  67
ATOM     66  N   UNL A   1      10.985  57.409  10.154  0.00  0.00    +0.000 N 
ATOM     67  C   UNL A   1      11.881  57.758   9.153  0.00  0.00    +0.000 C 
ATOM     68  O   UNL A   1      12.371  58.869   8.981  0.00  0.00    +0.000 OA
ATOM     69  H   UNL A   1      10.683  56.443  10.248  0.00  0.00    +0.000 HD
BRANCH  66  70
ATOM     70  C   UNL A   1      10.526  58.350  11.168  0.00  0.00    +0.000 C 
BRANCH  70  71
ATOM     71  C   UNL A   1      10.360  57.677  12.525  0.00  0.00    +0.000 C 
BRANCH  71  72
ATOM     72  C   UNL A   1      10.943  56.262  12.512  0.00  0.00    +0.000 C 
BRANCH  72  73
ATOM     73  C   UNL A   1      11.666  55.941  13.821  0.00  0.00    +0.000 C 
BRANCH  73  74
ATOM     74  C   UNL A   1      12.629  54.760  13.667  0.00  0.00    +0.000 C 
BRANCH  74  75
ATOM     75  C   UNL A   1      12.076  53.515  14.359  0.00  0.00    +0.000 C 
BRANCH  75  78
ATOM     76  O   UNL A   1      11.460  51.750  12.217  0.00  0.00    +0.000 OA
ATOM     77  C   UNL A   1      12.431  51.519  12.934  0.00  0.00    +0.000 C 
ATOM     78  N   UNL A   1      12.798  52.311  13.998  0.00  0.00    +0.000 N 
ATOM     79  H   UNL A   1      13.656  52.102  14.489  0.00  0.00    +0.000 HD
BRANCH  77  80
ATOM     80  C   UNL A   1      13.350  50.317  12.707  0.00  0.00    +0.000 C 
BRANCH  80  81
ATOM     81  C   UNL A   1      14.187  50.417  11.455  0.00  0.00    +0.000 A 
ATOM     82  C   UNL A   1      13.668  49.830  10.235  0.00  0.00    +0.000 A 
ATOM     83  C   UNL A   1      14.425  49.791   9.130  0.00  0.00    +0.000 A 
ATOM     84  N   UNL A   1      15.696  50.328   9.108  0.00  0.00    +0.000 N 
ATOM     85  C   UNL A   1      16.269  50.925  10.215  0.00  0.00    +0.000 A 
ATOM     86  O   UNL A   1      17.383  51.436  10.224  0.00  0.00    +0.000 OA
ATOM     87  C   UNL A   1      15.428  50.940  11.449  0.00  0.00    +0.000 A 
BRANCH  84  88
ATOM     88  C   UNL A   1      16.537  50.203   7.950  0.00  0.00    +0.000 C 
ATOM     89  F   UNL A   1      16.838  48.892   7.743  0.00  0.00    +0.000 F 
ATOM     90  F   UNL A   1      15.908  50.631   6.824  0.00  0.00    +0.000 F 
ENDBRANCH  84  88
ENDBRANCH  80  81
ENDBRANCH  77  80
ENDBRANCH  75  78
ENDBRANCH  74  75
ENDBRANCH  73  74
ENDBRANCH  72  73
ENDBRANCH  71  72
ENDBRANCH  70  71
ENDBRANCH  66  70
ENDBRANCH  60  67
ENDBRANCH   1  63
TORSDOF 15
ENDMDL
MODEL 9
REMARK VINA RESULT:     -11.0      4.544      6.256
REMARK  Name = 
REMARK  15 active torsions:
REMARK  status: ('A' for Active; 'I' for Inactive)
REMARK    1  A    between atoms: C_2  and  C_3
REMARK    2  A    between atoms: C_3  and  C_4
REMARK    3  A    between atoms: N_7  and  C_8
REMARK    4  A    between atoms: N_14  and  C_15
REMARK    5  A    between atoms: C_15  and  C_16
REMARK    6  A    between atoms: C_16  and  C_17
REMARK    7  A    between atoms: C_17  and  C_18
REMARK    8  A    between atoms: C_18  and  C_19
REMARK    9  A    between atoms: C_19  and  C_20
REMARK   10  A    between atoms: C_20  and  N_21
REMARK   11  A    between atoms: C_22  and  C_24
REMARK   12  A    between atoms: C_27  and  C_28
REMARK   13  A    between atoms: C_32  and  C_33
REMARK   14  A    between atoms: C_49  and  C_50
REMARK   15  A    between atoms: C_64  and  C_65
REMARK                            x       y       z     vdW  Elec       q    Type
REMARK                         _______ _______ _______ _____ _____    ______ ____
ROOT
ATOM      1  C   UNL A   1      53.996  19.543  11.976  0.00  0.00    +0.000 C 
ATOM      2  C   UNL A   1      55.379  18.991  11.864  0.00  0.00    +0.000 C 
ATOM      3  N   UNL A   1      56.366  19.079  12.715  0.00  0.00    +0.000 NA
ATOM      4  C   UNL A   1      57.422  18.404  12.130  0.00  0.00    +0.000 C 
ATOM      5  C   UNL A   1      58.677  18.248  12.604  0.00  0.00    +0.000 C 
ATOM      6  C   UNL A   1      59.141  18.767  13.860  0.00  0.00    +0.000 A 
ATOM      7  C   UNL A   1      60.414  18.685  14.396  0.00  0.00    +0.000 A 
ATOM      8  C   UNL A   1      60.393  19.268  15.667  0.00  0.00    +0.000 A 
ATOM      9  C   UNL A   1      59.120  19.758  15.903  0.00  0.00    +0.000 A 
ATOM     10  N   UNL A   1      58.353  19.450  14.783  0.00  0.00    +0.000 N 
ATOM     11  C   UNL A   1      58.643  20.441  17.074  0.00  0.00    +0.000 C 
ATOM     12  C   UNL A   1      57.384  20.912  17.218  0.00  0.00    +0.000 C 
ATOM     13  N   UNL A   1      56.342  20.846  16.310  0.00  0.00    +0.000 NA
ATOM     14  C   UNL A   1      55.325  21.425  16.898  0.00  0.00    +0.000 C 
ATOM     15  C   UNL A   1      53.949  21.653  16.374  0.00  0.00    +0.000 C 
ATOM     16  C   UNL A   1      53.621  21.195  15.153  0.00  0.00    +0.000 A 
ATOM     17  C   UNL A   1      52.316  21.378  14.524  0.00  0.00    +0.000 A 
ATOM     18  C   UNL A   1      52.323  20.786  13.321  0.00  0.00    +0.000 A 
ATOM     19  C   UNL A   1      53.640  20.199  13.093  0.00  0.00    +0.000 A 
ATOM     20  N   UNL A   1      54.354  20.487  14.232  0.00  0.00    +0.000 N 
ATOM     21  C   UNL A   1      55.608  21.922  18.251  0.00  0.00    +0.000 C 
ATOM     22  C   UNL A   1      56.885  21.592  18.392  0.00  0.00    +0.000 C 
ATOM     23  C   UNL A   1      56.951  17.887  10.865  0.00  0.00    +0.000 C 
ATOM     24  C   UNL A   1      55.695  18.244  10.640  0.00  0.00    +0.000 C 
ATOM     25  H   UNL A   1      57.364  19.680  14.661  0.00  0.00    +0.000 HD
ATOM     26  H   UNL A   1      55.334  20.221  14.371  0.00  0.00    +0.000 HD
ENDROOT
BRANCH   5  27
ATOM     27  C   UNL A   1      59.638  17.486  11.748  0.00  0.00    +0.000 A 
ATOM     28  C   UNL A   1      59.786  16.099  11.891  0.00  0.00    +0.000 A 
ATOM     29  F   UNL A   1      59.079  15.438  12.819  0.00  0.00    +0.000 F 
ATOM     30  C   UNL A   1      60.678  15.392  11.092  0.00  0.00    +0.000 A 
ATOM     31  F   UNL A   1      60.828  14.070  11.263  0.00  0.00    +0.000 F 
ATOM     32  C   UNL A   1      61.426  16.053  10.128  0.00  0.00    +0.000 A 
ATOM     33  F   UNL A   1      62.296  15.371   9.370  0.00  0.00    +0.000 F 
ATOM     34  C   UNL A   1      61.287  17.424   9.966  0.00  0.00    +0.000 A 
ATOM     35  F   UNL A   1      62.016  18.064   9.041  0.00  0.00    +0.000 F 
ATOM     36  C   UNL A   1      60.404  18.138  10.772  0.00  0.00    +0.000 A 
ATOM     37  F   UNL A   1      60.311  19.466  10.618  0.00  0.00    +0.000 F 
ENDBRANCH   5  27
BRANCH  11  38
ATOM     38  C   UNL A   1      59.584  20.658  18.219  0.00  0.00    +0.000 A 
ATOM     39  C   UNL A   1      60.341  21.834  18.319  0.00  0.00    +0.000 A 
ATOM     40  F   UNL A   1      60.225  22.790  17.385  0.00  0.00    +0.000 F 
ATOM     41  C   UNL A   1      61.235  22.022  19.371  0.00  0.00    +0.000 A 
ATOM     42  F   UNL A   1      61.972  23.139  19.431  0.00  0.00    +0.000 F 
ATOM     43  C   UNL A   1      61.377  21.048  20.351  0.00  0.00    +0.000 A 
ATOM     44  F   UNL A   1      62.247  21.227  21.355  0.00  0.00    +0.000 F 
ATOM     45  C   UNL A   1      60.623  19.885  20.278  0.00  0.00    +0.000 A 
ATOM     46  F   UNL A   1      60.760  18.942  21.221  0.00  0.00    +0.000 F 
ATOM     47  C   UNL A   1      59.736  19.691  19.222  0.00  0.00    +0.000 A 
ATOM     48  F   UNL A   1      59.033  18.549  19.164  0.00  0.00    +0.000 F 
ENDBRANCH  11  38
BRANCH  15  49
ATOM     49  C   UNL A   1      52.934  22.381  17.167  0.00  0.00    +0.000 A 
ATOM     50  C   UNL A   1      52.102  21.707  18.068  0.00  0.00    +0.000 A 
ATOM     51  F   UNL A   1      52.280  20.399  18.296  0.00  0.00    +0.000 F 
ATOM     52  C   UNL A   1      51.078  22.380  18.734  0.00  0.00    +0.000 A 
ATOM     53  F   UNL A   1      50.281  21.713  19.580  0.00  0.00    +0.000 F 
ATOM     54  C   UNL A   1      50.880  23.734  18.513  0.00  0.00    +0.000 A 
ATOM     55  F   UNL A   1      49.888  24.379  19.145  0.00  0.00    +0.000 F 
ATOM     56  C   UNL A   1      51.710  24.423  17.640  0.00  0.00    +0.000 A 
ATOM     57  F   UNL A   1      51.532  25.735  17.434  0.00  0.00    +0.000 F 
ATOM     58  C   UNL A   1      52.733  23.751  16.973  0.00  0.00    +0.000 A 
ATOM     59  F   UNL A   1      53.525  24.424  16.125  0.00  0.00    +0.000 F 
ENDBRANCH  15  49
BRANCH   1  63
ATOM     60  C   UNL A   1      51.040  19.134   8.912  0.00  0.00    +0.000 A 
ATOM     61  C   UNL A   1      51.279  18.075   9.798  0.00  0.00    +0.000 A 
ATOM     62  C   UNL A   1      52.272  18.193  10.774  0.00  0.00    +0.000 A 
ATOM     63  C   UNL A   1      53.032  19.368  10.868  0.00  0.00    +0.000 A 
ATOM     64  C   UNL A   1      52.835  20.396   9.938  0.00  0.00    +0.000 A 
ATOM     65  C   UNL A   1      51.841  20.281   8.963  0.00  0.00    +0.000 A 
BRANCH  60  67
ATOM     66  N   UNL A   1      49.402  20.356   7.595  0.00  0.00    +0.000 N 
ATOM     67  C   UNL A   1      49.931  19.116   7.923  0.00  0.00    +0.000 C 
ATOM     68  O   UNL A   1      49.609  18.041   7.426  0.00  0.00    +0.000 OA
ATOM     69  H   UNL A   1      49.780  21.196   8.022  0.00  0.00    +0.000 HD
BRANCH  66  70
ATOM     70  C   UNL A   1      48.383  20.534   6.567  0.00  0.00    +0.000 C 
BRANCH  70  71
ATOM     71  C   UNL A   1      48.698  19.721   5.317  0.00  0.00    +0.000 C 
BRANCH  71  72
ATOM     72  C   UNL A   1      47.415  19.228   4.644  0.00  0.00    +0.000 C 
BRANCH  72  73
ATOM     73  C   UNL A   1      46.480  18.552   5.648  0.00  0.00    +0.000 C 
BRANCH  73  74
ATOM     74  C   UNL A   1      46.732  17.044   5.738  0.00  0.00    +0.000 C 
BRANCH  74  75
ATOM     75  C   UNL A   1      46.996  16.454   4.353  0.00  0.00    +0.000 C 
BRANCH  75  78
ATOM     76  O   UNL A   1      48.305  13.992   4.908  0.00  0.00    +0.000 OA
ATOM     77  C   UNL A   1      48.944  14.924   4.426  0.00  0.00    +0.000 C 
ATOM     78  N   UNL A   1      48.396  16.153   4.134  0.00  0.00    +0.000 N 
ATOM     79  H   UNL A   1      48.966  16.842   3.664  0.00  0.00    +0.000 HD
BRANCH  77  80
ATOM     80  C   UNL A   1      50.431  14.809   4.085  0.00  0.00    +0.000 C 
BRANCH  80  81
ATOM     81  C   UNL A   1      51.340  15.488   5.080  0.00  0.00    +0.000 A 
ATOM     82  C   UNL A   1      52.094  16.645   4.640  0.00  0.00    +0.000 A 
ATOM     83  C   UNL A   1      53.001  17.208   5.452  0.00  0.00    +0.000 A 
ATOM     84  N   UNL A   1      53.220  16.729   6.728  0.00  0.00    +0.000 N 
ATOM     85  C   UNL A   1      52.536  15.643   7.242  0.00  0.00    +0.000 A 
ATOM     86  O   UNL A   1      52.686  15.209   8.377  0.00  0.00    +0.000 OA
ATOM     87  C   UNL A   1      51.548  15.007   6.320  0.00  0.00    +0.000 A 
BRANCH  84  88
ATOM     88  C   UNL A   1      54.255  17.277   7.560  0.00  0.00    +0.000 C 
ATOM     89  F   UNL A   1      55.473  16.908   7.079  0.00  0.00    +0.000 F 
ATOM     90  F   UNL A   1      54.238  18.636   7.552  0.00  0.00    +0.000 F 
ENDBRANCH  84  88
ENDBRANCH  80  81
ENDBRANCH  77  80
ENDBRANCH  75  78
ENDBRANCH  74  75
ENDBRANCH  73  74
ENDBRANCH  72  73
ENDBRANCH  71  72
ENDBRANCH  70  71
ENDBRANCH  66  70
ENDBRANCH  60  67
ENDBRANCH   1  63
TORSDOF 15
ENDMDL
MODEL 10
REMARK VINA RESULT:     -11.0      5.483     10.400
REMARK  Name = 
REMARK  15 active torsions:
REMARK  status: ('A' for Active; 'I' for Inactive)
REMARK    1  A    between atoms: C_2  and  C_3
REMARK    2  A    between atoms: C_3  and  C_4
REMARK    3  A    between atoms: N_7  and  C_8
REMARK    4  A    between atoms: N_14  and  C_15
REMARK    5  A    between atoms: C_15  and  C_16
REMARK    6  A    between atoms: C_16  and  C_17
REMARK    7  A    between atoms: C_17  and  C_18
REMARK    8  A    between atoms: C_18  and  C_19
REMARK    9  A    between atoms: C_19  and  C_20
REMARK   10  A    between atoms: C_20  and  N_21
REMARK   11  A    between atoms: C_22  and  C_24
REMARK   12  A    between atoms: C_27  and  C_28
REMARK   13  A    between atoms: C_32  and  C_33
REMARK   14  A    between atoms: C_49  and  C_50
REMARK   15  A    between atoms: C_64  and  C_65
REMARK                            x       y       z     vdW  Elec       q    Type
REMARK                         _______ _______ _______ _____ _____    ______ ____
ROOT
ATOM      1  C   UNL A   1      54.860  17.960  10.024  0.00  0.00    +0.000 C 
ATOM      2  C   UNL A   1      55.306  18.282  11.412  0.00  0.00    +0.000 C 
ATOM      3  N   UNL A   1      56.321  17.799  12.077  0.00  0.00    +0.000 NA
ATOM      4  C   UNL A   1      56.287  18.422  13.312  0.00  0.00    +0.000 C 
ATOM      5  C   UNL A   1      57.109  18.229  14.366  0.00  0.00    +0.000 C 
ATOM      6  C   UNL A   1      58.215  17.314  14.376  0.00  0.00    +0.000 A 
ATOM      7  C   UNL A   1      59.075  17.031  15.423  0.00  0.00    +0.000 A 
ATOM      8  C   UNL A   1      60.043  16.133  14.965  0.00  0.00    +0.000 A 
ATOM      9  C   UNL A   1      59.759  15.817  13.647  0.00  0.00    +0.000 A 
ATOM     10  N   UNL A   1      58.628  16.546  13.291  0.00  0.00    +0.000 N 
ATOM     11  C   UNL A   1      60.482  14.929  12.780  0.00  0.00    +0.000 C 
ATOM     12  C   UNL A   1      60.123  14.654  11.505  0.00  0.00    +0.000 C 
ATOM     13  N   UNL A   1      59.034  15.141  10.804  0.00  0.00    +0.000 NA
ATOM     14  C   UNL A   1      59.112  14.601   9.613  0.00  0.00    +0.000 C 
ATOM     15  C   UNL A   1      58.190  14.761   8.453  0.00  0.00    +0.000 C 
ATOM     16  C   UNL A   1      57.132  15.586   8.556  0.00  0.00    +0.000 A 
ATOM     17  C   UNL A   1      56.149  15.804   7.500  0.00  0.00    +0.000 A 
ATOM     18  C   UNL A   1      55.241  16.695   7.925  0.00  0.00    +0.000 A 
ATOM     19  C   UNL A   1      55.574  17.092   9.290  0.00  0.00    +0.000 A 
ATOM     20  N   UNL A   1      56.715  16.387   9.592  0.00  0.00    +0.000 N 
ATOM     21  C   UNL A   1      60.265  13.712   9.423  0.00  0.00    +0.000 C 
ATOM     22  C   UNL A   1      60.844  13.771  10.616  0.00  0.00    +0.000 C 
ATOM     23  C   UNL A   1      55.169  19.339  13.298  0.00  0.00    +0.000 C 
ATOM     24  C   UNL A   1      54.511  19.274  12.149  0.00  0.00    +0.000 C 
ATOM     25  H   UNL A   1      58.176  16.528  12.373  0.00  0.00    +0.000 HD
ATOM     26  H   UNL A   1      57.191  16.436  10.498  0.00  0.00    +0.000 HD
ENDROOT
BRANCH   5  27
ATOM     27  C   UNL A   1      56.829  19.025  15.601  0.00  0.00    +0.000 A 
ATOM     28  C   UNL A   1      57.485  20.241  15.838  0.00  0.00    +0.000 A 
ATOM     29  F   UNL A   1      58.395  20.698  14.965  0.00  0.00    +0.000 F 
ATOM     30  C   UNL A   1      57.222  20.982  16.986  0.00  0.00    +0.000 A 
ATOM     31  F   UNL A   1      57.880  22.128  17.210  0.00  0.00    +0.000 F 
ATOM     32  C   UNL A   1      56.289  20.529  17.908  0.00  0.00    +0.000 A 
ATOM     33  F   UNL A   1      56.049  21.236  19.021  0.00  0.00    +0.000 F 
ATOM     34  C   UNL A   1      55.623  19.332  17.687  0.00  0.00    +0.000 A 
ATOM     35  F   UNL A   1      54.730  18.889  18.584  0.00  0.00    +0.000 F 
ATOM     36  C   UNL A   1      55.894  18.581  16.545  0.00  0.00    +0.000 A 
ATOM     37  F   UNL A   1      55.261  17.412  16.370  0.00  0.00    +0.000 F 
ENDBRANCH   5  27
BRANCH  11  38
ATOM     38  C   UNL A   1      61.711  14.250  13.300  0.00  0.00    +0.000 A 
ATOM     39  C   UNL A   1      61.639  12.989  13.908  0.00  0.00    +0.000 A 
ATOM     40  F   UNL A   1      60.456  12.367  14.026  0.00  0.00    +0.000 F 
ATOM     41  C   UNL A   1      62.781  12.372  14.414  0.00  0.00    +0.000 A 
ATOM     42  F   UNL A   1      62.684  11.181  15.020  0.00  0.00    +0.000 F 
ATOM     43  C   UNL A   1      64.018  12.994  14.307  0.00  0.00    +0.000 A 
ATOM     44  F   UNL A   1      65.113  12.402  14.807  0.00  0.00    +0.000 F 
ATOM     45  C   UNL A   1      64.112  14.235  13.693  0.00  0.00    +0.000 A 
ATOM     46  F   UNL A   1      65.304  14.839  13.591  0.00  0.00    +0.000 F 
ATOM     47  C   UNL A   1      62.971  14.858  13.194  0.00  0.00    +0.000 A 
ATOM     48  F   UNL A   1      63.086  16.066  12.622  0.00  0.00    +0.000 F 
ENDBRANCH  11  38
BRANCH  15  49
ATOM     49  C   UNL A   1      58.408  14.024   7.189  0.00  0.00    +0.000 A 
ATOM     50  C   UNL A   1      58.062  12.673   7.073  0.00  0.00    +0.000 A 
ATOM     51  F   UNL A   1      57.437  12.051   8.083  0.00  0.00    +0.000 F 
ATOM     52  C   UNL A   1      58.365  11.955   5.917  0.00  0.00    +0.000 A 
ATOM     53  F   UNL A   1      58.041  10.658   5.831  0.00  0.00    +0.000 F 
ATOM     54  C   UNL A   1      59.009  12.582   4.861  0.00  0.00    +0.000 A 
ATOM     55  F   UNL A   1      59.311  11.889   3.753  0.00  0.00    +0.000 F 
ATOM     56  C   UNL A   1      59.339  13.928   4.950  0.00  0.00    +0.000 A 
ATOM     57  F   UNL A   1      59.949  14.541   3.926  0.00  0.00    +0.000 F 
ATOM     58  C   UNL A   1      59.038  14.645   6.106  0.00  0.00    +0.000 A 
ATOM     59  F   UNL A   1      59.368  15.942   6.185  0.00  0.00    +0.000 F 
ENDBRANCH  15  49
BRANCH   1  63
ATOM     60  C   UNL A   1      51.285  19.855   8.638  0.00  0.00    +0.000 A 
ATOM     61  C   UNL A   1      51.277  18.488   8.945  0.00  0.00    +0.000 A 
ATOM     62  C   UNL A   1      52.454  17.859   9.360  0.00  0.00    +0.000 A 
ATOM     63  C   UNL A   1      53.644  18.593   9.467  0.00  0.00    +0.000 A 
ATOM     64  C   UNL A   1      53.662  19.943   9.095  0.00  0.00    +0.000 A 
ATOM     65  C   UNL A   1      52.485  20.574   8.682  0.00  0.00    +0.000 A 
BRANCH  60  67
ATOM     66  N   UNL A   1      49.914  20.958   6.960  0.00  0.00    +0.000 N 
ATOM     67  C   UNL A   1      50.049  20.606   8.296  0.00  0.00    +0.000 C 
ATOM     68  O   UNL A   1      49.221  20.803   9.179  0.00  0.00    +0.000 OA
ATOM     69  H   UNL A   1      50.634  20.696   6.293  0.00  0.00    +0.000 HD
BRANCH  66  70
ATOM     70  C   UNL A   1      48.719  21.604   6.429  0.00  0.00    +0.000 C 
BRANCH  70  71
ATOM     71  C   UNL A   1      47.988  20.704   5.439  0.00  0.00    +0.000 C 
BRANCH  71  72
ATOM     72  C   UNL A   1      47.574  19.386   6.097  0.00  0.00    +0.000 C 
BRANCH  72  73
ATOM     73  C   UNL A   1      47.366  18.282   5.058  0.00  0.00    +0.000 C 
BRANCH  73  74
ATOM     74  C   UNL A   1      46.266  17.303   5.477  0.00  0.00    +0.000 C 
BRANCH  74  75
ATOM     75  C   UNL A   1      46.639  15.871   5.094  0.00  0.00    +0.000 C 
BRANCH  75  78
ATOM     76  O   UNL A   1      48.817  15.173   3.405  0.00  0.00    +0.000 OA
ATOM     77  C   UNL A   1      48.976  15.197   4.623  0.00  0.00    +0.000 C 
ATOM     78  N   UNL A   1      47.978  15.513   5.516  0.00  0.00    +0.000 N 
ATOM     79  H   UNL A   1      48.208  15.591   6.497  0.00  0.00    +0.000 HD
BRANCH  77  80
ATOM     80  C   UNL A   1      50.322  14.884   5.280  0.00  0.00    +0.000 C 
BRANCH  80  81
ATOM     81  C   UNL A   1      51.362  15.962   5.085  0.00  0.00    +0.000 A 
ATOM     82  C   UNL A   1      52.719  15.556   4.779  0.00  0.00    +0.000 A 
ATOM     83  C   UNL A   1      53.698  16.470   4.714  0.00  0.00    +0.000 A 
ATOM     84  N   UNL A   1      53.442  17.814   4.902  0.00  0.00    +0.000 N 
ATOM     85  C   UNL A   1      52.177  18.297   5.179  0.00  0.00    +0.000 A 
ATOM     86  O   UNL A   1      51.910  19.483   5.326  0.00  0.00    +0.000 OA
ATOM     87  C   UNL A   1      51.099  17.268   5.276  0.00  0.00    +0.000 A 
BRANCH  84  88
ATOM     88  C   UNL A   1      54.507  18.777   4.922  0.00  0.00    +0.000 C 
ATOM     89  F   UNL A   1      54.518  19.424   6.119  0.00  0.00    +0.000 F 
ATOM     90  F   UNL A   1      55.723  18.184   4.799  0.00  0.00    +0.000 F 
ENDBRANCH  84  88
ENDBRANCH  80  81
ENDBRANCH  77  80
ENDBRANCH  75  78
ENDBRANCH  74  75
ENDBRANCH  73  74
ENDBRANCH  72  73
ENDBRANCH  71  72
ENDBRANCH  70  71
ENDBRANCH  66  70
ENDBRANCH  60  67
ENDBRANCH   1  63
TORSDOF 15
ENDMDL
