MODEL 1
REMARK VINA RESULT:      -9.3      0.000      0.000
ROOT
ATOM     27  C21 UNL A   1      21.275  38.412  49.371  1.00  0.00    +0.000 C 
ATOM     28  C22 UNL A   1      22.121  39.654  49.477  1.00  0.00    +0.000 C 
ATOM     29  N3  UNL A   1      23.292  39.909  48.949  1.00  0.00    +0.000 N 
ATOM     30  C23 UNL A   1      23.605  41.207  49.327  1.00  0.00    +0.000 C 
ATOM     31  C24 UNL A   1      24.742  41.908  49.092  1.00  0.00    +0.000 C 
ATOM     43  C31 UNL A   1      25.873  41.396  48.363  1.00  0.00    +0.000 C 
ATOM     44  C32 UNL A   1      27.088  42.010  48.115  1.00  0.00    +0.000 C 
ATOM     45  C33 UNL A   1      27.856  41.155  47.317  1.00  0.00    +0.000 C 
ATOM     46  C34 UNL A   1      27.145  39.982  47.124  1.00  0.00    +0.000 C 
ATOM     47  N4  UNL A   1      25.927  40.146  47.764  1.00  0.00    +0.000 N 
ATOM     48  C35 UNL A   1      27.548  38.798  46.407  1.00  0.00    +0.000 C 
ATOM     60  C42 UNL A   1      26.790  37.684  46.267  1.00  0.00    +0.000 C 
ATOM     61  N5  UNL A   1      25.518  37.423  46.760  1.00  0.00    +0.000 N 
ATOM     62  C43 UNL A   1      25.209  36.219  46.343  1.00  0.00    +0.000 C 
ATOM     63  C44 UNL A   1      23.967  35.408  46.608  1.00  0.00    +0.000 C 
ATOM     75  C51 UNL A   1      22.994  35.932  47.379  1.00  0.00    +0.000 C 
ATOM     76  C52 UNL A   1      21.742  35.268  47.726  1.00  0.00    +0.000 C 
ATOM     77  C53 UNL A   1      20.990  36.105  48.458  1.00  0.00    +0.000 C 
ATOM     78  C54 UNL A   1      21.726  37.352  48.670  1.00  0.00    +0.000 C 
ATOM     79  N6  UNL A   1      22.908  37.157  47.998  1.00  0.00    +0.000 N 
ATOM     80  C55 UNL A   1      26.242  35.593  45.505  1.00  0.00    +0.000 C 
ATOM     81  C56 UNL A   1      27.202  36.506  45.533  1.00  0.00    +0.000 C 
ATOM     82  C57 UNL A   1      22.477  41.713  50.077  1.00  0.00    +0.000 C 
ATOM     83  C58 UNL A   1      21.565  40.769  50.260  1.00  0.00    +0.000 C 
ATOM    109  H24 UNL A   1      27.378  42.939  48.459  1.00  0.00    +0.000 H 
ATOM    110  H25 UNL A   1      28.793  41.363  46.938  1.00  0.00    +0.000 H 
ATOM    111  H26 UNL A   1      25.207  39.475  47.789  1.00  0.00    +0.000 H 
ATOM    112  H27 UNL A   1      21.477  34.309  47.454  1.00  0.00    +0.000 H 
ATOM    113  H28 UNL A   1      20.043  35.902  48.815  1.00  0.00    +0.000 H 
ATOM    114  H29 UNL A   1      23.625  37.829  47.964  1.00  0.00    +0.000 H 
ATOM    115  H30 UNL A   1      26.224  34.681  45.023  1.00  0.00    +0.000 H 
ATOM    116  H31 UNL A   1      28.126  36.391  45.087  1.00  0.00    +0.000 H 
ATOM    117  H32 UNL A   1      22.393  42.681  50.425  1.00  0.00    +0.000 H 
ATOM    118  H33 UNL A   1      20.692  40.806  50.809  1.00  0.00    +0.000 H 
ENDROOT
BRANCH   27   26
ATOM    107  H22 UNL A   1      18.263  37.102  52.631  1.00  0.00    +0.000 H 
ATOM    108  H23 UNL A   1      20.500  37.271  51.708  1.00  0.00    +0.000 H 
ATOM     84  C59 UNL A   1      18.843  39.008  49.368  1.00  0.00    +0.000 C 
ATOM     85  C60 UNL A   1      17.577  38.998  49.955  1.00  0.00    +0.000 C 
ATOM    120  H35 UNL A   1      16.810  39.546  49.534  1.00  0.00    +0.000 H 
ATOM     23  C17 UNL A   1      17.346  38.246  51.110  1.00  0.00    +0.000 C 
ATOM     24  C18 UNL A   1      18.420  37.623  51.753  1.00  0.00    +0.000 C 
ATOM     25  C19 UNL A   1      19.706  37.704  51.210  1.00  0.00    +0.000 C 
ATOM    119  H34 UNL A   1      18.986  39.491  48.468  1.00  0.00    +0.000 H 
ATOM     26  C20 UNL A   1      19.924  38.368  49.992  1.00  0.00    +0.000 C 
BRANCH   23   21
ATOM     21  C16 UNL A   1      15.993  38.124  51.707  1.00  0.00    +0.000 C 
ATOM     22  O4  UNL A   1      15.876  37.693  52.851  1.00  0.00    +0.000 O 
BRANCH   21   20
ATOM    106  H21 UNL A   1      14.858  39.388  50.652  1.00  0.00    +0.000 H 
ATOM     20  N2  UNL A   1      14.868  38.465  50.995  1.00  0.00    +0.000 N 
BRANCH   20   19
ATOM    105  H20 UNL A   1      12.845  38.328  50.741  1.00  0.00    +0.000 H 
ATOM     19  C15 UNL A   1      13.693  37.679  50.669  1.00  0.00    +0.000 C 
ATOM    104  H19 UNL A   1      13.630  36.860  51.354  1.00  0.00    +0.000 H 
BRANCH   19   18
ATOM     18  C14 UNL A   1      13.721  37.125  49.249  1.00  0.00    +0.000 C 
ATOM    102  H17 UNL A   1      12.831  36.547  49.110  1.00  0.00    +0.000 H 
ATOM    103  H18 UNL A   1      13.801  37.982  48.614  1.00  0.00    +0.000 H 
BRANCH   18   17
ATOM     17  C13 UNL A   1      14.911  36.237  48.881  1.00  0.00    +0.000 C 
ATOM    100  H15 UNL A   1      15.584  36.241  49.712  1.00  0.00    +0.000 H 
ATOM    101  H16 UNL A   1      14.482  35.285  48.648  1.00  0.00    +0.000 H 
BRANCH   17   16
ATOM     98  H13 UNL A   1      15.281  36.112  46.801  1.00  0.00    +0.000 H 
ATOM     99  H14 UNL A   1      15.662  37.692  47.597  1.00  0.00    +0.000 H 
ATOM     16  C12 UNL A   1      15.716  36.624  47.634  1.00  0.00    +0.000 C 
BRANCH   16   15
ATOM     97  H12 UNL A   1      17.281  35.247  47.544  1.00  0.00    +0.000 H 
ATOM     15  C11 UNL A   1      17.217  36.312  47.629  1.00  0.00    +0.000 C 
ATOM     96  H11 UNL A   1      17.635  36.717  48.528  1.00  0.00    +0.000 H 
BRANCH   15   14
ATOM     94  H9  UNL A   1      17.422  37.572  45.948  1.00  0.00    +0.000 H 
ATOM     14  C10 UNL A   1      18.029  36.855  46.459  1.00  0.00    +0.000 C 
ATOM     95  H10 UNL A   1      18.920  37.258  46.894  1.00  0.00    +0.000 H 
BRANCH   14   13
ATOM     13  N1  UNL A   1      18.477  35.888  45.490  1.00  0.00    +0.000 N 
ATOM     93  H8  UNL A   1      19.416  35.982  45.207  1.00  0.00    +0.000 H 
BRANCH   13   11
ATOM     11  C9  UNL A   1      17.789  34.849  44.902  1.00  0.00    +0.000 C 
ATOM     12  O3  UNL A   1      16.651  35.099  44.494  1.00  0.00    +0.000 O 
BRANCH   11   10
ATOM      5  C3  UNL A   1      18.286  32.742  43.443  1.00  0.00    +0.000 C 
ATOM      6  C4  UNL A   1      18.823  31.445  43.369  1.00  0.00    +0.000 C 
ATOM      7  C5  UNL A   1      19.505  30.902  44.453  1.00  0.00    +0.000 C 
ATOM      8  C6  UNL A   1      19.656  31.654  45.611  1.00  0.00    +0.000 C 
ATOM      9  C7  UNL A   1      19.093  32.934  45.691  1.00  0.00    +0.000 C 
ATOM     10  C8  UNL A   1      18.362  33.494  44.621  1.00  0.00    +0.000 C 
ATOM     89  H4  UNL A   1      18.709  30.891  42.506  1.00  0.00    +0.000 H 
ATOM     90  H5  UNL A   1      19.895  29.948  44.398  1.00  0.00    +0.000 H 
ATOM     91  H6  UNL A   1      20.184  31.272  46.411  1.00  0.00    +0.000 H 
ATOM     92  H7  UNL A   1      19.214  33.481  46.558  1.00  0.00    +0.000 H 
BRANCH    5    4
ATOM      4  O2  UNL A   1      17.622  33.146  42.281  1.00  0.00    +0.000 O 
BRANCH    4    2
ATOM      2  C2  UNL A   1      16.331  32.668  42.103  1.00  0.00    +0.000 C 
ATOM      3  O1  UNL A   1      15.619  32.147  42.953  1.00  0.00    +0.000 O 
BRANCH    2    1
ATOM      1  C1  UNL A   1      15.932  32.891  40.672  1.00  0.00    +0.000 C 
ATOM     86  H1  UNL A   1      14.913  32.597  40.536  1.00  0.00    +0.000 H 
ATOM     87  H2  UNL A   1      16.559  32.306  40.032  1.00  0.00    +0.000 H 
ATOM     88  H3  UNL A   1      16.042  33.926  40.428  1.00  0.00    +0.000 H 
ENDBRANCH    2    1
ENDBRANCH    4    2
ENDBRANCH    5    4
ENDBRANCH   11   10
ENDBRANCH   13   11
ENDBRANCH   14   13
ENDBRANCH   15   14
ENDBRANCH   16   15
ENDBRANCH   17   16
ENDBRANCH   18   17
ENDBRANCH   19   18
ENDBRANCH   20   19
ENDBRANCH   21   20
ENDBRANCH   23   21
ENDBRANCH   27   26
BRANCH   31   32
ATOM     33  C26 UNL A   1      24.411  44.415  48.875  1.00  0.00    +0.000 C 
ATOM     34  F1  UNL A   1      23.984  44.249  47.614  1.00  0.00    +0.000 F 
ATOM     35  C27 UNL A   1      24.466  45.704  49.398  1.00  0.00    +0.000 C 
ATOM     36  F2  UNL A   1      24.110  46.750  48.639  1.00  0.00    +0.000 F 
ATOM     37  C28 UNL A   1      24.899  45.909  50.699  1.00  0.00    +0.000 C 
ATOM     38  F3  UNL A   1      24.940  47.149  51.207  1.00  0.00    +0.000 F 
ATOM     39  C29 UNL A   1      25.295  44.829  51.474  1.00  0.00    +0.000 C 
ATOM     40  F4  UNL A   1      25.698  45.024  52.737  1.00  0.00    +0.000 F 
ATOM     41  C30 UNL A   1      25.271  43.543  50.942  1.00  0.00    +0.000 C 
ATOM     42  F5  UNL A   1      25.673  42.520  51.713  1.00  0.00    +0.000 F 
ATOM     32  C25 UNL A   1      24.825  43.308  49.633  1.00  0.00    +0.000 C 
ENDBRANCH   31   32
BRANCH   48   49
ATOM     49  C36 UNL A   1      28.920  38.784  45.794  1.00  0.00    +0.000 C 
ATOM     50  C37 UNL A   1      29.983  38.081  46.378  1.00  0.00    +0.000 C 
ATOM     51  F6  UNL A   1      29.808  37.436  47.541  1.00  0.00    +0.000 F 
ATOM     52  C38 UNL A   1      31.245  38.073  45.788  1.00  0.00    +0.000 C 
ATOM     53  F7  UNL A   1      32.260  37.439  46.392  1.00  0.00    +0.000 F 
ATOM     54  C39 UNL A   1      31.457  38.732  44.586  1.00  0.00    +0.000 C 
ATOM     55  F8  UNL A   1      32.669  38.715  44.017  1.00  0.00    +0.000 F 
ATOM     56  C40 UNL A   1      30.414  39.414  43.979  1.00  0.00    +0.000 C 
ATOM     57  F9  UNL A   1      30.612  40.037  42.810  1.00  0.00    +0.000 F 
ATOM     58  C41 UNL A   1      29.161  39.453  44.584  1.00  0.00    +0.000 C 
ATOM     59  F10 UNL A   1      28.176  40.136  43.979  1.00  0.00    +0.000 F 
ENDBRANCH   48   49
BRANCH   63   64
ATOM     65  C46 UNL A   1      23.077  33.823  44.869  1.00  0.00    +0.000 C 
ATOM     66  F11 UNL A   1      22.493  34.856  44.244  1.00  0.00    +0.000 F 
ATOM     67  C47 UNL A   1      22.886  32.538  44.366  1.00  0.00    +0.000 C 
ATOM     68  F12 UNL A   1      22.122  32.352  43.280  1.00  0.00    +0.000 F 
ATOM     69  C48 UNL A   1      23.466  31.449  44.999  1.00  0.00    +0.000 C 
ATOM     70  F13 UNL A   1      23.281  30.213  44.515  1.00  0.00    +0.000 F 
ATOM     71  C49 UNL A   1      24.227  31.642  46.141  1.00  0.00    +0.000 C 
ATOM     72  F14 UNL A   1      24.803  30.595  46.748  1.00  0.00    +0.000 F 
ATOM     73  C50 UNL A   1      24.390  32.923  46.665  1.00  0.00    +0.000 C 
ATOM     74  F15 UNL A   1      25.114  33.075  47.784  1.00  0.00    +0.000 F 
ATOM     64  C45 UNL A   1      23.819  34.041  46.040  1.00  0.00    +0.000 C 
ENDBRANCH   63   64
TORSDOF 18
ENDMDL
MODEL 2
REMARK VINA RESULT:      -9.3     21.382     27.393
ROOT
ATOM     27  C21 UNL A   1      39.961  28.896  29.269  1.00  0.00    +0.000 C 
ATOM     28  C22 UNL A   1      40.788  29.834  30.109  1.00  0.00    +0.000 C 
ATOM     29  N3  UNL A   1      42.037  29.728  30.487  1.00  0.00    +0.000 N 
ATOM     30  C23 UNL A   1      42.314  30.881  31.210  1.00  0.00    +0.000 C 
ATOM     31  C24 UNL A   1      43.449  31.213  31.873  1.00  0.00    +0.000 C 
ATOM     43  C31 UNL A   1      44.625  30.385  31.932  1.00  0.00    +0.000 C 
ATOM     44  C32 UNL A   1      45.805  30.612  32.617  1.00  0.00    +0.000 C 
ATOM     45  C33 UNL A   1      46.685  29.562  32.334  1.00  0.00    +0.000 C 
ATOM     46  C34 UNL A   1      46.029  28.648  31.526  1.00  0.00    +0.000 C 
ATOM     47  N4  UNL A   1      44.769  29.169  31.280  1.00  0.00    +0.000 N 
ATOM     48  C35 UNL A   1      46.517  27.392  31.013  1.00  0.00    +0.000 C 
ATOM     60  C42 UNL A   1      45.806  26.550  30.227  1.00  0.00    +0.000 C 
ATOM     61  N5  UNL A   1      44.505  26.679  29.757  1.00  0.00    +0.000 N 
ATOM     62  C43 UNL A   1      44.279  25.615  29.025  1.00  0.00    +0.000 C 
ATOM     63  C44 UNL A   1      43.022  25.208  28.299  1.00  0.00    +0.000 C 
ATOM     75  C51 UNL A   1      41.936  26.003  28.372  1.00  0.00    +0.000 C 
ATOM     76  C52 UNL A   1      40.652  25.739  27.730  1.00  0.00    +0.000 C 
ATOM     77  C53 UNL A   1      39.823  26.767  27.970  1.00  0.00    +0.000 C 
ATOM     78  C54 UNL A   1      40.502  27.744  28.822  1.00  0.00    +0.000 C 
ATOM     79  N6  UNL A   1      41.750  27.203  29.015  1.00  0.00    +0.000 N 
ATOM     80  C55 UNL A   1      45.428  24.706  28.919  1.00  0.00    +0.000 C 
ATOM     81  C56 UNL A   1      46.313  25.296  29.709  1.00  0.00    +0.000 C 
ATOM     82  C57 UNL A   1      41.125  31.702  31.168  1.00  0.00    +0.000 C 
ATOM     83  C58 UNL A   1      40.130  31.070  30.561  1.00  0.00    +0.000 C 
ATOM    109  H24 UNL A   1      46.003  31.418  33.231  1.00  0.00    +0.000 H 
ATOM    110  H25 UNL A   1      47.657  29.482  32.671  1.00  0.00    +0.000 H 
ATOM    111  H26 UNL A   1      44.078  28.741  30.724  1.00  0.00    +0.000 H 
ATOM    112  H27 UNL A   1      40.419  24.898  27.180  1.00  0.00    +0.000 H 
ATOM    113  H28 UNL A   1      38.859  26.854  27.611  1.00  0.00    +0.000 H 
ATOM    114  H29 UNL A   1      42.445  27.634  29.563  1.00  0.00    +0.000 H 
ATOM    115  H30 UNL A   1      45.521  23.836  28.373  1.00  0.00    +0.000 H 
ATOM    116  H31 UNL A   1      47.246  24.911  29.928  1.00  0.00    +0.000 H 
ATOM    117  H32 UNL A   1      41.058  32.656  31.559  1.00  0.00    +0.000 H 
ATOM    118  H33 UNL A   1      39.150  31.367  30.439  1.00  0.00    +0.000 H 
ENDROOT
BRANCH   27   26
ATOM    107  H22 UNL A   1      35.421  29.287  30.076  1.00  0.00    +0.000 H 
ATOM    108  H23 UNL A   1      37.699  28.817  30.766  1.00  0.00    +0.000 H 
ATOM     84  C59 UNL A   1      38.298  29.747  27.602  1.00  0.00    +0.000 C 
ATOM     85  C60 UNL A   1      37.002  30.115  27.241  1.00  0.00    +0.000 C 
ATOM    120  H35 UNL A   1      36.829  30.558  26.325  1.00  0.00    +0.000 H 
ATOM     23  C17 UNL A   1      35.938  29.885  28.117  1.00  0.00    +0.000 C 
ATOM     24  C18 UNL A   1      36.199  29.418  29.409  1.00  0.00    +0.000 C 
ATOM     25  C19 UNL A   1      37.510  29.128  29.800  1.00  0.00    +0.000 C 
ATOM    119  H34 UNL A   1      39.065  29.837  26.916  1.00  0.00    +0.000 H 
ATOM     26  C20 UNL A   1      38.570  29.257  28.888  1.00  0.00    +0.000 C 
BRANCH   23   21
ATOM     21  C16 UNL A   1      34.533  30.165  27.734  1.00  0.00    +0.000 C 
ATOM     22  O4  UNL A   1      33.775  29.228  27.498  1.00  0.00    +0.000 O 
BRANCH   21   20
ATOM    106  H21 UNL A   1      33.715  31.690  26.731  1.00  0.00    +0.000 H 
ATOM     20  N2  UNL A   1      34.070  31.454  27.618  1.00  0.00    +0.000 N 
BRANCH   20   19
ATOM    105  H20 UNL A   1      35.032  32.780  28.842  1.00  0.00    +0.000 H 
ATOM     19  C15 UNL A   1      34.021  32.522  28.600  1.00  0.00    +0.000 C 
ATOM    104  H19 UNL A   1      33.481  32.174  29.455  1.00  0.00    +0.000 H 
BRANCH   19   18
ATOM     18  C14 UNL A   1      33.344  33.783  28.077  1.00  0.00    +0.000 C 
ATOM    102  H17 UNL A   1      33.143  33.635  27.036  1.00  0.00    +0.000 H 
ATOM    103  H18 UNL A   1      32.473  33.908  28.686  1.00  0.00    +0.000 H 
BRANCH   18   17
ATOM     17  C13 UNL A   1      34.124  35.091  28.218  1.00  0.00    +0.000 C 
ATOM    100  H15 UNL A   1      35.151  34.837  28.378  1.00  0.00    +0.000 H 
ATOM    101  H16 UNL A   1      33.924  35.629  27.315  1.00  0.00    +0.000 H 
BRANCH   17   16
ATOM     98  H13 UNL A   1      34.565  36.613  29.622  1.00  0.00    +0.000 H 
ATOM     99  H14 UNL A   1      32.890  36.605  28.934  1.00  0.00    +0.000 H 
ATOM     16  C12 UNL A   1      33.703  36.043  29.346  1.00  0.00    +0.000 C 
BRANCH   16   15
ATOM     97  H12 UNL A   1      32.724  34.481  30.324  1.00  0.00    +0.000 H 
ATOM     15  C11 UNL A   1      33.135  35.422  30.627  1.00  0.00    +0.000 C 
ATOM     96  H11 UNL A   1      32.425  36.112  31.034  1.00  0.00    +0.000 H 
BRANCH   15   14
ATOM     94  H9  UNL A   1      35.048  35.588  31.502  1.00  0.00    +0.000 H 
ATOM     14  C10 UNL A   1      34.132  35.085  31.728  1.00  0.00    +0.000 C 
ATOM     95  H10 UNL A   1      33.667  35.401  32.640  1.00  0.00    +0.000 H 
BRANCH   14   13
ATOM     13  N1  UNL A   1      34.432  33.688  31.913  1.00  0.00    +0.000 N 
ATOM     93  H8  UNL A   1      33.654  33.114  32.099  1.00  0.00    +0.000 H 
BRANCH   13   11
ATOM     11  C9  UNL A   1      35.645  33.036  31.866  1.00  0.00    +0.000 C 
ATOM     12  O3  UNL A   1      35.689  31.911  32.371  1.00  0.00    +0.000 O 
BRANCH   11   10
ATOM      5  C3  UNL A   1      37.916  34.309  31.663  1.00  0.00    +0.000 C 
ATOM      6  C4  UNL A   1      38.954  34.767  30.833  1.00  0.00    +0.000 C 
ATOM      7  C5  UNL A   1      38.991  34.408  29.489  1.00  0.00    +0.000 C 
ATOM      8  C6  UNL A   1      37.994  33.590  28.973  1.00  0.00    +0.000 C 
ATOM      9  C7  UNL A   1      36.945  33.163  29.796  1.00  0.00    +0.000 C 
ATOM     10  C8  UNL A   1      36.861  33.543  31.153  1.00  0.00    +0.000 C 
ATOM     89  H4  UNL A   1      39.692  35.372  31.223  1.00  0.00    +0.000 H 
ATOM     90  H5  UNL A   1      39.752  34.748  28.881  1.00  0.00    +0.000 H 
ATOM     91  H6  UNL A   1      38.028  33.296  27.984  1.00  0.00    +0.000 H 
ATOM     92  H7  UNL A   1      36.212  32.555  29.398  1.00  0.00    +0.000 H 
BRANCH    5    4
ATOM      4  O2  UNL A   1      38.008  34.758  32.984  1.00  0.00    +0.000 O 
BRANCH    4    2
ATOM      2  C2  UNL A   1      39.142  34.384  33.691  1.00  0.00    +0.000 C 
ATOM      3  O1  UNL A   1      40.074  35.108  34.019  1.00  0.00    +0.000 O 
BRANCH    2    1
ATOM      1  C1  UNL A   1      39.051  32.916  33.997  1.00  0.00    +0.000 C 
ATOM     86  H1  UNL A   1      39.751  32.668  34.766  1.00  0.00    +0.000 H 
ATOM     87  H2  UNL A   1      39.275  32.353  33.116  1.00  0.00    +0.000 H 
ATOM     88  H3  UNL A   1      38.060  32.682  34.327  1.00  0.00    +0.000 H 
ENDBRANCH    2    1
ENDBRANCH    4    2
ENDBRANCH    5    4
ENDBRANCH   11   10
ENDBRANCH   13   11
ENDBRANCH   14   13
ENDBRANCH   15   14
ENDBRANCH   16   15
ENDBRANCH   17   16
ENDBRANCH   18   17
ENDBRANCH   19   18
ENDBRANCH   20   19
ENDBRANCH   21   20
ENDBRANCH   23   21
ENDBRANCH   27   26
BRANCH   31   32
ATOM     33  C26 UNL A   1      43.058  32.649  33.929  1.00  0.00    +0.000 C 
ATOM     34  F1  UNL A   1      42.561  31.585  34.577  1.00  0.00    +0.000 F 
ATOM     35  C27 UNL A   1      43.116  33.871  34.595  1.00  0.00    +0.000 C 
ATOM     36  F2  UNL A   1      42.667  33.968  35.854  1.00  0.00    +0.000 F 
ATOM     37  C28 UNL A   1      43.629  34.989  33.955  1.00  0.00    +0.000 C 
ATOM     38  F3  UNL A   1      43.696  36.162  34.600  1.00  0.00    +0.000 F 
ATOM     39  C29 UNL A   1      44.066  34.893  32.642  1.00  0.00    +0.000 C 
ATOM     40  F4  UNL A   1      44.577  35.969  32.027  1.00  0.00    +0.000 F 
ATOM     41  C30 UNL A   1      43.979  33.680  31.964  1.00  0.00    +0.000 C 
ATOM     42  F5  UNL A   1      44.399  33.624  30.691  1.00  0.00    +0.000 F 
ATOM     32  C25 UNL A   1      43.477  32.532  32.594  1.00  0.00    +0.000 C 
ENDBRANCH   31   32
BRANCH   48   49
ATOM     49  C36 UNL A   1      47.905  26.970  31.404  1.00  0.00    +0.000 C 
ATOM     50  C37 UNL A   1      48.139  26.110  32.486  1.00  0.00    +0.000 C 
ATOM     51  F6  UNL A   1      47.117  25.678  33.239  1.00  0.00    +0.000 F 
ATOM     52  C38 UNL A   1      49.434  25.722  32.825  1.00  0.00    +0.000 C 
ATOM     53  F7  UNL A   1      49.638  24.943  33.896  1.00  0.00    +0.000 F 
ATOM     54  C39 UNL A   1      50.512  26.154  32.066  1.00  0.00    +0.000 C 
ATOM     55  F8  UNL A   1      51.755  25.773  32.389  1.00  0.00    +0.000 F 
ATOM     56  C40 UNL A   1      50.302  26.986  30.978  1.00  0.00    +0.000 C 
ATOM     57  F9  UNL A   1      51.339  27.390  30.233  1.00  0.00    +0.000 F 
ATOM     58  C41 UNL A   1      49.013  27.403  30.658  1.00  0.00    +0.000 C 
ATOM     59  F10 UNL A   1      48.844  28.222  29.608  1.00  0.00    +0.000 F 
ENDBRANCH   48   49
BRANCH   63   64
ATOM     65  C46 UNL A   1      43.328  23.912  26.164  1.00  0.00    +0.000 C 
ATOM     66  F11 UNL A   1      43.723  25.038  25.552  1.00  0.00    +0.000 F 
ATOM     67  C47 UNL A   1      43.228  22.740  25.418  1.00  0.00    +0.000 C 
ATOM     68  F12 UNL A   1      43.515  22.755  24.109  1.00  0.00    +0.000 F 
ATOM     69  C48 UNL A   1      42.808  21.564  26.021  1.00  0.00    +0.000 C 
ATOM     70  F13 UNL A   1      42.710  20.437  25.302  1.00  0.00    +0.000 F 
ATOM     71  C49 UNL A   1      42.479  21.561  27.367  1.00  0.00    +0.000 C 
ATOM     72  F14 UNL A   1      42.088  20.424  27.959  1.00  0.00    +0.000 F 
ATOM     73  C50 UNL A   1      42.546  22.740  28.107  1.00  0.00    +0.000 C 
ATOM     74  F15 UNL A   1      42.199  22.709  29.402  1.00  0.00    +0.000 F 
ATOM     64  C45 UNL A   1      42.973  23.941  27.522  1.00  0.00    +0.000 C 
ENDBRANCH   63   64
TORSDOF 18
ENDMDL
MODEL 3
REMARK VINA RESULT:      -9.2     44.902     50.659
ROOT
ATOM     27  C21 UNL A   1      53.340  19.709  11.537  1.00  0.00    +0.000 C 
ATOM     28  C22 UNL A   1      53.080  20.401  12.849  1.00  0.00    +0.000 C 
ATOM     29  N3  UNL A   1      53.892  20.603  13.857  1.00  0.00    +0.000 N 
ATOM     30  C23 UNL A   1      53.163  21.320  14.795  1.00  0.00    +0.000 C 
ATOM     31  C24 UNL A   1      53.534  21.711  16.039  1.00  0.00    +0.000 C 
ATOM     43  C31 UNL A   1      54.821  21.440  16.623  1.00  0.00    +0.000 C 
ATOM     44  C32 UNL A   1      55.275  21.750  17.893  1.00  0.00    +0.000 C 
ATOM     45  C33 UNL A   1      56.610  21.344  17.993  1.00  0.00    +0.000 C 
ATOM     46  C34 UNL A   1      56.967  20.721  16.809  1.00  0.00    +0.000 C 
ATOM     47  N4  UNL A   1      55.864  20.794  15.974  1.00  0.00    +0.000 N 
ATOM     48  C35 UNL A   1      58.224  20.105  16.464  1.00  0.00    +0.000 C 
ATOM     60  C42 UNL A   1      58.493  19.510  15.277  1.00  0.00    +0.000 C 
ATOM     61  N5  UNL A   1      57.667  19.349  14.172  1.00  0.00    +0.000 N 
ATOM     62  C43 UNL A   1      58.389  18.726  13.271  1.00  0.00    +0.000 C 
ATOM     63  C44 UNL A   1      57.996  18.259  11.893  1.00  0.00    +0.000 C 
ATOM     75  C51 UNL A   1      56.738  18.476  11.460  1.00  0.00    +0.000 C 
ATOM     76  C52 UNL A   1      56.213  18.079  10.158  1.00  0.00    +0.000 C 
ATOM     77  C53 UNL A   1      54.944  18.505  10.049  1.00  0.00    +0.000 C 
ATOM     78  C54 UNL A   1      54.551  19.169  11.293  1.00  0.00    +0.000 C 
ATOM     79  N6  UNL A   1      55.678  19.099  12.075  1.00  0.00    +0.000 N 
ATOM     80  C55 UNL A   1      59.769  18.454  13.694  1.00  0.00    +0.000 C 
ATOM     81  C56 UNL A   1      59.765  18.905  14.940  1.00  0.00    +0.000 C 
ATOM     82  C57 UNL A   1      51.862  21.573  14.216  1.00  0.00    +0.000 C 
ATOM     83  C58 UNL A   1      51.736  20.965  13.045  1.00  0.00    +0.000 C 
ATOM    109  H24 UNL A   1      54.723  22.205  18.638  1.00  0.00    +0.000 H 
ATOM    110  H25 UNL A   1      57.223  21.484  18.811  1.00  0.00    +0.000 H 
ATOM    111  H26 UNL A   1      55.825  20.440  15.056  1.00  0.00    +0.000 H 
ATOM    112  H27 UNL A   1      56.732  17.554   9.437  1.00  0.00    +0.000 H 
ATOM    113  H28 UNL A   1      54.342  18.384   9.220  1.00  0.00    +0.000 H 
ATOM    114  H29 UNL A   1      55.722  19.460  12.989  1.00  0.00    +0.000 H 
ATOM    115  H30 UNL A   1      60.541  18.023  13.160  1.00  0.00    +0.000 H 
ATOM    116  H31 UNL A   1      60.566  18.835  15.587  1.00  0.00    +0.000 H 
ATOM    117  H32 UNL A   1      51.128  22.151  14.656  1.00  0.00    +0.000 H 
ATOM    118  H33 UNL A   1      50.909  20.903  12.431  1.00  0.00    +0.000 H 
ENDROOT
BRANCH   27   26
ATOM    107  H22 UNL A   1      50.611  21.632   8.332  1.00  0.00    +0.000 H 
ATOM    108  H23 UNL A   1      52.425  21.704   9.941  1.00  0.00    +0.000 H 
ATOM     84  C59 UNL A   1      51.639  18.455  10.194  1.00  0.00    +0.000 C 
ATOM     85  C60 UNL A   1      50.667  18.395   9.195  1.00  0.00    +0.000 C 
ATOM    120  H35 UNL A   1      50.263  17.485   8.924  1.00  0.00    +0.000 H 
ATOM     23  C17 UNL A   1      50.240  19.564   8.560  1.00  0.00    +0.000 C 
ATOM     24  C18 UNL A   1      50.892  20.772   8.830  1.00  0.00    +0.000 C 
ATOM     25  C19 UNL A   1      51.925  20.817   9.772  1.00  0.00    +0.000 C 
ATOM    119  H34 UNL A   1      51.885  17.602  10.721  1.00  0.00    +0.000 H 
ATOM     26  C20 UNL A   1      52.285  19.665  10.489  1.00  0.00    +0.000 C 
BRANCH   23   21
ATOM     21  C16 UNL A   1      49.138  19.559   7.568  1.00  0.00    +0.000 C 
ATOM     22  O4  UNL A   1      48.268  20.425   7.628  1.00  0.00    +0.000 O 
BRANCH   21   20
ATOM    106  H21 UNL A   1      49.627  18.752   5.805  1.00  0.00    +0.000 H 
ATOM     20  N2  UNL A   1      49.061  18.592   6.595  1.00  0.00    +0.000 N 
BRANCH   20   19
ATOM    105  H20 UNL A   1      47.748  17.296   7.475  1.00  0.00    +0.000 H 
ATOM     19  C15 UNL A   1      48.279  17.371   6.548  1.00  0.00    +0.000 C 
ATOM    104  H19 UNL A   1      48.944  16.545   6.400  1.00  0.00    +0.000 H 
BRANCH   19   18
ATOM     18  C14 UNL A   1      47.243  17.367   5.430  1.00  0.00    +0.000 C 
ATOM    102  H17 UNL A   1      47.470  16.547   4.782  1.00  0.00    +0.000 H 
ATOM    103  H18 UNL A   1      46.296  17.297   5.924  1.00  0.00    +0.000 H 
BRANCH   18   17
ATOM     17  C13 UNL A   1      47.156  18.629   4.570  1.00  0.00    +0.000 C 
ATOM    100  H15 UNL A   1      47.494  19.449   5.167  1.00  0.00    +0.000 H 
ATOM    101  H16 UNL A   1      47.755  18.416   3.709  1.00  0.00    +0.000 H 
BRANCH   17   16
ATOM     98  H13 UNL A   1      45.755  18.692   2.984  1.00  0.00    +0.000 H 
ATOM     99  H14 UNL A   1      45.081  18.512   4.655  1.00  0.00    +0.000 H 
ATOM     16  C12 UNL A   1      45.778  19.003   4.008  1.00  0.00    +0.000 C 
BRANCH   16   15
ATOM     97  H12 UNL A   1      46.268  21.024   3.843  1.00  0.00    +0.000 H 
ATOM     15  C11 UNL A   1      45.370  20.480   4.048  1.00  0.00    +0.000 C 
ATOM     96  H11 UNL A   1      44.939  20.671   5.009  1.00  0.00    +0.000 H 
BRANCH   15   14
ATOM     94  H9  UNL A   1      43.424  21.067   3.477  1.00  0.00    +0.000 H 
ATOM     14  C10 UNL A   1      44.371  20.946   2.996  1.00  0.00    +0.000 C 
ATOM     95  H10 UNL A   1      44.782  21.849   2.594  1.00  0.00    +0.000 H 
BRANCH   14   13
ATOM     13  N1  UNL A   1      44.182  20.074   1.865  1.00  0.00    +0.000 N 
ATOM     93  H8  UNL A   1      45.002  19.654   1.517  1.00  0.00    +0.000 H 
BRANCH   13   11
ATOM     11  C9  UNL A   1      43.023  19.738   1.199  1.00  0.00    +0.000 C 
ATOM     12  O3  UNL A   1      43.136  19.440   0.007  1.00  0.00    +0.000 O 
BRANCH   11   10
ATOM      5  C3  UNL A   1      40.498  20.297   1.556  1.00  0.00    +0.000 C 
ATOM      6  C4  UNL A   1      39.329  20.094   2.309  1.00  0.00    +0.000 C 
ATOM      7  C5  UNL A   1      39.299  19.138   3.319  1.00  0.00    +0.000 C 
ATOM      8  C6  UNL A   1      40.435  18.380   3.577  1.00  0.00    +0.000 C 
ATOM      9  C7  UNL A   1      41.607  18.609   2.845  1.00  0.00    +0.000 C 
ATOM     10  C8  UNL A   1      41.678  19.599   1.841  1.00  0.00    +0.000 C 
ATOM     89  H4  UNL A   1      38.488  20.658   2.112  1.00  0.00    +0.000 H 
ATOM     90  H5  UNL A   1      38.441  18.992   3.873  1.00  0.00    +0.000 H 
ATOM     91  H6  UNL A   1      40.415  17.650   4.305  1.00  0.00    +0.000 H 
ATOM     92  H7  UNL A   1      42.443  18.038   3.047  1.00  0.00    +0.000 H 
BRANCH    5    4
ATOM      4  O2  UNL A   1      40.379  21.296   0.584  1.00  0.00    +0.000 O 
BRANCH    4    2
ATOM      2  C2  UNL A   1      39.738  20.943  -0.595  1.00  0.00    +0.000 C 
ATOM      3  O1  UNL A   1      40.074  20.062  -1.377  1.00  0.00    +0.000 O 
BRANCH    2    1
ATOM      1  C1  UNL A   1      38.540  21.832  -0.772  1.00  0.00    +0.000 C 
ATOM     86  H1  UNL A   1      38.736  22.786  -0.331  1.00  0.00    +0.000 H 
ATOM     87  H2  UNL A   1      37.692  21.387  -0.294  1.00  0.00    +0.000 H 
ATOM     88  H3  UNL A   1      38.337  21.955  -1.815  1.00  0.00    +0.000 H 
ENDBRANCH    2    1
ENDBRANCH    4    2
ENDBRANCH    5    4
ENDBRANCH   11   10
ENDBRANCH   13   11
ENDBRANCH   14   13
ENDBRANCH   15   14
ENDBRANCH   16   15
ENDBRANCH   17   16
ENDBRANCH   18   17
ENDBRANCH   19   18
ENDBRANCH   20   19
ENDBRANCH   21   20
ENDBRANCH   23   21
ENDBRANCH   27   26
BRANCH   31   32
ATOM     33  C26 UNL A   1      51.790  21.851  17.878  1.00  0.00    +0.000 C 
ATOM     34  F1  UNL A   1      51.917  20.535  18.099  1.00  0.00    +0.000 F 
ATOM     35  C27 UNL A   1      50.885  22.575  18.651  1.00  0.00    +0.000 C 
ATOM     36  F2  UNL A   1      50.154  21.950  19.585  1.00  0.00    +0.000 F 
ATOM     37  C28 UNL A   1      50.734  23.938  18.451  1.00  0.00    +0.000 C 
ATOM     38  F3  UNL A   1      49.873  24.637  19.204  1.00  0.00    +0.000 F 
ATOM     39  C29 UNL A   1      51.470  24.578  17.465  1.00  0.00    +0.000 C 
ATOM     40  F4  UNL A   1      51.336  25.899  17.281  1.00  0.00    +0.000 F 
ATOM     41  C30 UNL A   1      52.350  23.850  16.669  1.00  0.00    +0.000 C 
ATOM     42  F5  UNL A   1      53.039  24.497  15.715  1.00  0.00    +0.000 F 
ATOM     32  C25 UNL A   1      52.531  22.473  16.861  1.00  0.00    +0.000 C 
ENDBRANCH   31   32
BRANCH   48   49
ATOM     49  C36 UNL A   1      59.306  20.095  17.506  1.00  0.00    +0.000 C 
ATOM     50  C37 UNL A   1      60.085  21.229  17.774  1.00  0.00    +0.000 C 
ATOM     51  F6  UNL A   1      59.912  22.352  17.060  1.00  0.00    +0.000 F 
ATOM     52  C38 UNL A   1      61.078  21.202  18.751  1.00  0.00    +0.000 C 
ATOM     53  F7  UNL A   1      61.846  22.281  18.953  1.00  0.00    +0.000 F 
ATOM     54  C39 UNL A   1      61.282  20.055  19.505  1.00  0.00    +0.000 C 
ATOM     55  F8  UNL A   1      62.231  20.034  20.450  1.00  0.00    +0.000 F 
ATOM     56  C40 UNL A   1      60.508  18.929  19.273  1.00  0.00    +0.000 C 
ATOM     57  F9  UNL A   1      60.691  17.826  20.011  1.00  0.00    +0.000 F 
ATOM     58  C41 UNL A   1      59.539  18.942  18.273  1.00  0.00    +0.000 C 
ATOM     59  F10 UNL A   1      58.817  17.831  18.062  1.00  0.00    +0.000 F 
ENDBRANCH   48   49
BRANCH   63   64
ATOM     65  C46 UNL A   1      59.133  16.164  11.089  1.00  0.00    +0.000 C 
ATOM     66  F11 UNL A   1      58.388  15.447  11.943  1.00  0.00    +0.000 F 
ATOM     67  C47 UNL A   1      60.092  15.509  10.319  1.00  0.00    +0.000 C 
ATOM     68  F12 UNL A   1      60.262  14.185  10.448  1.00  0.00    +0.000 F 
ATOM     69  C48 UNL A   1      60.887  16.226   9.439  1.00  0.00    +0.000 C 
ATOM     70  F13 UNL A   1      61.810  15.596   8.699  1.00  0.00    +0.000 F 
ATOM     71  C49 UNL A   1      60.732  17.600   9.334  1.00  0.00    +0.000 C 
ATOM     72  F14 UNL A   1      61.486  18.296   8.473  1.00  0.00    +0.000 F 
ATOM     73  C50 UNL A   1      59.797  18.261  10.129  1.00  0.00    +0.000 C 
ATOM     74  F15 UNL A   1      59.686  19.593  10.021  1.00  0.00    +0.000 F 
ATOM     64  C45 UNL A   1      58.977  17.557  11.023  1.00  0.00    +0.000 C 
ENDBRANCH   63   64
TORSDOF 18
ENDMDL
MODEL 4
REMARK VINA RESULT:      -9.1      0.686      2.238
ROOT
ATOM     27  C21 UNL A   1      21.248  38.276  49.367  1.00  0.00    +0.000 C 
ATOM     28  C22 UNL A   1      22.072  39.533  49.472  1.00  0.00    +0.000 C 
ATOM     29  N3  UNL A   1      23.236  39.810  48.939  1.00  0.00    +0.000 N 
ATOM     30  C23 UNL A   1      23.527  41.113  49.318  1.00  0.00    +0.000 C 
ATOM     31  C24 UNL A   1      24.649  41.834  49.080  1.00  0.00    +0.000 C 
ATOM     43  C31 UNL A   1      25.786  41.345  48.345  1.00  0.00    +0.000 C 
ATOM     44  C32 UNL A   1      26.989  41.981  48.092  1.00  0.00    +0.000 C 
ATOM     45  C33 UNL A   1      27.768  41.142  47.289  1.00  0.00    +0.000 C 
ATOM     46  C34 UNL A   1      27.078  39.957  47.096  1.00  0.00    +0.000 C 
ATOM     47  N4  UNL A   1      25.860  40.098  47.742  1.00  0.00    +0.000 N 
ATOM     48  C35 UNL A   1      27.498  38.783  46.373  1.00  0.00    +0.000 C 
ATOM     60  C42 UNL A   1      26.760  37.656  46.234  1.00  0.00    +0.000 C 
ATOM     61  N5  UNL A   1      25.495  37.371  46.732  1.00  0.00    +0.000 N 
ATOM     62  C43 UNL A   1      25.207  36.162  46.314  1.00  0.00    +0.000 C 
ATOM     63  C44 UNL A   1      23.980  35.328  46.583  1.00  0.00    +0.000 C 
ATOM     75  C51 UNL A   1      23.001  35.833  47.360  1.00  0.00    +0.000 C 
ATOM     76  C52 UNL A   1      21.763  35.145  47.711  1.00  0.00    +0.000 C 
ATOM     77  C53 UNL A   1      21.000  35.967  48.449  1.00  0.00    +0.000 C 
ATOM     78  C54 UNL A   1      21.714  37.226  48.661  1.00  0.00    +0.000 C 
ATOM     79  N6  UNL A   1      22.896  37.054  47.983  1.00  0.00    +0.000 N 
ATOM     80  C55 UNL A   1      26.246  35.558  45.470  1.00  0.00    +0.000 C 
ATOM     81  C56 UNL A   1      27.190  36.487  45.495  1.00  0.00    +0.000 C 
ATOM     82  C57 UNL A   1      22.393  41.596  50.075  1.00  0.00    +0.000 C 
ATOM     83  C58 UNL A   1      21.499  40.635  50.260  1.00  0.00    +0.000 C 
ATOM    109  H24 UNL A   1      27.264  42.915  48.437  1.00  0.00    +0.000 H 
ATOM    110  H25 UNL A   1      28.699  41.369  46.906  1.00  0.00    +0.000 H 
ATOM    111  H26 UNL A   1      25.152  39.414  47.768  1.00  0.00    +0.000 H 
ATOM    112  H27 UNL A   1      21.515  34.182  47.437  1.00  0.00    +0.000 H 
ATOM    113  H28 UNL A   1      20.059  35.745  48.809  1.00  0.00    +0.000 H 
ATOM    114  H29 UNL A   1      23.602  37.739  47.946  1.00  0.00    +0.000 H 
ATOM    115  H30 UNL A   1      26.243  34.646  44.985  1.00  0.00    +0.000 H 
ATOM    116  H31 UNL A   1      28.114  36.391  45.045  1.00  0.00    +0.000 H 
ATOM    117  H32 UNL A   1      22.293  42.562  50.427  1.00  0.00    +0.000 H 
ATOM    118  H33 UNL A   1      20.629  40.655  50.813  1.00  0.00    +0.000 H 
ENDROOT
BRANCH   27   26
ATOM    107  H22 UNL A   1      18.313  37.072  52.736  1.00  0.00    +0.000 H 
ATOM    108  H23 UNL A   1      20.537  37.293  51.794  1.00  0.00    +0.000 H 
ATOM     84  C59 UNL A   1      18.785  38.728  49.322  1.00  0.00    +0.000 C 
ATOM     85  C60 UNL A   1      17.522  38.693  49.912  1.00  0.00    +0.000 C 
ATOM    120  H35 UNL A   1      16.725  39.158  49.450  1.00  0.00    +0.000 H 
ATOM     23  C17 UNL A   1      17.332  38.029  51.127  1.00  0.00    +0.000 C 
ATOM     24  C18 UNL A   1      18.440  37.525  51.817  1.00  0.00    +0.000 C 
ATOM     25  C19 UNL A   1      19.720  37.635  51.264  1.00  0.00    +0.000 C 
ATOM    119  H34 UNL A   1      18.901  39.140  48.383  1.00  0.00    +0.000 H 
ATOM     26  C20 UNL A   1      19.901  38.206  49.994  1.00  0.00    +0.000 C 
BRANCH   23   21
ATOM     21  C16 UNL A   1      15.989  37.879  51.737  1.00  0.00    +0.000 C 
ATOM     22  O4  UNL A   1      15.739  38.453  52.793  1.00  0.00    +0.000 O 
BRANCH   21   20
ATOM    106  H21 UNL A   1      15.092  36.132  51.357  1.00  0.00    +0.000 H 
ATOM     20  N2  UNL A   1      15.026  37.093  51.151  1.00  0.00    +0.000 N 
BRANCH   20   19
ATOM    105  H20 UNL A   1      13.974  38.515  50.126  1.00  0.00    +0.000 H 
ATOM     19  C15 UNL A   1      13.926  37.456  50.277  1.00  0.00    +0.000 C 
ATOM    104  H19 UNL A   1      13.009  37.159  50.742  1.00  0.00    +0.000 H 
BRANCH   19   18
ATOM     18  C14 UNL A   1      14.010  36.798  48.905  1.00  0.00    +0.000 C 
ATOM    102  H17 UNL A   1      13.270  36.025  48.871  1.00  0.00    +0.000 H 
ATOM    103  H18 UNL A   1      13.860  37.591  48.203  1.00  0.00    +0.000 H 
BRANCH   18   17
ATOM     17  C13 UNL A   1      15.352  36.171  48.525  1.00  0.00    +0.000 C 
ATOM    100  H15 UNL A   1      15.994  36.244  49.378  1.00  0.00    +0.000 H 
ATOM    101  H16 UNL A   1      15.113  35.173  48.220  1.00  0.00    +0.000 H 
BRANCH   17   16
ATOM     98  H13 UNL A   1      15.483  36.647  46.467  1.00  0.00    +0.000 H 
ATOM     99  H14 UNL A   1      16.280  37.796  47.616  1.00  0.00    +0.000 H 
ATOM     16  C12 UNL A   1      16.099  36.780  47.332  1.00  0.00    +0.000 C 
BRANCH   16   15
ATOM     97  H12 UNL A   1      17.544  35.287  47.519  1.00  0.00    +0.000 H 
ATOM     15  C11 UNL A   1      17.486  36.220  46.997  1.00  0.00    +0.000 C 
ATOM     96  H11 UNL A   1      18.211  36.948  47.297  1.00  0.00    +0.000 H 
BRANCH   15   14
ATOM     94  H9  UNL A   1      18.277  36.701  45.100  1.00  0.00    +0.000 H 
ATOM     14  C10 UNL A   1      17.755  35.876  45.537  1.00  0.00    +0.000 C 
ATOM     95  H10 UNL A   1      18.311  34.961  45.557  1.00  0.00    +0.000 H 
BRANCH   14   13
ATOM     13  N1  UNL A   1      16.599  35.606  44.722  1.00  0.00    +0.000 N 
ATOM     93  H8  UNL A   1      16.196  36.394  44.291  1.00  0.00    +0.000 H 
BRANCH   13   11
ATOM     11  C9  UNL A   1      15.974  34.407  44.453  1.00  0.00    +0.000 C 
ATOM     12  O3  UNL A   1      15.074  34.066  45.226  1.00  0.00    +0.000 O 
BRANCH   11   10
ATOM      5  C3  UNL A   1      17.078  32.460  43.111  1.00  0.00    +0.000 C 
ATOM      6  C4  UNL A   1      17.257  31.818  41.873  1.00  0.00    +0.000 C 
ATOM      7  C5  UNL A   1      16.535  32.228  40.756  1.00  0.00    +0.000 C 
ATOM      8  C6  UNL A   1      15.631  33.277  40.875  1.00  0.00    +0.000 C 
ATOM      9  C7  UNL A   1      15.480  33.933  42.103  1.00  0.00    +0.000 C 
ATOM     10  C8  UNL A   1      16.228  33.564  43.242  1.00  0.00    +0.000 C 
ATOM     89  H4  UNL A   1      17.928  31.039  41.790  1.00  0.00    +0.000 H 
ATOM     90  H5  UNL A   1      16.670  31.759  39.848  1.00  0.00    +0.000 H 
ATOM     91  H6  UNL A   1      15.070  33.571  40.060  1.00  0.00    +0.000 H 
ATOM     92  H7  UNL A   1      14.804  34.710  42.176  1.00  0.00    +0.000 H 
BRANCH    5    4
ATOM      4  O2  UNL A   1      17.878  31.944  44.135  1.00  0.00    +0.000 O 
BRANCH    4    2
ATOM      2  C2  UNL A   1      19.023  32.662  44.452  1.00  0.00    +0.000 C 
ATOM      3  O1  UNL A   1      19.535  33.555  43.789  1.00  0.00    +0.000 O 
BRANCH    2    1
ATOM      1  C1  UNL A   1      19.552  32.160  45.766  1.00  0.00    +0.000 C 
ATOM     86  H1  UNL A   1      19.571  31.091  45.758  1.00  0.00    +0.000 H 
ATOM     87  H2  UNL A   1      18.918  32.498  46.558  1.00  0.00    +0.000 H 
ATOM     88  H3  UNL A   1      20.542  32.534  45.918  1.00  0.00    +0.000 H 
ENDBRANCH    2    1
ENDBRANCH    4    2
ENDBRANCH    5    4
ENDBRANCH   11   10
ENDBRANCH   13   11
ENDBRANCH   14   13
ENDBRANCH   15   14
ENDBRANCH   16   15
ENDBRANCH   17   16
ENDBRANCH   18   17
ENDBRANCH   19   18
ENDBRANCH   20   19
ENDBRANCH   21   20
ENDBRANCH   23   21
ENDBRANCH   27   26
BRANCH   31   32
ATOM     33  C26 UNL A   1      25.212  43.505  50.906  1.00  0.00    +0.000 C 
ATOM     34  F1  UNL A   1      25.598  42.500  51.706  1.00  0.00    +0.000 F 
ATOM     35  C27 UNL A   1      25.290  44.810  51.387  1.00  0.00    +0.000 C 
ATOM     36  F2  UNL A   1      25.729  45.039  52.632  1.00  0.00    +0.000 F 
ATOM     37  C28 UNL A   1      24.904  45.871  50.583  1.00  0.00    +0.000 C 
ATOM     38  F3  UNL A   1      24.990  47.128  51.042  1.00  0.00    +0.000 F 
ATOM     39  C29 UNL A   1      24.421  45.630  49.305  1.00  0.00    +0.000 C 
ATOM     40  F4  UNL A   1      24.062  46.657  48.521  1.00  0.00    +0.000 F 
ATOM     41  C30 UNL A   1      24.313  44.324  48.835  1.00  0.00    +0.000 C 
ATOM     42  F5  UNL A   1      23.830  44.125  47.599  1.00  0.00    +0.000 F 
ATOM     32  C25 UNL A   1      24.710  43.235  49.624  1.00  0.00    +0.000 C 
ENDBRANCH   31   32
BRANCH   48   49
ATOM     49  C36 UNL A   1      28.867  38.796  45.754  1.00  0.00    +0.000 C 
ATOM     50  C37 UNL A   1      29.141  39.513  44.581  1.00  0.00    +0.000 C 
ATOM     51  F6  UNL A   1      28.161  40.174  43.949  1.00  0.00    +0.000 F 
ATOM     52  C38 UNL A   1      30.421  39.520  44.029  1.00  0.00    +0.000 C 
ATOM     53  F7  UNL A   1      30.647  40.169  42.878  1.00  0.00    +0.000 F 
ATOM     54  C39 UNL A   1      31.456  38.845  44.660  1.00  0.00    +0.000 C 
ATOM     55  F8  UNL A   1      32.686  38.860  44.131  1.00  0.00    +0.000 F 
ATOM     56  C40 UNL A   1      31.212  38.148  45.833  1.00  0.00    +0.000 C 
ATOM     57  F9  UNL A   1      32.214  37.509  46.452  1.00  0.00    +0.000 F 
ATOM     58  C41 UNL A   1      29.928  38.110  46.367  1.00  0.00    +0.000 C 
ATOM     59  F10 UNL A   1      29.721  37.414  47.496  1.00  0.00    +0.000 F 
ENDBRANCH   48   49
BRANCH   63   64
ATOM     65  C46 UNL A   1      23.123  33.734  44.835  1.00  0.00    +0.000 C 
ATOM     66  F11 UNL A   1      22.530  34.760  44.208  1.00  0.00    +0.000 F 
ATOM     67  C47 UNL A   1      22.953  32.447  44.329  1.00  0.00    +0.000 C 
ATOM     68  F12 UNL A   1      22.199  32.253  43.238  1.00  0.00    +0.000 F 
ATOM     69  C48 UNL A   1      23.543  31.365  44.964  1.00  0.00    +0.000 C 
ATOM     70  F13 UNL A   1      23.378  30.128  44.478  1.00  0.00    +0.000 F 
ATOM     71  C49 UNL A   1      24.294  31.567  46.112  1.00  0.00    +0.000 C 
ATOM     72  F14 UNL A   1      24.879  30.527  46.722  1.00  0.00    +0.000 F 
ATOM     73  C50 UNL A   1      24.436  32.849  46.639  1.00  0.00    +0.000 C 
ATOM     74  F15 UNL A   1      25.150  33.009  47.763  1.00  0.00    +0.000 F 
ATOM     64  C45 UNL A   1      23.854  33.961  46.011  1.00  0.00    +0.000 C 
ENDBRANCH   63   64
TORSDOF 18
ENDMDL
MODEL 5
REMARK VINA RESULT:      -9.1      4.603      9.878
ROOT
ATOM     27  C21 UNL A   1      21.598  35.778  47.570  1.00  0.00    +0.000 C 
ATOM     28  C22 UNL A   1      20.282  36.207  48.164  1.00  0.00    +0.000 C 
ATOM     29  N3  UNL A   1      19.944  37.358  48.688  1.00  0.00    +0.000 N 
ATOM     30  C23 UNL A   1      18.608  37.235  49.048  1.00  0.00    +0.000 C 
ATOM     31  C24 UNL A   1      17.818  38.127  49.693  1.00  0.00    +0.000 C 
ATOM     43  C31 UNL A   1      18.254  39.428  50.130  1.00  0.00    +0.000 C 
ATOM     44  C32 UNL A   1      17.543  40.383  50.835  1.00  0.00    +0.000 C 
ATOM     45  C33 UNL A   1      18.356  41.512  50.984  1.00  0.00    +0.000 C 
ATOM     46  C34 UNL A   1      19.595  41.235  50.430  1.00  0.00    +0.000 C 
ATOM     47  N4  UNL A   1      19.516  39.956  49.902  1.00  0.00    +0.000 N 
ATOM     48  C35 UNL A   1      20.764  42.076  50.384  1.00  0.00    +0.000 C 
ATOM     60  C42 UNL A   1      21.947  41.726  49.822  1.00  0.00    +0.000 C 
ATOM     61  N5  UNL A   1      22.302  40.537  49.199  1.00  0.00    +0.000 N 
ATOM     62  C43 UNL A   1      23.544  40.691  48.810  1.00  0.00    +0.000 C 
ATOM     63  C44 UNL A   1      24.452  39.710  48.114  1.00  0.00    +0.000 C 
ATOM     75  C51 UNL A   1      23.988  38.479  47.822  1.00  0.00    +0.000 C 
ATOM     76  C52 UNL A   1      24.749  37.425  47.158  1.00  0.00    +0.000 C 
ATOM     77  C53 UNL A   1      23.955  36.357  46.981  1.00  0.00    +0.000 C 
ATOM     78  C54 UNL A   1      22.639  36.634  47.559  1.00  0.00    +0.000 C 
ATOM     79  N6  UNL A   1      22.754  37.915  48.041  1.00  0.00    +0.000 N 
ATOM     80  C55 UNL A   1      24.106  42.014  49.112  1.00  0.00    +0.000 C 
ATOM     81  C56 UNL A   1      23.111  42.587  49.773  1.00  0.00    +0.000 C 
ATOM     82  C57 UNL A   1      18.178  35.920  48.627  1.00  0.00    +0.000 C 
ATOM     83  C58 UNL A   1      19.192  35.219  48.141  1.00  0.00    +0.000 C 
ATOM    109  H24 UNL A   1      16.579  40.281  51.189  1.00  0.00    +0.000 H 
ATOM    110  H25 UNL A   1      18.079  42.400  51.431  1.00  0.00    +0.000 H 
ATOM    111  H26 UNL A   1      20.247  39.492  49.434  1.00  0.00    +0.000 H 
ATOM    112  H27 UNL A   1      25.738  37.489  46.871  1.00  0.00    +0.000 H 
ATOM    113  H28 UNL A   1      24.229  35.480  46.511  1.00  0.00    +0.000 H 
ATOM    114  H29 UNL A   1      22.021  38.385  48.501  1.00  0.00    +0.000 H 
ATOM    115  H30 UNL A   1      25.034  42.397  48.873  1.00  0.00    +0.000 H 
ATOM    116  H31 UNL A   1      23.159  43.526  50.198  1.00  0.00    +0.000 H 
ATOM    117  H32 UNL A   1      17.208  35.572  48.697  1.00  0.00    +0.000 H 
ATOM    118  H33 UNL A   1      19.212  34.235  47.830  1.00  0.00    +0.000 H 
ENDROOT
BRANCH   27   26
ATOM    107  H22 UNL A   1      22.355  31.215  47.714  1.00  0.00    +0.000 H 
ATOM    108  H23 UNL A   1      21.997  33.373  48.762  1.00  0.00    +0.000 H 
ATOM     84  C59 UNL A   1      21.632  34.287  45.558  1.00  0.00    +0.000 C 
ATOM     85  C60 UNL A   1      21.735  33.028  44.967  1.00  0.00    +0.000 C 
ATOM    120  H35 UNL A   1      21.566  32.920  43.954  1.00  0.00    +0.000 H 
ATOM     23  C17 UNL A   1      22.067  31.914  45.742  1.00  0.00    +0.000 C 
ATOM     24  C18 UNL A   1      22.153  32.043  47.131  1.00  0.00    +0.000 C 
ATOM     25  C19 UNL A   1      21.967  33.292  47.733  1.00  0.00    +0.000 C 
ATOM    119  H34 UNL A   1      21.476  35.119  44.967  1.00  0.00    +0.000 H 
ATOM     26  C20 UNL A   1      21.739  34.433  46.949  1.00  0.00    +0.000 C 
BRANCH   23   21
ATOM     21  C16 UNL A   1      22.288  30.577  45.138  1.00  0.00    +0.000 C 
ATOM     22  O4  UNL A   1      23.282  30.388  44.442  1.00  0.00    +0.000 O 
BRANCH   21   20
ATOM    106  H21 UNL A   1      21.750  28.770  45.803  1.00  0.00    +0.000 H 
ATOM     20  N2  UNL A   1      21.391  29.554  45.327  1.00  0.00    +0.000 N 
BRANCH   20   19
ATOM    105  H20 UNL A   1      19.429  29.276  45.830  1.00  0.00    +0.000 H 
ATOM     19  C15 UNL A   1      19.997  29.447  44.939  1.00  0.00    +0.000 C 
ATOM    104  H19 UNL A   1      19.899  28.643  44.240  1.00  0.00    +0.000 H 
BRANCH   19   18
ATOM     18  C14 UNL A   1      19.457  30.718  44.295  1.00  0.00    +0.000 C 
ATOM    102  H17 UNL A   1      20.287  31.372  44.124  1.00  0.00    +0.000 H 
ATOM    103  H18 UNL A   1      18.955  30.393  43.407  1.00  0.00    +0.000 H 
BRANCH   18   17
ATOM     17  C13 UNL A   1      18.408  31.499  45.088  1.00  0.00    +0.000 C 
ATOM    100  H15 UNL A   1      18.214  30.953  45.987  1.00  0.00    +0.000 H 
ATOM    101  H16 UNL A   1      18.836  32.469  45.229  1.00  0.00    +0.000 H 
BRANCH   17   16
ATOM     98  H13 UNL A   1      16.601  32.586  44.904  1.00  0.00    +0.000 H 
ATOM     99  H14 UNL A   1      17.304  31.918  43.375  1.00  0.00    +0.000 H 
ATOM     16  C12 UNL A   1      17.059  31.757  44.405  1.00  0.00    +0.000 C 
BRANCH   16   15
ATOM     97  H12 UNL A   1      15.090  31.083  44.545  1.00  0.00    +0.000 H 
ATOM     15  C11 UNL A   1      16.038  30.614  44.386  1.00  0.00    +0.000 C 
ATOM     96  H11 UNL A   1      16.325  29.912  45.142  1.00  0.00    +0.000 H 
BRANCH   15   14
ATOM     94  H9  UNL A   1      14.911  30.044  42.695  1.00  0.00    +0.000 H 
ATOM     14  C10 UNL A   1      15.890  29.846  43.079  1.00  0.00    +0.000 C 
ATOM     95  H10 UNL A   1      16.688  30.191  42.454  1.00  0.00    +0.000 H 
BRANCH   14   13
ATOM     13  N1  UNL A   1      16.051  28.417  43.156  1.00  0.00    +0.000 N 
ATOM     93  H8  UNL A   1      16.957  28.109  43.390  1.00  0.00    +0.000 H 
BRANCH   13   11
ATOM     11  C9  UNL A   1      15.127  27.416  42.950  1.00  0.00    +0.000 C 
ATOM     12  O3  UNL A   1      14.316  27.215  43.859  1.00  0.00    +0.000 O 
BRANCH   11   10
ATOM      5  C3  UNL A   1      14.634  25.299  41.504  1.00  0.00    +0.000 C 
ATOM      6  C4  UNL A   1      14.596  24.712  40.227  1.00  0.00    +0.000 C 
ATOM      7  C5  UNL A   1      14.824  25.482  39.091  1.00  0.00    +0.000 C 
ATOM      8  C6  UNL A   1      15.088  26.840  39.227  1.00  0.00    +0.000 C 
ATOM      9  C7  UNL A   1      15.156  27.413  40.503  1.00  0.00    +0.000 C 
ATOM     10  C8  UNL A   1      14.967  26.648  41.674  1.00  0.00    +0.000 C 
ATOM     89  H4  UNL A   1      14.398  23.705  40.131  1.00  0.00    +0.000 H 
ATOM     90  H5  UNL A   1      14.799  25.049  38.155  1.00  0.00    +0.000 H 
ATOM     91  H6  UNL A   1      15.231  27.425  38.389  1.00  0.00    +0.000 H 
ATOM     92  H7  UNL A   1      15.352  28.423  40.588  1.00  0.00    +0.000 H 
BRANCH    5    4
ATOM      4  O2  UNL A   1      14.394  24.400  42.547  1.00  0.00    +0.000 O 
BRANCH    4    2
ATOM      2  C2  UNL A   1      13.139  23.807  42.582  1.00  0.00    +0.000 C 
ATOM      3  O1  UNL A   1      12.058  24.382  42.600  1.00  0.00    +0.000 O 
BRANCH    2    1
ATOM      1  C1  UNL A   1      13.316  22.316  42.598  1.00  0.00    +0.000 C 
ATOM     86  H1  UNL A   1      12.660  21.887  43.326  1.00  0.00    +0.000 H 
ATOM     87  H2  UNL A   1      14.329  22.079  42.848  1.00  0.00    +0.000 H 
ATOM     88  H3  UNL A   1      13.086  21.919  41.632  1.00  0.00    +0.000 H 
ENDBRANCH    2    1
ENDBRANCH    4    2
ENDBRANCH    5    4
ENDBRANCH   11   10
ENDBRANCH   13   11
ENDBRANCH   14   13
ENDBRANCH   15   14
ENDBRANCH   16   15
ENDBRANCH   17   16
ENDBRANCH   18   17
ENDBRANCH   19   18
ENDBRANCH   20   19
ENDBRANCH   21   20
ENDBRANCH   23   21
ENDBRANCH   27   26
BRANCH   31   32
ATOM     33  C26 UNL A   1      15.468  37.536  48.938  1.00  0.00    +0.000 C 
ATOM     34  F1  UNL A   1      15.820  37.767  47.664  1.00  0.00    +0.000 F 
ATOM     35  C27 UNL A   1      14.161  37.138  49.210  1.00  0.00    +0.000 C 
ATOM     36  F2  UNL A   1      13.280  37.008  48.208  1.00  0.00    +0.000 F 
ATOM     37  C28 UNL A   1      13.767  36.887  50.515  1.00  0.00    +0.000 C 
ATOM     38  F3  UNL A   1      12.513  36.492  50.774  1.00  0.00    +0.000 F 
ATOM     39  C29 UNL A   1      14.672  37.051  51.553  1.00  0.00    +0.000 C 
ATOM     40  F4  UNL A   1      14.297  36.794  52.814  1.00  0.00    +0.000 F 
ATOM     41  C30 UNL A   1      15.970  37.480  51.287  1.00  0.00    +0.000 C 
ATOM     42  F5  UNL A   1      16.817  37.641  52.315  1.00  0.00    +0.000 F 
ATOM     32  C25 UNL A   1      16.396  37.728  49.974  1.00  0.00    +0.000 C 
ENDBRANCH   31   32
BRANCH   48   49
ATOM     49  C36 UNL A   1      20.678  43.429  51.031  1.00  0.00    +0.000 C 
ATOM     50  C37 UNL A   1      20.253  44.562  50.323  1.00  0.00    +0.000 C 
ATOM     51  F6  UNL A   1      19.956  44.471  49.018  1.00  0.00    +0.000 F 
ATOM     52  C38 UNL A   1      20.171  45.806  50.945  1.00  0.00    +0.000 C 
ATOM     53  F7  UNL A   1      19.813  46.885  50.235  1.00  0.00    +0.000 F 
ATOM     54  C39 UNL A   1      20.472  45.932  52.294  1.00  0.00    +0.000 C 
ATOM     55  F8  UNL A   1      20.384  47.128  52.891  1.00  0.00    +0.000 F 
ATOM     56  C40 UNL A   1      20.873  44.821  53.019  1.00  0.00    +0.000 C 
ATOM     57  F9  UNL A   1      21.148  44.937  54.325  1.00  0.00    +0.000 F 
ATOM     58  C41 UNL A   1      20.990  43.584  52.391  1.00  0.00    +0.000 C 
ATOM     59  F10 UNL A   1      21.395  42.530  53.118  1.00  0.00    +0.000 F 
ENDBRANCH   48   49
BRANCH   63   64
ATOM     65  C46 UNL A   1      26.879  40.005  48.711  1.00  0.00    +0.000 C 
ATOM     66  F11 UNL A   1      26.613  39.577  49.953  1.00  0.00    +0.000 F 
ATOM     67  C47 UNL A   1      28.175  40.414  48.403  1.00  0.00    +0.000 C 
ATOM     68  F12 UNL A   1      29.127  40.382  49.347  1.00  0.00    +0.000 F 
ATOM     69  C48 UNL A   1      28.477  40.875  47.132  1.00  0.00    +0.000 C 
ATOM     70  F13 UNL A   1      29.723  41.269  46.837  1.00  0.00    +0.000 F 
ATOM     71  C49 UNL A   1      27.481  40.939  46.169  1.00  0.00    +0.000 C 
ATOM     72  F14 UNL A   1      27.771  41.369  44.933  1.00  0.00    +0.000 F 
ATOM     73  C50 UNL A   1      26.177  40.563  46.485  1.00  0.00    +0.000 C 
ATOM     74  F15 UNL A   1      25.232  40.657  45.538  1.00  0.00    +0.000 F 
ATOM     64  C45 UNL A   1      25.848  40.088  47.762  1.00  0.00    +0.000 C 
ENDBRANCH   63   64
TORSDOF 18
ENDMDL
MODEL 6
REMARK VINA RESULT:      -9.0     30.212     37.879
ROOT
ATOM     27  C21 UNL A   1       2.041  10.978  37.862  1.00  0.00    +0.000 C 
ATOM     28  C22 UNL A   1       0.738  10.491  37.284  1.00  0.00    +0.000 C 
ATOM     29  N3  UNL A   1       0.416   9.299  36.849  1.00  0.00    +0.000 N 
ATOM     30  C23 UNL A   1      -0.914   9.382  36.460  1.00  0.00    +0.000 C 
ATOM     31  C24 UNL A   1      -1.687   8.434  35.877  1.00  0.00    +0.000 C 
ATOM     43  C31 UNL A   1      -1.236   7.106  35.554  1.00  0.00    +0.000 C 
ATOM     44  C32 UNL A   1      -1.928   6.090  34.918  1.00  0.00    +0.000 C 
ATOM     45  C33 UNL A   1      -1.105   4.960  34.874  1.00  0.00    +0.000 C 
ATOM     46  C34 UNL A   1       0.123   5.291  35.423  1.00  0.00    +0.000 C 
ATOM     47  N4  UNL A   1       0.027   6.607  35.844  1.00  0.00    +0.000 N 
ATOM     48  C35 UNL A   1       1.297   4.466  35.555  1.00  0.00    +0.000 C 
ATOM     60  C42 UNL A   1       2.468   4.870  36.104  1.00  0.00    +0.000 C 
ATOM     61  N5  UNL A   1       2.804   6.109  36.635  1.00  0.00    +0.000 N 
ATOM     62  C43 UNL A   1       4.041   5.997  37.055  1.00  0.00    +0.000 C 
ATOM     63  C44 UNL A   1       4.931   7.038  37.683  1.00  0.00    +0.000 C 
ATOM     75  C51 UNL A   1       4.454   8.285  37.866  1.00  0.00    +0.000 C 
ATOM     76  C52 UNL A   1       5.197   9.395  38.454  1.00  0.00    +0.000 C 
ATOM     77  C53 UNL A   1       4.393  10.468  38.532  1.00  0.00    +0.000 C 
ATOM     78  C54 UNL A   1       3.089  10.134  37.958  1.00  0.00    +0.000 C 
ATOM     79  N6  UNL A   1       3.219   8.819  37.583  1.00  0.00    +0.000 N 
ATOM     80  C55 UNL A   1       4.617   4.658  36.870  1.00  0.00    +0.000 C 
ATOM     81  C56 UNL A   1       3.636   4.026  36.242  1.00  0.00    +0.000 C 
ATOM     82  C57 UNL A   1      -1.360  10.723  36.766  1.00  0.00    +0.000 C 
ATOM     83  C58 UNL A   1      -0.358  11.469  37.209  1.00  0.00    +0.000 C 
ATOM    109  H24 UNL A   1      -2.887   6.155  34.542  1.00  0.00    +0.000 H 
ATOM    110  H25 UNL A   1      -1.369   4.036  34.496  1.00  0.00    +0.000 H 
ATOM    111  H26 UNL A   1       0.747   7.115  36.284  1.00  0.00    +0.000 H 
ATOM    112  H27 UNL A   1       6.181   9.362  38.761  1.00  0.00    +0.000 H 
ATOM    113  H28 UNL A   1       4.653  11.382  38.933  1.00  0.00    +0.000 H 
ATOM    114  H29 UNL A   1       2.498   8.307  37.152  1.00  0.00    +0.000 H 
ATOM    115  H30 UNL A   1       5.544   4.303  37.153  1.00  0.00    +0.000 H 
ATOM    116  H31 UNL A   1       3.697   3.055  35.895  1.00  0.00    +0.000 H 
ATOM    117  H32 UNL A   1      -2.331  11.056  36.653  1.00  0.00    +0.000 H 
ATOM    118  H33 UNL A   1      -0.350  12.475  37.440  1.00  0.00    +0.000 H 
ENDROOT
BRANCH   27   26
ATOM    107  H22 UNL A   1       3.087  15.465  37.432  1.00  0.00    +0.000 H 
ATOM    108  H23 UNL A   1       2.770  13.233  36.539  1.00  0.00    +0.000 H 
ATOM     84  C59 UNL A   1       1.846  12.656  39.710  1.00  0.00    +0.000 C 
ATOM     85  C60 UNL A   1       1.930  13.962  40.194  1.00  0.00    +0.000 C 
ATOM    120  H35 UNL A   1       1.610  14.177  41.151  1.00  0.00    +0.000 H 
ATOM     23  C17 UNL A   1       2.447  14.978  39.386  1.00  0.00    +0.000 C 
ATOM     24  C18 UNL A   1       2.745  14.709  38.047  1.00  0.00    +0.000 C 
ATOM     25  C19 UNL A   1       2.581  13.417  37.537  1.00  0.00    +0.000 C 
ATOM    119  H34 UNL A   1       1.548  11.895  40.339  1.00  0.00    +0.000 H 
ATOM     26  C20 UNL A   1       2.163  12.369  38.374  1.00  0.00    +0.000 C 
BRANCH   23   21
ATOM     21  C16 UNL A   1       2.650  16.357  39.895  1.00  0.00    +0.000 C 
ATOM     22  O4  UNL A   1       1.678  17.017  40.252  1.00  0.00    +0.000 O 
BRANCH   21   20
ATOM    106  H21 UNL A   1       4.159  17.452  39.171  1.00  0.00    +0.000 H 
ATOM     20  N2  UNL A   1       3.904  16.915  39.956  1.00  0.00    +0.000 N 
BRANCH   20   19
ATOM    105  H20 UNL A   1       4.432  16.476  41.882  1.00  0.00    +0.000 H 
ATOM     19  C15 UNL A   1       4.913  16.837  40.996  1.00  0.00    +0.000 C 
ATOM    104  H19 UNL A   1       5.333  17.812  41.137  1.00  0.00    +0.000 H 
BRANCH   19   18
ATOM     18  C14 UNL A   1       6.041  15.867  40.664  1.00  0.00    +0.000 C 
ATOM    102  H17 UNL A   1       6.293  16.005  39.633  1.00  0.00    +0.000 H 
ATOM    103  H18 UNL A   1       6.827  16.103  41.351  1.00  0.00    +0.000 H 
BRANCH   18   17
ATOM     17  C13 UNL A   1       5.753  14.380  40.877  1.00  0.00    +0.000 C 
ATOM    100  H15 UNL A   1       4.810  14.303  41.377  1.00  0.00    +0.000 H 
ATOM    101  H16 UNL A   1       5.783  13.951  39.897  1.00  0.00    +0.000 H 
BRANCH   17   16
ATOM     98  H13 UNL A   1       7.195  14.238  42.420  1.00  0.00    +0.000 H 
ATOM     99  H14 UNL A   1       6.216  12.751  42.085  1.00  0.00    +0.000 H 
ATOM     16  C12 UNL A   1       6.774  13.576  41.691  1.00  0.00    +0.000 C 
BRANCH   16   15
ATOM     97  H12 UNL A   1       8.368  12.231  41.623  1.00  0.00    +0.000 H 
ATOM     15  C11 UNL A   1       7.939  12.928  40.934  1.00  0.00    +0.000 C 
ATOM     96  H11 UNL A   1       8.597  13.712  40.621  1.00  0.00    +0.000 H 
BRANCH   15   14
ATOM     94  H9  UNL A   1       8.132  11.188  39.755  1.00  0.00    +0.000 H 
ATOM     14  C10 UNL A   1       7.585  12.105  39.702  1.00  0.00    +0.000 C 
ATOM     95  H10 UNL A   1       6.521  11.988  39.734  1.00  0.00    +0.000 H 
BRANCH   14   13
ATOM     13  N1  UNL A   1       7.866  12.711  38.426  1.00  0.00    +0.000 N 
ATOM     93  H8  UNL A   1       8.809  12.949  38.274  1.00  0.00    +0.000 H 
BRANCH   13   11
ATOM     11  C9  UNL A   1       7.011  13.008  37.387  1.00  0.00    +0.000 C 
ATOM     12  O3  UNL A   1       6.085  13.785  37.635  1.00  0.00    +0.000 O 
BRANCH   11   10
ATOM      5  C3  UNL A   1       7.106  13.307  34.795  1.00  0.00    +0.000 C 
ATOM      6  C4  UNL A   1       7.238  12.706  33.531  1.00  0.00    +0.000 C 
ATOM      7  C5  UNL A   1       7.531  11.350  33.423  1.00  0.00    +0.000 C 
ATOM      8  C6  UNL A   1       7.697  10.593  34.577  1.00  0.00    +0.000 C 
ATOM      9  C7  UNL A   1       7.533  11.190  35.833  1.00  0.00    +0.000 C 
ATOM     10  C8  UNL A   1       7.197  12.554  35.972  1.00  0.00    +0.000 C 
ATOM     89  H4  UNL A   1       7.116  13.273  32.678  1.00  0.00    +0.000 H 
ATOM     90  H5  UNL A   1       7.624  10.910  32.495  1.00  0.00    +0.000 H 
ATOM     91  H6  UNL A   1       7.941   9.593  34.508  1.00  0.00    +0.000 H 
ATOM     92  H7  UNL A   1       7.659  10.615  36.681  1.00  0.00    +0.000 H 
BRANCH    5    4
ATOM      4  O2  UNL A   1       6.802  14.671  34.743  1.00  0.00    +0.000 O 
BRANCH    4    2
ATOM      2  C2  UNL A   1       7.777  15.506  34.214  1.00  0.00    +0.000 C 
ATOM      3  O1  UNL A   1       7.723  16.117  33.154  1.00  0.00    +0.000 O 
BRANCH    2    1
ATOM      1  C1  UNL A   1       8.939  15.544  35.166  1.00  0.00    +0.000 C 
ATOM     86  H1  UNL A   1       8.951  16.483  35.678  1.00  0.00    +0.000 H 
ATOM     87  H2  UNL A   1       9.851  15.426  34.619  1.00  0.00    +0.000 H 
ATOM     88  H3  UNL A   1       8.845  14.751  35.877  1.00  0.00    +0.000 H 
ENDBRANCH    2    1
ENDBRANCH    4    2
ENDBRANCH    5    4
ENDBRANCH   11   10
ENDBRANCH   13   11
ENDBRANCH   14   13
ENDBRANCH   15   14
ENDBRANCH   16   15
ENDBRANCH   17   16
ENDBRANCH   18   17
ENDBRANCH   19   18
ENDBRANCH   20   19
ENDBRANCH   21   20
ENDBRANCH   23   21
ENDBRANCH   27   26
BRANCH   31   32
ATOM     33  C26 UNL A   1      -4.156   8.576  36.450  1.00  0.00    +0.000 C 
ATOM     34  F1  UNL A   1      -3.918   7.972  37.623  1.00  0.00    +0.000 F 
ATOM     35  C27 UNL A   1      -5.463   8.944  36.139  1.00  0.00    +0.000 C 
ATOM     36  F2  UNL A   1      -6.454   8.679  37.002  1.00  0.00    +0.000 F 
ATOM     37  C28 UNL A   1      -5.741   9.574  34.937  1.00  0.00    +0.000 C 
ATOM     38  F3  UNL A   1      -6.997   9.939  34.644  1.00  0.00    +0.000 F 
ATOM     39  C29 UNL A   1      -4.718   9.821  34.033  1.00  0.00    +0.000 C 
ATOM     40  F4  UNL A   1      -4.984  10.444  32.876  1.00  0.00    +0.000 F 
ATOM     41  C30 UNL A   1      -3.416   9.424  34.327  1.00  0.00    +0.000 C 
ATOM     42  F5  UNL A   1      -2.452   9.667  33.426  1.00  0.00    +0.000 F 
ATOM     32  C25 UNL A   1      -3.107   8.798  35.543  1.00  0.00    +0.000 C 
ENDBRANCH   31   32
BRANCH   48   49
ATOM     49  C36 UNL A   1       1.231   3.064  35.018  1.00  0.00    +0.000 C 
ATOM     50  C37 UNL A   1       1.578   2.763  33.693  1.00  0.00    +0.000 C 
ATOM     51  F6  UNL A   1       1.935   3.742  32.849  1.00  0.00    +0.000 F 
ATOM     52  C38 UNL A   1       1.519   1.454  33.218  1.00  0.00    +0.000 C 
ATOM     53  F7  UNL A   1       1.804   1.198  31.934  1.00  0.00    +0.000 F 
ATOM     54  C39 UNL A   1       1.152   0.420  34.067  1.00  0.00    +0.000 C 
ATOM     55  F8  UNL A   1       1.105  -0.838  33.609  1.00  0.00    +0.000 F 
ATOM     56  C40 UNL A   1       0.828   0.692  35.386  1.00  0.00    +0.000 C 
ATOM     57  F9  UNL A   1       0.490  -0.307  36.212  1.00  0.00    +0.000 F 
ATOM     58  C41 UNL A   1       0.851   2.003  35.854  1.00  0.00    +0.000 C 
ATOM     59  F10 UNL A   1       0.516   2.235  37.133  1.00  0.00    +0.000 F 
ENDBRANCH   48   49
BRANCH   63   64
ATOM     65  C46 UNL A   1       7.412   7.030  37.263  1.00  0.00    +0.000 C 
ATOM     66  F11 UNL A   1       7.205   7.660  36.098  1.00  0.00    +0.000 F 
ATOM     67  C47 UNL A   1       8.712   6.664  37.608  1.00  0.00    +0.000 C 
ATOM     68  F12 UNL A   1       9.726   6.936  36.775  1.00  0.00    +0.000 F 
ATOM     69  C48 UNL A   1       8.955   5.998  38.799  1.00  0.00    +0.000 C 
ATOM     70  F13 UNL A   1      10.204   5.645  39.130  1.00  0.00    +0.000 F 
ATOM     71  C49 UNL A   1       7.899   5.688  39.642  1.00  0.00    +0.000 C 
ATOM     72  F14 UNL A   1       8.129   5.059  40.803  1.00  0.00    +0.000 F 
ATOM     73  C50 UNL A   1       6.595   6.023  39.282  1.00  0.00    +0.000 C 
ATOM     74  F15 UNL A   1       5.592   5.689  40.108  1.00  0.00    +0.000 F 
ATOM     64  C45 UNL A   1       6.323   6.701  38.085  1.00  0.00    +0.000 C 
ENDBRANCH   63   64
TORSDOF 18
ENDMDL
MODEL 7
REMARK VINA RESULT:      -8.9      4.727      7.850
ROOT
ATOM     27  C21 UNL A   1      25.974  34.955  45.647  1.00  0.00    +0.000 C 
ATOM     28  C22 UNL A   1      25.700  36.105  46.581  1.00  0.00    +0.000 C 
ATOM     29  N3  UNL A   1      26.449  37.140  46.866  1.00  0.00    +0.000 N 
ATOM     30  C23 UNL A   1      25.710  37.913  47.751  1.00  0.00    +0.000 C 
ATOM     31  C24 UNL A   1      26.074  39.048  48.394  1.00  0.00    +0.000 C 
ATOM     43  C31 UNL A   1      27.358  39.684  48.251  1.00  0.00    +0.000 C 
ATOM     44  C32 UNL A   1      27.841  40.809  48.896  1.00  0.00    +0.000 C 
ATOM     45  C33 UNL A   1      29.117  41.088  48.396  1.00  0.00    +0.000 C 
ATOM     46  C34 UNL A   1      29.456  40.099  47.487  1.00  0.00    +0.000 C 
ATOM     47  N4  UNL A   1      28.365  39.249  47.401  1.00  0.00    +0.000 N 
ATOM     48  C35 UNL A   1      30.684  39.943  46.750  1.00  0.00    +0.000 C 
ATOM     60  C42 UNL A   1      30.940  38.938  45.877  1.00  0.00    +0.000 C 
ATOM     61  N5  UNL A   1      30.130  37.872  45.509  1.00  0.00    +0.000 N 
ATOM     62  C43 UNL A   1      30.816  37.186  44.627  1.00  0.00    +0.000 C 
ATOM     63  C44 UNL A   1      30.446  35.909  43.916  1.00  0.00    +0.000 C 
ATOM     75  C51 UNL A   1      29.257  35.333  44.179  1.00  0.00    +0.000 C 
ATOM     76  C52 UNL A   1      28.765  34.099  43.576  1.00  0.00    +0.000 C 
ATOM     77  C53 UNL A   1      27.524  33.854  44.027  1.00  0.00    +0.000 C 
ATOM     78  C54 UNL A   1      27.149  34.892  44.988  1.00  0.00    +0.000 C 
ATOM     79  N6  UNL A   1      28.241  35.724  45.020  1.00  0.00    +0.000 N 
ATOM     80  C55 UNL A   1      32.128  37.764  44.309  1.00  0.00    +0.000 C 
ATOM     81  C56 UNL A   1      32.175  38.800  45.134  1.00  0.00    +0.000 C 
ATOM     82  C57 UNL A   1      24.428  37.262  47.910  1.00  0.00    +0.000 C 
ATOM     83  C58 UNL A   1      24.397  36.105  47.265  1.00  0.00    +0.000 C 
ATOM    109  H24 UNL A   1      27.344  41.350  49.622  1.00  0.00    +0.000 H 
ATOM    110  H25 UNL A   1      29.705  41.893  48.660  1.00  0.00    +0.000 H 
ATOM    111  H26 UNL A   1      28.312  38.454  46.823  1.00  0.00    +0.000 H 
ATOM    112  H27 UNL A   1      29.286  33.508  42.910  1.00  0.00    +0.000 H 
ATOM    113  H28 UNL A   1      26.930  33.060  43.742  1.00  0.00    +0.000 H 
ATOM    114  H29 UNL A   1      28.293  36.525  45.590  1.00  0.00    +0.000 H 
ATOM    115  H30 UNL A   1      32.831  37.446  43.623  1.00  0.00    +0.000 H 
ATOM    116  H31 UNL A   1      32.988  39.428  45.234  1.00  0.00    +0.000 H 
ATOM    117  H32 UNL A   1      23.640  37.647  48.455  1.00  0.00    +0.000 H 
ATOM    118  H33 UNL A   1      23.654  35.389  47.249  1.00  0.00    +0.000 H 
ENDROOT
BRANCH   27   26
ATOM    107  H22 UNL A   1      22.278  33.228  43.463  1.00  0.00    +0.000 H 
ATOM    108  H23 UNL A   1      24.040  34.871  43.745  1.00  0.00    +0.000 H 
ATOM     84  C59 UNL A   1      24.894  32.767  46.212  1.00  0.00    +0.000 C 
ATOM     85  C60 UNL A   1      23.942  31.774  45.980  1.00  0.00    +0.000 C 
ATOM    120  H35 UNL A   1      23.977  30.893  46.518  1.00  0.00    +0.000 H 
ATOM     23  C17 UNL A   1      22.943  31.969  45.023  1.00  0.00    +0.000 C 
ATOM     24  C18 UNL A   1      22.988  33.099  44.201  1.00  0.00    +0.000 C 
ATOM     25  C19 UNL A   1      23.993  34.056  44.378  1.00  0.00    +0.000 C 
ATOM    119  H34 UNL A   1      25.573  32.656  46.980  1.00  0.00    +0.000 H 
ATOM     26  C20 UNL A   1      24.936  33.917  45.408  1.00  0.00    +0.000 C 
BRANCH   23   21
ATOM     21  C16 UNL A   1      21.852  30.985  44.818  1.00  0.00    +0.000 C 
ATOM     22  O4  UNL A   1      22.092  29.786  44.937  1.00  0.00    +0.000 O 
BRANCH   21   20
ATOM    106  H21 UNL A   1      20.514  32.325  44.177  1.00  0.00    +0.000 H 
ATOM     20  N2  UNL A   1      20.584  31.389  44.477  1.00  0.00    +0.000 N 
BRANCH   20   19
ATOM    105  H20 UNL A   1      19.169  30.318  45.491  1.00  0.00    +0.000 H 
ATOM     19  C15 UNL A   1      19.333  30.655  44.488  1.00  0.00    +0.000 C 
ATOM    104  H19 UNL A   1      19.410  29.840  43.800  1.00  0.00    +0.000 H 
BRANCH   19   18
ATOM     18  C14 UNL A   1      18.134  31.511  44.096  1.00  0.00    +0.000 C 
ATOM    102  H17 UNL A   1      17.710  31.904  44.996  1.00  0.00    +0.000 H 
ATOM    103  H18 UNL A   1      18.523  32.249  43.425  1.00  0.00    +0.000 H 
BRANCH   18   17
ATOM     17  C13 UNL A   1      17.015  30.812  43.322  1.00  0.00    +0.000 C 
ATOM    100  H15 UNL A   1      16.305  31.560  43.038  1.00  0.00    +0.000 H 
ATOM    101  H16 UNL A   1      17.509  30.322  42.508  1.00  0.00    +0.000 H 
BRANCH   17   16
ATOM     98  H13 UNL A   1      16.702  29.571  45.008  1.00  0.00    +0.000 H 
ATOM     99  H14 UNL A   1      15.232  30.034  44.057  1.00  0.00    +0.000 H 
ATOM     16  C12 UNL A   1      16.248  29.698  44.047  1.00  0.00    +0.000 C 
BRANCH   16   15
ATOM     97  H12 UNL A   1      15.932  27.639  44.163  1.00  0.00    +0.000 H 
ATOM     15  C11 UNL A   1      16.194  28.320  43.379  1.00  0.00    +0.000 C 
ATOM     96  H11 UNL A   1      17.149  28.140  42.929  1.00  0.00    +0.000 H 
BRANCH   15   14
ATOM     94  H9  UNL A   1      14.176  28.170  42.778  1.00  0.00    +0.000 H 
ATOM     14  C10 UNL A   1      15.133  28.117  42.304  1.00  0.00    +0.000 C 
ATOM     95  H10 UNL A   1      15.312  28.885  41.580  1.00  0.00    +0.000 H 
BRANCH   14   13
ATOM     13  N1  UNL A   1      15.194  26.878  41.573  1.00  0.00    +0.000 N 
ATOM     93  H8  UNL A   1      15.389  26.080  42.115  1.00  0.00    +0.000 H 
BRANCH   13   11
ATOM     11  C9  UNL A   1      15.020  26.643  40.226  1.00  0.00    +0.000 C 
ATOM     12  O3  UNL A   1      15.197  27.601  39.469  1.00  0.00    +0.000 O 
BRANCH   11   10
ATOM      5  C3  UNL A   1      14.520  24.081  40.270  1.00  0.00    +0.000 C 
ATOM      6  C4  UNL A   1      14.354  22.887  39.546  1.00  0.00    +0.000 C 
ATOM      7  C5  UNL A   1      14.347  22.903  38.155  1.00  0.00    +0.000 C 
ATOM      8  C6  UNL A   1      14.503  24.110  37.484  1.00  0.00    +0.000 C 
ATOM      9  C7  UNL A   1      14.700  25.292  38.210  1.00  0.00    +0.000 C 
ATOM     10  C8  UNL A   1      14.750  25.300  39.621  1.00  0.00    +0.000 C 
ATOM     89  H4  UNL A   1      14.237  21.995  40.049  1.00  0.00    +0.000 H 
ATOM     90  H5  UNL A   1      14.229  22.026  37.625  1.00  0.00    +0.000 H 
ATOM     91  H6  UNL A   1      14.472  24.137  36.453  1.00  0.00    +0.000 H 
ATOM     92  H7  UNL A   1      14.814  26.181  37.698  1.00  0.00    +0.000 H 
BRANCH    5    4
ATOM      4  O2  UNL A   1      14.514  23.906  41.657  1.00  0.00    +0.000 O 
BRANCH    4    2
ATOM      2  C2  UNL A   1      13.328  23.457  42.223  1.00  0.00    +0.000 C 
ATOM      3  O1  UNL A   1      13.101  22.333  42.653  1.00  0.00    +0.000 O 
BRANCH    2    1
ATOM      1  C1  UNL A   1      12.342  24.590  42.224  1.00  0.00    +0.000 C 
ATOM     86  H1  UNL A   1      12.144  24.891  41.217  1.00  0.00    +0.000 H 
ATOM     87  H2  UNL A   1      12.748  25.416  42.769  1.00  0.00    +0.000 H 
ATOM     88  H3  UNL A   1      11.432  24.271  42.687  1.00  0.00    +0.000 H 
ENDBRANCH    2    1
ENDBRANCH    4    2
ENDBRANCH    5    4
ENDBRANCH   11   10
ENDBRANCH   13   11
ENDBRANCH   14   13
ENDBRANCH   15   14
ENDBRANCH   16   15
ENDBRANCH   17   16
ENDBRANCH   18   17
ENDBRANCH   19   18
ENDBRANCH   20   19
ENDBRANCH   21   20
ENDBRANCH   23   21
ENDBRANCH   27   26
BRANCH   31   32
ATOM     33  C26 UNL A   1      25.023  39.358  50.683  1.00  0.00    +0.000 C 
ATOM     34  F1  UNL A   1      25.840  38.419  51.185  1.00  0.00    +0.000 F 
ATOM     35  C27 UNL A   1      24.109  39.973  51.535  1.00  0.00    +0.000 C 
ATOM     36  F2  UNL A   1      24.050  39.613  52.825  1.00  0.00    +0.000 F 
ATOM     37  C28 UNL A   1      23.254  40.950  51.049  1.00  0.00    +0.000 C 
ATOM     38  F3  UNL A   1      22.384  41.551  51.872  1.00  0.00    +0.000 F 
ATOM     39  C29 UNL A   1      23.298  41.301  49.708  1.00  0.00    +0.000 C 
ATOM     40  F4  UNL A   1      22.482  42.257  49.240  1.00  0.00    +0.000 F 
ATOM     41  C30 UNL A   1      24.188  40.664  48.848  1.00  0.00    +0.000 C 
ATOM     42  F5  UNL A   1      24.196  41.018  47.554  1.00  0.00    +0.000 F 
ATOM     32  C25 UNL A   1      25.072  39.682  49.319  1.00  0.00    +0.000 C 
ENDBRANCH   31   32
BRANCH   48   49
ATOM     49  C36 UNL A   1      31.775  40.948  46.988  1.00  0.00    +0.000 C 
ATOM     50  C37 UNL A   1      32.900  40.648  47.769  1.00  0.00    +0.000 C 
ATOM     51  F6  UNL A   1      33.005  39.455  48.372  1.00  0.00    +0.000 F 
ATOM     52  C38 UNL A   1      33.906  41.592  47.968  1.00  0.00    +0.000 C 
ATOM     53  F7  UNL A   1      34.945  41.302  48.763  1.00  0.00    +0.000 F 
ATOM     54  C39 UNL A   1      33.825  42.836  47.359  1.00  0.00    +0.000 C 
ATOM     55  F8  UNL A   1      34.797  43.738  47.545  1.00  0.00    +0.000 F 
ATOM     56  C40 UNL A   1      32.733  43.145  46.563  1.00  0.00    +0.000 C 
ATOM     57  F9  UNL A   1      32.661  44.339  45.960  1.00  0.00    +0.000 F 
ATOM     58  C41 UNL A   1      31.710  42.217  46.391  1.00  0.00    +0.000 C 
ATOM     59  F10 UNL A   1      30.658  42.553  45.627  1.00  0.00    +0.000 F 
ENDBRANCH   48   49
BRANCH   63   64
ATOM     65  C46 UNL A   1      31.449  35.726  41.616  1.00  0.00    +0.000 C 
ATOM     66  F11 UNL A   1      30.660  36.729  41.205  1.00  0.00    +0.000 F 
ATOM     67  C47 UNL A   1      32.283  35.104  40.689  1.00  0.00    +0.000 C 
ATOM     68  F12 UNL A   1      32.279  35.507  39.411  1.00  0.00    +0.000 F 
ATOM     69  C48 UNL A   1      33.099  34.054  41.081  1.00  0.00    +0.000 C 
ATOM     70  F13 UNL A   1      33.900  33.455  40.190  1.00  0.00    +0.000 F 
ATOM     71  C49 UNL A   1      33.074  33.618  42.397  1.00  0.00    +0.000 C 
ATOM     72  F14 UNL A   1      33.873  32.614  42.786  1.00  0.00    +0.000 F 
ATOM     73  C50 UNL A   1      32.215  34.216  43.317  1.00  0.00    +0.000 C 
ATOM     74  F15 UNL A   1      32.198  33.757  44.577  1.00  0.00    +0.000 F 
ATOM     64  C45 UNL A   1      31.384  35.284  42.946  1.00  0.00    +0.000 C 
ENDBRANCH   63   64
TORSDOF 18
ENDMDL
MODEL 8
REMARK VINA RESULT:      -8.9     48.405     53.643
ROOT
ATOM     27  C21 UNL A   1      29.118 -13.951  31.060  1.00  0.00    +0.000 C 
ATOM     28  C22 UNL A   1      28.825 -14.070  32.533  1.00  0.00    +0.000 C 
ATOM     29  N3  UNL A   1      27.791 -13.639  33.211  1.00  0.00    +0.000 N 
ATOM     30  C23 UNL A   1      28.000 -14.045  34.522  1.00  0.00    +0.000 C 
ATOM     31  C24 UNL A   1      27.251 -13.783  35.620  1.00  0.00    +0.000 C 
ATOM     43  C31 UNL A   1      26.041 -13.003  35.609  1.00  0.00    +0.000 C 
ATOM     44  C32 UNL A   1      25.238 -12.640  36.675  1.00  0.00    +0.000 C 
ATOM     45  C33 UNL A   1      24.139 -11.932  36.176  1.00  0.00    +0.000 C 
ATOM     46  C34 UNL A   1      24.291 -11.798  34.806  1.00  0.00    +0.000 C 
ATOM     47  N4  UNL A   1      25.457 -12.466  34.470  1.00  0.00    +0.000 N 
ATOM     48  C35 UNL A   1      23.435 -11.111  33.873  1.00  0.00    +0.000 C 
ATOM     60  C42 UNL A   1      23.659 -11.022  32.539  1.00  0.00    +0.000 C 
ATOM     61  N5  UNL A   1      24.712 -11.533  31.793  1.00  0.00    +0.000 N 
ATOM     62  C43 UNL A   1      24.470 -11.196  30.549  1.00  0.00    +0.000 C 
ATOM     63  C44 UNL A   1      25.295 -11.453  29.315  1.00  0.00    +0.000 C 
ATOM     75  C51 UNL A   1      26.463 -12.114  29.432  1.00  0.00    +0.000 C 
ATOM     76  C52 UNL A   1      27.369 -12.431  28.332  1.00  0.00    +0.000 C 
ATOM     77  C53 UNL A   1      28.402 -13.144  28.808  1.00  0.00    +0.000 C 
ATOM     78  C54 UNL A   1      28.256 -13.298  30.255  1.00  0.00    +0.000 C 
ATOM     79  N6  UNL A   1      27.079 -12.649  30.539  1.00  0.00    +0.000 N 
ATOM     80  C55 UNL A   1      23.211 -10.461  30.363  1.00  0.00    +0.000 C 
ATOM     81  C56 UNL A   1      22.783 -10.338  31.611  1.00  0.00    +0.000 C 
ATOM     82  C57 UNL A   1      29.227 -14.810  34.536  1.00  0.00    +0.000 C 
ATOM     83  C58 UNL A   1      29.813 -14.795  33.348  1.00  0.00    +0.000 C 
ATOM    109  H24 UNL A   1      25.418 -12.855  37.669  1.00  0.00    +0.000 H 
ATOM    110  H25 UNL A   1      23.350 -11.572  36.735  1.00  0.00    +0.000 H 
ATOM    111  H26 UNL A   1      25.819 -12.548  33.557  1.00  0.00    +0.000 H 
ATOM    112  H27 UNL A   1      27.237 -12.151  27.348  1.00  0.00    +0.000 H 
ATOM    113  H28 UNL A   1      29.177 -13.523  28.241  1.00  0.00    +0.000 H 
ATOM    114  H29 UNL A   1      26.711 -12.574  31.449  1.00  0.00    +0.000 H 
ATOM    115  H30 UNL A   1      22.775 -10.128  29.489  1.00  0.00    +0.000 H 
ATOM    116  H31 UNL A   1      21.933  -9.821  31.886  1.00  0.00    +0.000 H 
ATOM    117  H32 UNL A   1      29.599 -15.303  35.364  1.00  0.00    +0.000 H 
ATOM    118  H33 UNL A   1      30.725 -15.187  33.067  1.00  0.00    +0.000 H 
ENDROOT
BRANCH   27   26
ATOM    107  H22 UNL A   1      31.378 -17.447  29.039  1.00  0.00    +0.000 H 
ATOM    108  H23 UNL A   1      29.364 -16.370  29.856  1.00  0.00    +0.000 H 
ATOM     84  C59 UNL A   1      31.555 -13.913  30.485  1.00  0.00    +0.000 C 
ATOM     85  C60 UNL A   1      32.691 -14.494  29.920  1.00  0.00    +0.000 C 
ATOM    120  H35 UNL A   1      33.565 -13.950  29.847  1.00  0.00    +0.000 H 
ATOM     23  C17 UNL A   1      32.647 -15.810  29.452  1.00  0.00    +0.000 C 
ATOM     24  C18 UNL A   1      31.426 -16.490  29.423  1.00  0.00    +0.000 C 
ATOM     25  C19 UNL A   1      30.268 -15.876  29.913  1.00  0.00    +0.000 C 
ATOM    119  H34 UNL A   1      31.618 -12.974  30.909  1.00  0.00    +0.000 H 
ATOM     26  C20 UNL A   1      30.329 -14.593  30.481  1.00  0.00    +0.000 C 
BRANCH   23   21
ATOM     21  C16 UNL A   1      33.857 -16.500  28.941  1.00  0.00    +0.000 C 
ATOM     22  O4  UNL A   1      34.511 -17.210  29.699  1.00  0.00    +0.000 O 
BRANCH   21   20
ATOM    106  H21 UNL A   1      35.196 -16.620  27.460  1.00  0.00    +0.000 H 
ATOM     20  N2  UNL A   1      34.268 -16.342  27.639  1.00  0.00    +0.000 N 
BRANCH   20   19
ATOM    105  H20 UNL A   1      32.525 -15.717  26.773  1.00  0.00    +0.000 H 
ATOM     19  C15 UNL A   1      33.550 -15.832  26.486  1.00  0.00    +0.000 C 
ATOM    104  H19 UNL A   1      33.665 -16.525  25.679  1.00  0.00    +0.000 H 
BRANCH   19   18
ATOM     18  C14 UNL A   1      34.049 -14.467  26.028  1.00  0.00    +0.000 C 
ATOM    102  H17 UNL A   1      35.109 -14.444  26.172  1.00  0.00    +0.000 H 
ATOM    103  H18 UNL A   1      33.735 -14.380  25.008  1.00  0.00    +0.000 H 
BRANCH   18   17
ATOM     17  C13 UNL A   1      33.458 -13.246  26.736  1.00  0.00    +0.000 C 
ATOM    100  H15 UNL A   1      33.690 -13.334  27.776  1.00  0.00    +0.000 H 
ATOM    101  H16 UNL A   1      33.895 -12.404  26.242  1.00  0.00    +0.000 H 
BRANCH   17   16
ATOM     98  H13 UNL A   1      31.476 -13.990  26.701  1.00  0.00    +0.000 H 
ATOM     99  H14 UNL A   1      31.708 -12.334  27.396  1.00  0.00    +0.000 H 
ATOM     16  C12 UNL A   1      31.943 -13.030  26.618  1.00  0.00    +0.000 C 
BRANCH   16   15
ATOM     97  H12 UNL A   1      31.301 -13.174  24.638  1.00  0.00    +0.000 H 
ATOM     15  C11 UNL A   1      31.415 -12.373  25.338  1.00  0.00    +0.000 C 
ATOM     96  H11 UNL A   1      32.117 -11.619  25.047  1.00  0.00    +0.000 H 
BRANCH   15   14
ATOM     94  H9  UNL A   1      29.435 -12.137  24.645  1.00  0.00    +0.000 H 
ATOM     14  C10 UNL A   1      30.042 -11.716  25.418  1.00  0.00    +0.000 C 
ATOM     95  H10 UNL A   1      29.692 -11.910  26.411  1.00  0.00    +0.000 H 
BRANCH   14   13
ATOM     13  N1  UNL A   1      30.011 -10.284  25.273  1.00  0.00    +0.000 N 
ATOM     93  H8  UNL A   1      29.709  -9.958  24.394  1.00  0.00    +0.000 H 
BRANCH   13   11
ATOM     11  C9  UNL A   1      30.339  -9.300  26.181  1.00  0.00    +0.000 C 
ATOM     12  O3  UNL A   1      30.465  -8.156  25.737  1.00  0.00    +0.000 O 
BRANCH   11   10
ATOM      5  C3  UNL A   1      31.570  -9.781  28.432  1.00  0.00    +0.000 C 
ATOM      6  C4  UNL A   1      31.475 -10.016  29.815  1.00  0.00    +0.000 C 
ATOM      7  C5  UNL A   1      30.249  -9.910  30.465  1.00  0.00    +0.000 C 
ATOM      8  C6  UNL A   1      29.117  -9.566  29.736  1.00  0.00    +0.000 C 
ATOM      9  C7  UNL A   1      29.212  -9.364  28.353  1.00  0.00    +0.000 C 
ATOM     10  C8  UNL A   1      30.435  -9.503  27.662  1.00  0.00    +0.000 C 
ATOM     89  H4  UNL A   1      32.318 -10.269  30.352  1.00  0.00    +0.000 H 
ATOM     90  H5  UNL A   1      30.180 -10.086  31.479  1.00  0.00    +0.000 H 
ATOM     91  H6  UNL A   1      28.209  -9.457  30.212  1.00  0.00    +0.000 H 
ATOM     92  H7  UNL A   1      28.363  -9.108  27.825  1.00  0.00    +0.000 H 
BRANCH    5    4
ATOM      4  O2  UNL A   1      32.863  -9.933  27.921  1.00  0.00    +0.000 O 
BRANCH    4    2
ATOM      2  C2  UNL A   1      33.495  -8.782  27.473  1.00  0.00    +0.000 C 
ATOM      3  O1  UNL A   1      34.082  -8.635  26.408  1.00  0.00    +0.000 O 
BRANCH    2    1
ATOM      1  C1  UNL A   1      33.347  -7.717  28.522  1.00  0.00    +0.000 C 
ATOM     86  H1  UNL A   1      32.829  -8.119  29.367  1.00  0.00    +0.000 H 
ATOM     87  H2  UNL A   1      32.791  -6.896  28.122  1.00  0.00    +0.000 H 
ATOM     88  H3  UNL A   1      34.315  -7.378  28.825  1.00  0.00    +0.000 H 
ENDBRANCH    2    1
ENDBRANCH    4    2
ENDBRANCH    5    4
ENDBRANCH   11   10
ENDBRANCH   13   11
ENDBRANCH   14   13
ENDBRANCH   15   14
ENDBRANCH   16   15
ENDBRANCH   17   16
ENDBRANCH   18   17
ENDBRANCH   19   18
ENDBRANCH   20   19
ENDBRANCH   21   20
ENDBRANCH   23   21
ENDBRANCH   27   26
BRANCH   31   32
ATOM     33  C26 UNL A   1      27.171 -15.516  37.473  1.00  0.00    +0.000 C 
ATOM     34  F1  UNL A   1      26.165 -16.141  36.845  1.00  0.00    +0.000 F 
ATOM     35  C27 UNL A   1      27.634 -16.037  38.679  1.00  0.00    +0.000 C 
ATOM     36  F2  UNL A   1      27.063 -17.135  39.195  1.00  0.00    +0.000 F 
ATOM     37  C28 UNL A   1      28.676 -15.417  39.351  1.00  0.00    +0.000 C 
ATOM     38  F3  UNL A   1      29.129 -15.926  40.505  1.00  0.00    +0.000 F 
ATOM     39  C29 UNL A   1      29.245 -14.265  38.830  1.00  0.00    +0.000 C 
ATOM     40  F4  UNL A   1      30.263 -13.673  39.471  1.00  0.00    +0.000 F 
ATOM     41  C30 UNL A   1      28.763 -13.723  37.641  1.00  0.00    +0.000 C 
ATOM     42  F5  UNL A   1      29.327 -12.601  37.171  1.00  0.00    +0.000 F 
ATOM     32  C25 UNL A   1      27.719 -14.340  36.936  1.00  0.00    +0.000 C 
ENDBRANCH   31   32
BRANCH   48   49
ATOM     49  C36 UNL A   1      22.220 -10.416  34.419  1.00  0.00    +0.000 C 
ATOM     50  C37 UNL A   1      20.946 -10.998  34.359  1.00  0.00    +0.000 C 
ATOM     51  F6  UNL A   1      20.773 -12.185  33.759  1.00  0.00    +0.000 F 
ATOM     52  C38 UNL A   1      19.833 -10.341  34.881  1.00  0.00    +0.000 C 
ATOM     53  F7  UNL A   1      18.617 -10.892  34.765  1.00  0.00    +0.000 F 
ATOM     54  C39 UNL A   1      19.980  -9.112  35.508  1.00  0.00    +0.000 C 
ATOM     55  F8  UNL A   1      18.910  -8.487  36.016  1.00  0.00    +0.000 F 
ATOM     56  C40 UNL A   1      21.234  -8.529  35.599  1.00  0.00    +0.000 C 
ATOM     57  F9  UNL A   1      21.381  -7.350  36.218  1.00  0.00    +0.000 F 
ATOM     58  C41 UNL A   1      22.341  -9.166  35.047  1.00  0.00    +0.000 C 
ATOM     59  F10 UNL A   1      23.540  -8.568  35.138  1.00  0.00    +0.000 F 
ENDBRANCH   48   49
BRANCH   63   64
ATOM     65  C46 UNL A   1      23.928 -11.720  27.219  1.00  0.00    +0.000 C 
ATOM     66  F11 UNL A   1      23.458 -12.885  27.689  1.00  0.00    +0.000 F 
ATOM     67  C47 UNL A   1      23.542 -11.303  25.947  1.00  0.00    +0.000 C 
ATOM     68  F12 UNL A   1      22.721 -12.068  25.214  1.00  0.00    +0.000 F 
ATOM     69  C48 UNL A   1      24.023 -10.110  25.429  1.00  0.00    +0.000 C 
ATOM     70  F13 UNL A   1      23.652  -9.710  24.206  1.00  0.00    +0.000 F 
ATOM     71  C49 UNL A   1      24.899  -9.339  26.177  1.00  0.00    +0.000 C 
ATOM     72  F14 UNL A   1      25.355  -8.178  25.688  1.00  0.00    +0.000 F 
ATOM     73  C50 UNL A   1      25.314  -9.772  27.435  1.00  0.00    +0.000 C 
ATOM     74  F15 UNL A   1      26.179  -9.015  28.125  1.00  0.00    +0.000 F 
ATOM     64  C45 UNL A   1      24.837 -10.972  27.984  1.00  0.00    +0.000 C 
ENDBRANCH   63   64
TORSDOF 18
ENDMDL
MODEL 9
REMARK VINA RESULT:      -8.9      2.532      3.529
ROOT
ATOM     27  C21 UNL A   1      23.807  38.331  48.558  1.00  0.00    +0.000 C 
ATOM     28  C22 UNL A   1      25.074  39.134  48.426  1.00  0.00    +0.000 C 
ATOM     29  N3  UNL A   1      26.171  38.853  47.769  1.00  0.00    +0.000 N 
ATOM     30  C23 UNL A   1      27.011  39.944  47.945  1.00  0.00    +0.000 C 
ATOM     31  C24 UNL A   1      28.288  40.108  47.523  1.00  0.00    +0.000 C 
ATOM     43  C31 UNL A   1      29.025  39.127  46.770  1.00  0.00    +0.000 C 
ATOM     44  C32 UNL A   1      30.339  39.178  46.338  1.00  0.00    +0.000 C 
ATOM     45  C33 UNL A   1      30.601  38.023  45.594  1.00  0.00    +0.000 C 
ATOM     46  C34 UNL A   1      29.472  37.221  45.619  1.00  0.00    +0.000 C 
ATOM     47  N4  UNL A   1      28.510  37.913  46.336  1.00  0.00    +0.000 N 
ATOM     48  C35 UNL A   1      29.285  35.920  45.029  1.00  0.00    +0.000 C 
ATOM     60  C42 UNL A   1      28.142  35.195  45.102  1.00  0.00    +0.000 C 
ATOM     61  N5  UNL A   1      26.946  35.508  45.735  1.00  0.00    +0.000 N 
ATOM     62  C43 UNL A   1      26.142  34.498  45.507  1.00  0.00    +0.000 C 
ATOM     63  C44 UNL A   1      24.730  34.279  45.984  1.00  0.00    +0.000 C 
ATOM     75  C51 UNL A   1      24.148  35.212  46.762  1.00  0.00    +0.000 C 
ATOM     76  C52 UNL A   1      22.794  35.136  47.301  1.00  0.00    +0.000 C 
ATOM     77  C53 UNL A   1      22.530  36.264  47.982  1.00  0.00    +0.000 C 
ATOM     78  C54 UNL A   1      23.713  37.124  47.964  1.00  0.00    +0.000 C 
ATOM     79  N6  UNL A   1      24.626  36.416  47.222  1.00  0.00    +0.000 N 
ATOM     80  C55 UNL A   1      26.730  33.443  44.670  1.00  0.00    +0.000 C 
ATOM     81  C56 UNL A   1      27.964  33.893  44.494  1.00  0.00    +0.000 C 
ATOM     82  C57 UNL A   1      26.277  40.921  48.720  1.00  0.00    +0.000 C 
ATOM     83  C58 UNL A   1      25.103  40.440  49.103  1.00  0.00    +0.000 C 
ATOM    109  H24 UNL A   1      31.009  39.939  46.531  1.00  0.00    +0.000 H 
ATOM    110  H25 UNL A   1      31.487  37.806  45.111  1.00  0.00    +0.000 H 
ATOM    111  H26 UNL A   1      27.596  37.592  46.511  1.00  0.00    +0.000 H 
ATOM    112  H27 UNL A   1      22.144  34.345  47.181  1.00  0.00    +0.000 H 
ATOM    113  H28 UNL A   1      21.635  36.487  48.443  1.00  0.00    +0.000 H 
ATOM    114  H29 UNL A   1      25.537  36.739  47.037  1.00  0.00    +0.000 H 
ATOM    115  H30 UNL A   1      26.296  32.577  44.314  1.00  0.00    +0.000 H 
ATOM    116  H31 UNL A   1      28.703  33.381  43.988  1.00  0.00    +0.000 H 
ATOM    117  H32 UNL A   1      26.623  41.867  48.945  1.00  0.00    +0.000 H 
ATOM    118  H33 UNL A   1      24.395  40.870  49.718  1.00  0.00    +0.000 H 
ENDROOT
BRANCH   27   26
ATOM    107  H22 UNL A   1      21.230  38.956  52.351  1.00  0.00    +0.000 H 
ATOM    108  H23 UNL A   1      23.209  38.155  51.199  1.00  0.00    +0.000 H 
ATOM     84  C59 UNL A   1      21.677  39.647  48.617  1.00  0.00    +0.000 C 
ATOM     85  C60 UNL A   1      20.593  40.195  49.304  1.00  0.00    +0.000 C 
ATOM    120  H35 UNL A   1      19.940  40.827  48.814  1.00  0.00    +0.000 H 
ATOM     23  C17 UNL A   1      20.389  39.889  50.652  1.00  0.00    +0.000 C 
ATOM     24  C18 UNL A   1      21.353  39.149  51.344  1.00  0.00    +0.000 C 
ATOM     25  C19 UNL A   1      22.484  38.670  50.674  1.00  0.00    +0.000 C 
ATOM    119  H34 UNL A   1      21.772  39.804  47.602  1.00  0.00    +0.000 H 
ATOM     26  C20 UNL A   1      22.640  38.885  49.296  1.00  0.00    +0.000 C 
BRANCH   23   21
ATOM     21  C16 UNL A   1      19.194  40.365  51.391  1.00  0.00    +0.000 C 
ATOM     22  O4  UNL A   1      19.338  40.903  52.486  1.00  0.00    +0.000 O 
BRANCH   21   20
ATOM    106  H21 UNL A   1      17.658  40.869  50.214  1.00  0.00    +0.000 H 
ATOM     20  N2  UNL A   1      17.929  40.198  50.882  1.00  0.00    +0.000 N 
BRANCH   20   19
ATOM    105  H20 UNL A   1      16.167  39.652  51.763  1.00  0.00    +0.000 H 
ATOM     19  C15 UNL A   1      16.930  39.187  51.172  1.00  0.00    +0.000 C 
ATOM    104  H19 UNL A   1      17.402  38.380  51.692  1.00  0.00    +0.000 H 
BRANCH   19   18
ATOM     18  C14 UNL A   1      16.259  38.633  49.921  1.00  0.00    +0.000 C 
ATOM    102  H17 UNL A   1      16.240  39.415  49.191  1.00  0.00    +0.000 H 
ATOM    103  H18 UNL A   1      16.840  37.778  49.645  1.00  0.00    +0.000 H 
BRANCH   18   17
ATOM     17  C13 UNL A   1      14.829  38.112  50.081  1.00  0.00    +0.000 C 
ATOM    100  H15 UNL A   1      14.701  37.835  51.106  1.00  0.00    +0.000 H 
ATOM    101  H16 UNL A   1      14.206  38.914  49.745  1.00  0.00    +0.000 H 
BRANCH   17   16
ATOM     98  H13 UNL A   1      13.938  36.204  49.870  1.00  0.00    +0.000 H 
ATOM     99  H14 UNL A   1      13.804  37.323  48.452  1.00  0.00    +0.000 H 
ATOM     16  C12 UNL A   1      14.420  36.908  49.223  1.00  0.00    +0.000 C 
BRANCH   16   15
ATOM     97  H12 UNL A   1      15.332  35.121  48.652  1.00  0.00    +0.000 H 
ATOM     15  C11 UNL A   1      15.526  36.158  48.473  1.00  0.00    +0.000 C 
ATOM     96  H11 UNL A   1      16.466  36.510  48.847  1.00  0.00    +0.000 H 
BRANCH   15   14
ATOM     94  H9  UNL A   1      15.560  35.321  46.536  1.00  0.00    +0.000 H 
ATOM     14  C10 UNL A   1      15.550  36.304  46.957  1.00  0.00    +0.000 C 
ATOM     95  H10 UNL A   1      14.682  36.881  46.713  1.00  0.00    +0.000 H 
BRANCH   14   13
ATOM     13  N1  UNL A   1      16.663  37.031  46.403  1.00  0.00    +0.000 N 
ATOM     93  H8  UNL A   1      16.618  38.009  46.506  1.00  0.00    +0.000 H 
BRANCH   13   11
ATOM     11  C9  UNL A   1      17.782  36.561  45.750  1.00  0.00    +0.000 C 
ATOM     12  O3  UNL A   1      18.626  37.400  45.423  1.00  0.00    +0.000 O 
BRANCH   11   10
ATOM      5  C3  UNL A   1      17.492  34.225  44.623  1.00  0.00    +0.000 C 
ATOM      6  C4  UNL A   1      17.857  32.868  44.584  1.00  0.00    +0.000 C 
ATOM      7  C5  UNL A   1      18.880  32.390  45.397  1.00  0.00    +0.000 C 
ATOM      8  C6  UNL A   1      19.541  33.266  46.248  1.00  0.00    +0.000 C 
ATOM      9  C7  UNL A   1      19.153  34.611  46.306  1.00  0.00    +0.000 C 
ATOM     10  C8  UNL A   1      18.093  35.114  45.521  1.00  0.00    +0.000 C 
ATOM     89  H4  UNL A   1      17.363  32.222  43.949  1.00  0.00    +0.000 H 
ATOM     90  H5  UNL A   1      19.144  31.393  45.370  1.00  0.00    +0.000 H 
ATOM     91  H6  UNL A   1      20.320  32.928  46.836  1.00  0.00    +0.000 H 
ATOM     92  H7  UNL A   1      19.654  35.250  46.943  1.00  0.00    +0.000 H 
BRANCH    5    4
ATOM      4  O2  UNL A   1      16.444  34.553  43.757  1.00  0.00    +0.000 O 
BRANCH    4    2
ATOM      2  C2  UNL A   1      15.448  33.601  43.596  1.00  0.00    +0.000 C 
ATOM      3  O1  UNL A   1      14.701  33.167  44.464  1.00  0.00    +0.000 O 
BRANCH    2    1
ATOM      1  C1  UNL A   1      15.428  33.170  42.157  1.00  0.00    +0.000 C 
ATOM     86  H1  UNL A   1      15.601  32.116  42.098  1.00  0.00    +0.000 H 
ATOM     87  H2  UNL A   1      16.194  33.687  41.619  1.00  0.00    +0.000 H 
ATOM     88  H3  UNL A   1      14.475  33.400  41.729  1.00  0.00    +0.000 H 
ENDBRANCH    2    1
ENDBRANCH    4    2
ENDBRANCH    5    4
ENDBRANCH   11   10
ENDBRANCH   13   11
ENDBRANCH   14   13
ENDBRANCH   15   14
ENDBRANCH   16   15
ENDBRANCH   17   16
ENDBRANCH   18   17
ENDBRANCH   19   18
ENDBRANCH   20   19
ENDBRANCH   21   20
ENDBRANCH   23   21
ENDBRANCH   27   26
BRANCH   31   32
ATOM     33  C26 UNL A   1      28.897  42.522  47.031  1.00  0.00    +0.000 C 
ATOM     34  F1  UNL A   1      28.242  42.449  45.863  1.00  0.00    +0.000 F 
ATOM     35  C27 UNL A   1      29.519  43.720  47.376  1.00  0.00    +0.000 C 
ATOM     36  F2  UNL A   1      29.465  44.766  46.538  1.00  0.00    +0.000 F 
ATOM     37  C28 UNL A   1      30.199  43.830  48.578  1.00  0.00    +0.000 C 
ATOM     38  F3  UNL A   1      30.786  44.987  48.915  1.00  0.00    +0.000 F 
ATOM     39  C29 UNL A   1      30.278  42.738  49.429  1.00  0.00    +0.000 C 
ATOM     40  F4  UNL A   1      30.923  42.847  50.600  1.00  0.00    +0.000 F 
ATOM     41  C30 UNL A   1      29.686  41.530  49.072  1.00  0.00    +0.000 C 
ATOM     42  F5  UNL A   1      29.790  40.489  49.912  1.00  0.00    +0.000 F 
ATOM     32  C25 UNL A   1      28.979  41.398  47.867  1.00  0.00    +0.000 C 
ENDBRANCH   31   32
BRANCH   48   49
ATOM     49  C36 UNL A   1      30.450  35.306  44.305  1.00  0.00    +0.000 C 
ATOM     50  C37 UNL A   1      31.292  34.369  44.921  1.00  0.00    +0.000 C 
ATOM     51  F6  UNL A   1      31.103  34.032  46.205  1.00  0.00    +0.000 F 
ATOM     52  C38 UNL A   1      32.361  33.804  44.228  1.00  0.00    +0.000 C 
ATOM     53  F7  UNL A   1      33.185  32.951  44.853  1.00  0.00    +0.000 F 
ATOM     54  C39 UNL A   1      32.583  34.133  42.899  1.00  0.00    +0.000 C 
ATOM     55  F8  UNL A   1      33.606  33.582  42.233  1.00  0.00    +0.000 F 
ATOM     56  C40 UNL A   1      31.748  35.039  42.264  1.00  0.00    +0.000 C 
ATOM     57  F9  UNL A   1      31.950  35.346  40.975  1.00  0.00    +0.000 F 
ATOM     58  C41 UNL A   1      30.701  35.632  42.963  1.00  0.00    +0.000 C 
ATOM     59  F10 UNL A   1      29.921  36.518  42.324  1.00  0.00    +0.000 F 
ENDBRANCH   48   49
BRANCH   63   64
ATOM     65  C46 UNL A   1      23.033  33.055  44.586  1.00  0.00    +0.000 C 
ATOM     66  F11 UNL A   1      22.780  34.191  43.920  1.00  0.00    +0.000 F 
ATOM     67  C47 UNL A   1      22.295  31.915  44.275  1.00  0.00    +0.000 C 
ATOM     68  F12 UNL A   1      21.345  31.971  43.330  1.00  0.00    +0.000 F 
ATOM     69  C48 UNL A   1      22.524  30.729  44.956  1.00  0.00    +0.000 C 
ATOM     70  F13 UNL A   1      21.813  29.634  44.658  1.00  0.00    +0.000 F 
ATOM     71  C49 UNL A   1      23.483  30.685  45.956  1.00  0.00    +0.000 C 
ATOM     72  F14 UNL A   1      23.721  29.538  46.607  1.00  0.00    +0.000 F 
ATOM     73  C50 UNL A   1      24.198  31.833  46.291  1.00  0.00    +0.000 C 
ATOM     74  F15 UNL A   1      25.104  31.764  47.278  1.00  0.00    +0.000 F 
ATOM     64  C45 UNL A   1      23.989  33.043  45.613  1.00  0.00    +0.000 C 
ENDBRANCH   63   64
TORSDOF 18
ENDMDL
MODEL 10
REMARK VINA RESULT:      -8.9     42.357     49.874
ROOT
ATOM     27  C21 UNL A   1      22.188   8.774   7.584  1.00  0.00    +0.000 C 
ATOM     28  C22 UNL A   1      23.307   8.203   6.753  1.00  0.00    +0.000 C 
ATOM     29  N3  UNL A   1      23.722   6.965   6.658  1.00  0.00    +0.000 N 
ATOM     30  C23 UNL A   1      24.754   6.980   5.729  1.00  0.00    +0.000 C 
ATOM     31  C24 UNL A   1      25.554   5.960   5.335  1.00  0.00    +0.000 C 
ATOM     43  C31 UNL A   1      25.458   4.614   5.835  1.00  0.00    +0.000 C 
ATOM     44  C32 UNL A   1      26.254   3.523   5.536  1.00  0.00    +0.000 C 
ATOM     45  C33 UNL A   1      25.747   2.410   6.216  1.00  0.00    +0.000 C 
ATOM     46  C34 UNL A   1      24.676   2.822   6.991  1.00  0.00    +0.000 C 
ATOM     47  N4  UNL A   1      24.503   4.174   6.742  1.00  0.00    +0.000 N 
ATOM     48  C35 UNL A   1      23.868   2.039   7.891  1.00  0.00    +0.000 C 
ATOM     60  C42 UNL A   1      22.833   2.523   8.620  1.00  0.00    +0.000 C 
ATOM     61  N5  UNL A   1      22.334   3.817   8.680  1.00  0.00    +0.000 N 
ATOM     62  C43 UNL A   1      21.322   3.775   9.512  1.00  0.00    +0.000 C 
ATOM     63  C44 UNL A   1      20.432   4.895   9.986  1.00  0.00    +0.000 C 
ATOM     75  C51 UNL A   1      20.652   6.145   9.533  1.00  0.00    +0.000 C 
ATOM     76  C52 UNL A   1      19.879   7.326   9.905  1.00  0.00    +0.000 C 
ATOM     77  C53 UNL A   1      20.342   8.385   9.221  1.00  0.00    +0.000 C 
ATOM     78  C54 UNL A   1      21.475   7.966   8.394  1.00  0.00    +0.000 C 
ATOM     79  N6  UNL A   1      21.590   6.621   8.648  1.00  0.00    +0.000 N 
ATOM     80  C55 UNL A   1      21.042   2.436  10.047  1.00  0.00    +0.000 C 
ATOM     81  C56 UNL A   1      22.021   1.721   9.512  1.00  0.00    +0.000 C 
ATOM     82  C57 UNL A   1      24.864   8.338   5.242  1.00  0.00    +0.000 C 
ATOM     83  C58 UNL A   1      24.042   9.146   5.896  1.00  0.00    +0.000 C 
ATOM    109  H24 UNL A   1      27.080   3.529   4.916  1.00  0.00    +0.000 H 
ATOM    110  H25 UNL A   1      26.111   1.447   6.151  1.00  0.00    +0.000 H 
ATOM    111  H26 UNL A   1      23.807   4.740   7.147  1.00  0.00    +0.000 H 
ATOM    112  H27 UNL A   1      19.103   7.345  10.584  1.00  0.00    +0.000 H 
ATOM    113  H28 UNL A   1      19.959   9.342   9.270  1.00  0.00    +0.000 H 
ATOM    114  H29 UNL A   1      22.280   6.052   8.237  1.00  0.00    +0.000 H 
ATOM    115  H30 UNL A   1      20.283   2.131  10.676  1.00  0.00    +0.000 H 
ATOM    116  H31 UNL A   1      22.184   0.720   9.706  1.00  0.00    +0.000 H 
ATOM    117  H32 UNL A   1      25.500   8.638   4.486  1.00  0.00    +0.000 H 
ATOM    118  H33 UNL A   1      23.944  10.171   5.822  1.00  0.00    +0.000 H 
ENDROOT
BRANCH   27   26
ATOM    107  H22 UNL A   1      22.489  13.214   8.855  1.00  0.00    +0.000 H 
ATOM    108  H23 UNL A   1      23.183  10.892   8.959  1.00  0.00    +0.000 H 
ATOM     84  C59 UNL A   1      20.880  10.635   6.536  1.00  0.00    +0.000 C 
ATOM     85  C60 UNL A   1      20.559  11.987   6.407  1.00  0.00    +0.000 C 
ATOM    120  H35 UNL A   1      19.925  12.295   5.653  1.00  0.00    +0.000 H 
ATOM     23  C17 UNL A   1      21.092  12.923   7.297  1.00  0.00    +0.000 C 
ATOM     24  C18 UNL A   1      22.058  12.520   8.223  1.00  0.00    +0.000 C 
ATOM     25  C19 UNL A   1      22.444  11.177   8.297  1.00  0.00    +0.000 C 
ATOM    119  H34 UNL A   1      20.414   9.939   5.934  1.00  0.00    +0.000 H 
ATOM     26  C20 UNL A   1      21.832  10.215   7.477  1.00  0.00    +0.000 C 
BRANCH   23   21
ATOM     21  C16 UNL A   1      20.696  14.352   7.260  1.00  0.00    +0.000 C 
ATOM     22  O4  UNL A   1      20.306  14.842   6.204  1.00  0.00    +0.000 O 
BRANCH   21   20
ATOM    106  H21 UNL A   1      20.178  14.879   9.119  1.00  0.00    +0.000 H 
ATOM     20  N2  UNL A   1      20.778  15.141   8.382  1.00  0.00    +0.000 N 
BRANCH   20   19
ATOM    105  H20 UNL A   1      21.276  16.721   9.580  1.00  0.00    +0.000 H 
ATOM     19  C15 UNL A   1      21.608  16.299   8.654  1.00  0.00    +0.000 C 
ATOM    104  H19 UNL A   1      21.508  16.989   7.841  1.00  0.00    +0.000 H 
BRANCH   19   18
ATOM     18  C14 UNL A   1      23.083  15.952   8.816  1.00  0.00    +0.000 C 
ATOM    102  H17 UNL A   1      23.246  15.004   8.348  1.00  0.00    +0.000 H 
ATOM    103  H18 UNL A   1      23.615  16.767   8.371  1.00  0.00    +0.000 H 
BRANCH   18   17
ATOM     17  C13 UNL A   1      23.614  15.860  10.248  1.00  0.00    +0.000 C 
ATOM    100  H15 UNL A   1      23.656  14.823  10.509  1.00  0.00    +0.000 H 
ATOM    101  H16 UNL A   1      24.559  16.362  10.224  1.00  0.00    +0.000 H 
BRANCH   17   16
ATOM     98  H13 UNL A   1      22.760  17.613  11.071  1.00  0.00    +0.000 H 
ATOM     99  H14 UNL A   1      21.876  16.062  11.375  1.00  0.00    +0.000 H 
ATOM     16  C12 UNL A   1      22.813  16.579  11.342  1.00  0.00    +0.000 C 
BRANCH   16   15
ATOM     97  H12 UNL A   1      24.403  16.643  12.691  1.00  0.00    +0.000 H 
ATOM     15  C11 UNL A   1      23.345  16.508  12.778  1.00  0.00    +0.000 C 
ATOM     96  H11 UNL A   1      23.044  15.567  13.188  1.00  0.00    +0.000 H 
BRANCH   15   14
ATOM     94  H9  UNL A   1      21.891  17.883  13.451  1.00  0.00    +0.000 H 
ATOM     14  C10 UNL A   1      22.881  17.598  13.737  1.00  0.00    +0.000 C 
ATOM     95  H10 UNL A   1      22.952  17.166  14.714  1.00  0.00    +0.000 H 
BRANCH   14   13
ATOM     13  N1  UNL A   1      23.687  18.791  13.785  1.00  0.00    +0.000 N 
ATOM     93  H8  UNL A   1      23.264  19.564  14.223  1.00  0.00    +0.000 H 
BRANCH   13   11
ATOM     11  C9  UNL A   1      24.962  19.010  13.309  1.00  0.00    +0.000 C 
ATOM     12  O3  UNL A   1      25.884  18.471  13.927  1.00  0.00    +0.000 O 
BRANCH   11   10
ATOM      5  C3  UNL A   1      25.334  21.130  11.832  1.00  0.00    +0.000 C 
ATOM      6  C4  UNL A   1      25.589  21.662  10.556  1.00  0.00    +0.000 C 
ATOM      7  C5  UNL A   1      25.868  20.820   9.484  1.00  0.00    +0.000 C 
ATOM      8  C6  UNL A   1      25.898  19.445   9.685  1.00  0.00    +0.000 C 
ATOM      9  C7  UNL A   1      25.612  18.918  10.951  1.00  0.00    +0.000 C 
ATOM     10  C8  UNL A   1      25.287  19.747  12.047  1.00  0.00    +0.000 C 
ATOM     89  H4  UNL A   1      25.567  22.683  10.412  1.00  0.00    +0.000 H 
ATOM     90  H5  UNL A   1      26.052  21.212   8.548  1.00  0.00    +0.000 H 
ATOM     91  H6  UNL A   1      26.131  18.813   8.904  1.00  0.00    +0.000 H 
ATOM     92  H7  UNL A   1      25.639  17.895  11.086  1.00  0.00    +0.000 H 
BRANCH    5    4
ATOM      4  O2  UNL A   1      25.061  22.097  12.803  1.00  0.00    +0.000 O 
BRANCH    4    2
ATOM      2  C2  UNL A   1      23.790  22.655  12.786  1.00  0.00    +0.000 C 
ATOM      3  O1  UNL A   1      22.730  22.060  12.639  1.00  0.00    +0.000 O 
BRANCH    2    1
ATOM      1  C1  UNL A   1      23.919  24.140  12.979  1.00  0.00    +0.000 C 
ATOM     86  H1  UNL A   1      24.693  24.342  13.688  1.00  0.00    +0.000 H 
ATOM     87  H2  UNL A   1      22.993  24.534  13.342  1.00  0.00    +0.000 H 
ATOM     88  H3  UNL A   1      24.160  24.601  12.044  1.00  0.00    +0.000 H 
ENDBRANCH    2    1
ENDBRANCH    4    2
ENDBRANCH    5    4
ENDBRANCH   11   10
ENDBRANCH   13   11
ENDBRANCH   14   13
ENDBRANCH   15   14
ENDBRANCH   16   15
ENDBRANCH   17   16
ENDBRANCH   18   17
ENDBRANCH   19   18
ENDBRANCH   20   19
ENDBRANCH   21   20
ENDBRANCH   23   21
ENDBRANCH   27   26
BRANCH   31   32
ATOM     33  C26 UNL A   1      27.914   6.633   4.686  1.00  0.00    +0.000 C 
ATOM     34  F1  UNL A   1      28.224   6.794   5.981  1.00  0.00    +0.000 F 
ATOM     35  C27 UNL A   1      28.895   6.878   3.728  1.00  0.00    +0.000 C 
ATOM     36  F2  UNL A   1      30.116   7.280   4.109  1.00  0.00    +0.000 F 
ATOM     37  C28 UNL A   1      28.609   6.717   2.382  1.00  0.00    +0.000 C 
ATOM     38  F3  UNL A   1      29.557   6.941   1.461  1.00  0.00    +0.000 F 
ATOM     39  C29 UNL A   1      27.337   6.329   1.988  1.00  0.00    +0.000 C 
ATOM     40  F4  UNL A   1      27.062   6.157   0.687  1.00  0.00    +0.000 F 
ATOM     41  C30 UNL A   1      26.345   6.115   2.942  1.00  0.00    +0.000 C 
ATOM     42  F5  UNL A   1      25.122   5.752   2.528  1.00  0.00    +0.000 F 
ATOM     32  C25 UNL A   1      26.615   6.259   4.311  1.00  0.00    +0.000 C 
ENDBRANCH   31   32
BRANCH   48   49
ATOM     49  C36 UNL A   1      24.215   0.587   8.058  1.00  0.00    +0.000 C 
ATOM     50  C37 UNL A   1      25.112   0.150   9.043  1.00  0.00    +0.000 C 
ATOM     51  F6  UNL A   1      25.728   1.038   9.837  1.00  0.00    +0.000 F 
ATOM     52  C38 UNL A   1      25.413  -1.203   9.188  1.00  0.00    +0.000 C 
ATOM     53  F7  UNL A   1      26.314  -1.592  10.100  1.00  0.00    +0.000 F 
ATOM     54  C39 UNL A   1      24.792  -2.145   8.380  1.00  0.00    +0.000 C 
ATOM     55  F8  UNL A   1      25.076  -3.446   8.528  1.00  0.00    +0.000 F 
ATOM     56  C40 UNL A   1      23.884  -1.738   7.416  1.00  0.00    +0.000 C 
ATOM     57  F9  UNL A   1      23.271  -2.647   6.647  1.00  0.00    +0.000 F 
ATOM     58  C41 UNL A   1      23.609  -0.384   7.245  1.00  0.00    +0.000 C 
ATOM     59  F10 UNL A   1      22.737  -0.020   6.292  1.00  0.00    +0.000 F 
ENDBRANCH   48   49
BRANCH   63   64
ATOM     65  C46 UNL A   1      19.557   4.676  12.335  1.00  0.00    +0.000 C 
ATOM     66  F11 UNL A   1      20.779   4.965  12.804  1.00  0.00    +0.000 F 
ATOM     67  C47 UNL A   1      18.543   4.371  13.242  1.00  0.00    +0.000 C 
ATOM     68  F12 UNL A   1      18.804   4.362  14.556  1.00  0.00    +0.000 F 
ATOM     69  C48 UNL A   1      17.273   4.054  12.785  1.00  0.00    +0.000 C 
ATOM     70  F13 UNL A   1      16.299   3.759  13.657  1.00  0.00    +0.000 F 
ATOM     71  C49 UNL A   1      17.017   4.031  11.423  1.00  0.00    +0.000 C 
ATOM     72  F14 UNL A   1      15.788   3.741  10.976  1.00  0.00    +0.000 F 
ATOM     73  C50 UNL A   1      18.039   4.302  10.514  1.00  0.00    +0.000 C 
ATOM     74  F15 UNL A   1      17.766   4.250   9.202  1.00  0.00    +0.000 F 
ATOM     64  C45 UNL A   1      19.331   4.631  10.951  1.00  0.00    +0.000 C 
ENDBRANCH   63   64
TORSDOF 18
ENDMDL
