MODEL 1
REMARK VINA RESULT:      -9.0      0.000      0.000
ROOT
ATOM    129  H35 UNL A   1      12.134  50.471   6.852  1.00  0.00    +0.000 H 
ATOM    130  H36 UNL A   1      12.298  53.017   7.056  1.00  0.00    +0.000 H 
ATOM     36  C27 UNL A   1      14.053  54.208   5.151  1.00  0.00    +0.000 C 
ATOM     37  C28 UNL A   1      13.635  52.768   5.243  1.00  0.00    +0.000 C 
ATOM     38  N4  UNL A   1      13.974  51.757   4.480  1.00  0.00    +0.000 N 
ATOM     39  C29 UNL A   1      13.345  50.644   5.022  1.00  0.00    +0.000 C 
ATOM     40  C30 UNL A   1      13.337  49.369   4.562  1.00  0.00    +0.000 C 
ATOM     52  C37 UNL A   1      14.020  48.931   3.371  1.00  0.00    +0.000 C 
ATOM     53  C38 UNL A   1      14.007  47.681   2.778  1.00  0.00    +0.000 C 
ATOM     54  C39 UNL A   1      14.869  47.709   1.675  1.00  0.00    +0.000 C 
ATOM     55  C40 UNL A   1      15.380  48.991   1.550  1.00  0.00    +0.000 C 
ATOM     56  N5  UNL A   1      14.851  49.730   2.599  1.00  0.00    +0.000 N 
ATOM     57  C41 UNL A   1      16.283  49.507   0.553  1.00  0.00    +0.000 C 
ATOM     69  C48 UNL A   1      16.710  50.793   0.483  1.00  0.00    +0.000 C 
ATOM     70  N6  UNL A   1      16.404  51.860   1.316  1.00  0.00    +0.000 N 
ATOM     71  C49 UNL A   1      17.077  52.884   0.850  1.00  0.00    +0.000 C 
ATOM     72  C50 UNL A   1      17.109  54.304   1.343  1.00  0.00    +0.000 C 
ATOM     84  C57 UNL A   1      16.376  54.643   2.421  1.00  0.00    +0.000 C 
ATOM     85  C58 UNL A   1      16.289  55.981   2.997  1.00  0.00    +0.000 C 
ATOM     86  C59 UNL A   1      15.466  55.948   4.056  1.00  0.00    +0.000 C 
ATOM     87  C60 UNL A   1      14.939  54.591   4.213  1.00  0.00    +0.000 C 
ATOM     88  N7  UNL A   1      15.556  53.878   3.214  1.00  0.00    +0.000 N 
ATOM     89  C61 UNL A   1      17.904  52.576  -0.324  1.00  0.00    +0.000 C 
ATOM     90  C62 UNL A   1      17.610  51.301  -0.532  1.00  0.00    +0.000 C 
ATOM     91  C63 UNL A   1      12.643  51.093   6.205  1.00  0.00    +0.000 C 
ATOM     92  C64 UNL A   1      12.739  52.407   6.350  1.00  0.00    +0.000 C 
ATOM    121  H27 UNL A   1      13.456  46.867   3.093  1.00  0.00    +0.000 H 
ATOM    122  H28 UNL A   1      15.086  46.911   1.059  1.00  0.00    +0.000 H 
ATOM    123  H29 UNL A   1      15.037  50.682   2.769  1.00  0.00    +0.000 H 
ATOM    124  H30 UNL A   1      16.783  56.817   2.647  1.00  0.00    +0.000 H 
ATOM    125  H31 UNL A   1      15.239  56.752   4.662  1.00  0.00    +0.000 H 
ATOM    126  H32 UNL A   1      15.423  52.912   3.081  1.00  0.00    +0.000 H 
ATOM    127  H33 UNL A   1      18.545  53.192  -0.850  1.00  0.00    +0.000 H 
ATOM    128  H34 UNL A   1      17.976  50.741  -1.318  1.00  0.00    +0.000 H 
ENDROOT
BRANCH   36   35
ATOM     33  C24 UNL A   1      13.667  56.322   8.275  1.00  0.00    +0.000 C 
ATOM     34  C25 UNL A   1      14.203  55.442   7.332  1.00  0.00    +0.000 C 
ATOM     35  C26 UNL A   1      13.540  55.214   6.115  1.00  0.00    +0.000 C 
ATOM    132  H38 UNL A   1      11.044  57.430   6.506  1.00  0.00    +0.000 H 
ATOM    131  H37 UNL A   1      11.871  55.771   4.943  1.00  0.00    +0.000 H 
ATOM    119  H25 UNL A   1      14.145  56.464   9.179  1.00  0.00    +0.000 H 
ATOM    120  H26 UNL A   1      15.092  54.957   7.531  1.00  0.00    +0.000 H 
ATOM     93  C65 UNL A   1      12.368  55.931   5.833  1.00  0.00    +0.000 C 
ATOM     94  C66 UNL A   1      11.868  56.857   6.749  1.00  0.00    +0.000 C 
ATOM     32  C23 UNL A   1      12.481  57.011   7.996  1.00  0.00    +0.000 C 
BRANCH   32   30
ATOM     30  C22 UNL A   1      11.938  57.920   9.033  1.00  0.00    +0.000 C 
ATOM     31  O2  UNL A   1      12.431  59.031   9.179  1.00  0.00    +0.000 O 
BRANCH   30   29
ATOM     29  N3  UNL A   1      10.906  57.520   9.847  1.00  0.00    +0.000 N 
ATOM    118  H24 UNL A   1      10.009  57.790   9.544  1.00  0.00    +0.000 H 
BRANCH   29   28
ATOM    116  H22 UNL A   1      11.939  56.460  11.282  1.00  0.00    +0.000 H 
ATOM     28  C21 UNL A   1      10.932  56.762  11.086  1.00  0.00    +0.000 C 
ATOM    117  H23 UNL A   1      10.549  57.395  11.860  1.00  0.00    +0.000 H 
BRANCH   28   27
ATOM    114  H20 UNL A   1       9.578  55.406  11.988  1.00  0.00    +0.000 H 
ATOM     27  C20 UNL A   1      10.050  55.516  11.034  1.00  0.00    +0.000 C 
ATOM    115  H21 UNL A   1       9.363  55.674  10.229  1.00  0.00    +0.000 H 
BRANCH   27   26
ATOM    113  H19 UNL A   1      10.122  53.426  11.030  1.00  0.00    +0.000 H 
ATOM     26  C19 UNL A   1      10.780  54.208  10.714  1.00  0.00    +0.000 C 
ATOM    112  H18 UNL A   1      11.720  54.224  11.226  1.00  0.00    +0.000 H 
BRANCH   26   25
ATOM     25  C18 UNL A   1      11.059  53.939   9.235  1.00  0.00    +0.000 C 
ATOM    110  H16 UNL A   1      11.413  54.850   8.800  1.00  0.00    +0.000 H 
ATOM    111  H17 UNL A   1      11.767  53.136   9.223  1.00  0.00    +0.000 H 
BRANCH   25   24
ATOM    108  H14 UNL A   1       9.429  54.304   7.931  1.00  0.00    +0.000 H 
ATOM    109  H15 UNL A   1      10.293  52.743   7.703  1.00  0.00    +0.000 H 
ATOM     24  C17 UNL A   1       9.877  53.449   8.391  1.00  0.00    +0.000 C 
BRANCH   24   23
ATOM    106  H12 UNL A   1       8.799  52.992  10.163  1.00  0.00    +0.000 H 
ATOM    107  H13 UNL A   1       7.852  52.932   8.662  1.00  0.00    +0.000 H 
ATOM     23  C16 UNL A   1       8.781  52.693   9.136  1.00  0.00    +0.000 C 
BRANCH   23   22
ATOM    105  H11 UNL A   1       8.353  50.717   8.489  1.00  0.00    +0.000 H 
ATOM     22  N2  UNL A   1       8.936  51.253   9.074  1.00  0.00    +0.000 N 
BRANCH   22    2
ATOM      1  O1  UNL A   1       9.943  50.704  11.068  1.00  0.00    +0.000 O 
ATOM      2  C1  UNL A   1       9.905  50.636   9.841  1.00  0.00    +0.000 C 
BRANCH    2    3
ATOM      3  C2  UNL A   1      10.889  49.796   9.064  1.00  0.00    +0.000 C 
ATOM     95  H1  UNL A   1      11.604  50.462   8.629  1.00  0.00    +0.000 H 
ATOM     96  H2  UNL A   1      10.287  49.246   8.371  1.00  0.00    +0.000 H 
BRANCH    3    4
ATOM     97  H3  UNL A   1       9.871  47.626  10.051  1.00  0.00    +0.000 H 
ATOM     98  H4  UNL A   1      10.832  45.822  11.339  1.00  0.00    +0.000 H 
ATOM     99  H5  UNL A   1      13.173  45.911  11.962  1.00  0.00    +0.000 H 
ATOM      4  C3  UNL A   1      11.665  48.730   9.823  1.00  0.00    +0.000 C 
ATOM      5  C4  UNL A   1      10.876  47.648  10.282  1.00  0.00    +0.000 C 
ATOM      6  C5  UNL A   1      11.423  46.613  11.036  1.00  0.00    +0.000 C 
ATOM    100  H6  UNL A   1      14.555  47.743  11.209  1.00  0.00    +0.000 H 
ATOM      8  C7  UNL A   1      13.564  47.706  10.921  1.00  0.00    +0.000 C 
ATOM      9  C8  UNL A   1      13.058  48.716  10.080  1.00  0.00    +0.000 C 
ATOM      7  C6  UNL A   1      12.765  46.654  11.375  1.00  0.00    +0.000 C 
BRANCH    9   10
ATOM     10  N1  UNL A   1      13.915  49.749   9.619  1.00  0.00    +0.000 N 
ATOM    101  H7  UNL A   1      13.609  50.236   8.820  1.00  0.00    +0.000 H 
BRANCH   10   11
ATOM    102  H8  UNL A   1      18.358  49.073  10.206  1.00  0.00    +0.000 H 
ATOM    103  H9  UNL A   1      18.590  50.918  11.767  1.00  0.00    +0.000 H 
ATOM    104  H10 UNL A   1      16.658  52.262  12.324  1.00  0.00    +0.000 H 
ATOM     11  C9  UNL A   1      15.157  50.170  10.165  1.00  0.00    +0.000 C 
ATOM     12  C10 UNL A   1      16.300  49.398   9.880  1.00  0.00    +0.000 C 
ATOM     13  F1  UNL A   1      16.215  48.370   9.027  1.00  0.00    +0.000 F 
ATOM     14  C11 UNL A   1      17.543  49.657  10.448  1.00  0.00    +0.000 C 
ATOM     15  C12 UNL A   1      17.674  50.707  11.342  1.00  0.00    +0.000 C 
ATOM     16  C13 UNL A   1      16.555  51.477  11.663  1.00  0.00    +0.000 C 
ATOM     17  C14 UNL A   1      15.282  51.208  11.105  1.00  0.00    +0.000 C 
ATOM     18  C15 UNL A   1      14.123  52.072  11.536  1.00  0.00    +0.000 C 
ATOM     19  F2  UNL A   1      14.297  52.579  12.794  1.00  0.00    +0.000 F 
ATOM     20  F3  UNL A   1      13.960  53.161  10.734  1.00  0.00    +0.000 F 
ATOM     21  F4  UNL A   1      12.923  51.433  11.580  1.00  0.00    +0.000 F 
ENDBRANCH   10   11
ENDBRANCH    9   10
ENDBRANCH    3    4
ENDBRANCH    2    3
ENDBRANCH   22    2
ENDBRANCH   23   22
ENDBRANCH   24   23
ENDBRANCH   25   24
ENDBRANCH   26   25
ENDBRANCH   27   26
ENDBRANCH   28   27
ENDBRANCH   29   28
ENDBRANCH   30   29
ENDBRANCH   32   30
ENDBRANCH   36   35
BRANCH   40   41
ATOM     41  C31 UNL A   1      12.566  48.352   5.355  1.00  0.00    +0.000 C 
ATOM     42  C32 UNL A   1      11.217  48.075   5.088  1.00  0.00    +0.000 C 
ATOM     43  F5  UNL A   1      10.568  48.746   4.124  1.00  0.00    +0.000 F 
ATOM     44  C33 UNL A   1      10.514  47.137   5.840  1.00  0.00    +0.000 C 
ATOM     45  F6  UNL A   1       9.211  46.929   5.601  1.00  0.00    +0.000 F 
ATOM     46  C34 UNL A   1      11.154  46.428   6.845  1.00  0.00    +0.000 C 
ATOM     47  F7  UNL A   1      10.477  45.524   7.566  1.00  0.00    +0.000 F 
ATOM     48  C35 UNL A   1      12.495  46.666   7.109  1.00  0.00    +0.000 C 
ATOM     49  F8  UNL A   1      13.118  45.972   8.071  1.00  0.00    +0.000 F 
ATOM     50  C36 UNL A   1      13.192  47.625   6.379  1.00  0.00    +0.000 C 
ATOM     51  F9  UNL A   1      14.483  47.844   6.673  1.00  0.00    +0.000 F 
ENDBRANCH   40   41
BRANCH   57   58
ATOM     65  C46 UNL A   1      18.507  47.086  -1.368  1.00  0.00    +0.000 C 
ATOM     66  F13 UNL A   1      19.717  46.524  -1.237  1.00  0.00    +0.000 F 
ATOM     67  C47 UNL A   1      18.034  47.953  -0.385  1.00  0.00    +0.000 C 
ATOM     68  F14 UNL A   1      18.806  48.195   0.684  1.00  0.00    +0.000 F 
ATOM     58  C42 UNL A   1      16.779  48.566  -0.508  1.00  0.00    +0.000 C 
ATOM     59  C43 UNL A   1      16.016  48.281  -1.650  1.00  0.00    +0.000 C 
ATOM     60  F10 UNL A   1      14.802  48.828  -1.806  1.00  0.00    +0.000 F 
ATOM     61  C44 UNL A   1      16.478  47.388  -2.615  1.00  0.00    +0.000 C 
ATOM     62  F11 UNL A   1      15.707  47.086  -3.668  1.00  0.00    +0.000 F 
ATOM     63  C45 UNL A   1      17.724  46.796  -2.475  1.00  0.00    +0.000 C 
ATOM     64  F12 UNL A   1      18.168  45.938  -3.404  1.00  0.00    +0.000 F 
ENDBRANCH   57   58
BRANCH   72   73
ATOM     73  C51 UNL A   1      17.902  55.341   0.634  1.00  0.00    +0.000 C 
ATOM     74  C52 UNL A   1      17.417  55.936  -0.539  1.00  0.00    +0.000 C 
ATOM     75  F15 UNL A   1      16.238  55.547  -1.047  1.00  0.00    +0.000 F 
ATOM     76  C53 UNL A   1      18.155  56.906  -1.211  1.00  0.00    +0.000 C 
ATOM     77  F16 UNL A   1      17.686  57.431  -2.351  1.00  0.00    +0.000 F 
ATOM     78  C54 UNL A   1      19.380  57.320  -0.710  1.00  0.00    +0.000 C 
ATOM     79  F17 UNL A   1      20.086  58.260  -1.353  1.00  0.00    +0.000 F 
ATOM     80  C55 UNL A   1      19.875  56.755   0.456  1.00  0.00    +0.000 C 
ATOM     81  F18 UNL A   1      21.050  57.164   0.951  1.00  0.00    +0.000 F 
ATOM     82  C56 UNL A   1      19.149  55.765   1.115  1.00  0.00    +0.000 C 
ATOM     83  F19 UNL A   1      19.655  55.230   2.236  1.00  0.00    +0.000 F 
ENDBRANCH   72   73
TORSDOF 18
ENDMDL
MODEL 2
REMARK VINA RESULT:      -8.8     31.316     36.684
ROOT
ATOM    129  H35 UNL A   1      12.750  16.706  21.899  1.00  0.00    +0.000 H 
ATOM    130  H36 UNL A   1      12.312  18.616  23.548  1.00  0.00    +0.000 H 
ATOM     36  C27 UNL A   1      10.373  20.495  22.633  1.00  0.00    +0.000 C 
ATOM     37  C28 UNL A   1      10.784  19.206  21.981  1.00  0.00    +0.000 C 
ATOM     38  N4  UNL A   1      10.348  18.665  20.869  1.00  0.00    +0.000 N 
ATOM     39  C29 UNL A   1      11.083  17.500  20.700  1.00  0.00    +0.000 C 
ATOM     40  C30 UNL A   1      10.967  16.559  19.730  1.00  0.00    +0.000 C 
ATOM     52  C37 UNL A   1      10.013  16.618  18.653  1.00  0.00    +0.000 C 
ATOM     53  C38 UNL A   1       9.762  15.677  17.669  1.00  0.00    +0.000 C 
ATOM     54  C39 UNL A   1       8.791  16.196  16.803  1.00  0.00    +0.000 C 
ATOM     55  C40 UNL A   1       8.401  17.438  17.276  1.00  0.00    +0.000 C 
ATOM     56  N5  UNL A   1       9.159  17.685  18.411  1.00  0.00    +0.000 N 
ATOM     57  C41 UNL A   1       7.412  18.336  16.736  1.00  0.00    +0.000 C 
ATOM     69  C48 UNL A   1       7.062  19.527  17.284  1.00  0.00    +0.000 C 
ATOM     70  N6  UNL A   1       7.555  20.138  18.430  1.00  0.00    +0.000 N 
ATOM     71  C49 UNL A   1       6.920  21.281  18.529  1.00  0.00    +0.000 C 
ATOM     72  C50 UNL A   1       7.033  22.342  19.588  1.00  0.00    +0.000 C 
ATOM     84  C57 UNL A   1       7.899  22.167  20.604  1.00  0.00    +0.000 C 
ATOM     85  C58 UNL A   1       8.100  23.096  21.711  1.00  0.00    +0.000 C 
ATOM     86  C59 UNL A   1       9.033  22.598  22.536  1.00  0.00    +0.000 C 
ATOM     87  C60 UNL A   1       9.473  21.295  22.032  1.00  0.00    +0.000 C 
ATOM     88  N7  UNL A   1       8.766  21.135  20.866  1.00  0.00    +0.000 N 
ATOM     89  C61 UNL A   1       5.963  21.533  17.443  1.00  0.00    +0.000 C 
ATOM     90  C62 UNL A   1       6.058  20.416  16.737  1.00  0.00    +0.000 C 
ATOM     91  C63 UNL A   1      12.026  17.435  21.796  1.00  0.00    +0.000 C 
ATOM     92  C64 UNL A   1      11.839  18.432  22.649  1.00  0.00    +0.000 C 
ATOM    121  H27 UNL A   1      10.212  14.752  17.587  1.00  0.00    +0.000 H 
ATOM    122  H28 UNL A   1       8.429  15.732  15.956  1.00  0.00    +0.000 H 
ATOM    123  H29 UNL A   1       9.099  18.496  18.965  1.00  0.00    +0.000 H 
ATOM    124  H30 UNL A   1       7.605  23.993  21.839  1.00  0.00    +0.000 H 
ATOM    125  H31 UNL A   1       9.385  23.058  23.390  1.00  0.00    +0.000 H 
ATOM    126  H32 UNL A   1       8.870  20.354  20.275  1.00  0.00    +0.000 H 
ATOM    127  H33 UNL A   1       5.372  22.362  17.274  1.00  0.00    +0.000 H 
ATOM    128  H34 UNL A   1       5.487  20.205  15.903  1.00  0.00    +0.000 H 
ENDROOT
BRANCH   36   35
ATOM     33  C24 UNL A   1      10.979  20.979  26.346  1.00  0.00    +0.000 C 
ATOM     34  C25 UNL A   1      10.458  20.495  25.143  1.00  0.00    +0.000 C 
ATOM     35  C26 UNL A   1      10.985  20.929  23.915  1.00  0.00    +0.000 C 
ATOM    132  H38 UNL A   1      13.491  22.823  25.110  1.00  0.00    +0.000 H 
ATOM    131  H37 UNL A   1      12.477  22.130  23.020  1.00  0.00    +0.000 H 
ATOM    119  H25 UNL A   1      10.569  20.677  27.243  1.00  0.00    +0.000 H 
ATOM    120  H26 UNL A   1       9.683  19.815  25.157  1.00  0.00    +0.000 H 
ATOM     93  C65 UNL A   1      12.082  21.803  23.915  1.00  0.00    +0.000 C 
ATOM     94  C66 UNL A   1      12.642  22.235  25.118  1.00  0.00    +0.000 C 
ATOM     32  C23 UNL A   1      12.055  21.873  26.334  1.00  0.00    +0.000 C 
BRANCH   32   30
ATOM     30  C22 UNL A   1      12.564  22.376  27.632  1.00  0.00    +0.000 C 
ATOM     31  O2  UNL A   1      12.178  23.459  28.052  1.00  0.00    +0.000 O 
BRANCH   30   29
ATOM     29  N3  UNL A   1      13.481  21.653  28.355  1.00  0.00    +0.000 N 
ATOM    118  H24 UNL A   1      13.939  22.157  29.067  1.00  0.00    +0.000 H 
BRANCH   29   28
ATOM    116  H22 UNL A   1      14.293  19.941  29.169  1.00  0.00    +0.000 H 
ATOM     28  C21 UNL A   1      13.882  20.261  28.235  1.00  0.00    +0.000 C 
ATOM    117  H23 UNL A   1      13.011  19.697  27.971  1.00  0.00    +0.000 H 
BRANCH   28   27
ATOM    114  H20 UNL A   1      15.404  19.102  27.329  1.00  0.00    +0.000 H 
ATOM     27  C20 UNL A   1      14.923  20.039  27.140  1.00  0.00    +0.000 C 
ATOM    115  H21 UNL A   1      14.387  20.069  26.214  1.00  0.00    +0.000 H 
BRANCH   27   26
ATOM    113  H19 UNL A   1      16.289  21.339  28.043  1.00  0.00    +0.000 H 
ATOM     26  C19 UNL A   1      16.006  21.116  27.036  1.00  0.00    +0.000 C 
ATOM    112  H18 UNL A   1      15.592  21.946  26.502  1.00  0.00    +0.000 H 
BRANCH   26   25
ATOM     25  C18 UNL A   1      17.297  20.704  26.328  1.00  0.00    +0.000 C 
ATOM    110  H16 UNL A   1      17.090  20.649  25.279  1.00  0.00    +0.000 H 
ATOM    111  H17 UNL A   1      18.018  21.447  26.600  1.00  0.00    +0.000 H 
BRANCH   25   24
ATOM    108  H14 UNL A   1      18.979  19.482  26.741  1.00  0.00    +0.000 H 
ATOM    109  H15 UNL A   1      17.503  19.155  27.714  1.00  0.00    +0.000 H 
ATOM     24  C17 UNL A   1      17.916  19.367  26.751  1.00  0.00    +0.000 C 
BRANCH   24   23
ATOM    106  H12 UNL A   1      16.999  17.471  26.475  1.00  0.00    +0.000 H 
ATOM    107  H13 UNL A   1      17.025  18.518  25.040  1.00  0.00    +0.000 H 
ATOM     23  C16 UNL A   1      17.572  18.157  25.886  1.00  0.00    +0.000 C 
BRANCH   23   22
ATOM    105  H11 UNL A   1      18.997  16.591  25.751  1.00  0.00    +0.000 H 
ATOM     22  N2  UNL A   1      18.740  17.465  25.380  1.00  0.00    +0.000 N 
BRANCH   22    2
ATOM      1  O1  UNL A   1      20.238  19.002  24.551  1.00  0.00    +0.000 O 
ATOM      2  C1  UNL A   1      19.492  18.041  24.374  1.00  0.00    +0.000 C 
BRANCH    2    3
ATOM      3  C2  UNL A   1      19.394  17.352  23.035  1.00  0.00    +0.000 C 
ATOM     95  H1  UNL A   1      19.987  16.463  23.089  1.00  0.00    +0.000 H 
ATOM     96  H2  UNL A   1      19.724  18.086  22.329  1.00  0.00    +0.000 H 
BRANCH    3    4
ATOM     97  H3  UNL A   1      18.521  14.916  22.882  1.00  0.00    +0.000 H 
ATOM     98  H4  UNL A   1      16.435  13.986  22.095  1.00  0.00    +0.000 H 
ATOM     99  H5  UNL A   1      14.732  15.458  21.196  1.00  0.00    +0.000 H 
ATOM      4  C3  UNL A   1      18.012  16.946  22.547  1.00  0.00    +0.000 C 
ATOM      5  C4  UNL A   1      17.783  15.549  22.536  1.00  0.00    +0.000 C 
ATOM      6  C5  UNL A   1      16.588  15.007  22.071  1.00  0.00    +0.000 C 
ATOM    100  H6  UNL A   1      15.083  17.847  21.186  1.00  0.00    +0.000 H 
ATOM      8  C7  UNL A   1      15.807  17.232  21.589  1.00  0.00    +0.000 C 
ATOM      9  C8  UNL A   1      16.968  17.811  22.140  1.00  0.00    +0.000 C 
ATOM      7  C6  UNL A   1      15.607  15.850  21.575  1.00  0.00    +0.000 C 
BRANCH    9   10
ATOM     10  N1  UNL A   1      17.114  19.222  22.158  1.00  0.00    +0.000 N 
ATOM    101  H7  UNL A   1      17.261  19.627  23.044  1.00  0.00    +0.000 H 
BRANCH   10   11
ATOM    102  H8  UNL A   1      19.127  21.067  18.540  1.00  0.00    +0.000 H 
ATOM    103  H9  UNL A   1      17.360  22.697  18.195  1.00  0.00    +0.000 H 
ATOM    104  H10 UNL A   1      15.443  22.711  19.669  1.00  0.00    +0.000 H 
ATOM     11  C9  UNL A   1      17.076  20.125  21.063  1.00  0.00    +0.000 C 
ATOM     12  C10 UNL A   1      18.186  20.161  20.196  1.00  0.00    +0.000 C 
ATOM     13  F1  UNL A   1      19.184  19.282  20.353  1.00  0.00    +0.000 F 
ATOM     14  C11 UNL A   1      18.301  21.080  19.158  1.00  0.00    +0.000 C 
ATOM     15  C12 UNL A   1      17.296  22.012  18.965  1.00  0.00    +0.000 C 
ATOM     16  C13 UNL A   1      16.193  22.018  19.821  1.00  0.00    +0.000 C 
ATOM     17  C14 UNL A   1      16.078  21.100  20.892  1.00  0.00    +0.000 C 
ATOM     18  C15 UNL A   1      14.867  21.203  21.786  1.00  0.00    +0.000 C 
ATOM     19  F2  UNL A   1      14.367  22.475  21.833  1.00  0.00    +0.000 F 
ATOM     20  F3  UNL A   1      13.833  20.431  21.351  1.00  0.00    +0.000 F 
ATOM     21  F4  UNL A   1      15.089  20.867  23.085  1.00  0.00    +0.000 F 
ENDBRANCH   10   11
ENDBRANCH    9   10
ENDBRANCH    3    4
ENDBRANCH    2    3
ENDBRANCH   22    2
ENDBRANCH   23   22
ENDBRANCH   24   23
ENDBRANCH   25   24
ENDBRANCH   26   25
ENDBRANCH   27   26
ENDBRANCH   28   27
ENDBRANCH   29   28
ENDBRANCH   30   29
ENDBRANCH   32   30
ENDBRANCH   36   35
BRANCH   40   41
ATOM     41  C31 UNL A   1      11.904  15.386  19.789  1.00  0.00    +0.000 C 
ATOM     42  C32 UNL A   1      11.708  14.329  20.691  1.00  0.00    +0.000 C 
ATOM     43  F5  UNL A   1      10.682  14.360  21.555  1.00  0.00    +0.000 F 
ATOM     44  C33 UNL A   1      12.592  13.253  20.740  1.00  0.00    +0.000 C 
ATOM     45  F6  UNL A   1      12.414  12.282  21.647  1.00  0.00    +0.000 F 
ATOM     46  C34 UNL A   1      13.664  13.192  19.863  1.00  0.00    +0.000 C 
ATOM     47  F7  UNL A   1      14.511  12.155  19.909  1.00  0.00    +0.000 F 
ATOM     48  C35 UNL A   1      13.862  14.212  18.944  1.00  0.00    +0.000 C 
ATOM     49  F8  UNL A   1      14.890  14.147  18.086  1.00  0.00    +0.000 F 
ATOM     50  C36 UNL A   1      12.998  15.304  18.913  1.00  0.00    +0.000 C 
ATOM     51  F9  UNL A   1      13.229  16.282  18.026  1.00  0.00    +0.000 F 
ENDBRANCH   40   41
BRANCH   57   58
ATOM     65  C46 UNL A   1       6.506  17.938  13.060  1.00  0.00    +0.000 C 
ATOM     66  F13 UNL A   1       6.978  18.328  11.867  1.00  0.00    +0.000 F 
ATOM     67  C47 UNL A   1       7.173  18.306  14.225  1.00  0.00    +0.000 C 
ATOM     68  F14 UNL A   1       8.290  19.041  14.122  1.00  0.00    +0.000 F 
ATOM     58  C42 UNL A   1       6.689  17.925  15.485  1.00  0.00    +0.000 C 
ATOM     59  C43 UNL A   1       5.513  17.162  15.534  1.00  0.00    +0.000 C 
ATOM     60  F10 UNL A   1       5.019  16.757  16.713  1.00  0.00    +0.000 F 
ATOM     61  C44 UNL A   1       4.866  16.768  14.365  1.00  0.00    +0.000 C 
ATOM     62  F11 UNL A   1       3.776  15.991  14.434  1.00  0.00    +0.000 F 
ATOM     63  C45 UNL A   1       5.359  17.160  13.130  1.00  0.00    +0.000 C 
ATOM     64  F12 UNL A   1       4.736  16.780  12.006  1.00  0.00    +0.000 F 
ENDBRANCH   57   58
BRANCH   72   73
ATOM     73  C51 UNL A   1       6.175  23.554  19.548  1.00  0.00    +0.000 C 
ATOM     74  C52 UNL A   1       4.900  23.547  20.131  1.00  0.00    +0.000 C 
ATOM     75  F15 UNL A   1       4.432  22.428  20.703  1.00  0.00    +0.000 F 
ATOM     76  C53 UNL A   1       4.088  24.678  20.096  1.00  0.00    +0.000 C 
ATOM     77  F16 UNL A   1       2.858  24.633  20.626  1.00  0.00    +0.000 F 
ATOM     78  C54 UNL A   1       4.545  25.845  19.503  1.00  0.00    +0.000 C 
ATOM     79  F17 UNL A   1       3.767  26.935  19.477  1.00  0.00    +0.000 F 
ATOM     80  C55 UNL A   1       5.808  25.879  18.932  1.00  0.00    +0.000 C 
ATOM     81  F18 UNL A   1       6.259  27.010  18.372  1.00  0.00    +0.000 F 
ATOM     82  C56 UNL A   1       6.611  24.740  18.943  1.00  0.00    +0.000 C 
ATOM     83  F19 UNL A   1       7.825  24.800  18.376  1.00  0.00    +0.000 F 
ENDBRANCH   72   73
TORSDOF 18
ENDMDL
MODEL 3
REMARK VINA RESULT:      -8.6     61.319     67.549
ROOT
ATOM    129  H35 UNL A   1      43.868  13.470  48.306  1.00  0.00    +0.000 H 
ATOM    130  H36 UNL A   1      42.409  14.507  50.136  1.00  0.00    +0.000 H 
ATOM     36  C27 UNL A   1      42.264  12.938  52.511  1.00  0.00    +0.000 C 
ATOM     37  C28 UNL A   1      43.111  12.691  51.296  1.00  0.00    +0.000 C 
ATOM     38  N4  UNL A   1      43.960  11.719  51.062  1.00  0.00    +0.000 N 
ATOM     39  C29 UNL A   1      44.443  11.938  49.778  1.00  0.00    +0.000 C 
ATOM     40  C30 UNL A   1      45.387  11.241  49.099  1.00  0.00    +0.000 C 
ATOM     52  C37 UNL A   1      46.081  10.092  49.623  1.00  0.00    +0.000 C 
ATOM     53  C38 UNL A   1      47.110   9.368  49.047  1.00  0.00    +0.000 C 
ATOM     54  C39 UNL A   1      47.425   8.300  49.896  1.00  0.00    +0.000 C 
ATOM     55  C40 UNL A   1      46.628   8.389  51.026  1.00  0.00    +0.000 C 
ATOM     56  N5  UNL A   1      45.807   9.493  50.845  1.00  0.00    +0.000 N 
ATOM     57  C41 UNL A   1      46.611   7.534  52.185  1.00  0.00    +0.000 C 
ATOM     69  C48 UNL A   1      45.818   7.713  53.272  1.00  0.00    +0.000 C 
ATOM     70  N6  UNL A   1      44.874   8.703  53.509  1.00  0.00    +0.000 N 
ATOM     71  C49 UNL A   1      44.358   8.434  54.684  1.00  0.00    +0.000 C 
ATOM     72  C50 UNL A   1      43.310   9.185  55.455  1.00  0.00    +0.000 C 
ATOM     84  C57 UNL A   1      42.768  10.296  54.920  1.00  0.00    +0.000 C 
ATOM     85  C58 UNL A   1      41.762  11.137  55.559  1.00  0.00    +0.000 C 
ATOM     86  C59 UNL A   1      41.459  12.156  54.740  1.00  0.00    +0.000 C 
ATOM     87  C60 UNL A   1      42.278  12.058  53.530  1.00  0.00    +0.000 C 
ATOM     88  N7  UNL A   1      43.005  10.907  53.713  1.00  0.00    +0.000 N 
ATOM     89  C61 UNL A   1      44.905   7.227  55.318  1.00  0.00    +0.000 C 
ATOM     90  C62 UNL A   1      45.819   6.851  54.436  1.00  0.00    +0.000 C 
ATOM     91  C63 UNL A   1      43.758  13.105  49.265  1.00  0.00    +0.000 C 
ATOM     92  C64 UNL A   1      42.972  13.644  50.186  1.00  0.00    +0.000 C 
ATOM    121  H27 UNL A   1      47.567   9.578  48.145  1.00  0.00    +0.000 H 
ATOM    122  H28 UNL A   1      48.131   7.571  49.712  1.00  0.00    +0.000 H 
ATOM    123  H29 UNL A   1      45.132   9.807  51.488  1.00  0.00    +0.000 H 
ATOM    124  H30 UNL A   1      41.348  10.974  56.490  1.00  0.00    +0.000 H 
ATOM    125  H31 UNL A   1      40.763  12.892  54.932  1.00  0.00    +0.000 H 
ATOM    126  H32 UNL A   1      43.634  10.555  53.044  1.00  0.00    +0.000 H 
ATOM    127  H33 UNL A   1      44.644   6.787  56.215  1.00  0.00    +0.000 H 
ATOM    128  H34 UNL A   1      46.453   6.046  54.563  1.00  0.00    +0.000 H 
ENDROOT
BRANCH   36   35
ATOM     33  C24 UNL A   1      39.231  15.180  52.110  1.00  0.00    +0.000 C 
ATOM     34  C25 UNL A   1      40.043  14.043  52.120  1.00  0.00    +0.000 C 
ATOM     35  C26 UNL A   1      41.365  14.118  52.588  1.00  0.00    +0.000 C 
ATOM    132  H38 UNL A   1      41.336  17.324  53.597  1.00  0.00    +0.000 H 
ATOM    131  H37 UNL A   1      42.807  15.402  53.451  1.00  0.00    +0.000 H 
ATOM    119  H25 UNL A   1      38.270  15.124  51.739  1.00  0.00    +0.000 H 
ATOM    120  H26 UNL A   1      39.669  13.143  51.782  1.00  0.00    +0.000 H 
ATOM     93  C65 UNL A   1      41.837  15.334  53.105  1.00  0.00    +0.000 C 
ATOM     94  C66 UNL A   1      41.004  16.452  53.154  1.00  0.00    +0.000 C 
ATOM     32  C23 UNL A   1      39.721  16.395  52.602  1.00  0.00    +0.000 C 
BRANCH   32   30
ATOM     30  C22 UNL A   1      38.832  17.580  52.554  1.00  0.00    +0.000 C 
ATOM     31  O2  UNL A   1      37.911  17.675  53.354  1.00  0.00    +0.000 O 
BRANCH   30   29
ATOM     29  N3  UNL A   1      39.015  18.557  51.606  1.00  0.00    +0.000 N 
ATOM    118  H24 UNL A   1      38.343  18.568  50.886  1.00  0.00    +0.000 H 
BRANCH   29   28
ATOM    116  H22 UNL A   1      39.571  20.537  51.451  1.00  0.00    +0.000 H 
ATOM     28  C21 UNL A   1      40.043  19.578  51.500  1.00  0.00    +0.000 C 
ATOM    117  H23 UNL A   1      40.675  19.490  52.360  1.00  0.00    +0.000 H 
BRANCH   28   27
ATOM    114  H20 UNL A   1      40.527  20.023  49.487  1.00  0.00    +0.000 H 
ATOM     27  C20 UNL A   1      40.924  19.404  50.264  1.00  0.00    +0.000 C 
ATOM    115  H21 UNL A   1      41.914  19.674  50.567  1.00  0.00    +0.000 H 
BRANCH   27   26
ATOM    113  H19 UNL A   1      40.908  18.056  48.665  1.00  0.00    +0.000 H 
ATOM     26  C19 UNL A   1      41.023  17.974  49.726  1.00  0.00    +0.000 C 
ATOM    112  H18 UNL A   1      40.265  17.390  50.204  1.00  0.00    +0.000 H 
BRANCH   26   25
ATOM     25  C18 UNL A   1      42.362  17.266  49.941  1.00  0.00    +0.000 C 
ATOM    110  H16 UNL A   1      42.562  17.264  50.992  1.00  0.00    +0.000 H 
ATOM    111  H17 UNL A   1      42.240  16.295  49.509  1.00  0.00    +0.000 H 
BRANCH   25   24
ATOM    108  H14 UNL A   1      43.231  18.661  48.602  1.00  0.00    +0.000 H 
ATOM    109  H15 UNL A   1      44.232  18.192  50.021  1.00  0.00    +0.000 H 
ATOM     24  C17 UNL A   1      43.580  17.873  49.236  1.00  0.00    +0.000 C 
BRANCH   24   23
ATOM    106  H12 UNL A   1      45.109  17.498  47.811  1.00  0.00    +0.000 H 
ATOM    107  H13 UNL A   1      44.897  16.239  49.045  1.00  0.00    +0.000 H 
ATOM     23  C16 UNL A   1      44.410  16.921  48.380  1.00  0.00    +0.000 C 
BRANCH   23   22
ATOM    105  H11 UNL A   1      42.692  15.876  47.703  1.00  0.00    +0.000 H 
ATOM     22  N2  UNL A   1      43.611  16.132  47.464  1.00  0.00    +0.000 N 
BRANCH   22    2
ATOM      1  O1  UNL A   1      43.694  14.817  45.578  1.00  0.00    +0.000 O 
ATOM      2  C1  UNL A   1      44.147  15.739  46.253  1.00  0.00    +0.000 C 
BRANCH    2    3
ATOM      3  C2  UNL A   1      45.303  16.581  45.768  1.00  0.00    +0.000 C 
ATOM     95  H1  UNL A   1      45.969  15.933  45.239  1.00  0.00    +0.000 H 
ATOM     96  H2  UNL A   1      45.701  17.030  46.655  1.00  0.00    +0.000 H 
BRANCH    3    4
ATOM     97  H3  UNL A   1      45.166  19.059  46.514  1.00  0.00    +0.000 H 
ATOM     98  H4  UNL A   1      44.631  21.087  45.316  1.00  0.00    +0.000 H 
ATOM     99  H5  UNL A   1      44.036  20.970  42.969  1.00  0.00    +0.000 H 
ATOM      4  C3  UNL A   1      44.990  17.755  44.853  1.00  0.00    +0.000 C 
ATOM      5  C4  UNL A   1      44.951  19.010  45.507  1.00  0.00    +0.000 C 
ATOM      6  C5  UNL A   1      44.630  20.180  44.823  1.00  0.00    +0.000 C 
ATOM    100  H6  UNL A   1      44.080  18.848  41.817  1.00  0.00    +0.000 H 
ATOM      8  C7  UNL A   1      44.355  18.888  42.811  1.00  0.00    +0.000 C 
ATOM      9  C8  UNL A   1      44.767  17.706  43.456  1.00  0.00    +0.000 C 
ATOM      7  C6  UNL A   1      44.309  20.115  43.477  1.00  0.00    +0.000 C 
BRANCH    9   10
ATOM     10  N1  UNL A   1      44.825  16.488  42.730  1.00  0.00    +0.000 N 
ATOM    101  H7  UNL A   1      45.186  15.714  43.220  1.00  0.00    +0.000 H 
BRANCH   10   11
ATOM    102  H8  UNL A   1      45.511  17.056  38.286  1.00  0.00    +0.000 H 
ATOM    103  H9  UNL A   1      43.421  15.986  37.669  1.00  0.00    +0.000 H 
ATOM    104  H10 UNL A   1      41.973  15.108  39.396  1.00  0.00    +0.000 H 
ATOM     11  C9  UNL A   1      44.430  16.243  41.388  1.00  0.00    +0.000 C 
ATOM     12  C10 UNL A   1      45.237  16.760  40.356  1.00  0.00    +0.000 C 
ATOM     13  F1  UNL A   1      46.396  17.361  40.653  1.00  0.00    +0.000 F 
ATOM     14  C11 UNL A   1      44.887  16.673  39.013  1.00  0.00    +0.000 C 
ATOM     15  C12 UNL A   1      43.693  16.066  38.661  1.00  0.00    +0.000 C 
ATOM     16  C13 UNL A   1      42.859  15.564  39.662  1.00  0.00    +0.000 C 
ATOM     17  C14 UNL A   1      43.197  15.667  41.033  1.00  0.00    +0.000 C 
ATOM     18  C15 UNL A   1      42.220  15.127  42.046  1.00  0.00    +0.000 C 
ATOM     19  F2  UNL A   1      40.932  15.159  41.589  1.00  0.00    +0.000 F 
ATOM     20  F3  UNL A   1      42.455  13.819  42.350  1.00  0.00    +0.000 F 
ATOM     21  F4  UNL A   1      42.189  15.804  43.225  1.00  0.00    +0.000 F 
ENDBRANCH   10   11
ENDBRANCH    9   10
ENDBRANCH    3    4
ENDBRANCH    2    3
ENDBRANCH   22    2
ENDBRANCH   23   22
ENDBRANCH   24   23
ENDBRANCH   25   24
ENDBRANCH   26   25
ENDBRANCH   27   26
ENDBRANCH   28   27
ENDBRANCH   29   28
ENDBRANCH   30   29
ENDBRANCH   32   30
ENDBRANCH   36   35
BRANCH   40   41
ATOM     41  C31 UNL A   1      45.719  11.701  47.708  1.00  0.00    +0.000 C 
ATOM     42  C32 UNL A   1      45.175  11.078  46.575  1.00  0.00    +0.000 C 
ATOM     43  F5  UNL A   1      44.360  10.021  46.711  1.00  0.00    +0.000 F 
ATOM     44  C33 UNL A   1      45.502  11.510  45.291  1.00  0.00    +0.000 C 
ATOM     45  F6  UNL A   1      45.013  10.864  44.224  1.00  0.00    +0.000 F 
ATOM     46  C34 UNL A   1      46.344  12.597  45.115  1.00  0.00    +0.000 C 
ATOM     47  F7  UNL A   1      46.655  13.013  43.880  1.00  0.00    +0.000 F 
ATOM     48  C35 UNL A   1      46.871  13.246  46.222  1.00  0.00    +0.000 C 
ATOM     49  F8  UNL A   1      47.675  14.306  46.054  1.00  0.00    +0.000 F 
ATOM     50  C36 UNL A   1      46.572  12.797  47.506  1.00  0.00    +0.000 C 
ATOM     51  F9  UNL A   1      47.114  13.435  48.553  1.00  0.00    +0.000 F 
ENDBRANCH   40   41
BRANCH   57   58
ATOM     65  C46 UNL A   1      49.797   5.481  52.541  1.00  0.00    +0.000 C 
ATOM     66  F13 UNL A   1      51.094   5.689  52.814  1.00  0.00    +0.000 F 
ATOM     67  C47 UNL A   1      48.912   6.556  52.517  1.00  0.00    +0.000 C 
ATOM     68  F14 UNL A   1      49.382   7.783  52.784  1.00  0.00    +0.000 F 
ATOM     58  C42 UNL A   1      47.555   6.366  52.217  1.00  0.00    +0.000 C 
ATOM     59  C43 UNL A   1      47.119   5.062  51.941  1.00  0.00    +0.000 C 
ATOM     60  F10 UNL A   1      45.828   4.825  51.665  1.00  0.00    +0.000 F 
ATOM     61  C44 UNL A   1      48.002   3.985  51.997  1.00  0.00    +0.000 C 
ATOM     62  F11 UNL A   1      47.551   2.741  51.786  1.00  0.00    +0.000 F 
ATOM     63  C45 UNL A   1      49.340   4.196  52.292  1.00  0.00    +0.000 C 
ATOM     64  F12 UNL A   1      50.188   3.160  52.345  1.00  0.00    +0.000 F 
ENDBRANCH   57   58
BRANCH   72   73
ATOM     73  C51 UNL A   1      42.896   8.742  56.811  1.00  0.00    +0.000 C 
ATOM     74  C52 UNL A   1      43.397   9.377  57.956  1.00  0.00    +0.000 C 
ATOM     75  F15 UNL A   1      44.283  10.376  57.832  1.00  0.00    +0.000 F 
ATOM     76  C53 UNL A   1      43.017   8.966  59.231  1.00  0.00    +0.000 C 
ATOM     77  F16 UNL A   1      43.540   9.565  60.309  1.00  0.00    +0.000 F 
ATOM     78  C54 UNL A   1      42.108   7.930  59.386  1.00  0.00    +0.000 C 
ATOM     79  F17 UNL A   1      41.736   7.541  60.613  1.00  0.00    +0.000 F 
ATOM     80  C55 UNL A   1      41.589   7.296  58.268  1.00  0.00    +0.000 C 
ATOM     81  F18 UNL A   1      40.699   6.305  58.414  1.00  0.00    +0.000 F 
ATOM     82  C56 UNL A   1      41.989   7.689  56.993  1.00  0.00    +0.000 C 
ATOM     83  F19 UNL A   1      41.477   7.051  55.929  1.00  0.00    +0.000 F 
ENDBRANCH   72   73
TORSDOF 18
ENDMDL
MODEL 4
REMARK VINA RESULT:      -8.6     65.437     70.967
ROOT
ATOM    129  H35 UNL A   1      29.791 -15.673  35.109  1.00  0.00    +0.000 H 
ATOM    130  H36 UNL A   1      30.810 -15.693  32.760  1.00  0.00    +0.000 H 
ATOM     36  C27 UNL A   1      29.198 -14.393  30.801  1.00  0.00    +0.000 C 
ATOM     37  C28 UNL A   1      28.964 -14.467  32.284  1.00  0.00    +0.000 C 
ATOM     38  N4  UNL A   1      27.988 -13.956  32.994  1.00  0.00    +0.000 N 
ATOM     39  C29 UNL A   1      28.225 -14.351  34.304  1.00  0.00    +0.000 C 
ATOM     40  C30 UNL A   1      27.531 -14.030  35.423  1.00  0.00    +0.000 C 
ATOM     52  C37 UNL A   1      26.365 -13.184  35.440  1.00  0.00    +0.000 C 
ATOM     53  C38 UNL A   1      25.640 -12.734  36.530  1.00  0.00    +0.000 C 
ATOM     54  C39 UNL A   1      24.553 -11.989  36.057  1.00  0.00    +0.000 C 
ATOM     55  C40 UNL A   1      24.630 -11.930  34.675  1.00  0.00    +0.000 C 
ATOM     56  N5  UNL A   1      25.746 -12.669  34.310  1.00  0.00    +0.000 N 
ATOM     57  C41 UNL A   1      23.753 -11.255  33.753  1.00  0.00    +0.000 C 
ATOM     69  C48 UNL A   1      23.920 -11.218  32.407  1.00  0.00    +0.000 C 
ATOM     70  N6  UNL A   1      24.916 -11.801  31.635  1.00  0.00    +0.000 N 
ATOM     71  C49 UNL A   1      24.631 -11.500  30.392  1.00  0.00    +0.000 C 
ATOM     72  C50 UNL A   1      25.379 -11.846  29.135  1.00  0.00    +0.000 C 
ATOM     84  C57 UNL A   1      26.506 -12.579  29.221  1.00  0.00    +0.000 C 
ATOM     85  C58 UNL A   1      27.346 -12.971  28.094  1.00  0.00    +0.000 C 
ATOM     86  C59 UNL A   1      28.383 -13.689  28.550  1.00  0.00    +0.000 C 
ATOM     87  C60 UNL A   1      28.298 -13.779  30.009  1.00  0.00    +0.000 C 
ATOM     88  N7  UNL A   1      27.137 -13.114  30.316  1.00  0.00    +0.000 N 
ATOM     89  C61 UNL A   1      23.406 -10.705  30.232  1.00  0.00    +0.000 C 
ATOM     90  C62 UNL A   1      23.036 -10.525  31.492  1.00  0.00    +0.000 C 
ATOM     91  C63 UNL A   1      29.409 -15.183  34.284  1.00  0.00    +0.000 C 
ATOM     92  C64 UNL A   1      29.939 -15.234  33.071  1.00  0.00    +0.000 C 
ATOM    121  H27 UNL A   1      25.861 -12.917  37.522  1.00  0.00    +0.000 H 
ATOM    122  H28 UNL A   1      23.820 -11.556  36.639  1.00  0.00    +0.000 H 
ATOM    123  H29 UNL A   1      26.055 -12.806  33.386  1.00  0.00    +0.000 H 
ATOM    124  H30 UNL A   1      27.170 -12.735  27.104  1.00  0.00    +0.000 H 
ATOM    125  H31 UNL A   1      29.123 -14.109  27.968  1.00  0.00    +0.000 H 
ATOM    126  H32 UNL A   1      26.791 -13.031  31.234  1.00  0.00    +0.000 H 
ATOM    127  H33 UNL A   1      22.952 -10.374  29.366  1.00  0.00    +0.000 H 
ATOM    128  H34 UNL A   1      22.222  -9.962  31.784  1.00  0.00    +0.000 H 
ENDROOT
BRANCH   36   35
ATOM     33  C24 UNL A   1      31.443 -16.963  29.146  1.00  0.00    +0.000 C 
ATOM     34  C25 UNL A   1      30.301 -16.328  29.643  1.00  0.00    +0.000 C 
ATOM     35  C26 UNL A   1      30.386 -15.035  30.184  1.00  0.00    +0.000 C 
ATOM    132  H38 UNL A   1      33.630 -14.450  29.524  1.00  0.00    +0.000 H 
ATOM    131  H37 UNL A   1      31.693 -13.414  30.552  1.00  0.00    +0.000 H 
ATOM    119  H25 UNL A   1      31.379 -17.924  28.776  1.00  0.00    +0.000 H 
ATOM    120  H26 UNL A   1      29.392 -16.813  29.613  1.00  0.00    +0.000 H 
ATOM     93  C65 UNL A   1      31.618 -14.364  30.157  1.00  0.00    +0.000 C 
ATOM     94  C66 UNL A   1      32.743 -14.975  29.602  1.00  0.00    +0.000 C 
ATOM     32  C23 UNL A   1      32.673 -16.296  29.151  1.00  0.00    +0.000 C 
BRANCH   32   30
ATOM     30  C22 UNL A   1      33.861 -17.014  28.632  1.00  0.00    +0.000 C 
ATOM     31  O2  UNL A   1      34.260 -18.016  29.210  1.00  0.00    +0.000 O 
BRANCH   30   29
ATOM     29  N3  UNL A   1      34.535 -16.552  27.527  1.00  0.00    +0.000 N 
ATOM    118  H24 UNL A   1      35.331 -16.008  27.724  1.00  0.00    +0.000 H 
BRANCH   29   28
ATOM    116  H22 UNL A   1      35.181 -16.735  25.577  1.00  0.00    +0.000 H 
ATOM     28  C21 UNL A   1      34.255 -16.742  26.114  1.00  0.00    +0.000 C 
ATOM    117  H23 UNL A   1      33.743 -17.676  26.009  1.00  0.00    +0.000 H 
BRANCH   28   27
ATOM    114  H20 UNL A   1      32.360 -16.053  25.468  1.00  0.00    +0.000 H 
ATOM     27  C20 UNL A   1      33.350 -15.654  25.540  1.00  0.00    +0.000 C 
ATOM    115  H21 UNL A   1      33.432 -14.820  26.206  1.00  0.00    +0.000 H 
BRANCH   27   26
ATOM    113  H19 UNL A   1      32.873 -15.222  23.550  1.00  0.00    +0.000 H 
ATOM     26  C19 UNL A   1      33.749 -15.130  24.157  1.00  0.00    +0.000 C 
ATOM    112  H18 UNL A   1      34.582 -15.708  23.816  1.00  0.00    +0.000 H 
BRANCH   26   25
ATOM     25  C18 UNL A   1      34.145 -13.654  24.087  1.00  0.00    +0.000 C 
ATOM    110  H16 UNL A   1      33.908 -13.300  23.106  1.00  0.00    +0.000 H 
ATOM    111  H17 UNL A   1      33.600 -13.179  24.875  1.00  0.00    +0.000 H 
BRANCH   25   24
ATOM    108  H14 UNL A   1      36.139 -14.249  24.493  1.00  0.00    +0.000 H 
ATOM    109  H15 UNL A   1      35.941 -12.755  23.513  1.00  0.00    +0.000 H 
ATOM     24  C17 UNL A   1      35.618 -13.325  24.358  1.00  0.00    +0.000 C 
BRANCH   24   23
ATOM    106  H12 UNL A   1      36.854 -12.726  25.977  1.00  0.00    +0.000 H 
ATOM    107  H13 UNL A   1      35.887 -11.431  25.241  1.00  0.00    +0.000 H 
ATOM     23  C16 UNL A   1      35.903 -12.448  25.573  1.00  0.00    +0.000 C 
BRANCH   23   22
ATOM    105  H11 UNL A   1      34.728 -13.451  27.028  1.00  0.00    +0.000 H 
ATOM     22  N2  UNL A   1      34.906 -12.575  26.617  1.00  0.00    +0.000 N 
BRANCH   22    2
ATOM      1  O1  UNL A   1      34.538 -10.308  26.757  1.00  0.00    +0.000 O 
ATOM      2  C1  UNL A   1      34.205 -11.460  27.031  1.00  0.00    +0.000 C 
BRANCH    2    3
ATOM      3  C2  UNL A   1      32.936 -11.755  27.794  1.00  0.00    +0.000 C 
ATOM     95  H1  UNL A   1      32.887 -11.066  28.611  1.00  0.00    +0.000 H 
ATOM     96  H2  UNL A   1      33.017 -12.788  28.064  1.00  0.00    +0.000 H 
BRANCH    3    4
ATOM     97  H3  UNL A   1      32.175 -13.360  25.907  1.00  0.00    +0.000 H 
ATOM     98  H4  UNL A   1      30.202 -13.408  24.514  1.00  0.00    +0.000 H 
ATOM     99  H5  UNL A   1      28.526 -11.674  24.754  1.00  0.00    +0.000 H 
ATOM      4  C3  UNL A   1      31.618 -11.660  27.041  1.00  0.00    +0.000 C 
ATOM      5  C4  UNL A   1      31.446 -12.643  26.037  1.00  0.00    +0.000 C 
ATOM      6  C5  UNL A   1      30.317 -12.667  25.223  1.00  0.00    +0.000 C 
ATOM    100  H6  UNL A   1      28.782  -9.971  26.446  1.00  0.00    +0.000 H 
ATOM      8  C7  UNL A   1      29.493 -10.716  26.367  1.00  0.00    +0.000 C 
ATOM      9  C8  UNL A   1      30.579 -10.724  27.264  1.00  0.00    +0.000 C 
ATOM      7  C6  UNL A   1      29.349 -11.687  25.373  1.00  0.00    +0.000 C 
BRANCH    9   10
ATOM     10  N1  UNL A   1      30.667  -9.734  28.277  1.00  0.00    +0.000 N 
ATOM    101  H7  UNL A   1      31.419  -9.102  28.195  1.00  0.00    +0.000 H 
BRANCH   10   11
ATOM    102  H8  UNL A   1      28.986 -11.197  32.224  1.00  0.00    +0.000 H 
ATOM    103  H9  UNL A   1      27.363  -9.399  32.376  1.00  0.00    +0.000 H 
ATOM    104  H10 UNL A   1      27.276  -7.716  30.641  1.00  0.00    +0.000 H 
ATOM     11  C9  UNL A   1      29.811  -9.536  29.392  1.00  0.00    +0.000 C 
ATOM     12  C10 UNL A   1      29.817 -10.508  30.412  1.00  0.00    +0.000 C 
ATOM     13  F1  UNL A   1      30.694 -11.519  30.364  1.00  0.00    +0.000 F 
ATOM     14  C11 UNL A   1      28.943 -10.470  31.493  1.00  0.00    +0.000 C 
ATOM     15  C12 UNL A   1      28.014  -9.447  31.578  1.00  0.00    +0.000 C 
ATOM     16  C13 UNL A   1      27.966  -8.480  30.571  1.00  0.00    +0.000 C 
ATOM     17  C14 UNL A   1      28.838  -8.523  29.457  1.00  0.00    +0.000 C 
ATOM     18  C15 UNL A   1      28.691  -7.455  28.402  1.00  0.00    +0.000 C 
ATOM     19  F2  UNL A   1      27.416  -6.966  28.336  1.00  0.00    +0.000 F 
ATOM     20  F3  UNL A   1      29.475  -6.369  28.649  1.00  0.00    +0.000 F 
ATOM     21  F4  UNL A   1      28.975  -7.864  27.136  1.00  0.00    +0.000 F 
ENDBRANCH   10   11
ENDBRANCH    9   10
ENDBRANCH    3    4
ENDBRANCH    2    3
ENDBRANCH   22    2
ENDBRANCH   23   22
ENDBRANCH   24   23
ENDBRANCH   25   24
ENDBRANCH   26   25
ENDBRANCH   27   26
ENDBRANCH   28   27
ENDBRANCH   29   28
ENDBRANCH   30   29
ENDBRANCH   32   30
ENDBRANCH   36   35
BRANCH   40   41
ATOM     41  C31 UNL A   1      28.013 -14.605  36.725  1.00  0.00    +0.000 C 
ATOM     42  C32 UNL A   1      28.932 -13.923  37.538  1.00  0.00    +0.000 C 
ATOM     43  F5  UNL A   1      29.432 -12.741  37.147  1.00  0.00    +0.000 F 
ATOM     44  C33 UNL A   1      29.377 -14.474  38.737  1.00  0.00    +0.000 C 
ATOM     45  F6  UNL A   1      30.297 -13.829  39.468  1.00  0.00    +0.000 F 
ATOM     46  C34 UNL A   1      28.883 -15.696  39.168  1.00  0.00    +0.000 C 
ATOM     47  F7  UNL A   1      29.311 -16.223  40.323  1.00  0.00    +0.000 F 
ATOM     48  C35 UNL A   1      27.953 -16.375  38.395  1.00  0.00    +0.000 C 
ATOM     49  F8  UNL A   1      27.465 -17.549  38.816  1.00  0.00    +0.000 F 
ATOM     50  C36 UNL A   1      27.529 -15.841  37.180  1.00  0.00    +0.000 C 
ATOM     51  F9  UNL A   1      26.644 -16.532  36.448  1.00  0.00    +0.000 F 
ENDBRANCH   40   41
BRANCH   57   58
ATOM     65  C46 UNL A   1      21.662  -8.565  35.453  1.00  0.00    +0.000 C 
ATOM     66  F13 UNL A   1      21.854  -7.379  36.047  1.00  0.00    +0.000 F 
ATOM     67  C47 UNL A   1      22.747  -9.260  34.923  1.00  0.00    +0.000 C 
ATOM     68  F14 UNL A   1      23.967  -8.711  35.011  1.00  0.00    +0.000 F 
ATOM     58  C42 UNL A   1      22.574 -10.511  34.312  1.00  0.00    +0.000 C 
ATOM     59  C43 UNL A   1      21.276 -11.039  34.253  1.00  0.00    +0.000 C 
ATOM     60  F10 UNL A   1      21.056 -12.224  33.664  1.00  0.00    +0.000 F 
ATOM     61  C44 UNL A   1      20.189 -10.327  34.756  1.00  0.00    +0.000 C 
ATOM     62  F11 UNL A   1      18.951 -10.827  34.636  1.00  0.00    +0.000 F 
ATOM     63  C45 UNL A   1      20.384  -9.095  35.359  1.00  0.00    +0.000 C 
ATOM     64  F12 UNL A   1      19.337  -8.411  35.842  1.00  0.00    +0.000 F 
ENDBRANCH   57   58
BRANCH   72   73
ATOM     73  C51 UNL A   1      24.915 -11.357  27.811  1.00  0.00    +0.000 C 
ATOM     74  C52 UNL A   1      23.901 -12.031  27.115  1.00  0.00    +0.000 C 
ATOM     75  F15 UNL A   1      23.363 -13.146  27.630  1.00  0.00    +0.000 F 
ATOM     76  C53 UNL A   1      23.462 -11.581  25.873  1.00  0.00    +0.000 C 
ATOM     77  F16 UNL A   1      22.519 -12.264  25.210  1.00  0.00    +0.000 F 
ATOM     78  C54 UNL A   1      24.007 -10.434  25.315  1.00  0.00    +0.000 C 
ATOM     79  F17 UNL A   1      23.578  -9.997  24.123  1.00  0.00    +0.000 F 
ATOM     80  C55 UNL A   1      25.002  -9.744  25.991  1.00  0.00    +0.000 C 
ATOM     81  F18 UNL A   1      25.520  -8.628  25.463  1.00  0.00    +0.000 F 
ATOM     82  C56 UNL A   1      25.461 -10.209  27.222  1.00  0.00    +0.000 C 
ATOM     83  F19 UNL A   1      26.430  -9.526  27.851  1.00  0.00    +0.000 F 
ENDBRANCH   72   73
TORSDOF 18
ENDMDL
MODEL 5
REMARK VINA RESULT:      -8.6     43.957     47.148
ROOT
ATOM    129  H35 UNL A   1      23.963  35.221  45.812  1.00  0.00    +0.000 H 
ATOM    130  H36 UNL A   1      25.562  37.192  46.151  1.00  0.00    +0.000 H 
ATOM     36  C27 UNL A   1      24.351  39.444  47.413  1.00  0.00    +0.000 C 
ATOM     37  C28 UNL A   1      23.745  38.091  47.167  1.00  0.00    +0.000 C 
ATOM     38  N4  UNL A   1      22.550  37.651  47.475  1.00  0.00    +0.000 N 
ATOM     39  C29 UNL A   1      22.487  36.352  46.990  1.00  0.00    +0.000 C 
ATOM     40  C30 UNL A   1      21.479  35.452  47.108  1.00  0.00    +0.000 C 
ATOM     52  C37 UNL A   1      20.236  35.711  47.790  1.00  0.00    +0.000 C 
ATOM     53  C38 UNL A   1      19.188  34.841  48.034  1.00  0.00    +0.000 C 
ATOM     54  C39 UNL A   1      18.166  35.554  48.674  1.00  0.00    +0.000 C 
ATOM     55  C40 UNL A   1      18.599  36.855  48.875  1.00  0.00    +0.000 C 
ATOM     56  N5  UNL A   1      19.870  36.937  48.327  1.00  0.00    +0.000 N 
ATOM     57  C41 UNL A   1      17.907  37.944  49.517  1.00  0.00    +0.000 C 
ATOM     69  C48 UNL A   1      18.419  39.186  49.704  1.00  0.00    +0.000 C 
ATOM     70  N6  UNL A   1      19.661  39.683  49.333  1.00  0.00    +0.000 N 
ATOM     71  C49 UNL A   1      19.675  40.937  49.712  1.00  0.00    +0.000 C 
ATOM     72  C50 UNL A   1      20.774  41.956  49.589  1.00  0.00    +0.000 C 
ATOM     84  C57 UNL A   1      21.935  41.603  49.005  1.00  0.00    +0.000 C 
ATOM     85  C58 UNL A   1      23.094  42.473  48.836  1.00  0.00    +0.000 C 
ATOM     86  C59 UNL A   1      24.069  41.788  48.219  1.00  0.00    +0.000 C 
ATOM     87  C60 UNL A   1      23.613  40.418  47.978  1.00  0.00    +0.000 C 
ATOM     88  N7  UNL A   1      22.325  40.408  48.453  1.00  0.00    +0.000 N 
ATOM     89  C61 UNL A   1      18.431  41.386  50.353  1.00  0.00    +0.000 C 
ATOM     90  C62 UNL A   1      17.716  40.269  50.361  1.00  0.00    +0.000 C 
ATOM     91  C63 UNL A   1      23.745  36.090  46.325  1.00  0.00    +0.000 C 
ATOM     92  C64 UNL A   1      24.581  37.110  46.461  1.00  0.00    +0.000 C 
ATOM    121  H27 UNL A   1      19.163  33.839  47.788  1.00  0.00    +0.000 H 
ATOM    122  H28 UNL A   1      17.248  35.174  48.950  1.00  0.00    +0.000 H 
ATOM    123  H29 UNL A   1      20.431  37.746  48.320  1.00  0.00    +0.000 H 
ATOM    124  H30 UNL A   1      23.154  43.457  49.141  1.00  0.00    +0.000 H 
ATOM    125  H31 UNL A   1      24.992  42.166  47.956  1.00  0.00    +0.000 H 
ATOM    126  H32 UNL A   1      21.738  39.619  48.402  1.00  0.00    +0.000 H 
ATOM    127  H33 UNL A   1      18.179  42.323  50.704  1.00  0.00    +0.000 H 
ATOM    128  H34 UNL A   1      16.778  40.183  50.783  1.00  0.00    +0.000 H 
ENDROOT
BRANCH   36   35
ATOM     33  C24 UNL A   1      27.314  40.611  45.352  1.00  0.00    +0.000 C 
ATOM     34  C25 UNL A   1      26.000  40.413  45.786  1.00  0.00    +0.000 C 
ATOM     35  C26 UNL A   1      25.744  39.743  46.994  1.00  0.00    +0.000 C 
ATOM    132  H38 UNL A   1      28.925  39.349  48.008  1.00  0.00    +0.000 H 
ATOM    131  H37 UNL A   1      26.650  38.842  48.678  1.00  0.00    +0.000 H 
ATOM    119  H25 UNL A   1      27.494  41.078  44.451  1.00  0.00    +0.000 H 
ATOM    120  H26 UNL A   1      25.214  40.760  45.215  1.00  0.00    +0.000 H 
ATOM     93  C65 UNL A   1      26.825  39.335  47.790  1.00  0.00    +0.000 C 
ATOM     94  C66 UNL A   1      28.136  39.591  47.386  1.00  0.00    +0.000 C 
ATOM     32  C23 UNL A   1      28.385  40.174  46.140  1.00  0.00    +0.000 C 
BRANCH   32   30
ATOM     30  C22 UNL A   1      29.761  40.388  45.632  1.00  0.00    +0.000 C 
ATOM     31  O2  UNL A   1      30.333  41.444  45.866  1.00  0.00    +0.000 O 
BRANCH   30   29
ATOM     29  N3  UNL A   1      30.390  39.425  44.880  1.00  0.00    +0.000 N 
ATOM    118  H24 UNL A   1      31.373  39.475  44.881  1.00  0.00    +0.000 H 
BRANCH   29   28
ATOM    116  H22 UNL A   1      28.928  38.690  43.626  1.00  0.00    +0.000 H 
ATOM     28  C21 UNL A   1      29.831  38.346  44.085  1.00  0.00    +0.000 C 
ATOM    117  H23 UNL A   1      30.565  38.068  43.357  1.00  0.00    +0.000 H 
BRANCH   28   27
ATOM    114  H20 UNL A   1      30.027  36.273  44.474  1.00  0.00    +0.000 H 
ATOM     27  C20 UNL A   1      29.515  37.103  44.914  1.00  0.00    +0.000 C 
ATOM    115  H21 UNL A   1      29.832  37.326  45.912  1.00  0.00    +0.000 H 
BRANCH   27   26
ATOM    113  H19 UNL A   1      27.523  37.421  44.362  1.00  0.00    +0.000 H 
ATOM     26  C19 UNL A   1      28.030  36.742  45.016  1.00  0.00    +0.000 C 
ATOM    112  H18 UNL A   1      27.742  36.825  46.043  1.00  0.00    +0.000 H 
BRANCH   26   25
ATOM     25  C18 UNL A   1      27.644  35.343  44.534  1.00  0.00    +0.000 C 
ATOM    110  H16 UNL A   1      28.006  34.640  45.255  1.00  0.00    +0.000 H 
ATOM    111  H17 UNL A   1      26.579  35.364  44.430  1.00  0.00    +0.000 H 
BRANCH   25   24
ATOM    108  H14 UNL A   1      27.363  34.490  42.615  1.00  0.00    +0.000 H 
ATOM    109  H15 UNL A   1      28.582  35.807  42.726  1.00  0.00    +0.000 H 
ATOM     24  C17 UNL A   1      28.177  34.918  43.161  1.00  0.00    +0.000 C 
BRANCH   24   23
ATOM    106  H12 UNL A   1      28.996  33.029  42.642  1.00  0.00    +0.000 H 
ATOM    107  H13 UNL A   1      30.155  34.374  42.683  1.00  0.00    +0.000 H 
ATOM     23  C16 UNL A   1      29.319  33.907  43.161  1.00  0.00    +0.000 C 
BRANCH   23   22
ATOM    105  H11 UNL A   1      29.139  33.017  45.079  1.00  0.00    +0.000 H 
ATOM     22  N2  UNL A   1      29.745  33.525  44.493  1.00  0.00    +0.000 N 
BRANCH   22    2
ATOM      1  O1  UNL A   1      31.863  34.376  44.210  1.00  0.00    +0.000 O 
ATOM      2  C1  UNL A   1      31.005  33.877  44.935  1.00  0.00    +0.000 C 
BRANCH    2    3
ATOM      3  C2  UNL A   1      31.237  33.676  46.413  1.00  0.00    +0.000 C 
ATOM     95  H1  UNL A   1      32.015  34.349  46.708  1.00  0.00    +0.000 H 
ATOM     96  H2  UNL A   1      31.465  32.635  46.511  1.00  0.00    +0.000 H 
BRANCH    3    4
ATOM     97  H3  UNL A   1      30.583  35.951  47.468  1.00  0.00    +0.000 H 
ATOM     98  H4  UNL A   1      28.842  36.578  49.021  1.00  0.00    +0.000 H 
ATOM     99  H5  UNL A   1      27.357  34.879  49.905  1.00  0.00    +0.000 H 
ATOM      4  C3  UNL A   1      30.063  33.900  47.353  1.00  0.00    +0.000 C 
ATOM      5  C4  UNL A   1      29.928  35.232  47.813  1.00  0.00    +0.000 C 
ATOM      6  C5  UNL A   1      28.935  35.596  48.718  1.00  0.00    +0.000 C 
ATOM    100  H6  UNL A   1      27.555  32.593  49.155  1.00  0.00    +0.000 H 
ATOM      8  C7  UNL A   1      28.181  33.311  48.756  1.00  0.00    +0.000 C 
ATOM      9  C8  UNL A   1      29.115  32.935  47.772  1.00  0.00    +0.000 C 
ATOM      7  C6  UNL A   1      28.074  34.628  49.208  1.00  0.00    +0.000 C 
BRANCH    9   10
ATOM     10  N1  UNL A   1      29.167  31.590  47.323  1.00  0.00    +0.000 N 
ATOM    101  H7  UNL A   1      29.836  31.395  46.627  1.00  0.00    +0.000 H 
BRANCH   10   11
ATOM    102  H8  UNL A   1      28.803  27.696  49.616  1.00  0.00    +0.000 H 
ATOM    103  H9  UNL A   1      26.559  27.250  48.805  1.00  0.00    +0.000 H 
ATOM    104  H10 UNL A   1      25.487  28.830  47.320  1.00  0.00    +0.000 H 
ATOM     11  C9  UNL A   1      28.379  30.488  47.750  1.00  0.00    +0.000 C 
ATOM     12  C10 UNL A   1      28.977  29.535  48.597  1.00  0.00    +0.000 C 
ATOM     13  F1  UNL A   1      30.215  29.741  49.064  1.00  0.00    +0.000 F 
ATOM     14  C11 UNL A   1      28.333  28.365  48.986  1.00  0.00    +0.000 C 
ATOM     15  C12 UNL A   1      27.055  28.108  48.521  1.00  0.00    +0.000 C 
ATOM     16  C13 UNL A   1      26.442  29.022  47.661  1.00  0.00    +0.000 C 
ATOM     17  C14 UNL A   1      27.098  30.205  47.242  1.00  0.00    +0.000 C 
ATOM     18  C15 UNL A   1      26.372  31.117  46.285  1.00  0.00    +0.000 C 
ATOM     19  F2  UNL A   1      25.481  30.438  45.502  1.00  0.00    +0.000 F 
ATOM     20  F3  UNL A   1      25.631  32.061  46.929  1.00  0.00    +0.000 F 
ATOM     21  F4  UNL A   1      27.176  31.778  45.409  1.00  0.00    +0.000 F 
ENDBRANCH   10   11
ENDBRANCH    9   10
ENDBRANCH    3    4
ENDBRANCH    2    3
ENDBRANCH   22    2
ENDBRANCH   23   22
ENDBRANCH   24   23
ENDBRANCH   25   24
ENDBRANCH   26   25
ENDBRANCH   27   26
ENDBRANCH   28   27
ENDBRANCH   29   28
ENDBRANCH   30   29
ENDBRANCH   32   30
ENDBRANCH   36   35
BRANCH   40   41
ATOM     41  C31 UNL A   1      21.679  34.103  46.479  1.00  0.00    +0.000 C 
ATOM     42  C32 UNL A   1      22.271  33.041  47.180  1.00  0.00    +0.000 C 
ATOM     43  F5  UNL A   1      22.707  33.222  48.436  1.00  0.00    +0.000 F 
ATOM     44  C33 UNL A   1      22.458  31.799  46.579  1.00  0.00    +0.000 C 
ATOM     45  F6  UNL A   1      23.075  30.817  47.250  1.00  0.00    +0.000 F 
ATOM     46  C34 UNL A   1      22.022  31.581  45.281  1.00  0.00    +0.000 C 
ATOM     47  F7  UNL A   1      22.200  30.385  44.704  1.00  0.00    +0.000 F 
ATOM     48  C35 UNL A   1      21.409  32.607  44.578  1.00  0.00    +0.000 C 
ATOM     49  F8  UNL A   1      20.975  32.394  43.328  1.00  0.00    +0.000 F 
ATOM     50  C36 UNL A   1      21.248  33.860  45.165  1.00  0.00    +0.000 C 
ATOM     51  F9  UNL A   1      20.669  34.836  44.451  1.00  0.00    +0.000 F 
ENDBRANCH   40   41
BRANCH   57   58
ATOM     65  C46 UNL A   1      14.151  37.336  49.641  1.00  0.00    +0.000 C 
ATOM     66  F13 UNL A   1      13.127  37.231  48.781  1.00  0.00    +0.000 F 
ATOM     67  C47 UNL A   1      15.439  37.561  49.162  1.00  0.00    +0.000 C 
ATOM     68  F14 UNL A   1      15.626  37.656  47.838  1.00  0.00    +0.000 F 
ATOM     58  C42 UNL A   1      16.523  37.692  50.043  1.00  0.00    +0.000 C 
ATOM     59  C43 UNL A   1      16.268  37.589  51.419  1.00  0.00    +0.000 C 
ATOM     60  F10 UNL A   1      17.273  37.689  52.301  1.00  0.00    +0.000 F 
ATOM     61  C44 UNL A   1      14.983  37.332  51.892  1.00  0.00    +0.000 C 
ATOM     62  F11 UNL A   1      14.774  37.180  53.207  1.00  0.00    +0.000 F 
ATOM     63  C45 UNL A   1      13.926  37.211  51.003  1.00  0.00    +0.000 C 
ATOM     64  F12 UNL A   1      12.690  36.963  51.460  1.00  0.00    +0.000 F 
ENDBRANCH   57   58
BRANCH   72   73
ATOM     73  C51 UNL A   1      20.610  43.326  50.139  1.00  0.00    +0.000 C 
ATOM     74  C52 UNL A   1      20.135  44.369  49.332  1.00  0.00    +0.000 C 
ATOM     75  F15 UNL A   1      19.854  44.140  48.041  1.00  0.00    +0.000 F 
ATOM     76  C53 UNL A   1      19.981  45.657  49.838  1.00  0.00    +0.000 C 
ATOM     77  F16 UNL A   1      19.562  46.644  49.035  1.00  0.00    +0.000 F 
ATOM     78  C54 UNL A   1      20.273  45.921  51.168  1.00  0.00    +0.000 C 
ATOM     79  F17 UNL A   1      20.116  47.159  51.657  1.00  0.00    +0.000 F 
ATOM     80  C55 UNL A   1      20.732  44.903  51.989  1.00  0.00    +0.000 C 
ATOM     81  F18 UNL A   1      20.999  45.151  53.278  1.00  0.00    +0.000 F 
ATOM     82  C56 UNL A   1      20.911  43.619  51.476  1.00  0.00    +0.000 C 
ATOM     83  F19 UNL A   1      21.364  42.655  52.291  1.00  0.00    +0.000 F 
ENDBRANCH   72   73
TORSDOF 18
ENDMDL
MODEL 6
REMARK VINA RESULT:      -8.6     42.666     48.325
ROOT
ATOM    129  H35 UNL A   1      28.198  29.524  50.342  1.00  0.00    +0.000 H 
ATOM    130  H36 UNL A   1      26.518  30.353  48.596  1.00  0.00    +0.000 H 
ATOM     36  C27 UNL A   1      27.676  32.015  46.591  1.00  0.00    +0.000 C 
ATOM     37  C28 UNL A   1      28.381  31.271  47.689  1.00  0.00    +0.000 C 
ATOM     38  N4  UNL A   1      29.662  31.216  47.962  1.00  0.00    +0.000 N 
ATOM     39  C29 UNL A   1      29.775  30.425  49.098  1.00  0.00    +0.000 C 
ATOM     40  C30 UNL A   1      30.899  30.022  49.740  1.00  0.00    +0.000 C 
ATOM     52  C37 UNL A   1      32.236  30.371  49.332  1.00  0.00    +0.000 C 
ATOM     53  C38 UNL A   1      33.440  29.947  49.867  1.00  0.00    +0.000 C 
ATOM     54  C39 UNL A   1      34.476  30.597  49.185  1.00  0.00    +0.000 C 
ATOM     55  C40 UNL A   1      33.919  31.386  48.191  1.00  0.00    +0.000 C 
ATOM     56  N5  UNL A   1      32.544  31.238  48.293  1.00  0.00    +0.000 N 
ATOM     57  C41 UNL A   1      34.588  32.215  47.220  1.00  0.00    +0.000 C 
ATOM     69  C48 UNL A   1      33.965  32.933  46.252  1.00  0.00    +0.000 C 
ATOM     70  N6  UNL A   1      32.607  33.045  45.986  1.00  0.00    +0.000 N 
ATOM     71  C49 UNL A   1      32.506  33.868  44.971  1.00  0.00    +0.000 C 
ATOM     72  C50 UNL A   1      31.275  34.334  44.244  1.00  0.00    +0.000 C 
ATOM     84  C57 UNL A   1      30.068  33.895  44.647  1.00  0.00    +0.000 C 
ATOM     85  C58 UNL A   1      28.793  34.243  44.027  1.00  0.00    +0.000 C 
ATOM     86  C59 UNL A   1      27.803  33.622  44.687  1.00  0.00    +0.000 C 
ATOM     87  C60 UNL A   1      28.378  32.804  45.756  1.00  0.00    +0.000 C 
ATOM     88  N7  UNL A   1      29.726  33.051  45.675  1.00  0.00    +0.000 N 
ATOM     89  C61 UNL A   1      33.793  34.388  44.488  1.00  0.00    +0.000 C 
ATOM     90  C62 UNL A   1      34.650  33.754  45.275  1.00  0.00    +0.000 C 
ATOM     91  C63 UNL A   1      28.431  30.061  49.491  1.00  0.00    +0.000 C 
ATOM     92  C64 UNL A   1      27.538  30.505  48.618  1.00  0.00    +0.000 C 
ATOM    121  H27 UNL A   1      33.556  29.269  50.636  1.00  0.00    +0.000 H 
ATOM    122  H28 UNL A   1      35.483  30.504  49.387  1.00  0.00    +0.000 H 
ATOM    123  H29 UNL A   1      31.883  31.681  47.714  1.00  0.00    +0.000 H 
ATOM    124  H30 UNL A   1      28.672  34.866  43.214  1.00  0.00    +0.000 H 
ATOM    125  H31 UNL A   1      26.797  33.705  44.473  1.00  0.00    +0.000 H 
ATOM    126  H32 UNL A   1      30.384  32.660  46.294  1.00  0.00    +0.000 H 
ATOM    127  H33 UNL A   1      33.979  35.068  43.734  1.00  0.00    +0.000 H 
ATOM    128  H34 UNL A   1      35.676  33.834  45.200  1.00  0.00    +0.000 H 
ENDROOT
BRANCH   36   35
ATOM     33  C24 UNL A   1      23.981  32.810  46.911  1.00  0.00    +0.000 C 
ATOM     34  C25 UNL A   1      25.372  32.936  46.974  1.00  0.00    +0.000 C 
ATOM     35  C26 UNL A   1      26.200  31.935  46.441  1.00  0.00    +0.000 C 
ATOM    132  H38 UNL A   1      23.806  29.978  45.125  1.00  0.00    +0.000 H 
ATOM    131  H37 UNL A   1      26.212  30.100  45.391  1.00  0.00    +0.000 H 
ATOM    119  H25 UNL A   1      23.378  33.535  47.329  1.00  0.00    +0.000 H 
ATOM    120  H26 UNL A   1      25.791  33.768  47.416  1.00  0.00    +0.000 H 
ATOM     93  C65 UNL A   1      25.614  30.842  45.786  1.00  0.00    +0.000 C 
ATOM     94  C66 UNL A   1      24.227  30.750  45.667  1.00  0.00    +0.000 C 
ATOM     32  C23 UNL A   1      23.407  31.701  46.280  1.00  0.00    +0.000 C 
BRANCH   32   30
ATOM     30  C22 UNL A   1      21.928  31.599  46.253  1.00  0.00    +0.000 C 
ATOM     31  O2  UNL A   1      21.401  30.614  45.751  1.00  0.00    +0.000 O 
BRANCH   30   29
ATOM     29  N3  UNL A   1      21.144  32.607  46.759  1.00  0.00    +0.000 N 
ATOM    118  H24 UNL A   1      21.631  33.297  47.264  1.00  0.00    +0.000 H 
BRANCH   29   28
ATOM    116  H22 UNL A   1      19.245  31.883  46.413  1.00  0.00    +0.000 H 
ATOM     28  C21 UNL A   1      19.709  32.813  46.664  1.00  0.00    +0.000 C 
ATOM    117  H23 UNL A   1      19.373  33.180  47.612  1.00  0.00    +0.000 H 
BRANCH   28   27
ATOM    114  H20 UNL A   1      20.233  34.228  45.178  1.00  0.00    +0.000 H 
ATOM     27  C20 UNL A   1      19.329  33.850  45.609  1.00  0.00    +0.000 C 
ATOM    115  H21 UNL A   1      18.697  33.342  44.911  1.00  0.00    +0.000 H 
BRANCH   27   26
ATOM    113  H19 UNL A   1      18.839  35.197  47.132  1.00  0.00    +0.000 H 
ATOM     26  C19 UNL A   1      18.516  35.042  46.123  1.00  0.00    +0.000 C 
ATOM    112  H18 UNL A   1      17.479  34.797  46.028  1.00  0.00    +0.000 H 
BRANCH   26   25
ATOM     25  C18 UNL A   1      18.749  36.373  45.407  1.00  0.00    +0.000 C 
ATOM    110  H16 UNL A   1      19.731  36.347  44.983  1.00  0.00    +0.000 H 
ATOM    111  H17 UNL A   1      17.957  36.449  44.691  1.00  0.00    +0.000 H 
BRANCH   25   24
ATOM    108  H14 UNL A   1      19.243  38.396  45.799  1.00  0.00    +0.000 H 
ATOM    109  H15 UNL A   1      17.600  37.869  46.305  1.00  0.00    +0.000 H 
ATOM     24  C17 UNL A   1      18.645  37.641  46.262  1.00  0.00    +0.000 C 
BRANCH   24   23
ATOM    106  H12 UNL A   1      18.555  38.233  48.299  1.00  0.00    +0.000 H 
ATOM    107  H13 UNL A   1      18.896  36.512  48.023  1.00  0.00    +0.000 H 
ATOM     23  C16 UNL A   1      19.094  37.517  47.715  1.00  0.00    +0.000 C 
BRANCH   23   22
ATOM    105  H11 UNL A   1      20.876  38.662  47.835  1.00  0.00    +0.000 H 
ATOM     22  N2  UNL A   1      20.513  37.750  47.896  1.00  0.00    +0.000 N 
BRANCH   22    2
ATOM      1  O1  UNL A   1      20.958  35.586  48.537  1.00  0.00    +0.000 O 
ATOM      2  C1  UNL A   1      21.353  36.685  48.153  1.00  0.00    +0.000 C 
BRANCH    2    3
ATOM      3  C2  UNL A   1      22.811  36.939  47.852  1.00  0.00    +0.000 C 
ATOM     95  H1  UNL A   1      23.382  36.473  48.627  1.00  0.00    +0.000 H 
ATOM     96  H2  UNL A   1      22.892  38.005  47.795  1.00  0.00    +0.000 H 
BRANCH    3    4
ATOM     97  H3  UNL A   1      21.398  35.863  45.965  1.00  0.00    +0.000 H 
ATOM     98  H4  UNL A   1      21.998  34.935  43.817  1.00  0.00    +0.000 H 
ATOM     99  H5  UNL A   1      24.327  34.871  43.149  1.00  0.00    +0.000 H 
ATOM      4  C3  UNL A   1      23.358  36.442  46.524  1.00  0.00    +0.000 C 
ATOM      5  C4  UNL A   1      22.386  35.872  45.667  1.00  0.00    +0.000 C 
ATOM      6  C5  UNL A   1      22.728  35.324  44.434  1.00  0.00    +0.000 C 
ATOM    100  H6  UNL A   1      26.021  35.823  44.582  1.00  0.00    +0.000 H 
ATOM      8  C7  UNL A   1      25.031  35.874  44.868  1.00  0.00    +0.000 C 
ATOM      9  C8  UNL A   1      24.700  36.518  46.077  1.00  0.00    +0.000 C 
ATOM      7  C6  UNL A   1      24.057  35.305  44.044  1.00  0.00    +0.000 C 
BRANCH    9   10
ATOM     10  N1  UNL A   1      25.720  37.108  46.867  1.00  0.00    +0.000 N 
ATOM    101  H7  UNL A   1      25.515  37.995  47.240  1.00  0.00    +0.000 H 
BRANCH   10   11
ATOM    102  H8  UNL A   1      28.320  34.481  49.492  1.00  0.00    +0.000 H 
ATOM    103  H9  UNL A   1      30.386  35.234  48.464  1.00  0.00    +0.000 H 
ATOM    104  H10 UNL A   1      30.308  36.843  46.661  1.00  0.00    +0.000 H 
ATOM     11  C9  UNL A   1      26.999  36.581  47.189  1.00  0.00    +0.000 C 
ATOM     12  C10 UNL A   1      27.087  35.657  48.250  1.00  0.00    +0.000 C 
ATOM     13  F1  UNL A   1      25.971  35.219  48.846  1.00  0.00    +0.000 F 
ATOM     14  C11 UNL A   1      28.299  35.163  48.718  1.00  0.00    +0.000 C 
ATOM     15  C12 UNL A   1      29.478  35.596  48.135  1.00  0.00    +0.000 C 
ATOM     16  C13 UNL A   1      29.427  36.528  47.097  1.00  0.00    +0.000 C 
ATOM     17  C14 UNL A   1      28.199  37.052  46.628  1.00  0.00    +0.000 C 
ATOM     18  C15 UNL A   1      28.243  38.080  45.525  1.00  0.00    +0.000 C 
ATOM     19  F2  UNL A   1      29.408  38.795  45.532  1.00  0.00    +0.000 F 
ATOM     20  F3  UNL A   1      28.181  37.516  44.286  1.00  0.00    +0.000 F 
ATOM     21  F4  UNL A   1      27.258  39.016  45.580  1.00  0.00    +0.000 F 
ENDBRANCH   10   11
ENDBRANCH    9   10
ENDBRANCH    3    4
ENDBRANCH    2    3
ENDBRANCH   22    2
ENDBRANCH   23   22
ENDBRANCH   24   23
ENDBRANCH   25   24
ENDBRANCH   26   25
ENDBRANCH   27   26
ENDBRANCH   28   27
ENDBRANCH   29   28
ENDBRANCH   30   29
ENDBRANCH   32   30
ENDBRANCH   36   35
BRANCH   40   41
ATOM     41  C31 UNL A   1      30.728  29.161  50.960  1.00  0.00    +0.000 C 
ATOM     42  C32 UNL A   1      30.615  27.766  50.868  1.00  0.00    +0.000 C 
ATOM     43  F5  UNL A   1      30.624  27.165  49.669  1.00  0.00    +0.000 F 
ATOM     44  C33 UNL A   1      30.446  26.983  52.008  1.00  0.00    +0.000 C 
ATOM     45  F6  UNL A   1      30.285  25.657  51.890  1.00  0.00    +0.000 F 
ATOM     46  C34 UNL A   1      30.428  27.573  53.262  1.00  0.00    +0.000 C 
ATOM     47  F7  UNL A   1      30.269  26.818  54.357  1.00  0.00    +0.000 F 
ATOM     48  C35 UNL A   1      30.567  28.948  53.379  1.00  0.00    +0.000 C 
ATOM     49  F8  UNL A   1      30.563  29.519  54.591  1.00  0.00    +0.000 F 
ATOM     50  C36 UNL A   1      30.704  29.737  52.239  1.00  0.00    +0.000 C 
ATOM     51  F9  UNL A   1      30.816  31.065  52.386  1.00  0.00    +0.000 F 
ENDBRANCH   40   41
BRANCH   57   58
ATOM     65  C46 UNL A   1      38.248  31.411  46.550  1.00  0.00    +0.000 C 
ATOM     66  F13 UNL A   1      38.962  30.518  45.850  1.00  0.00    +0.000 F 
ATOM     67  C47 UNL A   1      36.857  31.366  46.517  1.00  0.00    +0.000 C 
ATOM     68  F14 UNL A   1      36.260  30.429  45.767  1.00  0.00    +0.000 F 
ATOM     58  C42 UNL A   1      36.088  32.279  47.256  1.00  0.00    +0.000 C 
ATOM     59  C43 UNL A   1      36.764  33.234  48.028  1.00  0.00    +0.000 C 
ATOM     60  F10 UNL A   1      36.075  34.140  48.738  1.00  0.00    +0.000 F 
ATOM     61  C44 UNL A   1      38.156  33.296  48.033  1.00  0.00    +0.000 C 
ATOM     62  F11 UNL A   1      38.779  34.255  48.732  1.00  0.00    +0.000 F 
ATOM     63  C45 UNL A   1      38.896  32.382  47.299  1.00  0.00    +0.000 C 
ATOM     64  F12 UNL A   1      40.235  32.442  47.305  1.00  0.00    +0.000 F 
ENDBRANCH   57   58
BRANCH   72   73
ATOM     73  C51 UNL A   1      31.379  35.236  43.068  1.00  0.00    +0.000 C 
ATOM     74  C52 UNL A   1      31.564  34.714  41.780  1.00  0.00    +0.000 C 
ATOM     75  F15 UNL A   1      31.681  33.389  41.606  1.00  0.00    +0.000 F 
ATOM     76  C53 UNL A   1      31.665  35.552  40.673  1.00  0.00    +0.000 C 
ATOM     77  F16 UNL A   1      31.881  35.029  39.458  1.00  0.00    +0.000 F 
ATOM     78  C54 UNL A   1      31.556  36.925  40.827  1.00  0.00    +0.000 C 
ATOM     79  F17 UNL A   1      31.644  37.730  39.760  1.00  0.00    +0.000 F 
ATOM     80  C55 UNL A   1      31.359  37.464  42.089  1.00  0.00    +0.000 C 
ATOM     81  F18 UNL A   1      31.237  38.789  42.240  1.00  0.00    +0.000 F 
ATOM     82  C56 UNL A   1      31.284  36.628  43.202  1.00  0.00    +0.000 C 
ATOM     83  F19 UNL A   1      31.102  37.177  44.412  1.00  0.00    +0.000 F 
ENDBRANCH   72   73
TORSDOF 18
ENDMDL
MODEL 7
REMARK VINA RESULT:      -8.5      0.645      2.360
ROOT
ATOM    129  H35 UNL A   1      12.217  50.237   6.655  1.00  0.00    +0.000 H 
ATOM    130  H36 UNL A   1      12.294  52.778   6.961  1.00  0.00    +0.000 H 
ATOM     36  C27 UNL A   1      14.002  54.103   5.104  1.00  0.00    +0.000 C 
ATOM     37  C28 UNL A   1      13.634  52.647   5.138  1.00  0.00    +0.000 C 
ATOM     38  N4  UNL A   1      14.006  51.680   4.334  1.00  0.00    +0.000 N 
ATOM     39  C29 UNL A   1      13.417  50.526   4.832  1.00  0.00    +0.000 C 
ATOM     40  C30 UNL A   1      13.451  49.270   4.321  1.00  0.00    +0.000 C 
ATOM     52  C37 UNL A   1      14.146  48.905   3.113  1.00  0.00    +0.000 C 
ATOM     53  C38 UNL A   1      14.174  47.680   2.470  1.00  0.00    +0.000 C 
ATOM     54  C39 UNL A   1      15.031  47.782   1.368  1.00  0.00    +0.000 C 
ATOM     55  C40 UNL A   1      15.498  49.085   1.294  1.00  0.00    +0.000 C 
ATOM     56  N5  UNL A   1      14.947  49.762   2.372  1.00  0.00    +0.000 N 
ATOM     57  C41 UNL A   1      16.381  49.671   0.318  1.00  0.00    +0.000 C 
ATOM     69  C48 UNL A   1      16.763  50.973   0.299  1.00  0.00    +0.000 C 
ATOM     70  N6  UNL A   1      16.423  51.995   1.175  1.00  0.00    +0.000 N 
ATOM     71  C49 UNL A   1      17.059  53.059   0.750  1.00  0.00    +0.000 C 
ATOM     72  C50 UNL A   1      17.043  54.458   1.300  1.00  0.00    +0.000 C 
ATOM     84  C57 UNL A   1      16.301  54.728   2.391  1.00  0.00    +0.000 C 
ATOM     85  C58 UNL A   1      16.171  56.037   3.021  1.00  0.00    +0.000 C 
ATOM     86  C59 UNL A   1      15.352  55.934   4.078  1.00  0.00    +0.000 C 
ATOM     87  C60 UNL A   1      14.872  54.555   4.181  1.00  0.00    +0.000 C 
ATOM     88  N7  UNL A   1      15.511  53.904   3.154  1.00  0.00    +0.000 N 
ATOM     89  C61 UNL A   1      17.893  52.827  -0.437  1.00  0.00    +0.000 C 
ATOM     90  C62 UNL A   1      17.642  51.552  -0.696  1.00  0.00    +0.000 C 
ATOM     91  C63 UNL A   1      12.703  50.902   6.033  1.00  0.00    +0.000 C 
ATOM     92  C64 UNL A   1      12.753  52.212   6.231  1.00  0.00    +0.000 C 
ATOM    121  H27 UNL A   1      13.652  46.835   2.753  1.00  0.00    +0.000 H 
ATOM    122  H28 UNL A   1      15.275  47.017   0.720  1.00  0.00    +0.000 H 
ATOM    123  H29 UNL A   1      15.100  50.712   2.580  1.00  0.00    +0.000 H 
ATOM    124  H30 UNL A   1      16.634  56.904   2.704  1.00  0.00    +0.000 H 
ATOM    125  H31 UNL A   1      15.099  56.704   4.717  1.00  0.00    +0.000 H 
ATOM    126  H32 UNL A   1      15.410  52.940   2.982  1.00  0.00    +0.000 H 
ATOM    127  H33 UNL A   1      18.511  53.485  -0.938  1.00  0.00    +0.000 H 
ATOM    128  H34 UNL A   1      18.025  51.037  -1.504  1.00  0.00    +0.000 H 
ENDROOT
BRANCH   36   35
ATOM     33  C24 UNL A   1      13.589  56.123   8.287  1.00  0.00    +0.000 C 
ATOM     34  C25 UNL A   1      14.149  55.302   7.305  1.00  0.00    +0.000 C 
ATOM     35  C26 UNL A   1      13.457  55.051   6.109  1.00  0.00    +0.000 C 
ATOM    132  H38 UNL A   1      10.829  57.078   6.640  1.00  0.00    +0.000 H 
ATOM    131  H37 UNL A   1      11.710  55.513   5.012  1.00  0.00    +0.000 H 
ATOM    119  H25 UNL A   1      14.090  56.280   9.175  1.00  0.00    +0.000 H 
ATOM    120  H26 UNL A   1      15.076  54.877   7.460  1.00  0.00    +0.000 H 
ATOM     93  C65 UNL A   1      12.228  55.689   5.886  1.00  0.00    +0.000 C 
ATOM     94  C66 UNL A   1      11.700  56.560   6.840  1.00  0.00    +0.000 C 
ATOM     32  C23 UNL A   1      12.348  56.732   8.066  1.00  0.00    +0.000 C 
BRANCH   32   30
ATOM     30  C22 UNL A   1      11.783  57.580   9.143  1.00  0.00    +0.000 C 
ATOM     31  O2  UNL A   1      12.049  58.774   9.172  1.00  0.00    +0.000 O 
BRANCH   30   29
ATOM     29  N3  UNL A   1      10.986  57.036  10.121  1.00  0.00    +0.000 N 
ATOM    118  H24 UNL A   1      10.091  57.438  10.199  1.00  0.00    +0.000 H 
BRANCH   29   28
ATOM    116  H22 UNL A   1      12.070  55.373  10.680  1.00  0.00    +0.000 H 
ATOM     28  C21 UNL A   1      11.258  55.959  11.058  1.00  0.00    +0.000 C 
ATOM    117  H23 UNL A   1      11.497  56.405  12.001  1.00  0.00    +0.000 H 
BRANCH   28   27
ATOM    114  H20 UNL A   1       9.953  54.875  12.325  1.00  0.00    +0.000 H 
ATOM     27  C20 UNL A   1      10.054  55.045  11.274  1.00  0.00    +0.000 C 
ATOM    115  H21 UNL A   1       9.219  55.550  10.836  1.00  0.00    +0.000 H 
BRANCH   27   26
ATOM    113  H19 UNL A   1       9.125  53.327  10.525  1.00  0.00    +0.000 H 
ATOM     26  C19 UNL A   1      10.133  53.681  10.580  1.00  0.00    +0.000 C 
ATOM    112  H18 UNL A   1      10.786  53.059  11.155  1.00  0.00    +0.000 H 
BRANCH   26   25
ATOM     25  C18 UNL A   1      10.646  53.689   9.139  1.00  0.00    +0.000 C 
ATOM    110  H16 UNL A   1      10.774  54.710   8.845  1.00  0.00    +0.000 H 
ATOM    111  H17 UNL A   1      11.549  53.116   9.159  1.00  0.00    +0.000 H 
BRANCH   25   24
ATOM    108  H14 UNL A   1       9.437  53.762   7.400  1.00  0.00    +0.000 H 
ATOM    109  H15 UNL A   1      10.366  52.244   7.658  1.00  0.00    +0.000 H 
ATOM     24  C17 UNL A   1       9.759  53.010   8.090  1.00  0.00    +0.000 C 
BRANCH   24   23
ATOM    106  H12 UNL A   1       8.345  52.609   9.623  1.00  0.00    +0.000 H 
ATOM    107  H13 UNL A   1       7.704  52.560   7.968  1.00  0.00    +0.000 H 
ATOM     23  C16 UNL A   1       8.515  52.297   8.614  1.00  0.00    +0.000 C 
BRANCH   23   22
ATOM    105  H11 UNL A   1       8.088  50.323   7.966  1.00  0.00    +0.000 H 
ATOM     22  N2  UNL A   1       8.632  50.853   8.591  1.00  0.00    +0.000 N 
BRANCH   22    2
ATOM      1  O1  UNL A   1       9.373  50.215  10.673  1.00  0.00    +0.000 O 
ATOM      2  C1  UNL A   1       9.511  50.225   9.452  1.00  0.00    +0.000 C 
BRANCH    2    3
ATOM      3  C2  UNL A   1      10.632  49.472   8.777  1.00  0.00    +0.000 C 
ATOM     95  H1  UNL A   1      11.342  50.196   8.437  1.00  0.00    +0.000 H 
ATOM     96  H2  UNL A   1      10.150  48.902   8.010  1.00  0.00    +0.000 H 
BRANCH    3    4
ATOM     97  H3  UNL A   1       9.742  47.123   9.416  1.00  0.00    +0.000 H 
ATOM     98  H4  UNL A   1      10.682  45.339  10.746  1.00  0.00    +0.000 H 
ATOM     99  H5  UNL A   1      12.842  45.643  11.801  1.00  0.00    +0.000 H 
ATOM      4  C3  UNL A   1      11.390  48.442   9.599  1.00  0.00    +0.000 C 
ATOM      5  C4  UNL A   1      10.678  47.241   9.833  1.00  0.00    +0.000 C 
ATOM      6  C5  UNL A   1      11.210  46.215  10.609  1.00  0.00    +0.000 C 
ATOM    100  H6  UNL A   1      14.088  47.679  11.439  1.00  0.00    +0.000 H 
ATOM      8  C7  UNL A   1      13.178  47.553  10.968  1.00  0.00    +0.000 C 
ATOM      9  C8  UNL A   1      12.704  48.566  10.112  1.00  0.00    +0.000 C 
ATOM      7  C6  UNL A   1      12.453  46.382  11.197  1.00  0.00    +0.000 C 
BRANCH    9   10
ATOM     10  N1  UNL A   1      13.490  49.727   9.886  1.00  0.00    +0.000 N 
ATOM    101  H7  UNL A   1      13.538  50.038   8.954  1.00  0.00    +0.000 H 
BRANCH   10   11
ATOM    102  H8  UNL A   1      13.536  52.852  13.169  1.00  0.00    +0.000 H 
ATOM    103  H9  UNL A   1      15.959  52.921  13.283  1.00  0.00    +0.000 H 
ATOM    104  H10 UNL A   1      17.265  51.483  11.842  1.00  0.00    +0.000 H 
ATOM     11  C9  UNL A   1      14.214  50.497  10.835  1.00  0.00    +0.000 C 
ATOM     12  C10 UNL A   1      13.488  51.363  11.677  1.00  0.00    +0.000 C 
ATOM     13  F1  UNL A   1      12.150  51.360  11.643  1.00  0.00    +0.000 F 
ATOM     14  C11 UNL A   1      14.103  52.240  12.564  1.00  0.00    +0.000 C 
ATOM     15  C12 UNL A   1      15.486  52.282  12.626  1.00  0.00    +0.000 C 
ATOM     16  C13 UNL A   1      16.235  51.453  11.789  1.00  0.00    +0.000 C 
ATOM     17  C14 UNL A   1      15.617  50.573  10.868  1.00  0.00    +0.000 C 
ATOM     18  C15 UNL A   1      16.507  49.738   9.980  1.00  0.00    +0.000 C 
ATOM     19  F2  UNL A   1      17.713  50.338   9.748  1.00  0.00    +0.000 F 
ATOM     20  F3  UNL A   1      16.811  48.532  10.536  1.00  0.00    +0.000 F 
ATOM     21  F4  UNL A   1      15.999  49.485   8.744  1.00  0.00    +0.000 F 
ENDBRANCH   10   11
ENDBRANCH    9   10
ENDBRANCH    3    4
ENDBRANCH    2    3
ENDBRANCH   22    2
ENDBRANCH   23   22
ENDBRANCH   24   23
ENDBRANCH   25   24
ENDBRANCH   26   25
ENDBRANCH   27   26
ENDBRANCH   28   27
ENDBRANCH   29   28
ENDBRANCH   30   29
ENDBRANCH   32   30
ENDBRANCH   36   35
BRANCH   40   41
ATOM     41  C31 UNL A   1      12.718  48.197   5.074  1.00  0.00    +0.000 C 
ATOM     42  C32 UNL A   1      13.284  47.558   6.188  1.00  0.00    +0.000 C 
ATOM     43  F5  UNL A   1      14.525  47.875   6.589  1.00  0.00    +0.000 F 
ATOM     44  C33 UNL A   1      12.596  46.557   6.869  1.00  0.00    +0.000 C 
ATOM     45  F6  UNL A   1      13.179  45.924   7.896  1.00  0.00    +0.000 F 
ATOM     46  C34 UNL A   1      11.314  46.203   6.477  1.00  0.00    +0.000 C 
ATOM     47  F7  UNL A   1      10.652  45.242   7.135  1.00  0.00    +0.000 F 
ATOM     48  C35 UNL A   1      10.723  46.840   5.396  1.00  0.00    +0.000 C 
ATOM     49  F8  UNL A   1       9.479  46.509   5.024  1.00  0.00    +0.000 F 
ATOM     50  C36 UNL A   1      11.421  47.820   4.694  1.00  0.00    +0.000 C 
ATOM     51  F9  UNL A   1      10.828  48.402   3.641  1.00  0.00    +0.000 F 
ENDBRANCH   40   41
BRANCH   57   58
ATOM     65  C46 UNL A   1      16.679  47.853  -3.014  1.00  0.00    +0.000 C 
ATOM     66  F13 UNL A   1      15.985  47.741  -4.156  1.00  0.00    +0.000 F 
ATOM     67  C47 UNL A   1      16.206  48.672  -1.992  1.00  0.00    +0.000 C 
ATOM     68  F14 UNL A   1      15.062  49.345  -2.183  1.00  0.00    +0.000 F 
ATOM     58  C42 UNL A   1      16.905  48.792  -0.781  1.00  0.00    +0.000 C 
ATOM     59  C43 UNL A   1      18.093  48.060  -0.633  1.00  0.00    +0.000 C 
ATOM     60  F10 UNL A   1      18.807  48.154   0.498  1.00  0.00    +0.000 F 
ATOM     61  C44 UNL A   1      18.579  47.267  -1.670  1.00  0.00    +0.000 C 
ATOM     62  F11 UNL A   1      19.746  46.623  -1.527  1.00  0.00    +0.000 F 
ATOM     63  C45 UNL A   1      17.869  47.160  -2.856  1.00  0.00    +0.000 C 
ATOM     64  F12 UNL A   1      18.338  46.396  -3.852  1.00  0.00    +0.000 F 
ENDBRANCH   57   58
BRANCH   72   73
ATOM     73  C51 UNL A   1      17.798  55.549   0.632  1.00  0.00    +0.000 C 
ATOM     74  C52 UNL A   1      19.080  55.906   1.075  1.00  0.00    +0.000 C 
ATOM     75  F15 UNL A   1      19.621  55.281   2.130  1.00  0.00    +0.000 F 
ATOM     76  C53 UNL A   1      19.794  56.930   0.456  1.00  0.00    +0.000 C 
ATOM     77  F16 UNL A   1      21.001  57.278   0.923  1.00  0.00    +0.000 F 
ATOM     78  C54 UNL A   1      19.253  57.597  -0.633  1.00  0.00    +0.000 C 
ATOM     79  F17 UNL A   1      19.944  58.575  -1.232  1.00  0.00    +0.000 F 
ATOM     80  C55 UNL A   1      17.993  57.252  -1.096  1.00  0.00    +0.000 C 
ATOM     81  F18 UNL A   1      17.474  57.883  -2.157  1.00  0.00    +0.000 F 
ATOM     82  C56 UNL A   1      17.266  56.246  -0.461  1.00  0.00    +0.000 C 
ATOM     83  F19 UNL A   1      16.046  55.938  -0.926  1.00  0.00    +0.000 F 
ENDBRANCH   72   73
TORSDOF 18
ENDMDL
MODEL 8
REMARK VINA RESULT:      -8.5     29.415     34.876
ROOT
ATOM    129  H35 UNL A   1      15.091  22.816   5.626  1.00  0.00    +0.000 H 
ATOM    130  H36 UNL A   1      17.010  22.141   4.070  1.00  0.00    +0.000 H 
ATOM     36  C27 UNL A   1      18.303  19.718   4.832  1.00  0.00    +0.000 C 
ATOM     37  C28 UNL A   1      17.080  20.340   5.444  1.00  0.00    +0.000 C 
ATOM     38  N4  UNL A   1      16.346  19.913   6.443  1.00  0.00    +0.000 N 
ATOM     39  C29 UNL A   1      15.365  20.877   6.632  1.00  0.00    +0.000 C 
ATOM     40  C30 UNL A   1      14.329  20.870   7.507  1.00  0.00    +0.000 C 
ATOM     52  C37 UNL A   1      14.063  19.806   8.441  1.00  0.00    +0.000 C 
ATOM     53  C38 UNL A   1      12.995  19.668   9.311  1.00  0.00    +0.000 C 
ATOM     54  C39 UNL A   1      13.193  18.505  10.066  1.00  0.00    +0.000 C 
ATOM     55  C40 UNL A   1      14.357  17.892   9.631  1.00  0.00    +0.000 C 
ATOM     56  N5  UNL A   1      14.881  18.702   8.634  1.00  0.00    +0.000 N 
ATOM     57  C41 UNL A   1      14.951  16.661  10.088  1.00  0.00    +0.000 C 
ATOM     69  C48 UNL A   1      16.081  16.109   9.581  1.00  0.00    +0.000 C 
ATOM     70  N6  UNL A   1      16.900  16.578   8.562  1.00  0.00    +0.000 N 
ATOM     71  C49 UNL A   1      17.875  15.708   8.455  1.00  0.00    +0.000 C 
ATOM     72  C50 UNL A   1      19.035  15.694   7.500  1.00  0.00    +0.000 C 
ATOM     84  C57 UNL A   1      19.163  16.693   6.606  1.00  0.00    +0.000 C 
ATOM     85  C58 UNL A   1      20.220  16.801   5.606  1.00  0.00    +0.000 C 
ATOM     86  C59 UNL A   1      20.030  17.918   4.887  1.00  0.00    +0.000 C 
ATOM     87  C60 UNL A   1      18.816  18.588   5.356  1.00  0.00    +0.000 C 
ATOM     88  N7  UNL A   1      18.384  17.804   6.397  1.00  0.00    +0.000 N 
ATOM     89  C61 UNL A   1      17.795  14.594   9.411  1.00  0.00    +0.000 C 
ATOM     90  C62 UNL A   1      16.662  14.865  10.043  1.00  0.00    +0.000 C 
ATOM     91  C63 UNL A   1      15.624  21.934   5.677  1.00  0.00    +0.000 C 
ATOM     92  C64 UNL A   1      16.634  21.621   4.879  1.00  0.00    +0.000 C 
ATOM    121  H27 UNL A   1      12.192  20.310   9.390  1.00  0.00    +0.000 H 
ATOM    122  H28 UNL A   1      12.576  18.163  10.819  1.00  0.00    +0.000 H 
ATOM    123  H29 UNL A   1      15.709  18.519   8.135  1.00  0.00    +0.000 H 
ATOM    124  H30 UNL A   1      20.991  16.127   5.473  1.00  0.00    +0.000 H 
ATOM    125  H31 UNL A   1      20.641  18.251   4.126  1.00  0.00    +0.000 H 
ATOM    126  H32 UNL A   1      17.591  18.018   6.940  1.00  0.00    +0.000 H 
ATOM    127  H33 UNL A   1      18.449  13.809   9.552  1.00  0.00    +0.000 H 
ATOM    128  H34 UNL A   1      16.245  14.264  10.771  1.00  0.00    +0.000 H 
ENDROOT
BRANCH   36   35
ATOM     33  C24 UNL A   1      20.591  21.969   2.813  1.00  0.00    +0.000 C 
ATOM     34  C25 UNL A   1      20.011  21.301   3.894  1.00  0.00    +0.000 C 
ATOM     35  C26 UNL A   1      18.991  20.360   3.683  1.00  0.00    +0.000 C 
ATOM    132  H38 UNL A   1      18.998  20.390   0.322  1.00  0.00    +0.000 H 
ATOM    131  H37 UNL A   1      17.862  19.361   2.200  1.00  0.00    +0.000 H 
ATOM    119  H25 UNL A   1      21.320  22.680   2.977  1.00  0.00    +0.000 H 
ATOM    120  H26 UNL A   1      20.333  21.502   4.853  1.00  0.00    +0.000 H 
ATOM     93  C65 UNL A   1      18.610  20.050   2.368  1.00  0.00    +0.000 C 
ATOM     94  C66 UNL A   1      19.236  20.671   1.287  1.00  0.00    +0.000 C 
ATOM     32  C23 UNL A   1      20.184  21.674   1.507  1.00  0.00    +0.000 C 
BRANCH   32   30
ATOM     30  C22 UNL A   1      20.813  22.420   0.391  1.00  0.00    +0.000 C 
ATOM     31  O2  UNL A   1      21.321  21.803  -0.536  1.00  0.00    +0.000 O 
BRANCH   30   29
ATOM     29  N3  UNL A   1      20.854  23.793   0.399  1.00  0.00    +0.000 N 
ATOM    118  H24 UNL A   1      19.981  24.236   0.298  1.00  0.00    +0.000 H 
BRANCH   29   28
ATOM    116  H22 UNL A   1      22.861  24.203   0.163  1.00  0.00    +0.000 H 
ATOM     28  C21 UNL A   1      21.986  24.695   0.533  1.00  0.00    +0.000 C 
ATOM    117  H23 UNL A   1      21.762  25.579  -0.026  1.00  0.00    +0.000 H 
BRANCH   28   27
ATOM    114  H20 UNL A   1      22.220  26.186   2.018  1.00  0.00    +0.000 H 
ATOM     27  C20 UNL A   1      22.237  25.117   1.979  1.00  0.00    +0.000 C 
ATOM    115  H21 UNL A   1      21.468  24.652   2.560  1.00  0.00    +0.000 H 
BRANCH   27   26
ATOM    113  H19 UNL A   1      23.573  25.012   3.585  1.00  0.00    +0.000 H 
ATOM     26  C19 UNL A   1      23.564  24.643   2.580  1.00  0.00    +0.000 C 
ATOM    112  H18 UNL A   1      24.355  25.020   1.967  1.00  0.00    +0.000 H 
BRANCH   26   25
ATOM     25  C18 UNL A   1      23.745  23.129   2.696  1.00  0.00    +0.000 C 
ATOM    110  H16 UNL A   1      22.896  22.738   3.217  1.00  0.00    +0.000 H 
ATOM    111  H17 UNL A   1      23.849  22.780   1.690  1.00  0.00    +0.000 H 
BRANCH   25   24
ATOM    108  H14 UNL A   1      25.846  23.120   2.974  1.00  0.00    +0.000 H 
ATOM    109  H15 UNL A   1      24.850  22.893   4.454  1.00  0.00    +0.000 H 
ATOM     24  C17 UNL A   1      25.003  22.642   3.425  1.00  0.00    +0.000 C 
BRANCH   24   23
ATOM    106  H12 UNL A   1      24.688  20.707   2.609  1.00  0.00    +0.000 H 
ATOM    107  H13 UNL A   1      26.308  20.995   3.276  1.00  0.00    +0.000 H 
ATOM     23  C16 UNL A   1      25.256  21.137   3.407  1.00  0.00    +0.000 C 
BRANCH   23   22
ATOM    105  H11 UNL A   1      25.488  20.505   5.419  1.00  0.00    +0.000 H 
ATOM     22  N2  UNL A   1      24.883  20.480   4.644  1.00  0.00    +0.000 N 
BRANCH   22    2
ATOM      1  O1  UNL A   1      22.984  19.539   3.750  1.00  0.00    +0.000 O 
ATOM      2  C1  UNL A   1      23.675  19.816   4.728  1.00  0.00    +0.000 C 
BRANCH    2    3
ATOM      3  C2  UNL A   1      23.287  19.379   6.120  1.00  0.00    +0.000 C 
ATOM     95  H1  UNL A   1      22.226  19.246   6.128  1.00  0.00    +0.000 H 
ATOM     96  H2  UNL A   1      23.662  20.150   6.760  1.00  0.00    +0.000 H 
BRANCH    3    4
ATOM     97  H3  UNL A   1      24.049  17.364   4.677  1.00  0.00    +0.000 H 
ATOM     98  H4  UNL A   1      24.987  15.215   5.258  1.00  0.00    +0.000 H 
ATOM     99  H5  UNL A   1      25.304  14.638   7.591  1.00  0.00    +0.000 H 
ATOM      4  C3  UNL A   1      23.908  18.100   6.660  1.00  0.00    +0.000 C 
ATOM      5  C4  UNL A   1      24.218  17.137   5.669  1.00  0.00    +0.000 C 
ATOM      6  C5  UNL A   1      24.746  15.892   6.000  1.00  0.00    +0.000 C 
ATOM    100  H6  UNL A   1      24.780  16.246   9.315  1.00  0.00    +0.000 H 
ATOM      8  C7  UNL A   1      24.659  16.511   8.324  1.00  0.00    +0.000 C 
ATOM      9  C8  UNL A   1      24.213  17.809   8.012  1.00  0.00    +0.000 C 
ATOM      7  C6  UNL A   1      24.946  15.570   7.332  1.00  0.00    +0.000 C 
BRANCH    9   10
ATOM     10  N1  UNL A   1      23.962  18.741   9.053  1.00  0.00    +0.000 N 
ATOM    101  H7  UNL A   1      23.474  19.555   8.792  1.00  0.00    +0.000 H 
BRANCH   10   11
ATOM    102  H8  UNL A   1      22.795  17.981  13.366  1.00  0.00    +0.000 H 
ATOM    103  H9  UNL A   1      24.971  18.622  14.230  1.00  0.00    +0.000 H 
ATOM    104  H10 UNL A   1      26.715  19.296  12.696  1.00  0.00    +0.000 H 
ATOM     11  C9  UNL A   1      24.326  18.649  10.423  1.00  0.00    +0.000 C 
ATOM     12  C10 UNL A   1      23.330  18.281  11.348  1.00  0.00    +0.000 C 
ATOM     13  F1  UNL A   1      22.115  17.924  10.914  1.00  0.00    +0.000 F 
ATOM     14  C11 UNL A   1      23.549  18.265  12.722  1.00  0.00    +0.000 C 
ATOM     15  C12 UNL A   1      24.788  18.635  13.215  1.00  0.00    +0.000 C 
ATOM     16  C13 UNL A   1      25.791  19.027  12.325  1.00  0.00    +0.000 C 
ATOM     17  C14 UNL A   1      25.570  19.066  10.927  1.00  0.00    +0.000 C 
ATOM     18  C15 UNL A   1      26.701  19.534  10.045  1.00  0.00    +0.000 C 
ATOM     19  F2  UNL A   1      27.539  20.397  10.695  1.00  0.00    +0.000 F 
ATOM     20  F3  UNL A   1      27.497  18.509   9.632  1.00  0.00    +0.000 F 
ATOM     21  F4  UNL A   1      26.310  20.203   8.927  1.00  0.00    +0.000 F 
ENDBRANCH   10   11
ENDBRANCH    9   10
ENDBRANCH    3    4
ENDBRANCH    2    3
ENDBRANCH   22    2
ENDBRANCH   23   22
ENDBRANCH   24   23
ENDBRANCH   25   24
ENDBRANCH   26   25
ENDBRANCH   27   26
ENDBRANCH   28   27
ENDBRANCH   29   28
ENDBRANCH   30   29
ENDBRANCH   32   30
ENDBRANCH   36   35
BRANCH   40   41
ATOM     41  C31 UNL A   1      13.409  22.058   7.499  1.00  0.00    +0.000 C 
ATOM     42  C32 UNL A   1      13.696  23.220   8.231  1.00  0.00    +0.000 C 
ATOM     43  F5  UNL A   1      14.799  23.283   8.992  1.00  0.00    +0.000 F 
ATOM     44  C33 UNL A   1      12.827  24.308   8.221  1.00  0.00    +0.000 C 
ATOM     45  F6  UNL A   1      13.095  25.385   8.972  1.00  0.00    +0.000 F 
ATOM     46  C34 UNL A   1      11.676  24.274   7.448  1.00  0.00    +0.000 C 
ATOM     47  F7  UNL A   1      10.842  25.323   7.437  1.00  0.00    +0.000 F 
ATOM     48  C35 UNL A   1      11.386  23.147   6.694  1.00  0.00    +0.000 C 
ATOM     49  F8  UNL A   1      10.281  23.117   5.936  1.00  0.00    +0.000 F 
ATOM     50  C36 UNL A   1      12.237  22.045   6.726  1.00  0.00    +0.000 C 
ATOM     51  F9  UNL A   1      11.917  20.963   6.001  1.00  0.00    +0.000 F 
ENDBRANCH   40   41
BRANCH   57   58
ATOM     65  C46 UNL A   1      12.670  14.220  11.913  1.00  0.00    +0.000 C 
ATOM     66  F13 UNL A   1      11.759  13.285  11.607  1.00  0.00    +0.000 F 
ATOM     67  C47 UNL A   1      13.319  14.916  10.897  1.00  0.00    +0.000 C 
ATOM     68  F14 UNL A   1      13.023  14.620   9.623  1.00  0.00    +0.000 F 
ATOM     58  C42 UNL A   1      14.263  15.910  11.193  1.00  0.00    +0.000 C 
ATOM     59  C43 UNL A   1      14.530  16.182  12.542  1.00  0.00    +0.000 C 
ATOM     60  F10 UNL A   1      15.437  17.112  12.878  1.00  0.00    +0.000 F 
ATOM     61  C44 UNL A   1      13.902  15.461  13.556  1.00  0.00    +0.000 C 
ATOM     62  F11 UNL A   1      14.216  15.699  14.837  1.00  0.00    +0.000 F 
ATOM     63  C45 UNL A   1      12.969  14.486  13.241  1.00  0.00    +0.000 C 
ATOM     64  F12 UNL A   1      12.365  13.794  14.217  1.00  0.00    +0.000 F 
ENDBRANCH   57   58
BRANCH   72   73
ATOM     73  C51 UNL A   1      20.013  14.576   7.503  1.00  0.00    +0.000 C 
ATOM     74  C52 UNL A   1      21.126  14.601   8.355  1.00  0.00    +0.000 C 
ATOM     75  F15 UNL A   1      21.331  15.657   9.156  1.00  0.00    +0.000 F 
ATOM     76  C53 UNL A   1      22.049  13.558   8.363  1.00  0.00    +0.000 C 
ATOM     77  F16 UNL A   1      23.124  13.625   9.159  1.00  0.00    +0.000 F 
ATOM     78  C54 UNL A   1      21.863  12.459   7.539  1.00  0.00    +0.000 C 
ATOM     79  F17 UNL A   1      22.747  11.452   7.553  1.00  0.00    +0.000 F 
ATOM     80  C55 UNL A   1      20.763  12.406   6.697  1.00  0.00    +0.000 C 
ATOM     81  F18 UNL A   1      20.572  11.338   5.911  1.00  0.00    +0.000 F 
ATOM     82  C56 UNL A   1      19.853  13.461   6.669  1.00  0.00    +0.000 C 
ATOM     83  F19 UNL A   1      18.802  13.386   5.839  1.00  0.00    +0.000 F 
ENDBRANCH   72   73
TORSDOF 18
ENDMDL
MODEL 9
REMARK VINA RESULT:      -8.5     43.840     47.060
ROOT
ATOM    129  H35 UNL A   1      24.015  34.885  45.321  1.00  0.00    +0.000 H 
ATOM    130  H36 UNL A   1      25.736  36.775  45.456  1.00  0.00    +0.000 H 
ATOM     36  C27 UNL A   1      24.755  39.129  46.730  1.00  0.00    +0.000 C 
ATOM     37  C28 UNL A   1      24.061  37.804  46.584  1.00  0.00    +0.000 C 
ATOM     38  N4  UNL A   1      22.874  37.440  47.006  1.00  0.00    +0.000 N 
ATOM     39  C29 UNL A   1      22.703  36.132  46.575  1.00  0.00    +0.000 C 
ATOM     40  C30 UNL A   1      21.664  35.293  46.808  1.00  0.00    +0.000 C 
ATOM     52  C37 UNL A   1      20.498  35.641  47.579  1.00  0.00    +0.000 C 
ATOM     53  C38 UNL A   1      19.430  34.838  47.941  1.00  0.00    +0.000 C 
ATOM     54  C39 UNL A   1      18.504  35.625  48.636  1.00  0.00    +0.000 C 
ATOM     55  C40 UNL A   1      19.019  36.906  48.753  1.00  0.00    +0.000 C 
ATOM     56  N5  UNL A   1      20.242  36.902  48.100  1.00  0.00    +0.000 N 
ATOM     57  C41 UNL A   1      18.441  38.052  49.410  1.00  0.00    +0.000 C 
ATOM     69  C48 UNL A   1      19.031  39.269  49.510  1.00  0.00    +0.000 C 
ATOM     70  N6  UNL A   1      20.261  39.685  49.020  1.00  0.00    +0.000 N 
ATOM     71  C49 UNL A   1      20.372  40.949  49.351  1.00  0.00    +0.000 C 
ATOM     72  C50 UNL A   1      21.508  41.900  49.101  1.00  0.00    +0.000 C 
ATOM     84  C57 UNL A   1      22.596  41.466  48.436  1.00  0.00    +0.000 C 
ATOM     85  C58 UNL A   1      23.780  42.266  48.141  1.00  0.00    +0.000 C 
ATOM     86  C59 UNL A   1      24.663  41.509  47.471  1.00  0.00    +0.000 C 
ATOM     87  C60 UNL A   1      24.118  40.159  47.319  1.00  0.00    +0.000 C 
ATOM     88  N7  UNL A   1      22.876  40.235  47.898  1.00  0.00    +0.000 N 
ATOM     89  C61 UNL A   1      19.211  41.484  50.075  1.00  0.00    +0.000 C 
ATOM     90  C62 UNL A   1      18.443  40.410  50.182  1.00  0.00    +0.000 C 
ATOM     91  C63 UNL A   1      23.886  35.780  45.818  1.00  0.00    +0.000 C 
ATOM     92  C64 UNL A   1      24.782  36.756  45.848  1.00  0.00    +0.000 C 
ATOM    121  H27 UNL A   1      19.332  33.831  47.733  1.00  0.00    +0.000 H 
ATOM    122  H28 UNL A   1      17.594  35.305  49.000  1.00  0.00    +0.000 H 
ATOM    123  H29 UNL A   1      20.842  37.678  48.018  1.00  0.00    +0.000 H 
ATOM    124  H30 UNL A   1      23.917  43.255  48.405  1.00  0.00    +0.000 H 
ATOM    125  H31 UNL A   1      25.579  41.828  47.120  1.00  0.00    +0.000 H 
ATOM    126  H32 UNL A   1      22.247  39.478  47.924  1.00  0.00    +0.000 H 
ATOM    127  H33 UNL A   1      19.039  42.445  50.411  1.00  0.00    +0.000 H 
ATOM    128  H34 UNL A   1      17.541  40.388  50.683  1.00  0.00    +0.000 H 
ENDROOT
BRANCH   36   35
ATOM     33  C24 UNL A   1      28.454  38.671  46.029  1.00  0.00    +0.000 C 
ATOM     34  C25 UNL A   1      27.150  38.422  46.465  1.00  0.00    +0.000 C 
ATOM     35  C26 UNL A   1      26.121  39.338  46.187  1.00  0.00    +0.000 C 
ATOM    132  H38 UNL A   1      27.886  41.483  44.295  1.00  0.00    +0.000 H 
ATOM    131  H37 UNL A   1      25.662  41.150  45.201  1.00  0.00    +0.000 H 
ATOM    119  H25 UNL A   1      29.210  38.008  46.260  1.00  0.00    +0.000 H 
ATOM    120  H26 UNL A   1      26.941  37.561  46.994  1.00  0.00    +0.000 H 
ATOM     93  C65 UNL A   1      26.408  40.471  45.411  1.00  0.00    +0.000 C 
ATOM     94  C66 UNL A   1      27.698  40.684  44.922  1.00  0.00    +0.000 C 
ATOM     32  C23 UNL A   1      28.735  39.818  45.279  1.00  0.00    +0.000 C 
BRANCH   32   30
ATOM     30  C22 UNL A   1      30.136  40.052  44.854  1.00  0.00    +0.000 C 
ATOM     31  O2  UNL A   1      30.565  39.488  43.856  1.00  0.00    +0.000 O 
BRANCH   30   29
ATOM     29  N3  UNL A   1      30.964  40.871  45.582  1.00  0.00    +0.000 N 
ATOM    118  H24 UNL A   1      31.639  41.355  45.053  1.00  0.00    +0.000 H 
BRANCH   29   28
ATOM    116  H22 UNL A   1      30.667  40.262  47.529  1.00  0.00    +0.000 H 
ATOM     28  C21 UNL A   1      30.999  41.137  47.010  1.00  0.00    +0.000 C 
ATOM    117  H23 UNL A   1      32.006  41.392  47.266  1.00  0.00    +0.000 H 
BRANCH   28   27
ATOM    114  H20 UNL A   1      30.692  42.971  48.024  1.00  0.00    +0.000 H 
ATOM     27  C20 UNL A   1      30.110  42.312  47.415  1.00  0.00    +0.000 C 
ATOM    115  H21 UNL A   1      29.773  42.754  46.500  1.00  0.00    +0.000 H 
BRANCH   27   26
ATOM    113  H19 UNL A   1      28.960  40.907  48.453  1.00  0.00    +0.000 H 
ATOM     26  C19 UNL A   1      28.846  41.939  48.195  1.00  0.00    +0.000 C 
ATOM    112  H18 UNL A   1      28.003  42.144  47.568  1.00  0.00    +0.000 H 
BRANCH   26   25
ATOM     25  C18 UNL A   1      28.633  42.674  49.519  1.00  0.00    +0.000 C 
ATOM    110  H16 UNL A   1      28.497  41.937  50.282  1.00  0.00    +0.000 H 
ATOM    111  H17 UNL A   1      29.501  43.288  49.643  1.00  0.00    +0.000 H 
BRANCH   25   24
ATOM    108  H14 UNL A   1      27.822  44.606  49.837  1.00  0.00    +0.000 H 
ATOM    109  H15 UNL A   1      26.977  43.581  48.625  1.00  0.00    +0.000 H 
ATOM     24  C17 UNL A   1      27.443  43.638  49.586  1.00  0.00    +0.000 C 
BRANCH   24   23
ATOM    106  H12 UNL A   1      25.945  44.204  50.980  1.00  0.00    +0.000 H 
ATOM    107  H13 UNL A   1      25.611  42.716  50.070  1.00  0.00    +0.000 H 
ATOM     23  C16 UNL A   1      26.347  43.293  50.590  1.00  0.00    +0.000 C 
BRANCH   23   22
ATOM    105  H11 UNL A   1      27.631  42.750  52.190  1.00  0.00    +0.000 H 
ATOM     22  N2  UNL A   1      26.821  42.487  51.698  1.00  0.00    +0.000 N 
BRANCH   22    2
ATOM      1  O1  UNL A   1      25.948  41.004  53.225  1.00  0.00    +0.000 O 
ATOM      2  C1  UNL A   1      26.129  41.347  52.058  1.00  0.00    +0.000 C 
BRANCH    2    3
ATOM      3  C2  UNL A   1      25.534  40.575  50.906  1.00  0.00    +0.000 C 
ATOM     95  H1  UNL A   1      25.628  41.184  50.032  1.00  0.00    +0.000 H 
ATOM     96  H2  UNL A   1      24.532  40.359  51.214  1.00  0.00    +0.000 H 
BRANCH    3    4
ATOM     97  H3  UNL A   1      28.053  39.982  51.047  1.00  0.00    +0.000 H 
ATOM     98  H4  UNL A   1      29.277  37.964  50.531  1.00  0.00    +0.000 H 
ATOM     99  H5  UNL A   1      28.094  36.038  49.657  1.00  0.00    +0.000 H 
ATOM      4  C3  UNL A   1      26.134  39.217  50.578  1.00  0.00    +0.000 C 
ATOM      5  C4  UNL A   1      27.542  39.152  50.712  1.00  0.00    +0.000 C 
ATOM      6  C5  UNL A   1      28.253  37.996  50.402  1.00  0.00    +0.000 C 
ATOM    100  H6  UNL A   1      25.694  36.107  49.404  1.00  0.00    +0.000 H 
ATOM      8  C7  UNL A   1      26.184  36.926  49.795  1.00  0.00    +0.000 C 
ATOM      9  C8  UNL A   1      25.432  38.050  50.189  1.00  0.00    +0.000 C 
ATOM      7  C6  UNL A   1      27.574  36.888  49.921  1.00  0.00    +0.000 C 
BRANCH    9   10
ATOM     10  N1  UNL A   1      24.018  38.033  50.069  1.00  0.00    +0.000 N 
ATOM    101  H7  UNL A   1      23.634  38.667  49.422  1.00  0.00    +0.000 H 
BRANCH   10   11
ATOM    102  H8  UNL A   1      21.895  34.055  50.540  1.00  0.00    +0.000 H 
ATOM    103  H9  UNL A   1      20.409  34.878  52.274  1.00  0.00    +0.000 H 
ATOM    104  H10 UNL A   1      20.603  37.168  53.027  1.00  0.00    +0.000 H 
ATOM     11  C9  UNL A   1      23.086  37.215  50.763  1.00  0.00    +0.000 C 
ATOM     12  C10 UNL A   1      22.930  35.882  50.337  1.00  0.00    +0.000 C 
ATOM     13  F1  UNL A   1      23.726  35.389  49.381  1.00  0.00    +0.000 F 
ATOM     14  C11 UNL A   1      21.971  35.029  50.874  1.00  0.00    +0.000 C 
ATOM     15  C12 UNL A   1      21.121  35.499  51.860  1.00  0.00    +0.000 C 
ATOM     16  C13 UNL A   1      21.234  36.823  52.288  1.00  0.00    +0.000 C 
ATOM     17  C14 UNL A   1      22.193  37.704  51.733  1.00  0.00    +0.000 C 
ATOM     18  C15 UNL A   1      22.221  39.127  52.234  1.00  0.00    +0.000 C 
ATOM     19  F2  UNL A   1      20.998  39.539  52.685  1.00  0.00    +0.000 F 
ATOM     20  F3  UNL A   1      23.063  39.289  53.293  1.00  0.00    +0.000 F 
ATOM     21  F4  UNL A   1      22.579  40.051  51.303  1.00  0.00    +0.000 F 
ENDBRANCH   10   11
ENDBRANCH    9   10
ENDBRANCH    3    4
ENDBRANCH    2    3
ENDBRANCH   22    2
ENDBRANCH   23   22
ENDBRANCH   24   23
ENDBRANCH   25   24
ENDBRANCH   26   25
ENDBRANCH   27   26
ENDBRANCH   28   27
ENDBRANCH   29   28
ENDBRANCH   30   29
ENDBRANCH   32   30
ENDBRANCH   36   35
BRANCH   40   41
ATOM     41  C31 UNL A   1      21.739  33.915  46.213  1.00  0.00    +0.000 C 
ATOM     42  C32 UNL A   1      21.173  33.618  44.964  1.00  0.00    +0.000 C 
ATOM     43  F5  UNL A   1      20.512  34.565  44.280  1.00  0.00    +0.000 F 
ATOM     44  C33 UNL A   1      21.242  32.333  44.432  1.00  0.00    +0.000 C 
ATOM     45  F6  UNL A   1      20.646  32.061  43.263  1.00  0.00    +0.000 F 
ATOM     46  C34 UNL A   1      21.914  31.331  45.115  1.00  0.00    +0.000 C 
ATOM     47  F7  UNL A   1      21.983  30.096  44.600  1.00  0.00    +0.000 F 
ATOM     48  C35 UNL A   1      22.506  31.609  46.338  1.00  0.00    +0.000 C 
ATOM     49  F8  UNL A   1      23.167  30.645  46.994  1.00  0.00    +0.000 F 
ATOM     50  C36 UNL A   1      22.411  32.885  46.888  1.00  0.00    +0.000 C 
ATOM     51  F9  UNL A   1      22.978  33.115  48.082  1.00  0.00    +0.000 F 
ENDBRANCH   40   41
BRANCH   57   58
ATOM     65  C46 UNL A   1      15.740  37.660  52.064  1.00  0.00    +0.000 C 
ATOM     66  F13 UNL A   1      15.657  37.574  53.400  1.00  0.00    +0.000 F 
ATOM     67  C47 UNL A   1      16.982  37.817  51.454  1.00  0.00    +0.000 C 
ATOM     68  F14 UNL A   1      18.075  37.890  52.228  1.00  0.00    +0.000 F 
ATOM     58  C42 UNL A   1      17.095  37.892  50.058  1.00  0.00    +0.000 C 
ATOM     59  C43 UNL A   1      15.920  37.804  49.297  1.00  0.00    +0.000 C 
ATOM     60  F10 UNL A   1      15.973  37.889  47.960  1.00  0.00    +0.000 F 
ATOM     61  C44 UNL A   1      14.676  37.680  49.913  1.00  0.00    +0.000 C 
ATOM     62  F11 UNL A   1      13.562  37.657  49.168  1.00  0.00    +0.000 F 
ATOM     63  C45 UNL A   1      14.588  37.603  51.294  1.00  0.00    +0.000 C 
ATOM     64  F12 UNL A   1      13.391  37.483  51.885  1.00  0.00    +0.000 F 
ENDBRANCH   57   58
BRANCH   72   73
ATOM     73  C51 UNL A   1      21.463  43.294  49.613  1.00  0.00    +0.000 C 
ATOM     74  C52 UNL A   1      20.846  44.310  48.868  1.00  0.00    +0.000 C 
ATOM     75  F15 UNL A   1      20.318  44.032  47.667  1.00  0.00    +0.000 F 
ATOM     76  C53 UNL A   1      20.801  45.620  49.339  1.00  0.00    +0.000 C 
ATOM     77  F16 UNL A   1      20.240  46.579  48.590  1.00  0.00    +0.000 F 
ATOM     78  C54 UNL A   1      21.348  45.935  50.574  1.00  0.00    +0.000 C 
ATOM     79  F17 UNL A   1      21.296  47.193  51.030  1.00  0.00    +0.000 F 
ATOM     80  C55 UNL A   1      21.951  44.944  51.334  1.00  0.00    +0.000 C 
ATOM     81  F18 UNL A   1      22.465  45.241  52.534  1.00  0.00    +0.000 F 
ATOM     82  C56 UNL A   1      22.020  43.638  50.852  1.00  0.00    +0.000 C 
ATOM     83  F19 UNL A   1      22.617  42.702  51.605  1.00  0.00    +0.000 F 
ENDBRANCH   72   73
TORSDOF 18
ENDMDL
MODEL 10
REMARK VINA RESULT:      -8.5     48.758     53.769
ROOT
ATOM    129  H35 UNL A   1      51.734  18.365   9.286  1.00  0.00    +0.000 H 
ATOM    130  H36 UNL A   1      53.579  18.420  11.060  1.00  0.00    +0.000 H 
ATOM     36  C27 UNL A   1      56.048  17.301  10.179  1.00  0.00    +0.000 C 
ATOM     37  C28 UNL A   1      54.803  17.535   9.371  1.00  0.00    +0.000 C 
ATOM     38  N4  UNL A   1      54.581  17.285   8.103  1.00  0.00    +0.000 N 
ATOM     39  C29 UNL A   1      53.261  17.650   7.871  1.00  0.00    +0.000 C 
ATOM     40  C30 UNL A   1      52.572  17.637   6.703  1.00  0.00    +0.000 C 
ATOM     52  C37 UNL A   1      53.124  17.215   5.441  1.00  0.00    +0.000 C 
ATOM     53  C38 UNL A   1      52.535  17.242   4.189  1.00  0.00    +0.000 C 
ATOM     54  C39 UNL A   1      53.428  16.675   3.271  1.00  0.00    +0.000 C 
ATOM     55  C40 UNL A   1      54.594  16.343   3.942  1.00  0.00    +0.000 C 
ATOM     56  N5  UNL A   1      54.393  16.679   5.273  1.00  0.00    +0.000 N 
ATOM     57  C41 UNL A   1      55.802  15.761   3.413  1.00  0.00    +0.000 C 
ATOM     69  C48 UNL A   1      56.918  15.498   4.138  1.00  0.00    +0.000 C 
ATOM     70  N6  UNL A   1      57.149  15.704   5.491  1.00  0.00    +0.000 N 
ATOM     71  C49 UNL A   1      58.365  15.270   5.718  1.00  0.00    +0.000 C 
ATOM     72  C50 UNL A   1      59.148  15.268   7.002  1.00  0.00    +0.000 C 
ATOM     84  C57 UNL A   1      58.579  15.754   8.121  1.00  0.00    +0.000 C 
ATOM     85  C58 UNL A   1      59.222  15.837   9.428  1.00  0.00    +0.000 C 
ATOM     86  C59 UNL A   1      58.362  16.376  10.305  1.00  0.00    +0.000 C 
ATOM     87  C60 UNL A   1      57.116  16.708   9.612  1.00  0.00    +0.000 C 
ATOM     88  N7  UNL A   1      57.326  16.277   8.326  1.00  0.00    +0.000 N 
ATOM     89  C61 UNL A   1      59.039  14.720   4.534  1.00  0.00    +0.000 C 
ATOM     90  C62 UNL A   1      58.130  14.922   3.591  1.00  0.00    +0.000 C 
ATOM     91  C63 UNL A   1      52.718  18.092   9.138  1.00  0.00    +0.000 C 
ATOM     92  C64 UNL A   1      53.648  18.100  10.082  1.00  0.00    +0.000 C 
ATOM    121  H27 UNL A   1      51.598  17.615   3.968  1.00  0.00    +0.000 H 
ATOM    122  H28 UNL A   1      53.248  16.530   2.266  1.00  0.00    +0.000 H 
ATOM    123  H29 UNL A   1      55.054  16.557   5.992  1.00  0.00    +0.000 H 
ATOM    124  H30 UNL A   1      60.184  15.530   9.643  1.00  0.00    +0.000 H 
ATOM    125  H31 UNL A   1      58.549  16.533  11.307  1.00  0.00    +0.000 H 
ATOM    126  H32 UNL A   1      56.644  16.339   7.619  1.00  0.00    +0.000 H 
ATOM    127  H33 UNL A   1      59.973  14.290   4.458  1.00  0.00    +0.000 H 
ATOM    128  H34 UNL A   1      58.269  14.699   2.593  1.00  0.00    +0.000 H 
ENDROOT
BRANCH   36   35
ATOM     33  C24 UNL A   1      56.518  19.314  13.359  1.00  0.00    +0.000 C 
ATOM     34  C25 UNL A   1      56.376  18.992  12.007  1.00  0.00    +0.000 C 
ATOM     35  C26 UNL A   1      56.104  17.670  11.617  1.00  0.00    +0.000 C 
ATOM    132  H38 UNL A   1      55.783  16.322  14.679  1.00  0.00    +0.000 H 
ATOM    131  H37 UNL A   1      55.713  15.719  12.332  1.00  0.00    +0.000 H 
ATOM    119  H25 UNL A   1      56.745  20.282  13.637  1.00  0.00    +0.000 H 
ATOM    120  H26 UNL A   1      56.471  19.728  11.291  1.00  0.00    +0.000 H 
ATOM     93  C65 UNL A   1      55.913  16.693  12.605  1.00  0.00    +0.000 C 
ATOM     94  C66 UNL A   1      55.991  17.031  13.957  1.00  0.00    +0.000 C 
ATOM     32  C23 UNL A   1      56.353  18.327  14.336  1.00  0.00    +0.000 C 
BRANCH   32   30
ATOM     30  C22 UNL A   1      56.533  18.709  15.757  1.00  0.00    +0.000 C 
ATOM     31  O2  UNL A   1      57.018  17.905  16.541  1.00  0.00    +0.000 O 
BRANCH   30   29
ATOM     29  N3  UNL A   1      56.136  19.945  16.207  1.00  0.00    +0.000 N 
ATOM    118  H24 UNL A   1      56.836  20.637  16.193  1.00  0.00    +0.000 H 
BRANCH   29   28
ATOM    116  H22 UNL A   1      54.296  19.538  17.045  1.00  0.00    +0.000 H 
ATOM     28  C21 UNL A   1      54.844  20.390  16.701  1.00  0.00    +0.000 C 
ATOM    117  H23 UNL A   1      55.025  21.091  17.491  1.00  0.00    +0.000 H 
BRANCH   28   27
ATOM    114  H20 UNL A   1      54.406  22.095  15.524  1.00  0.00    +0.000 H 
ATOM     27  C20 UNL A   1      54.017  21.105  15.634  1.00  0.00    +0.000 C 
ATOM    115  H21 UNL A   1      54.100  20.508  14.749  1.00  0.00    +0.000 H 
BRANCH   27   26
ATOM    113  H19 UNL A   1      52.449  21.597  16.927  1.00  0.00    +0.000 H 
ATOM     26  C19 UNL A   1      52.518  21.215  15.930  1.00  0.00    +0.000 C 
ATOM    112  H18 UNL A   1      52.087  20.244  15.801  1.00  0.00    +0.000 H 
BRANCH   26   25
ATOM     25  C18 UNL A   1      51.732  22.194  15.057  1.00  0.00    +0.000 C 
ATOM    110  H16 UNL A   1      51.056  22.725  15.694  1.00  0.00    +0.000 H 
ATOM    111  H17 UNL A   1      52.471  22.806  14.584  1.00  0.00    +0.000 H 
BRANCH   25   24
ATOM    108  H14 UNL A   1      50.370  20.755  14.304  1.00  0.00    +0.000 H 
ATOM    109  H15 UNL A   1      50.300  22.385  13.548  1.00  0.00    +0.000 H 
ATOM     24  C17 UNL A   1      50.914  21.588  13.911  1.00  0.00    +0.000 C 
BRANCH   24   23
ATOM    106  H12 UNL A   1      52.552  20.548  13.049  1.00  0.00    +0.000 H 
ATOM    107  H13 UNL A   1      51.043  20.494  12.115  1.00  0.00    +0.000 H 
ATOM     23  C16 UNL A   1      51.703  21.098  12.701  1.00  0.00    +0.000 C 
BRANCH   23   22
ATOM    105  H11 UNL A   1      52.105  23.108  12.152  1.00  0.00    +0.000 H 
ATOM     22  N2  UNL A   1      52.170  22.174  11.850  1.00  0.00    +0.000 N 
BRANCH   22    2
ATOM      1  O1  UNL A   1      52.097  22.035   9.555  1.00  0.00    +0.000 O 
ATOM      2  C1  UNL A   1      52.707  21.882  10.611  1.00  0.00    +0.000 C 
BRANCH    2    3
ATOM      3  C2  UNL A   1      54.145  21.424  10.635  1.00  0.00    +0.000 C 
ATOM     95  H1  UNL A   1      54.183  20.467  10.160  1.00  0.00    +0.000 H 
ATOM     96  H2  UNL A   1      54.416  21.438  11.670  1.00  0.00    +0.000 H 
BRANCH    3    4
ATOM     97  H3  UNL A   1      54.613  23.903  11.230  1.00  0.00    +0.000 H 
ATOM     98  H4  UNL A   1      56.122  25.540  10.293  1.00  0.00    +0.000 H 
ATOM     99  H5  UNL A   1      57.510  24.942   8.398  1.00  0.00    +0.000 H 
ATOM      4  C3  UNL A   1      55.181  22.307   9.957  1.00  0.00    +0.000 C 
ATOM      5  C4  UNL A   1      55.229  23.634  10.448  1.00  0.00    +0.000 C 
ATOM      6  C5  UNL A   1      56.088  24.585   9.902  1.00  0.00    +0.000 C 
ATOM    100  H6  UNL A   1      57.454  22.693   7.522  1.00  0.00    +0.000 H 
ATOM      8  C7  UNL A   1      56.873  22.930   8.341  1.00  0.00    +0.000 C 
ATOM      9  C8  UNL A   1      56.083  21.926   8.934  1.00  0.00    +0.000 C 
ATOM      7  C6  UNL A   1      56.895  24.237   8.831  1.00  0.00    +0.000 C 
BRANCH    9   10
ATOM     10  N1  UNL A   1      56.116  20.604   8.419  1.00  0.00    +0.000 N 
ATOM    101  H7  UNL A   1      55.677  19.917   8.972  1.00  0.00    +0.000 H 
BRANCH   10   11
ATOM    102  H8  UNL A   1      55.657  19.340   4.090  1.00  0.00    +0.000 H 
ATOM    103  H9  UNL A   1      57.968  18.625   3.893  1.00  0.00    +0.000 H 
ATOM    104  H10 UNL A   1      59.455  18.850   5.787  1.00  0.00    +0.000 H 
ATOM     11  C9  UNL A   1      56.699  20.145   7.208  1.00  0.00    +0.000 C 
ATOM     12  C10 UNL A   1      55.858  19.980   6.090  1.00  0.00    +0.000 C 
ATOM     13  F1  UNL A   1      54.576  20.358   6.158  1.00  0.00    +0.000 F 
ATOM     14  C11 UNL A   1      56.303  19.436   4.889  1.00  0.00    +0.000 C 
ATOM     15  C12 UNL A   1      57.620  19.024   4.778  1.00  0.00    +0.000 C 
ATOM     16  C13 UNL A   1      58.473  19.153   5.876  1.00  0.00    +0.000 C 
ATOM     17  C14 UNL A   1      58.024  19.686   7.108  1.00  0.00    +0.000 C 
ATOM     18  C15 UNL A   1      59.008  19.756   8.249  1.00  0.00    +0.000 C 
ATOM     19  F2  UNL A   1      59.974  18.793   8.158  1.00  0.00    +0.000 F 
ATOM     20  F3  UNL A   1      59.687  20.937   8.278  1.00  0.00    +0.000 F 
ATOM     21  F4  UNL A   1      58.460  19.587   9.483  1.00  0.00    +0.000 F 
ENDBRANCH   10   11
ENDBRANCH    9   10
ENDBRANCH    3    4
ENDBRANCH    2    3
ENDBRANCH   22    2
ENDBRANCH   23   22
ENDBRANCH   24   23
ENDBRANCH   25   24
ENDBRANCH   26   25
ENDBRANCH   27   26
ENDBRANCH   28   27
ENDBRANCH   29   28
ENDBRANCH   30   29
ENDBRANCH   32   30
ENDBRANCH   36   35
BRANCH   40   41
ATOM     41  C31 UNL A   1      51.140  18.087   6.740  1.00  0.00    +0.000 C 
ATOM     42  C32 UNL A   1      50.794  19.440   6.875  1.00  0.00    +0.000 C 
ATOM     43  F5  UNL A   1      51.751  20.371   7.009  1.00  0.00    +0.000 F 
ATOM     44  C33 UNL A   1      49.461  19.841   6.917  1.00  0.00    +0.000 C 
ATOM     45  F6  UNL A   1      49.156  21.133   7.102  1.00  0.00    +0.000 F 
ATOM     46  C34 UNL A   1      48.448  18.903   6.785  1.00  0.00    +0.000 C 
ATOM     47  F7  UNL A   1      47.166  19.290   6.824  1.00  0.00    +0.000 F 
ATOM     48  C35 UNL A   1      48.765  17.563   6.623  1.00  0.00    +0.000 C 
ATOM     49  F8  UNL A   1      47.788  16.658   6.482  1.00  0.00    +0.000 F 
ATOM     50  C36 UNL A   1      50.097  17.156   6.611  1.00  0.00    +0.000 C 
ATOM     51  F9  UNL A   1      50.370  15.850   6.472  1.00  0.00    +0.000 F 
ENDBRANCH   40   41
BRANCH   57   58
ATOM     65  C46 UNL A   1      55.296  13.958   0.098  1.00  0.00    +0.000 C 
ATOM     66  F13 UNL A   1      54.729  12.828  -0.347  1.00  0.00    +0.000 F 
ATOM     67  C47 UNL A   1      55.249  14.270   1.455  1.00  0.00    +0.000 C 
ATOM     68  F14 UNL A   1      54.621  13.428   2.288  1.00  0.00    +0.000 F 
ATOM     58  C42 UNL A   1      55.850  15.439   1.947  1.00  0.00    +0.000 C 
ATOM     59  C43 UNL A   1      56.498  16.281   1.031  1.00  0.00    +0.000 C 
ATOM     60  F10 UNL A   1      57.072  17.418   1.449  1.00  0.00    +0.000 F 
ATOM     61  C44 UNL A   1      56.514  15.981  -0.329  1.00  0.00    +0.000 C 
ATOM     62  F11 UNL A   1      57.090  16.830  -1.192  1.00  0.00    +0.000 F 
ATOM     63  C45 UNL A   1      55.919  14.819  -0.793  1.00  0.00    +0.000 C 
ATOM     64  F12 UNL A   1      55.935  14.532  -2.102  1.00  0.00    +0.000 F 
ENDBRANCH   57   58
BRANCH   72   73
ATOM     73  C51 UNL A   1      60.550  14.777   7.039  1.00  0.00    +0.000 C 
ATOM     74  C52 UNL A   1      61.617  15.636   6.739  1.00  0.00    +0.000 C 
ATOM     75  F15 UNL A   1      61.374  16.906   6.384  1.00  0.00    +0.000 F 
ATOM     76  C53 UNL A   1      62.934  15.183   6.769  1.00  0.00    +0.000 C 
ATOM     77  F16 UNL A   1      63.933  16.013   6.440  1.00  0.00    +0.000 F 
ATOM     78  C54 UNL A   1      63.211  13.872   7.125  1.00  0.00    +0.000 C 
ATOM     79  F17 UNL A   1      64.479  13.440   7.163  1.00  0.00    +0.000 F 
ATOM     80  C55 UNL A   1      62.173  13.008   7.439  1.00  0.00    +0.000 C 
ATOM     81  F18 UNL A   1      62.438  11.746   7.800  1.00  0.00    +0.000 F 
ATOM     82  C56 UNL A   1      60.853  13.453   7.384  1.00  0.00    +0.000 C 
ATOM     83  F19 UNL A   1      59.868  12.593   7.684  1.00  0.00    +0.000 F 
ENDBRANCH   72   73
TORSDOF 18
ENDMDL
