MODEL 1
REMARK VINA RESULT:      -9.9      0.000      0.000
ROOT
ATOM     19  C15 UNL A   1      52.963  20.353  11.563  1.00  0.00    +0.000 C 
ATOM     20  C16 UNL A   1      52.773  20.906  12.947  1.00  0.00    +0.000 C 
ATOM     21  N3  UNL A   1      53.631  20.993  13.931  1.00  0.00    +0.000 N 
ATOM     22  C17 UNL A   1      52.960  21.646  14.957  1.00  0.00    +0.000 C 
ATOM     23  C18 UNL A   1      53.403  21.937  16.203  1.00  0.00    +0.000 C 
ATOM     35  C25 UNL A   1      54.703  21.579  16.703  1.00  0.00    +0.000 C 
ATOM     36  C26 UNL A   1      55.225  21.774  17.970  1.00  0.00    +0.000 C 
ATOM     37  C27 UNL A   1      56.536  21.287  17.982  1.00  0.00    +0.000 C 
ATOM     38  C28 UNL A   1      56.816  20.751  16.735  1.00  0.00    +0.000 C 
ATOM     39  N4  UNL A   1      55.686  20.944  15.958  1.00  0.00    +0.000 N 
ATOM     40  C29 UNL A   1      58.025  20.110  16.285  1.00  0.00    +0.000 C 
ATOM     52  C36 UNL A   1      58.230  19.618  15.039  1.00  0.00    +0.000 C 
ATOM     53  N5  UNL A   1      57.361  19.597  13.956  1.00  0.00    +0.000 N 
ATOM     54  C37 UNL A   1      58.016  19.016  12.980  1.00  0.00    +0.000 C 
ATOM     55  C38 UNL A   1      57.553  18.702  11.583  1.00  0.00    +0.000 C 
ATOM     67  C45 UNL A   1      56.284  18.983  11.230  1.00  0.00    +0.000 C 
ATOM     68  C46 UNL A   1      55.697  18.745   9.915  1.00  0.00    +0.000 C 
ATOM     69  C47 UNL A   1      54.442  19.222   9.901  1.00  0.00    +0.000 C 
ATOM     70  C48 UNL A   1      54.124  19.766  11.222  1.00  0.00    +0.000 C 
ATOM     71  N6  UNL A   1      55.264  19.550  11.955  1.00  0.00    +0.000 N 
ATOM     72  C49 UNL A   1      59.391  18.630  13.325  1.00  0.00    +0.000 C 
ATOM     73  C50 UNL A   1      59.460  18.990  14.601  1.00  0.00    +0.000 C 
ATOM     74  C51 UNL A   1      51.639  21.967  14.462  1.00  0.00    +0.000 C 
ATOM     75  C52 UNL A   1      51.448  21.467  13.251  1.00  0.00    +0.000 C 
ATOM    111  H21 UNL A   1      54.733  22.204  18.769  1.00  0.00    +0.000 H 
ATOM    112  H22 UNL A   1      57.186  21.321  18.783  1.00  0.00    +0.000 H 
ATOM    113  H23 UNL A   1      55.593  20.671  15.016  1.00  0.00    +0.000 H 
ATOM    114  H24 UNL A   1      56.171  18.285   9.122  1.00  0.00    +0.000 H 
ATOM    115  H25 UNL A   1      53.804  19.208   9.090  1.00  0.00    +0.000 H 
ATOM    116  H26 UNL A   1      55.344  19.781  12.909  1.00  0.00    +0.000 H 
ATOM    117  H27 UNL A   1      60.114  18.193  12.732  1.00  0.00    +0.000 H 
ATOM    118  H28 UNL A   1      60.284  18.842  15.203  1.00  0.00    +0.000 H 
ATOM    119  H29 UNL A   1      50.938  22.516  14.984  1.00  0.00    +0.000 H 
ATOM    120  H30 UNL A   1      50.593  21.470  12.672  1.00  0.00    +0.000 H 
ENDROOT
BRANCH   19   18
ATOM     76  C53 UNL A   1      50.969  19.517  10.332  1.00  0.00    +0.000 C 
ATOM    109  H19 UNL A   1      50.725  22.748   8.293  1.00  0.00    +0.000 H 
ATOM     77  C54 UNL A   1      49.985  19.651   9.359  1.00  0.00    +0.000 C 
ATOM     15  C11 UNL A   1      49.864  20.854   8.656  1.00  0.00    +0.000 C 
ATOM     16  C12 UNL A   1      50.795  21.878   8.843  1.00  0.00    +0.000 C 
ATOM     17  C13 UNL A   1      51.821  21.719   9.777  1.00  0.00    +0.000 C 
ATOM    110  H20 UNL A   1      52.523  22.464   9.902  1.00  0.00    +0.000 H 
ATOM     18  C14 UNL A   1      51.900  20.547  10.547  1.00  0.00    +0.000 C 
ATOM    121  H31 UNL A   1      51.017  18.657  10.900  1.00  0.00    +0.000 H 
ATOM    122  H32 UNL A   1      49.348  18.865   9.155  1.00  0.00    +0.000 H 
BRANCH   15   13
ATOM     13  C10 UNL A   1      48.749  21.059   7.707  1.00  0.00    +0.000 C 
ATOM     14  O2  UNL A   1      48.060  22.072   7.782  1.00  0.00    +0.000 O 
BRANCH   13   12
ATOM    108  H18 UNL A   1      47.893  19.367   7.050  1.00  0.00    +0.000 H 
ATOM     12  N2  UNL A   1      48.482  20.101   6.760  1.00  0.00    +0.000 N 
BRANCH   12   11
ATOM    106  H16 UNL A   1      48.145  19.703   4.763  1.00  0.00    +0.000 H 
ATOM     11  C9  UNL A   1      48.953  20.027   5.387  1.00  0.00    +0.000 C 
ATOM    107  H17 UNL A   1      49.297  21.001   5.107  1.00  0.00    +0.000 H 
BRANCH   11   10
ATOM    105  H15 UNL A   1      49.978  18.574   4.280  1.00  0.00    +0.000 H 
ATOM     10  C8  UNL A   1      50.117  19.057   5.225  1.00  0.00    +0.000 C 
ATOM    104  H14 UNL A   1      50.101  18.377   6.051  1.00  0.00    +0.000 H 
BRANCH   10    9
ATOM      9  C7  UNL A   1      51.497  19.714   5.177  1.00  0.00    +0.000 C 
ATOM    102  H12 UNL A   1      52.017  19.331   4.324  1.00  0.00    +0.000 H 
ATOM    103  H13 UNL A   1      51.324  20.768   5.131  1.00  0.00    +0.000 H 
BRANCH    9    8
ATOM    100  H10 UNL A   1      53.373  19.761   6.167  1.00  0.00    +0.000 H 
ATOM    101  H11 UNL A   1      51.938  20.063   7.196  1.00  0.00    +0.000 H 
ATOM      8  C6  UNL A   1      52.370  19.477   6.411  1.00  0.00    +0.000 C 
BRANCH    8    7
ATOM     98  H8  UNL A   1      52.816  18.039   7.914  1.00  0.00    +0.000 H 
ATOM     99  H9  UNL A   1      51.391  17.679   6.900  1.00  0.00    +0.000 H 
ATOM      7  C5  UNL A   1      52.402  18.032   6.928  1.00  0.00    +0.000 C 
BRANCH    7    6
ATOM     97  H7  UNL A   1      53.755  16.397   6.716  1.00  0.00    +0.000 H 
ATOM      6  C4  UNL A   1      53.225  17.064   6.069  1.00  0.00    +0.000 C 
ATOM     96  H6  UNL A   1      53.911  17.624   5.469  1.00  0.00    +0.000 H 
BRANCH    6    5
ATOM      5  N1  UNL A   1      52.362  16.285   5.202  1.00  0.00    +0.000 N 
ATOM     95  H5  UNL A   1      52.354  16.539   4.251  1.00  0.00    +0.000 H 
BRANCH    5    3
ATOM      3  C3  UNL A   1      51.558  15.235   5.554  1.00  0.00    +0.000 C 
ATOM      4  O1  UNL A   1      51.683  14.797   6.699  1.00  0.00    +0.000 O 
BRANCH    3    2
ATOM      2  C2  UNL A   1      50.589  14.637   4.513  1.00  0.00    +0.000 C 
ATOM     94  H4  UNL A   1      50.442  13.603   4.744  1.00  0.00    +0.000 H 
BRANCH    2    1
ATOM      1  C1  UNL A   1      51.226  14.763   3.123  1.00  0.00    +0.000 C 
ATOM     91  H1  UNL A   1      52.280  14.918   3.225  1.00  0.00    +0.000 H 
ATOM     92  H2  UNL A   1      50.794  15.594   2.606  1.00  0.00    +0.000 H 
ATOM     93  H3  UNL A   1      51.051  13.867   2.566  1.00  0.00    +0.000 H 
ENDBRANCH    2    1
BRANCH    2   78
ATOM    129  H39 UNL A   1      49.339  15.999   6.532  1.00  0.00    +0.000 H 
ATOM     78  C55 UNL A   1      49.173  15.234   4.572  1.00  0.00    +0.000 C 
ATOM     79  C56 UNL A   1      48.260  15.067   3.517  1.00  0.00    +0.000 C 
ATOM     80  C57 UNL A   1      46.990  15.654   3.554  1.00  0.00    +0.000 C 
ATOM     81  C58 UNL A   1      46.587  16.412   4.658  1.00  0.00    +0.000 C 
ATOM     89  C64 UNL A   1      47.453  16.517   5.750  1.00  0.00    +0.000 C 
ATOM     90  C65 UNL A   1      48.722  15.925   5.709  1.00  0.00    +0.000 C 
ATOM    123  H33 UNL A   1      48.531  14.499   2.698  1.00  0.00    +0.000 H 
ATOM    124  H34 UNL A   1      46.346  15.528   2.758  1.00  0.00    +0.000 H 
ATOM    128  H38 UNL A   1      47.155  17.035   6.592  1.00  0.00    +0.000 H 
BRANCH   81   82
ATOM     82  C59 UNL A   1      45.223  17.032   4.637  1.00  0.00    +0.000 C 
ATOM     83  O3  UNL A   1      44.374  16.583   5.407  1.00  0.00    +0.000 O 
BRANCH   82   84
ATOM     84  C60 UNL A   1      44.955  18.134   3.731  1.00  0.00    +0.000 C 
ATOM     85  C61 UNL A   1      44.214  18.159   2.564  1.00  0.00    +0.000 C 
ATOM     86  C62 UNL A   1      44.221  19.446   1.949  1.00  0.00    +0.000 C 
ATOM     87  C63 UNL A   1      44.952  20.360   2.676  1.00  0.00    +0.000 C 
ATOM     88  S1  UNL A   1      45.602  19.675   4.101  1.00  0.00    +0.000 S 
ATOM    125  H35 UNL A   1      43.714  17.341   2.182  1.00  0.00    +0.000 H 
ATOM    126  H36 UNL A   1      43.737  19.666   1.065  1.00  0.00    +0.000 H 
ATOM    127  H37 UNL A   1      45.090  21.342   2.393  1.00  0.00    +0.000 H 
ENDBRANCH   82   84
ENDBRANCH   81   82
ENDBRANCH    2   78
ENDBRANCH    3    2
ENDBRANCH    5    3
ENDBRANCH    6    5
ENDBRANCH    7    6
ENDBRANCH    8    7
ENDBRANCH    9    8
ENDBRANCH   10    9
ENDBRANCH   11   10
ENDBRANCH   12   11
ENDBRANCH   13   12
ENDBRANCH   15   13
ENDBRANCH   19   18
BRANCH   23   24
ATOM     33  C24 UNL A   1      51.641  21.995  18.004  1.00  0.00    +0.000 C 
ATOM     34  F5  UNL A   1      51.680  20.655  18.065  1.00  0.00    +0.000 F 
ATOM     24  C19 UNL A   1      52.468  22.687  17.107  1.00  0.00    +0.000 C 
ATOM     25  C20 UNL A   1      52.382  24.087  17.081  1.00  0.00    +0.000 C 
ATOM     26  F1  UNL A   1      53.162  24.796  16.251  1.00  0.00    +0.000 F 
ATOM     27  C21 UNL A   1      51.529  24.768  17.946  1.00  0.00    +0.000 C 
ATOM     28  F2  UNL A   1      51.506  26.108  17.943  1.00  0.00    +0.000 F 
ATOM     29  C22 UNL A   1      50.720  24.063  18.823  1.00  0.00    +0.000 C 
ATOM     30  F3  UNL A   1      49.900  24.720  19.656  1.00  0.00    +0.000 F 
ATOM     31  C23 UNL A   1      50.767  22.677  18.846  1.00  0.00    +0.000 C 
ATOM     32  F4  UNL A   1      49.978  21.995  19.687  1.00  0.00    +0.000 F 
ENDBRANCH   23   24
BRANCH   40   41
ATOM     41  C30 UNL A   1      59.135  19.952  17.280  1.00  0.00    +0.000 C 
ATOM     42  C31 UNL A   1      59.409  18.718  17.886  1.00  0.00    +0.000 C 
ATOM     43  F6  UNL A   1      58.628  17.656  17.638  1.00  0.00    +0.000 F 
ATOM     44  C32 UNL A   1      60.473  18.580  18.773  1.00  0.00    +0.000 C 
ATOM     45  F7  UNL A   1      60.699  17.400  19.367  1.00  0.00    +0.000 F 
ATOM     46  C33 UNL A   1      61.297  19.661  19.048  1.00  0.00    +0.000 C 
ATOM     47  F8  UNL A   1      62.327  19.523  19.894  1.00  0.00    +0.000 F 
ATOM     48  C34 UNL A   1      61.049  20.889  18.453  1.00  0.00    +0.000 C 
ATOM     49  F9  UNL A   1      61.850  21.932  18.709  1.00  0.00    +0.000 F 
ATOM     50  C35 UNL A   1      59.972  21.037  17.584  1.00  0.00    +0.000 C 
ATOM     51  F10 UNL A   1      59.753  22.236  17.025  1.00  0.00    +0.000 F 
ENDBRANCH   40   41
BRANCH   55   56
ATOM     65  C44 UNL A   1      58.573  16.665  10.513  1.00  0.00    +0.000 C 
ATOM     66  F15 UNL A   1      57.835  15.879  11.311  1.00  0.00    +0.000 F 
ATOM     56  C39 UNL A   1      58.462  18.059  10.603  1.00  0.00    +0.000 C 
ATOM     57  C40 UNL A   1      59.260  18.836   9.751  1.00  0.00    +0.000 C 
ATOM     58  F11 UNL A   1      59.174  20.173   9.789  1.00  0.00    +0.000 F 
ATOM     59  C41 UNL A   1      60.126  18.241   8.836  1.00  0.00    +0.000 C 
ATOM     60  F12 UNL A   1      60.855  19.005   8.012  1.00  0.00    +0.000 F 
ATOM     61  C42 UNL A   1      60.229  16.859   8.773  1.00  0.00    +0.000 C 
ATOM     62  F13 UNL A   1      61.069  16.286   7.901  1.00  0.00    +0.000 F 
ATOM     63  C43 UNL A   1      59.456  16.070   9.613  1.00  0.00    +0.000 C 
ATOM     64  F14 UNL A   1      59.563  14.736   9.565  1.00  0.00    +0.000 F 
ENDBRANCH   55   56
TORSDOF 19
ENDMDL
MODEL 2
REMARK VINA RESULT:      -9.8      3.144      5.080
ROOT
ATOM     19  C15 UNL A   1      52.980  20.232  11.640  1.00  0.00    +0.000 C 
ATOM     20  C16 UNL A   1      52.774  20.786  13.020  1.00  0.00    +0.000 C 
ATOM     21  N3  UNL A   1      53.625  20.893  14.008  1.00  0.00    +0.000 N 
ATOM     22  C17 UNL A   1      52.937  21.538  15.028  1.00  0.00    +0.000 C 
ATOM     23  C18 UNL A   1      53.368  21.842  16.275  1.00  0.00    +0.000 C 
ATOM     35  C25 UNL A   1      54.673  21.511  16.782  1.00  0.00    +0.000 C 
ATOM     36  C26 UNL A   1      55.185  21.721  18.051  1.00  0.00    +0.000 C 
ATOM     37  C27 UNL A   1      56.506  21.259  18.070  1.00  0.00    +0.000 C 
ATOM     38  C28 UNL A   1      56.801  20.724  16.827  1.00  0.00    +0.000 C 
ATOM     39  N4  UNL A   1      55.671  20.892  16.045  1.00  0.00    +0.000 N 
ATOM     40  C29 UNL A   1      58.025  20.105  16.385  1.00  0.00    +0.000 C 
ATOM     52  C36 UNL A   1      58.245  19.612  15.142  1.00  0.00    +0.000 C 
ATOM     53  N5  UNL A   1      57.381  19.570  14.055  1.00  0.00    +0.000 N 
ATOM     54  C37 UNL A   1      58.051  18.998  13.085  1.00  0.00    +0.000 C 
ATOM     55  C38 UNL A   1      57.601  18.670  11.687  1.00  0.00    +0.000 C 
ATOM     67  C45 UNL A   1      56.328  18.924  11.327  1.00  0.00    +0.000 C 
ATOM     68  C46 UNL A   1      55.752  18.670  10.010  1.00  0.00    +0.000 C 
ATOM     69  C47 UNL A   1      54.488  19.123   9.989  1.00  0.00    +0.000 C 
ATOM     70  C48 UNL A   1      54.154  19.665  11.306  1.00  0.00    +0.000 C 
ATOM     71  N6  UNL A   1      55.295  19.475  12.045  1.00  0.00    +0.000 N 
ATOM     72  C49 UNL A   1      59.432  18.640  13.437  1.00  0.00    +0.000 C 
ATOM     73  C50 UNL A   1      59.488  19.006  14.712  1.00  0.00    +0.000 C 
ATOM     74  C51 UNL A   1      51.612  21.831  14.526  1.00  0.00    +0.000 C 
ATOM     75  C52 UNL A   1      51.436  21.323  13.316  1.00  0.00    +0.000 C 
ATOM    111  H21 UNL A   1      54.681  22.145  18.845  1.00  0.00    +0.000 H 
ATOM    112  H22 UNL A   1      57.151  21.309  18.874  1.00  0.00    +0.000 H 
ATOM    113  H23 UNL A   1      55.587  20.614  15.103  1.00  0.00    +0.000 H 
ATOM    114  H24 UNL A   1      56.239  18.216   9.221  1.00  0.00    +0.000 H 
ATOM    115  H25 UNL A   1      53.854  19.094   9.175  1.00  0.00    +0.000 H 
ATOM    116  H26 UNL A   1      55.366  19.711  12.999  1.00  0.00    +0.000 H 
ATOM    117  H27 UNL A   1      60.166  18.214  12.849  1.00  0.00    +0.000 H 
ATOM    118  H28 UNL A   1      60.312  18.876  15.318  1.00  0.00    +0.000 H 
ATOM    119  H29 UNL A   1      50.898  22.368  15.043  1.00  0.00    +0.000 H 
ATOM    120  H30 UNL A   1      50.584  21.307  12.734  1.00  0.00    +0.000 H 
ENDROOT
BRANCH   19   18
ATOM     76  C53 UNL A   1      51.011  19.351  10.401  1.00  0.00    +0.000 C 
ATOM    109  H19 UNL A   1      50.708  22.573   8.353  1.00  0.00    +0.000 H 
ATOM     77  C54 UNL A   1      50.029  19.462   9.422  1.00  0.00    +0.000 C 
ATOM     15  C11 UNL A   1      49.885  20.661   8.716  1.00  0.00    +0.000 C 
ATOM     16  C12 UNL A   1      50.794  21.705   8.906  1.00  0.00    +0.000 C 
ATOM     17  C13 UNL A   1      51.819  21.570   9.845  1.00  0.00    +0.000 C 
ATOM    110  H20 UNL A   1      52.504  22.330   9.972  1.00  0.00    +0.000 H 
ATOM     18  C14 UNL A   1      51.918  20.401  10.618  1.00  0.00    +0.000 C 
ATOM    121  H31 UNL A   1      51.074  18.494  10.971  1.00  0.00    +0.000 H 
ATOM    122  H32 UNL A   1      49.409  18.663   9.217  1.00  0.00    +0.000 H 
BRANCH   15   13
ATOM     13  C10 UNL A   1      48.771  20.840   7.762  1.00  0.00    +0.000 C 
ATOM     14  O2  UNL A   1      48.141  21.893   7.748  1.00  0.00    +0.000 O 
BRANCH   13   12
ATOM    108  H18 UNL A   1      47.645  19.290   7.165  1.00  0.00    +0.000 H 
ATOM     12  N2  UNL A   1      48.438  19.816   6.911  1.00  0.00    +0.000 N 
BRANCH   12   11
ATOM    106  H16 UNL A   1      49.029  20.202   4.971  1.00  0.00    +0.000 H 
ATOM     11  C9  UNL A   1      49.100  19.405   5.683  1.00  0.00    +0.000 C 
ATOM    107  H17 UNL A   1      50.119  19.182   5.920  1.00  0.00    +0.000 H 
BRANCH   11   10
ATOM    105  H15 UNL A   1      49.290  17.518   4.793  1.00  0.00    +0.000 H 
ATOM     10  C8  UNL A   1      48.477  18.151   5.080  1.00  0.00    +0.000 C 
ATOM    104  H14 UNL A   1      47.863  18.448   4.255  1.00  0.00    +0.000 H 
BRANCH   10    9
ATOM      9  C7  UNL A   1      47.614  17.337   6.046  1.00  0.00    +0.000 C 
ATOM    102  H12 UNL A   1      48.104  16.403   6.220  1.00  0.00    +0.000 H 
ATOM    103  H13 UNL A   1      47.510  17.934   6.928  1.00  0.00    +0.000 H 
BRANCH    9    8
ATOM    100  H10 UNL A   1      45.988  16.011   5.737  1.00  0.00    +0.000 H 
ATOM    101  H11 UNL A   1      45.553  17.710   6.097  1.00  0.00    +0.000 H 
ATOM      8  C6  UNL A   1      46.194  17.046   5.557  1.00  0.00    +0.000 C 
BRANCH    8    7
ATOM     98  H8  UNL A   1      46.877  17.553   3.607  1.00  0.00    +0.000 H 
ATOM     99  H9  UNL A   1      45.478  16.445   3.670  1.00  0.00    +0.000 H 
ATOM      7  C5  UNL A   1      45.939  17.325   4.069  1.00  0.00    +0.000 C 
BRANCH    7    6
ATOM     97  H7  UNL A   1      45.545  19.361   3.569  1.00  0.00    +0.000 H 
ATOM      6  C4  UNL A   1      44.974  18.485   3.793  1.00  0.00    +0.000 C 
ATOM     96  H6  UNL A   1      44.366  18.649   4.659  1.00  0.00    +0.000 H 
BRANCH    6    5
ATOM      5  N1  UNL A   1      44.119  18.185   2.661  1.00  0.00    +0.000 N 
ATOM     95  H5  UNL A   1      44.049  17.237   2.407  1.00  0.00    +0.000 H 
BRANCH    5    3
ATOM      3  C3  UNL A   1      43.396  19.069   1.906  1.00  0.00    +0.000 C 
ATOM      4  O1  UNL A   1      43.893  19.421   0.834  1.00  0.00    +0.000 O 
BRANCH    3    2
ATOM      2  C2  UNL A   1      42.051  19.602   2.439  1.00  0.00    +0.000 C 
ATOM     94  H4  UNL A   1      42.243  20.476   3.027  1.00  0.00    +0.000 H 
BRANCH    2    1
ATOM      1  C1  UNL A   1      41.412  18.523   3.323  1.00  0.00    +0.000 C 
ATOM     91  H1  UNL A   1      41.108  18.956   4.253  1.00  0.00    +0.000 H 
ATOM     92  H2  UNL A   1      42.124  17.746   3.508  1.00  0.00    +0.000 H 
ATOM     93  H3  UNL A   1      40.559  18.113   2.825  1.00  0.00    +0.000 H 
ENDBRANCH    2    1
BRANCH    2   78
ATOM    129  H39 UNL A   1      40.307  18.206   0.857  1.00  0.00    +0.000 H 
ATOM     78  C55 UNL A   1      41.103  20.101   1.335  1.00  0.00    +0.000 C 
ATOM     79  C56 UNL A   1      41.082  21.449   0.939  1.00  0.00    +0.000 C 
ATOM     80  C57 UNL A   1      40.183  21.907  -0.031  1.00  0.00    +0.000 C 
ATOM     81  C58 UNL A   1      39.290  21.027  -0.649  1.00  0.00    +0.000 C 
ATOM     89  C64 UNL A   1      39.357  19.669  -0.325  1.00  0.00    +0.000 C 
ATOM     90  C65 UNL A   1      40.260  19.215   0.645  1.00  0.00    +0.000 C 
ATOM    123  H33 UNL A   1      41.742  22.115   1.371  1.00  0.00    +0.000 H 
ATOM    124  H34 UNL A   1      40.179  22.906  -0.292  1.00  0.00    +0.000 H 
ATOM    128  H38 UNL A   1      38.737  18.996  -0.804  1.00  0.00    +0.000 H 
BRANCH   81   82
ATOM     82  C59 UNL A   1      38.338  21.575  -1.668  1.00  0.00    +0.000 C 
ATOM     83  O3  UNL A   1      38.696  21.582  -2.846  1.00  0.00    +0.000 O 
BRANCH   82   84
ATOM     84  C60 UNL A   1      37.039  22.062  -1.241  1.00  0.00    +0.000 C 
ATOM     85  C61 UNL A   1      36.220  21.617  -0.219  1.00  0.00    +0.000 C 
ATOM     86  C62 UNL A   1      35.002  22.355  -0.145  1.00  0.00    +0.000 C 
ATOM     87  C63 UNL A   1      34.942  23.346  -1.100  1.00  0.00    +0.000 C 
ATOM     88  S1  UNL A   1      36.356  23.400  -2.060  1.00  0.00    +0.000 S 
ATOM    125  H35 UNL A   1      36.462  20.840   0.416  1.00  0.00    +0.000 H 
ATOM    126  H36 UNL A   1      34.255  22.169   0.541  1.00  0.00    +0.000 H 
ATOM    127  H37 UNL A   1      34.138  23.981  -1.221  1.00  0.00    +0.000 H 
ENDBRANCH   82   84
ENDBRANCH   81   82
ENDBRANCH    2   78
ENDBRANCH    3    2
ENDBRANCH    5    3
ENDBRANCH    6    5
ENDBRANCH    7    6
ENDBRANCH    8    7
ENDBRANCH    9    8
ENDBRANCH   10    9
ENDBRANCH   11   10
ENDBRANCH   12   11
ENDBRANCH   13   12
ENDBRANCH   15   13
ENDBRANCH   19   18
BRANCH   23   24
ATOM     33  C24 UNL A   1      52.294  23.971  17.089  1.00  0.00    +0.000 C 
ATOM     34  F5  UNL A   1      53.026  24.663  16.202  1.00  0.00    +0.000 F 
ATOM     24  C19 UNL A   1      52.415  22.577  17.172  1.00  0.00    +0.000 C 
ATOM     25  C20 UNL A   1      51.630  21.905  18.122  1.00  0.00    +0.000 C 
ATOM     26  F1  UNL A   1      51.700  20.569  18.231  1.00  0.00    +0.000 F 
ATOM     27  C21 UNL A   1      50.731  22.598  18.927  1.00  0.00    +0.000 C 
ATOM     28  F2  UNL A   1      49.950  21.928  19.786  1.00  0.00    +0.000 F 
ATOM     29  C22 UNL A   1      50.629  23.977  18.829  1.00  0.00    +0.000 C 
ATOM     30  F3  UNL A   1      49.763  24.644  19.605  1.00  0.00    +0.000 F 
ATOM     31  C23 UNL A   1      51.416  24.665  17.918  1.00  0.00    +0.000 C 
ATOM     32  F4  UNL A   1      51.325  25.999  17.828  1.00  0.00    +0.000 F 
ENDBRANCH   23   24
BRANCH   40   41
ATOM     41  C30 UNL A   1      59.133  19.972  17.385  1.00  0.00    +0.000 C 
ATOM     42  C31 UNL A   1      59.905  21.075  17.779  1.00  0.00    +0.000 C 
ATOM     43  F6  UNL A   1      59.711  22.273  17.207  1.00  0.00    +0.000 F 
ATOM     44  C32 UNL A   1      60.900  20.941  18.743  1.00  0.00    +0.000 C 
ATOM     45  F7  UNL A   1      61.649  22.000  19.082  1.00  0.00    +0.000 F 
ATOM     46  C33 UNL A   1      61.123  19.714  19.350  1.00  0.00    +0.000 C 
ATOM     47  F8  UNL A   1      62.073  19.590  20.286  1.00  0.00    +0.000 F 
ATOM     48  C34 UNL A   1      60.364  18.613  18.982  1.00  0.00    +0.000 C 
ATOM     49  F9  UNL A   1      60.571  17.429  19.575  1.00  0.00    +0.000 F 
ATOM     50  C35 UNL A   1      59.385  18.737  18.001  1.00  0.00    +0.000 C 
ATOM     51  F10 UNL A   1      58.669  17.655  17.662  1.00  0.00    +0.000 F 
ENDBRANCH   40   41
BRANCH   55   56
ATOM     65  C44 UNL A   1      58.653  16.648  10.618  1.00  0.00    +0.000 C 
ATOM     66  F15 UNL A   1      57.916  15.851  11.406  1.00  0.00    +0.000 F 
ATOM     56  C39 UNL A   1      58.527  18.040  10.713  1.00  0.00    +0.000 C 
ATOM     57  C40 UNL A   1      59.325  18.829   9.873  1.00  0.00    +0.000 C 
ATOM     58  F11 UNL A   1      59.225  20.165   9.916  1.00  0.00    +0.000 F 
ATOM     59  C41 UNL A   1      60.207  18.247   8.965  1.00  0.00    +0.000 C 
ATOM     60  F12 UNL A   1      60.936  19.023   8.151  1.00  0.00    +0.000 F 
ATOM     61  C42 UNL A   1      60.325  16.867   8.897  1.00  0.00    +0.000 C 
ATOM     62  F13 UNL A   1      61.180  16.307   8.031  1.00  0.00    +0.000 F 
ATOM     63  C43 UNL A   1      59.552  16.067   9.725  1.00  0.00    +0.000 C 
ATOM     64  F14 UNL A   1      59.673  14.733   9.672  1.00  0.00    +0.000 F 
ENDBRANCH   55   56
TORSDOF 19
ENDMDL
MODEL 3
REMARK VINA RESULT:      -9.8     47.186     51.911
ROOT
ATOM     19  C15 UNL A   1      14.056  53.748   5.113  1.00  0.00    +0.000 C 
ATOM     20  C16 UNL A   1      15.017  54.208   4.054  1.00  0.00    +0.000 C 
ATOM     21  N3  UNL A   1      15.486  53.559   3.020  1.00  0.00    +0.000 N 
ATOM     22  C17 UNL A   1      16.278  54.469   2.332  1.00  0.00    +0.000 C 
ATOM     23  C18 UNL A   1      17.019  54.270   1.217  1.00  0.00    +0.000 C 
ATOM     35  C25 UNL A   1      17.130  53.008   0.535  1.00  0.00    +0.000 C 
ATOM     36  C26 UNL A   1      17.902  52.686  -0.568  1.00  0.00    +0.000 C 
ATOM     37  C27 UNL A   1      17.664  51.347  -0.892  1.00  0.00    +0.000 C 
ATOM     38  C28 UNL A   1      16.776  50.822   0.034  1.00  0.00    +0.000 C 
ATOM     39  N4  UNL A   1      16.451  51.854   0.899  1.00  0.00    +0.000 N 
ATOM     40  C29 UNL A   1      16.262  49.480   0.123  1.00  0.00    +0.000 C 
ATOM     52  C36 UNL A   1      15.382  49.041   1.056  1.00  0.00    +0.000 C 
ATOM     53  N5  UNL A   1      14.807  49.741   2.109  1.00  0.00    +0.000 N 
ATOM     54  C37 UNL A   1      14.030  48.886   2.728  1.00  0.00    +0.000 C 
ATOM     55  C38 UNL A   1      13.182  49.091   3.954  1.00  0.00    +0.000 C 
ATOM     67  C45 UNL A   1      13.215  50.279   4.588  1.00  0.00    +0.000 C 
ATOM     68  C46 UNL A   1      12.445  50.627   5.778  1.00  0.00    +0.000 C 
ATOM     69  C47 UNL A   1      12.666  51.916   6.082  1.00  0.00    +0.000 C 
ATOM     70  C48 UNL A   1      13.625  52.473   5.129  1.00  0.00    +0.000 C 
ATOM     71  N6  UNL A   1      13.921  51.421   4.299  1.00  0.00    +0.000 N 
ATOM     72  C49 UNL A   1      13.999  47.550   2.116  1.00  0.00    +0.000 C 
ATOM     73  C50 UNL A   1      14.865  47.690   1.120  1.00  0.00    +0.000 C 
ATOM     74  C51 UNL A   1      16.195  55.726   3.046  1.00  0.00    +0.000 C 
ATOM     75  C52 UNL A   1      15.488  55.598   4.158  1.00  0.00    +0.000 C 
ATOM    111  H21 UNL A   1      18.543  53.324  -1.065  1.00  0.00    +0.000 H 
ATOM    112  H22 UNL A   1      18.079  50.835  -1.686  1.00  0.00    +0.000 H 
ATOM    113  H23 UNL A   1      15.829  51.780   1.659  1.00  0.00    +0.000 H 
ATOM    114  H24 UNL A   1      11.829  49.985   6.301  1.00  0.00    +0.000 H 
ATOM    115  H25 UNL A   1      12.230  52.431   6.864  1.00  0.00    +0.000 H 
ATOM    116  H26 UNL A   1      14.576  51.480   3.566  1.00  0.00    +0.000 H 
ATOM    117  H27 UNL A   1      13.449  46.721   2.389  1.00  0.00    +0.000 H 
ATOM    118  H28 UNL A   1      15.135  46.932   0.475  1.00  0.00    +0.000 H 
ATOM    119  H29 UNL A   1      16.630  56.606   2.728  1.00  0.00    +0.000 H 
ATOM    120  H30 UNL A   1      15.312  56.291   4.901  1.00  0.00    +0.000 H 
ENDROOT
BRANCH   19   18
ATOM     76  C53 UNL A   1      14.235  55.009   7.249  1.00  0.00    +0.000 C 
ATOM    109  H19 UNL A   1      10.899  56.780   6.622  1.00  0.00    +0.000 H 
ATOM     77  C54 UNL A   1      13.730  55.895   8.196  1.00  0.00    +0.000 C 
ATOM     15  C11 UNL A   1      12.540  56.583   7.937  1.00  0.00    +0.000 C 
ATOM     16  C12 UNL A   1      11.797  56.300   6.789  1.00  0.00    +0.000 C 
ATOM     17  C13 UNL A   1      12.273  55.364   5.868  1.00  0.00    +0.000 C 
ATOM    110  H20 UNL A   1      11.716  55.136   5.030  1.00  0.00    +0.000 H 
ATOM     18  C14 UNL A   1      13.509  54.731   6.080  1.00  0.00    +0.000 C 
ATOM    121  H31 UNL A   1      15.147  54.553   7.407  1.00  0.00    +0.000 H 
ATOM    122  H32 UNL A   1      14.232  56.043   9.086  1.00  0.00    +0.000 H 
BRANCH   15   13
ATOM     13  C10 UNL A   1      12.054  57.618   8.873  1.00  0.00    +0.000 C 
ATOM     14  O2  UNL A   1      12.344  58.796   8.687  1.00  0.00    +0.000 O 
BRANCH   13   12
ATOM    108  H18 UNL A   1      11.032  57.978  10.562  1.00  0.00    +0.000 H 
ATOM     12  N2  UNL A   1      11.296  57.248   9.957  1.00  0.00    +0.000 N 
BRANCH   12   11
ATOM    106  H16 UNL A   1       9.903  56.016  10.853  1.00  0.00    +0.000 H 
ATOM     11  C9  UNL A   1      10.832  55.921  10.329  1.00  0.00    +0.000 C 
ATOM    107  H17 UNL A   1      10.718  55.351   9.430  1.00  0.00    +0.000 H 
BRANCH   11   10
ATOM    105  H15 UNL A   1      11.306  54.957  12.128  1.00  0.00    +0.000 H 
ATOM     10  C8  UNL A   1      11.827  55.189  11.222  1.00  0.00    +0.000 C 
ATOM    104  H14 UNL A   1      12.671  55.828  11.374  1.00  0.00    +0.000 H 
BRANCH   10    9
ATOM      9  C7  UNL A   1      12.332  53.858  10.662  1.00  0.00    +0.000 C 
ATOM    102  H12 UNL A   1      11.538  53.146  10.731  1.00  0.00    +0.000 H 
ATOM    103  H13 UNL A   1      12.639  54.056   9.656  1.00  0.00    +0.000 H 
BRANCH    9    8
ATOM    100  H10 UNL A   1      14.327  54.019  11.364  1.00  0.00    +0.000 H 
ATOM    101  H11 UNL A   1      13.226  53.018  12.360  1.00  0.00    +0.000 H 
ATOM      8  C6  UNL A   1      13.555  53.278  11.376  1.00  0.00    +0.000 C 
BRANCH    8    7
ATOM     98  H8  UNL A   1      14.423  51.345  11.564  1.00  0.00    +0.000 H 
ATOM     99  H9  UNL A   1      13.349  51.575  10.156  1.00  0.00    +0.000 H 
ATOM      7  C5  UNL A   1      14.125  51.991  10.765  1.00  0.00    +0.000 C 
BRANCH    7    6
ATOM     97  H7  UNL A   1      15.904  53.030  10.211  1.00  0.00    +0.000 H 
ATOM      6  C4  UNL A   1      15.334  52.203   9.844  1.00  0.00    +0.000 C 
ATOM     96  H6  UNL A   1      14.988  52.400   8.851  1.00  0.00    +0.000 H 
BRANCH    6    5
ATOM      5  N1  UNL A   1      16.181  51.025   9.827  1.00  0.00    +0.000 N 
ATOM     95  H5  UNL A   1      16.172  50.470  10.640  1.00  0.00    +0.000 H 
BRANCH    5    3
ATOM      3  C3  UNL A   1      16.992  50.598   8.811  1.00  0.00    +0.000 C 
ATOM      4  O1  UNL A   1      18.085  51.156   8.698  1.00  0.00    +0.000 O 
BRANCH    3    2
ATOM      2  C2  UNL A   1      16.493  49.497   7.853  1.00  0.00    +0.000 C 
ATOM     94  H4  UNL A   1      17.258  48.754   7.766  1.00  0.00    +0.000 H 
BRANCH    2    1
ATOM      1  C1  UNL A   1      16.233  50.126   6.478  1.00  0.00    +0.000 C 
ATOM     91  H1  UNL A   1      16.869  50.976   6.348  1.00  0.00    +0.000 H 
ATOM     92  H2  UNL A   1      15.210  50.433   6.414  1.00  0.00    +0.000 H 
ATOM     93  H3  UNL A   1      16.437  49.407   5.712  1.00  0.00    +0.000 H 
ENDBRANCH    2    1
BRANCH    2   78
ATOM    129  H39 UNL A   1      16.340  46.950   8.846  1.00  0.00    +0.000 H 
ATOM     78  C55 UNL A   1      15.280  48.716   8.387  1.00  0.00    +0.000 C 
ATOM     79  C56 UNL A   1      13.985  49.259   8.353  1.00  0.00    +0.000 C 
ATOM     80  C57 UNL A   1      12.892  48.565   8.886  1.00  0.00    +0.000 C 
ATOM     81  C58 UNL A   1      13.058  47.297   9.451  1.00  0.00    +0.000 C 
ATOM     89  C64 UNL A   1      14.326  46.710   9.415  1.00  0.00    +0.000 C 
ATOM     90  C65 UNL A   1      15.416  47.408   8.880  1.00  0.00    +0.000 C 
ATOM    123  H33 UNL A   1      13.835  50.187   7.928  1.00  0.00    +0.000 H 
ATOM    124  H34 UNL A   1      11.954  48.995   8.862  1.00  0.00    +0.000 H 
ATOM    128  H38 UNL A   1      14.460  45.756   9.788  1.00  0.00    +0.000 H 
BRANCH   81   82
ATOM     82  C59 UNL A   1      11.857  46.607  10.022  1.00  0.00    +0.000 C 
ATOM     83  O3  UNL A   1      10.991  46.217   9.239  1.00  0.00    +0.000 O 
BRANCH   82   84
ATOM     84  C60 UNL A   1      11.760  46.414  11.457  1.00  0.00    +0.000 C 
ATOM     85  C61 UNL A   1      12.043  45.296  12.220  1.00  0.00    +0.000 C 
ATOM     86  C62 UNL A   1      11.787  45.512  13.606  1.00  0.00    +0.000 C 
ATOM     87  C63 UNL A   1      11.336  46.790  13.854  1.00  0.00    +0.000 C 
ATOM     88  S1  UNL A   1      11.246  47.728  12.427  1.00  0.00    +0.000 S 
ATOM    125  H35 UNL A   1      12.397  44.409  11.831  1.00  0.00    +0.000 H 
ATOM    126  H36 UNL A   1      11.923  44.797  14.337  1.00  0.00    +0.000 H 
ATOM    127  H37 UNL A   1      11.082  47.140  14.791  1.00  0.00    +0.000 H 
ENDBRANCH   82   84
ENDBRANCH   81   82
ENDBRANCH    2   78
ENDBRANCH    3    2
ENDBRANCH    5    3
ENDBRANCH    6    5
ENDBRANCH    7    6
ENDBRANCH    8    7
ENDBRANCH    9    8
ENDBRANCH   10    9
ENDBRANCH   11   10
ENDBRANCH   12   11
ENDBRANCH   13   12
ENDBRANCH   15   13
ENDBRANCH   19   18
BRANCH   23   24
ATOM     33  C24 UNL A   1      19.026  55.791   1.164  1.00  0.00    +0.000 C 
ATOM     34  F5  UNL A   1      19.588  55.061   2.140  1.00  0.00    +0.000 F 
ATOM     24  C19 UNL A   1      17.761  55.451   0.663  1.00  0.00    +0.000 C 
ATOM     25  C20 UNL A   1      17.219  56.253  -0.353  1.00  0.00    +0.000 C 
ATOM     26  F1  UNL A   1      16.018  55.960  -0.874  1.00  0.00    +0.000 F 
ATOM     27  C21 UNL A   1      17.933  57.328  -0.874  1.00  0.00    +0.000 C 
ATOM     28  F2  UNL A   1      17.420  58.044  -1.884  1.00  0.00    +0.000 F 
ATOM     29  C22 UNL A   1      19.182  57.647  -0.363  1.00  0.00    +0.000 C 
ATOM     30  F3  UNL A   1      19.869  58.683  -0.866  1.00  0.00    +0.000 F 
ATOM     31  C23 UNL A   1      19.725  56.886   0.662  1.00  0.00    +0.000 C 
ATOM     32  F4  UNL A   1      20.928  57.200   1.163  1.00  0.00    +0.000 F 
ENDBRANCH   23   24
BRANCH   40   41
ATOM     41  C30 UNL A   1      16.759  48.481  -0.878  1.00  0.00    +0.000 C 
ATOM     42  C31 UNL A   1      17.967  47.794  -0.695  1.00  0.00    +0.000 C 
ATOM     43  F6  UNL A   1      18.748  48.072   0.361  1.00  0.00    +0.000 F 
ATOM     44  C32 UNL A   1      18.390  46.837  -1.612  1.00  0.00    +0.000 C 
ATOM     45  F7  UNL A   1      19.564  46.214  -1.436  1.00  0.00    +0.000 F 
ATOM     46  C33 UNL A   1      17.603  46.530  -2.713  1.00  0.00    +0.000 C 
ATOM     47  F8  UNL A   1      18.007  45.600  -3.589  1.00  0.00    +0.000 F 
ATOM     48  C34 UNL A   1      16.400  47.191  -2.908  1.00  0.00    +0.000 C 
ATOM     49  F9  UNL A   1      15.633  46.888  -3.965  1.00  0.00    +0.000 F 
ATOM     50  C35 UNL A   1      15.985  48.166  -2.006  1.00  0.00    +0.000 C 
ATOM     51  F10 UNL A   1      14.820  48.793  -2.221  1.00  0.00    +0.000 F 
ENDBRANCH   40   41
BRANCH   55   56
ATOM     65  C44 UNL A   1      10.994  47.858   4.123  1.00  0.00    +0.000 C 
ATOM     66  F15 UNL A   1      10.445  48.718   3.252  1.00  0.00    +0.000 F 
ATOM     56  C39 UNL A   1      12.338  47.995   4.492  1.00  0.00    +0.000 C 
ATOM     57  C40 UNL A   1      12.863  47.075   5.411  1.00  0.00    +0.000 C 
ATOM     58  F11 UNL A   1      14.149  47.157   5.779  1.00  0.00    +0.000 F 
ATOM     59  C41 UNL A   1      12.075  46.051   5.931  1.00  0.00    +0.000 C 
ATOM     60  F12 UNL A   1      12.608  45.166   6.785  1.00  0.00    +0.000 F 
ATOM     61  C42 UNL A   1      10.743  45.942   5.562  1.00  0.00    +0.000 C 
ATOM     62  F13 UNL A   1       9.982  44.963   6.070  1.00  0.00    +0.000 F 
ATOM     63  C43 UNL A   1      10.200  46.846   4.661  1.00  0.00    +0.000 C 
ATOM     64  F14 UNL A   1       8.910  46.752   4.312  1.00  0.00    +0.000 F 
ENDBRANCH   55   56
TORSDOF 19
ENDMDL
MODEL 4
REMARK VINA RESULT:      -9.8     27.884     33.745
ROOT
ATOM     19  C15 UNL A   1      46.543  50.863  17.902  1.00  0.00    +0.000 C 
ATOM     20  C16 UNL A   1      47.513  50.453  18.973  1.00  0.00    +0.000 C 
ATOM     21  N3  UNL A   1      48.538  51.106  19.460  1.00  0.00    +0.000 N 
ATOM     22  C17 UNL A   1      49.046  50.306  20.474  1.00  0.00    +0.000 C 
ATOM     23  C18 UNL A   1      50.133  50.519  21.252  1.00  0.00    +0.000 C 
ATOM     35  C25 UNL A   1      50.999  51.661  21.136  1.00  0.00    +0.000 C 
ATOM     36  C26 UNL A   1      52.160  51.940  21.836  1.00  0.00    +0.000 C 
ATOM     37  C27 UNL A   1      52.645  53.178  21.401  1.00  0.00    +0.000 C 
ATOM     38  C28 UNL A   1      51.809  53.651  20.402  1.00  0.00    +0.000 C 
ATOM     39  N4  UNL A   1      50.800  52.714  20.255  1.00  0.00    +0.000 N 
ATOM     40  C29 UNL A   1      51.923  54.867  19.638  1.00  0.00    +0.000 C 
ATOM     52  C36 UNL A   1      51.054  55.269  18.678  1.00  0.00    +0.000 C 
ATOM     53  N5  UNL A   1      49.913  54.630  18.211  1.00  0.00    +0.000 N 
ATOM     54  C37 UNL A   1      49.417  55.411  17.284  1.00  0.00    +0.000 C 
ATOM     55  C38 UNL A   1      48.200  55.205  16.423  1.00  0.00    +0.000 C 
ATOM     67  C45 UNL A   1      47.503  54.058  16.529  1.00  0.00    +0.000 C 
ATOM     68  C46 UNL A   1      46.301  53.722  15.770  1.00  0.00    +0.000 C 
ATOM     69  C47 UNL A   1      45.831  52.538  16.195  1.00  0.00    +0.000 C 
ATOM     70  C48 UNL A   1      46.722  52.015  17.231  1.00  0.00    +0.000 C 
ATOM     71  N6  UNL A   1      47.704  52.968  17.340  1.00  0.00    +0.000 N 
ATOM     72  C49 UNL A   1      50.171  56.655  17.078  1.00  0.00    +0.000 C 
ATOM     73  C50 UNL A   1      51.177  56.503  17.931  1.00  0.00    +0.000 C 
ATOM     74  C51 UNL A   1      48.195  49.138  20.559  1.00  0.00    +0.000 C 
ATOM     75  C52 UNL A   1      47.277  49.146  19.605  1.00  0.00    +0.000 C 
ATOM    111  H21 UNL A   1      52.594  51.339  22.554  1.00  0.00    +0.000 H 
ATOM    112  H22 UNL A   1      53.483  53.659  21.764  1.00  0.00    +0.000 H 
ATOM    113  H23 UNL A   1      50.050  52.784  19.619  1.00  0.00    +0.000 H 
ATOM    114  H24 UNL A   1      45.881  54.302  15.027  1.00  0.00    +0.000 H 
ATOM    115  H25 UNL A   1      44.979  52.072  15.847  1.00  0.00    +0.000 H 
ATOM    116  H26 UNL A   1      48.478  52.879  17.942  1.00  0.00    +0.000 H 
ATOM    117  H27 UNL A   1      49.972  57.441  16.440  1.00  0.00    +0.000 H 
ATOM    118  H28 UNL A   1      51.949  57.179  18.046  1.00  0.00    +0.000 H 
ATOM    119  H29 UNL A   1      48.291  48.397  21.271  1.00  0.00    +0.000 H 
ATOM    120  H30 UNL A   1      46.579  48.424  19.366  1.00  0.00    +0.000 H 
ENDROOT
BRANCH   19   18
ATOM     76  C53 UNL A   1      44.164  50.320  18.382  1.00  0.00    +0.000 C 
ATOM    109  H19 UNL A   1      44.181  47.456  15.840  1.00  0.00    +0.000 H 
ATOM     77  C54 UNL A   1      43.025  49.540  18.207  1.00  0.00    +0.000 C 
ATOM     15  C11 UNL A   1      43.017  48.532  17.238  1.00  0.00    +0.000 C 
ATOM     16  C12 UNL A   1      44.180  48.228  16.526  1.00  0.00    +0.000 C 
ATOM     17  C13 UNL A   1      45.342  48.970  16.747  1.00  0.00    +0.000 C 
ATOM    110  H20 UNL A   1      46.208  48.734  16.240  1.00  0.00    +0.000 H 
ATOM     18  C14 UNL A   1      45.334  50.039  17.658  1.00  0.00    +0.000 C 
ATOM    121  H31 UNL A   1      44.149  51.108  19.047  1.00  0.00    +0.000 H 
ATOM    122  H32 UNL A   1      42.189  49.704  18.791  1.00  0.00    +0.000 H 
BRANCH   15   13
ATOM     13  C10 UNL A   1      41.779  47.777  16.951  1.00  0.00    +0.000 C 
ATOM     14  O2  UNL A   1      40.933  48.252  16.200  1.00  0.00    +0.000 O 
BRANCH   13   12
ATOM    108  H18 UNL A   1      41.486  46.569  18.527  1.00  0.00    +0.000 H 
ATOM     12  N2  UNL A   1      41.579  46.556  17.546  1.00  0.00    +0.000 N 
BRANCH   12   11
ATOM    106  H16 UNL A   1      40.958  44.588  17.580  1.00  0.00    +0.000 H 
ATOM     11  C9  UNL A   1      41.486  45.246  16.921  1.00  0.00    +0.000 C 
ATOM    107  H17 UNL A   1      40.971  45.364  15.991  1.00  0.00    +0.000 H 
BRANCH   11   10
ATOM    105  H15 UNL A   1      43.536  45.471  16.551  1.00  0.00    +0.000 H 
ATOM     10  C8  UNL A   1      42.856  44.648  16.624  1.00  0.00    +0.000 C 
ATOM    104  H14 UNL A   1      42.782  44.082  15.718  1.00  0.00    +0.000 H 
BRANCH   10    9
ATOM      9  C7  UNL A   1      43.404  43.728  17.716  1.00  0.00    +0.000 C 
ATOM    102  H12 UNL A   1      43.829  42.868  17.242  1.00  0.00    +0.000 H 
ATOM    103  H13 UNL A   1      44.117  44.308  18.263  1.00  0.00    +0.000 H 
BRANCH    9    8
ATOM    100  H10 UNL A   1      41.422  43.666  18.469  1.00  0.00    +0.000 H 
ATOM    101  H11 UNL A   1      42.391  42.177  18.696  1.00  0.00    +0.000 H 
ATOM      8  C6  UNL A   1      42.370  43.246  18.736  1.00  0.00    +0.000 C 
BRANCH    8    7
ATOM     98  H8  UNL A   1      43.161  44.567  20.203  1.00  0.00    +0.000 H 
ATOM     99  H9  UNL A   1      41.712  43.647  20.695  1.00  0.00    +0.000 H 
ATOM      7  C5  UNL A   1      42.659  43.623  20.195  1.00  0.00    +0.000 C 
BRANCH    7    6
ATOM     97  H7  UNL A   1      43.311  41.630  20.588  1.00  0.00    +0.000 H 
ATOM      6  C4  UNL A   1      43.527  42.612  20.956  1.00  0.00    +0.000 C 
ATOM     96  H6  UNL A   1      43.304  42.675  22.000  1.00  0.00    +0.000 H 
BRANCH    6    5
ATOM      5  N1  UNL A   1      44.936  42.886  20.751  1.00  0.00    +0.000 N 
ATOM     95  H5  UNL A   1      45.280  42.747  19.839  1.00  0.00    +0.000 H 
BRANCH    5    3
ATOM      3  C3  UNL A   1      45.844  43.315  21.681  1.00  0.00    +0.000 C 
ATOM      4  O1  UNL A   1      46.180  42.504  22.547  1.00  0.00    +0.000 O 
BRANCH    3    2
ATOM      2  C2  UNL A   1      46.356  44.769  21.629  1.00  0.00    +0.000 C 
ATOM     94  H4  UNL A   1      47.179  44.861  22.306  1.00  0.00    +0.000 H 
BRANCH    2    1
ATOM      1  C1  UNL A   1      45.223  45.703  22.072  1.00  0.00    +0.000 C 
ATOM     91  H1  UNL A   1      44.755  46.131  21.210  1.00  0.00    +0.000 H 
ATOM     92  H2  UNL A   1      45.622  46.484  22.684  1.00  0.00    +0.000 H 
ATOM     93  H3  UNL A   1      44.499  45.147  22.630  1.00  0.00    +0.000 H 
ENDBRANCH    2    1
BRANCH    2   78
ATOM    129  H39 UNL A   1      48.968  44.860  20.814  1.00  0.00    +0.000 H 
ATOM     78  C55 UNL A   1      46.952  45.165  20.268  1.00  0.00    +0.000 C 
ATOM     79  C56 UNL A   1      46.143  45.632  19.219  1.00  0.00    +0.000 C 
ATOM     80  C57 UNL A   1      46.684  45.944  17.966  1.00  0.00    +0.000 C 
ATOM     81  C58 UNL A   1      48.056  45.817  17.730  1.00  0.00    +0.000 C 
ATOM     89  C64 UNL A   1      48.884  45.433  18.788  1.00  0.00    +0.000 C 
ATOM     90  C65 UNL A   1      48.338  45.124  20.041  1.00  0.00    +0.000 C 
ATOM    123  H33 UNL A   1      45.129  45.748  19.375  1.00  0.00    +0.000 H 
ATOM    124  H34 UNL A   1      46.063  46.271  17.209  1.00  0.00    +0.000 H 
ATOM    128  H38 UNL A   1      49.905  45.376  18.645  1.00  0.00    +0.000 H 
BRANCH   81   82
ATOM     82  C59 UNL A   1      48.578  46.148  16.365  1.00  0.00    +0.000 C 
ATOM     83  O3  UNL A   1      48.800  45.217  15.592  1.00  0.00    +0.000 O 
BRANCH   82   84
ATOM     84  C60 UNL A   1      48.793  47.537  16.002  1.00  0.00    +0.000 C 
ATOM     85  C61 UNL A   1      48.212  48.287  14.996  1.00  0.00    +0.000 C 
ATOM     86  C62 UNL A   1      48.722  49.619  14.955  1.00  0.00    +0.000 C 
ATOM     87  C63 UNL A   1      49.659  49.842  15.940  1.00  0.00    +0.000 C 
ATOM     88  S1  UNL A   1      49.901  48.462  16.921  1.00  0.00    +0.000 S 
ATOM    125  H35 UNL A   1      47.494  47.926  14.349  1.00  0.00    +0.000 H 
ATOM    126  H36 UNL A   1      48.425  50.330  14.269  1.00  0.00    +0.000 H 
ATOM    127  H37 UNL A   1      50.156  50.737  16.070  1.00  0.00    +0.000 H 
ENDBRANCH   82   84
ENDBRANCH   81   82
ENDBRANCH    2   78
ENDBRANCH    3    2
ENDBRANCH    5    3
ENDBRANCH    6    5
ENDBRANCH    7    6
ENDBRANCH    8    7
ENDBRANCH    9    8
ENDBRANCH   10    9
ENDBRANCH   11   10
ENDBRANCH   12   11
ENDBRANCH   13   12
ENDBRANCH   15   13
ENDBRANCH   19   18
BRANCH   23   24
ATOM     33  C24 UNL A   1      51.162  48.336  21.976  1.00  0.00    +0.000 C 
ATOM     34  F5  UNL A   1      51.592  48.138  20.720  1.00  0.00    +0.000 F 
ATOM     24  C19 UNL A   1      50.439  49.492  22.303  1.00  0.00    +0.000 C 
ATOM     25  C20 UNL A   1      50.009  49.644  23.630  1.00  0.00    +0.000 C 
ATOM     26  F1  UNL A   1      49.326  50.739  23.996  1.00  0.00    +0.000 F 
ATOM     27  C21 UNL A   1      50.325  48.695  24.599  1.00  0.00    +0.000 C 
ATOM     28  F2  UNL A   1      49.953  48.890  25.871  1.00  0.00    +0.000 F 
ATOM     29  C22 UNL A   1      51.040  47.559  24.253  1.00  0.00    +0.000 C 
ATOM     30  F3  UNL A   1      51.344  46.646  25.186  1.00  0.00    +0.000 F 
ATOM     31  C23 UNL A   1      51.450  47.373  22.941  1.00  0.00    +0.000 C 
ATOM     32  F4  UNL A   1      52.133  46.271  22.603  1.00  0.00    +0.000 F 
ENDBRANCH   23   24
BRANCH   40   41
ATOM     41  C30 UNL A   1      53.109  55.744  19.906  1.00  0.00    +0.000 C 
ATOM     42  C31 UNL A   1      54.314  55.584  19.208  1.00  0.00    +0.000 C 
ATOM     43  F6  UNL A   1      54.455  54.584  18.324  1.00  0.00    +0.000 F 
ATOM     44  C32 UNL A   1      55.389  56.437  19.438  1.00  0.00    +0.000 C 
ATOM     45  F7  UNL A   1      56.544  56.249  18.784  1.00  0.00    +0.000 F 
ATOM     46  C33 UNL A   1      55.272  57.479  20.346  1.00  0.00    +0.000 C 
ATOM     47  F8  UNL A   1      56.304  58.306  20.558  1.00  0.00    +0.000 F 
ATOM     48  C34 UNL A   1      54.085  57.660  21.041  1.00  0.00    +0.000 C 
ATOM     49  F9  UNL A   1      53.965  58.672  21.911  1.00  0.00    +0.000 F 
ATOM     50  C35 UNL A   1      53.015  56.794  20.832  1.00  0.00    +0.000 C 
ATOM     51  F10 UNL A   1      51.881  56.989  21.519  1.00  0.00    +0.000 F 
ENDBRANCH   40   41
BRANCH   55   56
ATOM     65  C44 UNL A   1      48.136  56.139  14.086  1.00  0.00    +0.000 C 
ATOM     66  F15 UNL A   1      48.861  55.097  13.653  1.00  0.00    +0.000 F 
ATOM     56  C39 UNL A   1      47.778  56.232  15.437  1.00  0.00    +0.000 C 
ATOM     57  C40 UNL A   1      47.026  57.344  15.841  1.00  0.00    +0.000 C 
ATOM     58  F11 UNL A   1      46.646  57.466  17.120  1.00  0.00    +0.000 F 
ATOM     59  C41 UNL A   1      46.637  58.319  14.925  1.00  0.00    +0.000 C 
ATOM     60  F12 UNL A   1      45.892  59.357  15.331  1.00  0.00    +0.000 F 
ATOM     61  C42 UNL A   1      47.013  58.214  13.595  1.00  0.00    +0.000 C 
ATOM     62  F13 UNL A   1      46.647  59.156  12.716  1.00  0.00    +0.000 F 
ATOM     63  C43 UNL A   1      47.765  57.126  13.174  1.00  0.00    +0.000 C 
ATOM     64  F14 UNL A   1      48.142  57.028  11.892  1.00  0.00    +0.000 F 
ENDBRANCH   55   56
TORSDOF 19
ENDMDL
MODEL 5
REMARK VINA RESULT:      -9.8     29.131     36.822
ROOT
ATOM     19  C15 UNL A   1      21.170  18.886   5.783  1.00  0.00    +0.000 C 
ATOM     20  C16 UNL A   1      20.955  19.834   4.638  1.00  0.00    +0.000 C 
ATOM     21  N3  UNL A   1      19.868  20.466   4.276  1.00  0.00    +0.000 N 
ATOM     22  C17 UNL A   1      20.238  21.265   3.202  1.00  0.00    +0.000 C 
ATOM     23  C18 UNL A   1      19.460  22.077   2.448  1.00  0.00    +0.000 C 
ATOM     35  C25 UNL A   1      18.043  22.238   2.632  1.00  0.00    +0.000 C 
ATOM     36  C26 UNL A   1      17.154  22.989   1.882  1.00  0.00    +0.000 C 
ATOM     37  C27 UNL A   1      15.884  22.862   2.454  1.00  0.00    +0.000 C 
ATOM     38  C28 UNL A   1      15.974  21.999   3.535  1.00  0.00    +0.000 C 
ATOM     39  N4  UNL A   1      17.305  21.630   3.637  1.00  0.00    +0.000 N 
ATOM     40  C29 UNL A   1      14.924  21.545   4.409  1.00  0.00    +0.000 C 
ATOM     52  C36 UNL A   1      15.091  20.703   5.459  1.00  0.00    +0.000 C 
ATOM     53  N5  UNL A   1      16.254  20.094   5.910  1.00  0.00    +0.000 N 
ATOM     54  C37 UNL A   1      15.904  19.375   6.948  1.00  0.00    +0.000 C 
ATOM     55  C38 UNL A   1      16.754  18.484   7.814  1.00  0.00    +0.000 C 
ATOM     67  C45 UNL A   1      18.054  18.312   7.508  1.00  0.00    +0.000 C 
ATOM     68  C46 UNL A   1      19.000  17.490   8.257  1.00  0.00    +0.000 C 
ATOM     69  C47 UNL A   1      20.221  17.620   7.713  1.00  0.00    +0.000 C 
ATOM     70  C48 UNL A   1      20.134  18.507   6.553  1.00  0.00    +0.000 C 
ATOM     71  N6  UNL A   1      18.805  18.843   6.487  1.00  0.00    +0.000 N 
ATOM     72  C49 UNL A   1      14.480  19.473   7.295  1.00  0.00    +0.000 C 
ATOM     73  C50 UNL A   1      14.024  20.270   6.337  1.00  0.00    +0.000 C 
ATOM     74  C51 UNL A   1      21.657  21.067   2.996  1.00  0.00    +0.000 C 
ATOM     75  C52 UNL A   1      22.133  20.137   3.810  1.00  0.00    +0.000 C 
ATOM    111  H21 UNL A   1      17.388  23.547   1.046  1.00  0.00    +0.000 H 
ATOM    112  H22 UNL A   1      15.025  23.332   2.128  1.00  0.00    +0.000 H 
ATOM    113  H23 UNL A   1      17.674  21.025   4.321  1.00  0.00    +0.000 H 
ATOM    114  H24 UNL A   1      18.768  16.903   9.073  1.00  0.00    +0.000 H 
ATOM    115  H25 UNL A   1      21.082  17.167   8.057  1.00  0.00    +0.000 H 
ATOM    116  H26 UNL A   1      18.426  19.411   5.778  1.00  0.00    +0.000 H 
ATOM    117  H27 UNL A   1      13.968  19.037   8.078  1.00  0.00    +0.000 H 
ATOM    118  H28 UNL A   1      13.036  20.545   6.230  1.00  0.00    +0.000 H 
ATOM    119  H29 UNL A   1      22.223  21.584   2.305  1.00  0.00    +0.000 H 
ATOM    120  H30 UNL A   1      23.081  19.732   3.852  1.00  0.00    +0.000 H 
ENDROOT
BRANCH   19   18
ATOM     76  C53 UNL A   1      23.449  19.388   6.646  1.00  0.00    +0.000 C 
ATOM    109  H19 UNL A   1      24.582  15.771   6.101  1.00  0.00    +0.000 H 
ATOM     77  C54 UNL A   1      24.759  19.020   6.933  1.00  0.00    +0.000 C 
ATOM     15  C11 UNL A   1      25.153  17.686   6.787  1.00  0.00    +0.000 C 
ATOM     16  C12 UNL A   1      24.274  16.746   6.245  1.00  0.00    +0.000 C 
ATOM     17  C13 UNL A   1      22.977  17.130   5.897  1.00  0.00    +0.000 C 
ATOM    110  H20 UNL A   1      22.332  16.443   5.476  1.00  0.00    +0.000 H 
ATOM     18  C14 UNL A   1      22.548  18.448   6.120  1.00  0.00    +0.000 C 
ATOM    121  H31 UNL A   1      23.138  20.356   6.819  1.00  0.00    +0.000 H 
ATOM    122  H32 UNL A   1      25.438  19.729   7.253  1.00  0.00    +0.000 H 
BRANCH   15   13
ATOM     13  C10 UNL A   1      26.503  17.252   7.205  1.00  0.00    +0.000 C 
ATOM     14  O2  UNL A   1      27.308  16.865   6.365  1.00  0.00    +0.000 O 
BRANCH   13   12
ATOM    108  H18 UNL A   1      26.581  16.469   9.051  1.00  0.00    +0.000 H 
ATOM     12  N2  UNL A   1      26.836  17.269   8.537  1.00  0.00    +0.000 N 
BRANCH   12   11
ATOM    106  H16 UNL A   1      28.223  17.852   9.950  1.00  0.00    +0.000 H 
ATOM     11  C9  UNL A   1      27.518  18.311   9.289  1.00  0.00    +0.000 C 
ATOM    107  H17 UNL A   1      28.002  18.957   8.586  1.00  0.00    +0.000 H 
BRANCH   11   10
ATOM    105  H15 UNL A   1      25.569  18.810   9.873  1.00  0.00    +0.000 H 
ATOM     10  C8  UNL A   1      26.553  19.157  10.111  1.00  0.00    +0.000 C 
ATOM    104  H14 UNL A   1      26.710  20.185   9.855  1.00  0.00    +0.000 H 
BRANCH   10    9
ATOM      9  C7  UNL A   1      26.707  19.015  11.626  1.00  0.00    +0.000 C 
ATOM    102  H12 UNL A   1      26.874  17.982  11.846  1.00  0.00    +0.000 H 
ATOM    103  H13 UNL A   1      27.525  19.646  11.903  1.00  0.00    +0.000 H 
BRANCH    9    8
ATOM    100  H10 UNL A   1      25.801  20.359  12.994  1.00  0.00    +0.000 H 
ATOM    101  H11 UNL A   1      24.720  19.671  11.743  1.00  0.00    +0.000 H 
ATOM      8  C6  UNL A   1      25.505  19.488  12.446  1.00  0.00    +0.000 C 
BRANCH    8    7
ATOM     98  H8  UNL A   1      25.165  17.486  13.080  1.00  0.00    +0.000 H 
ATOM     99  H9  UNL A   1      25.420  18.676  14.387  1.00  0.00    +0.000 H 
ATOM      7  C5  UNL A   1      24.949  18.467  13.448  1.00  0.00    +0.000 C 
BRANCH    7    6
ATOM     97  H7  UNL A   1      23.134  19.583  13.551  1.00  0.00    +0.000 H 
ATOM      6  C4  UNL A   1      23.437  18.566  13.688  1.00  0.00    +0.000 C 
ATOM     96  H6  UNL A   1      23.218  18.245  14.685  1.00  0.00    +0.000 H 
BRANCH    6    5
ATOM      5  N1  UNL A   1      22.710  17.734  12.749  1.00  0.00    +0.000 N 
ATOM     95  H5  UNL A   1      21.765  17.966  12.601  1.00  0.00    +0.000 H 
BRANCH    5    3
ATOM      3  C3  UNL A   1      23.188  16.662  12.045  1.00  0.00    +0.000 C 
ATOM      4  O1  UNL A   1      23.283  15.593  12.653  1.00  0.00    +0.000 O 
BRANCH    3    2
ATOM      2  C2  UNL A   1      23.614  16.847  10.575  1.00  0.00    +0.000 C 
ATOM     94  H4  UNL A   1      24.678  16.960  10.544  1.00  0.00    +0.000 H 
BRANCH    2    1
ATOM      1  C1  UNL A   1      22.949  18.117  10.029  1.00  0.00    +0.000 C 
ATOM     91  H1  UNL A   1      22.051  17.855   9.509  1.00  0.00    +0.000 H 
ATOM     92  H2  UNL A   1      23.618  18.610   9.355  1.00  0.00    +0.000 H 
ATOM     93  H3  UNL A   1      22.712  18.773  10.840  1.00  0.00    +0.000 H 
ENDBRANCH    2    1
BRANCH    2   78
ATOM    129  H39 UNL A   1      21.324  16.059   9.299  1.00  0.00    +0.000 H 
ATOM     78  C55 UNL A   1      23.349  15.614   9.694  1.00  0.00    +0.000 C 
ATOM     79  C56 UNL A   1      24.332  14.632   9.489  1.00  0.00    +0.000 C 
ATOM     80  C57 UNL A   1      24.103  13.538   8.647  1.00  0.00    +0.000 C 
ATOM     81  C58 UNL A   1      22.873  13.382   7.999  1.00  0.00    +0.000 C 
ATOM     89  C64 UNL A   1      21.857  14.305   8.260  1.00  0.00    +0.000 C 
ATOM     90  C65 UNL A   1      22.092  15.398   9.105  1.00  0.00    +0.000 C 
ATOM    123  H33 UNL A   1      25.242  14.719   9.968  1.00  0.00    +0.000 H 
ATOM    124  H34 UNL A   1      24.849  12.840   8.502  1.00  0.00    +0.000 H 
ATOM    128  H38 UNL A   1      20.929  14.182   7.826  1.00  0.00    +0.000 H 
BRANCH   81   82
ATOM     82  C59 UNL A   1      22.688  12.201   7.096  1.00  0.00    +0.000 C 
ATOM     83  O3  UNL A   1      22.140  11.201   7.559  1.00  0.00    +0.000 O 
BRANCH   82   84
ATOM     84  C60 UNL A   1      23.144  12.277   5.720  1.00  0.00    +0.000 C 
ATOM     85  C61 UNL A   1      23.605  13.365   5.000  1.00  0.00    +0.000 C 
ATOM     86  C62 UNL A   1      23.931  13.020   3.655  1.00  0.00    +0.000 C 
ATOM     87  C63 UNL A   1      23.725  11.682   3.401  1.00  0.00    +0.000 C 
ATOM     88  S1  UNL A   1      23.166  10.845   4.783  1.00  0.00    +0.000 S 
ATOM    125  H35 UNL A   1      23.701  14.314   5.391  1.00  0.00    +0.000 H 
ATOM    126  H36 UNL A   1      24.280  13.694   2.955  1.00  0.00    +0.000 H 
ATOM    127  H37 UNL A   1      23.889  11.238   2.485  1.00  0.00    +0.000 H 
ENDBRANCH   82   84
ENDBRANCH   81   82
ENDBRANCH    2   78
ENDBRANCH    3    2
ENDBRANCH    5    3
ENDBRANCH    6    5
ENDBRANCH    7    6
ENDBRANCH    8    7
ENDBRANCH    9    8
ENDBRANCH   10    9
ENDBRANCH   11   10
ENDBRANCH   12   11
ENDBRANCH   13   12
ENDBRANCH   15   13
ENDBRANCH   19   18
BRANCH   23   24
ATOM     33  C24 UNL A   1      20.084  22.408   0.029  1.00  0.00    +0.000 C 
ATOM     34  F5  UNL A   1      19.427  21.279  -0.281  1.00  0.00    +0.000 F 
ATOM     24  C19 UNL A   1      20.135  22.856   1.356  1.00  0.00    +0.000 C 
ATOM     25  C20 UNL A   1      20.840  24.039   1.624  1.00  0.00    +0.000 C 
ATOM     26  F1  UNL A   1      20.907  24.517   2.876  1.00  0.00    +0.000 F 
ATOM     27  C21 UNL A   1      21.437  24.765   0.596  1.00  0.00    +0.000 C 
ATOM     28  F2  UNL A   1      22.056  25.922   0.868  1.00  0.00    +0.000 F 
ATOM     29  C22 UNL A   1      21.375  24.302  -0.709  1.00  0.00    +0.000 C 
ATOM     30  F3  UNL A   1      21.950  25.002  -1.697  1.00  0.00    +0.000 F 
ATOM     31  C23 UNL A   1      20.708  23.120  -0.992  1.00  0.00    +0.000 C 
ATOM     32  F4  UNL A   1      20.656  22.667  -2.253  1.00  0.00    +0.000 F 
ENDBRANCH   23   24
BRANCH   40   41
ATOM     41  C30 UNL A   1      13.531  22.019   4.121  1.00  0.00    +0.000 C 
ATOM     42  C31 UNL A   1      13.011  23.179   4.713  1.00  0.00    +0.000 C 
ATOM     43  F6  UNL A   1      13.736  23.858   5.616  1.00  0.00    +0.000 F 
ATOM     44  C32 UNL A   1      11.732  23.629   4.399  1.00  0.00    +0.000 C 
ATOM     45  F7  UNL A   1      11.241  24.722   4.999  1.00  0.00    +0.000 F 
ATOM     46  C33 UNL A   1      10.962  22.945   3.470  1.00  0.00    +0.000 C 
ATOM     47  F8  UNL A   1       9.735  23.386   3.160  1.00  0.00    +0.000 F 
ATOM     48  C34 UNL A   1      11.460  21.800   2.866  1.00  0.00    +0.000 C 
ATOM     49  F9  UNL A   1      10.721  21.145   1.960  1.00  0.00    +0.000 F 
ATOM     50  C35 UNL A   1      12.729  21.334   3.195  1.00  0.00    +0.000 C 
ATOM     51  F10 UNL A   1      13.184  20.223   2.600  1.00  0.00    +0.000 F 
ENDBRANCH   40   41
BRANCH   55   56
ATOM     65  C44 UNL A   1      15.689  16.457   8.860  1.00  0.00    +0.000 C 
ATOM     66  F15 UNL A   1      15.761  15.816   7.685  1.00  0.00    +0.000 F 
ATOM     56  C39 UNL A   1      16.172  17.767   8.976  1.00  0.00    +0.000 C 
ATOM     57  C40 UNL A   1      16.068  18.396  10.224  1.00  0.00    +0.000 C 
ATOM     58  F11 UNL A   1      16.533  19.642  10.386  1.00  0.00    +0.000 F 
ATOM     59  C41 UNL A   1      15.511  17.736  11.318  1.00  0.00    +0.000 C 
ATOM     60  F12 UNL A   1      15.450  18.348  12.508  1.00  0.00    +0.000 F 
ATOM     61  C42 UNL A   1      15.027  16.444  11.177  1.00  0.00    +0.000 C 
ATOM     62  F13 UNL A   1      14.483  15.812  12.226  1.00  0.00    +0.000 F 
ATOM     63  C43 UNL A   1      15.112  15.805   9.949  1.00  0.00    +0.000 C 
ATOM     64  F14 UNL A   1      14.633  14.562   9.806  1.00  0.00    +0.000 F 
ENDBRANCH   55   56
TORSDOF 19
ENDMDL
MODEL 6
REMARK VINA RESULT:      -9.7     40.407     47.448
ROOT
ATOM     19  C15 UNL A   1      25.855  35.705  45.730  1.00  0.00    +0.000 C 
ATOM     20  C16 UNL A   1      25.693  36.857  46.680  1.00  0.00    +0.000 C 
ATOM     21  N3  UNL A   1      26.521  37.833  46.951  1.00  0.00    +0.000 N 
ATOM     22  C17 UNL A   1      25.849  38.660  47.840  1.00  0.00    +0.000 C 
ATOM     23  C18 UNL A   1      26.297  39.782  48.452  1.00  0.00    +0.000 C 
ATOM     35  C25 UNL A   1      27.621  40.319  48.288  1.00  0.00    +0.000 C 
ATOM     36  C26 UNL A   1      28.192  41.416  48.909  1.00  0.00    +0.000 C 
ATOM     37  C27 UNL A   1      29.492  41.571  48.414  1.00  0.00    +0.000 C 
ATOM     38  C28 UNL A   1      29.743  40.546  47.515  1.00  0.00    +0.000 C 
ATOM     39  N4  UNL A   1      28.586  39.791  47.442  1.00  0.00    +0.000 N 
ATOM     40  C29 UNL A   1      30.952  40.277  46.778  1.00  0.00    +0.000 C 
ATOM     52  C36 UNL A   1      31.121  39.256  45.903  1.00  0.00    +0.000 C 
ATOM     53  N5  UNL A   1      30.221  38.263  45.539  1.00  0.00    +0.000 N 
ATOM     54  C37 UNL A   1      30.849  37.510  44.668  1.00  0.00    +0.000 C 
ATOM     55  C38 UNL A   1      30.364  36.274  43.960  1.00  0.00    +0.000 C 
ATOM     67  C45 UNL A   1      29.144  35.783  44.250  1.00  0.00    +0.000 C 
ATOM     68  C46 UNL A   1      28.538  34.603  43.641  1.00  0.00    +0.000 C 
ATOM     69  C47 UNL A   1      27.288  34.461  44.109  1.00  0.00    +0.000 C 
ATOM     70  C48 UNL A   1      27.019  35.520  45.082  1.00  0.00    +0.000 C 
ATOM     71  N6  UNL A   1      28.188  36.238  45.125  1.00  0.00    +0.000 N 
ATOM     72  C49 UNL A   1      32.212  37.962  44.356  1.00  0.00    +0.000 C 
ATOM     73  C50 UNL A   1      32.339  39.010  45.160  1.00  0.00    +0.000 C 
ATOM     74  C51 UNL A   1      24.532  38.093  48.034  1.00  0.00    +0.000 C 
ATOM     75  C52 UNL A   1      24.411  36.939  47.397  1.00  0.00    +0.000 C 
ATOM    111  H21 UNL A   1      27.739  42.015  49.616  1.00  0.00    +0.000 H 
ATOM    112  H22 UNL A   1      30.151  42.321  48.673  1.00  0.00    +0.000 H 
ATOM    113  H23 UNL A   1      28.463  38.996  46.873  1.00  0.00    +0.000 H 
ATOM    114  H24 UNL A   1      28.997  33.978  42.959  1.00  0.00    +0.000 H 
ATOM    115  H25 UNL A   1      26.623  33.722  43.829  1.00  0.00    +0.000 H 
ATOM    116  H26 UNL A   1      28.328  37.005  45.726  1.00  0.00    +0.000 H 
ATOM    117  H27 UNL A   1      32.893  37.567  43.688  1.00  0.00    +0.000 H 
ATOM    118  H28 UNL A   1      33.196  39.578  45.244  1.00  0.00    +0.000 H 
ATOM    119  H29 UNL A   1      23.785  38.532  48.595  1.00  0.00    +0.000 H 
ATOM    120  H30 UNL A   1      23.623  36.272  47.401  1.00  0.00    +0.000 H 
ENDROOT
BRANCH   19   18
ATOM     76  C53 UNL A   1      23.733  35.264  44.508  1.00  0.00    +0.000 C 
ATOM    109  H19 UNL A   1      23.301  31.876  46.238  1.00  0.00    +0.000 H 
ATOM     77  C54 UNL A   1      22.611  34.487  44.242  1.00  0.00    +0.000 C 
ATOM     15  C11 UNL A   1      22.485  33.226  44.832  1.00  0.00    +0.000 C 
ATOM     16  C12 UNL A   1      23.420  32.791  45.774  1.00  0.00    +0.000 C 
ATOM     17  C13 UNL A   1      24.515  33.599  46.088  1.00  0.00    +0.000 C 
ATOM    110  H20 UNL A   1      25.194  33.290  46.800  1.00  0.00    +0.000 H 
ATOM     18  C14 UNL A   1      24.692  34.830  45.438  1.00  0.00    +0.000 C 
ATOM    121  H31 UNL A   1      23.862  36.164  44.021  1.00  0.00    +0.000 H 
ATOM    122  H32 UNL A   1      21.873  34.841  43.612  1.00  0.00    +0.000 H 
BRANCH   15   13
ATOM     13  C10 UNL A   1      21.364  32.335  44.466  1.00  0.00    +0.000 C 
ATOM     14  O2  UNL A   1      21.536  31.121  44.422  1.00  0.00    +0.000 O 
BRANCH   13   12
ATOM    108  H18 UNL A   1      19.967  33.775  44.527  1.00  0.00    +0.000 H 
ATOM     12  N2  UNL A   1      20.141  32.879  44.158  1.00  0.00    +0.000 N 
BRANCH   12   11
ATOM    106  H16 UNL A   1      18.469  33.103  42.969  1.00  0.00    +0.000 H 
ATOM     11  C9  UNL A   1      19.069  32.307  43.360  1.00  0.00    +0.000 C 
ATOM    107  H17 UNL A   1      19.516  31.733  42.575  1.00  0.00    +0.000 H 
BRANCH   11   10
ATOM    105  H15 UNL A   1      17.495  31.998  44.707  1.00  0.00    +0.000 H 
ATOM     10  C8  UNL A   1      18.178  31.373  44.170  1.00  0.00    +0.000 C 
ATOM    104  H14 UNL A   1      18.804  30.787  44.810  1.00  0.00    +0.000 H 
BRANCH   10    9
ATOM      9  C7  UNL A   1      17.324  30.417  43.335  1.00  0.00    +0.000 C 
ATOM    102  H12 UNL A   1      16.315  30.769  43.357  1.00  0.00    +0.000 H 
ATOM    103  H13 UNL A   1      17.752  30.414  42.355  1.00  0.00    +0.000 H 
BRANCH    9    8
ATOM    100  H10 UNL A   1      17.679  28.352  43.001  1.00  0.00    +0.000 H 
ATOM    101  H11 UNL A   1      17.964  28.934  44.671  1.00  0.00    +0.000 H 
ATOM      8  C6  UNL A   1      17.331  28.962  43.809  1.00  0.00    +0.000 C 
BRANCH    8    7
ATOM     98  H8  UNL A   1      15.729  28.856  45.206  1.00  0.00    +0.000 H 
ATOM     99  H9  UNL A   1      15.272  28.658  43.491  1.00  0.00    +0.000 H 
ATOM      7  C5  UNL A   1      15.972  28.412  44.264  1.00  0.00    +0.000 C 
BRANCH    7    6
ATOM     97  H7  UNL A   1      16.326  26.630  45.382  1.00  0.00    +0.000 H 
ATOM      6  C4  UNL A   1      15.922  26.887  44.425  1.00  0.00    +0.000 C 
ATOM     96  H6  UNL A   1      16.497  26.432  43.645  1.00  0.00    +0.000 H 
BRANCH    6    5
ATOM      5  N1  UNL A   1      14.556  26.406  44.353  1.00  0.00    +0.000 N 
ATOM     95  H5  UNL A   1      14.003  26.540  45.156  1.00  0.00    +0.000 H 
BRANCH    5    3
ATOM      3  C3  UNL A   1      13.947  25.786  43.295  1.00  0.00    +0.000 C 
ATOM      4  O1  UNL A   1      12.747  25.532  43.414  1.00  0.00    +0.000 O 
BRANCH    3    2
ATOM      2  C2  UNL A   1      14.780  25.405  42.054  1.00  0.00    +0.000 C 
ATOM     94  H4  UNL A   1      15.794  25.258  42.361  1.00  0.00    +0.000 H 
BRANCH    2    1
ATOM      1  C1  UNL A   1      14.714  26.561  41.047  1.00  0.00    +0.000 C 
ATOM     91  H1  UNL A   1      14.324  27.433  41.530  1.00  0.00    +0.000 H 
ATOM     92  H2  UNL A   1      14.075  26.290  40.234  1.00  0.00    +0.000 H 
ATOM     93  H3  UNL A   1      15.695  26.768  40.676  1.00  0.00    +0.000 H 
ENDBRANCH    2    1
BRANCH    2   78
ATOM    129  H39 UNL A   1      14.696  22.910  43.179  1.00  0.00    +0.000 H 
ATOM     78  C55 UNL A   1      14.382  24.056  41.434  1.00  0.00    +0.000 C 
ATOM     79  C56 UNL A   1      14.054  23.941  40.072  1.00  0.00    +0.000 C 
ATOM     80  C57 UNL A   1      13.645  22.720  39.523  1.00  0.00    +0.000 C 
ATOM     81  C58 UNL A   1      13.570  21.571  40.316  1.00  0.00    +0.000 C 
ATOM     89  C64 UNL A   1      13.973  21.651  41.652  1.00  0.00    +0.000 C 
ATOM     90  C65 UNL A   1      14.384  22.875  42.196  1.00  0.00    +0.000 C 
ATOM    123  H33 UNL A   1      14.116  24.773  39.465  1.00  0.00    +0.000 H 
ATOM    124  H34 UNL A   1      13.395  22.668  38.524  1.00  0.00    +0.000 H 
ATOM    128  H38 UNL A   1      13.967  20.804  42.241  1.00  0.00    +0.000 H 
BRANCH   81   82
ATOM     82  C59 UNL A   1      13.109  20.295  39.680  1.00  0.00    +0.000 C 
ATOM     83  O3  UNL A   1      13.728  19.883  38.700  1.00  0.00    +0.000 O 
BRANCH   82   84
ATOM     84  C60 UNL A   1      11.970  19.590  40.240  1.00  0.00    +0.000 C 
ATOM     85  C61 UNL A   1      11.288  19.811  41.423  1.00  0.00    +0.000 C 
ATOM     86  C62 UNL A   1      10.234  18.870  41.620  1.00  0.00    +0.000 C 
ATOM     87  C63 UNL A   1      10.138  17.977  40.576  1.00  0.00    +0.000 C 
ATOM     88  S1  UNL A   1      11.295  18.289  39.356  1.00  0.00    +0.000 S 
ATOM    125  H35 UNL A   1      11.516  20.568  42.086  1.00  0.00    +0.000 H 
ATOM    126  H36 UNL A   1       9.617  18.859  42.447  1.00  0.00    +0.000 H 
ATOM    127  H37 UNL A   1       9.449  17.211  40.535  1.00  0.00    +0.000 H 
ENDBRANCH   82   84
ENDBRANCH   81   82
ENDBRANCH    2   78
ENDBRANCH    3    2
ENDBRANCH    5    3
ENDBRANCH    6    5
ENDBRANCH    7    6
ENDBRANCH    8    7
ENDBRANCH    9    8
ENDBRANCH   10    9
ENDBRANCH   11   10
ENDBRANCH   12   11
ENDBRANCH   13   12
ENDBRANCH   15   13
ENDBRANCH   19   18
BRANCH   23   24
ATOM     33  C24 UNL A   1      24.477  41.483  48.833  1.00  0.00    +0.000 C 
ATOM     34  F5  UNL A   1      24.500  41.779  47.524  1.00  0.00    +0.000 F 
ATOM     24  C19 UNL A   1      25.337  40.505  49.352  1.00  0.00    +0.000 C 
ATOM     25  C20 UNL A   1      25.275  40.239  50.729  1.00  0.00    +0.000 C 
ATOM     26  F1  UNL A   1      26.069  39.303  51.271  1.00  0.00    +0.000 F 
ATOM     27  C21 UNL A   1      24.360  40.899  51.545  1.00  0.00    +0.000 C 
ATOM     28  F2  UNL A   1      24.280  40.588  52.846  1.00  0.00    +0.000 F 
ATOM     29  C22 UNL A   1      23.520  41.864  51.010  1.00  0.00    +0.000 C 
ATOM     30  F3  UNL A   1      22.640  42.498  51.796  1.00  0.00    +0.000 F 
ATOM     31  C23 UNL A   1      23.584  42.163  49.657  1.00  0.00    +0.000 C 
ATOM     32  F4  UNL A   1      22.779  43.102  49.141  1.00  0.00    +0.000 F 
ENDBRANCH   23   24
BRANCH   40   41
ATOM     41  C30 UNL A   1      32.123  41.181  47.016  1.00  0.00    +0.000 C 
ATOM     42  C31 UNL A   1      33.230  40.768  47.772  1.00  0.00    +0.000 C 
ATOM     43  F6  UNL A   1      33.231  39.564  48.364  1.00  0.00    +0.000 F 
ATOM     44  C32 UNL A   1      34.328  41.605  47.944  1.00  0.00    +0.000 C 
ATOM     45  F7  UNL A   1      35.363  41.204  48.697  1.00  0.00    +0.000 F 
ATOM     46  C33 UNL A   1      34.354  42.855  47.344  1.00  0.00    +0.000 C 
ATOM     47  F8  UNL A   1      35.417  43.655  47.502  1.00  0.00    +0.000 F 
ATOM     48  C34 UNL A   1      33.274  43.280  46.585  1.00  0.00    +0.000 C 
ATOM     49  F9  UNL A   1      33.301  44.483  45.995  1.00  0.00    +0.000 F 
ATOM     50  C35 UNL A   1      32.163  42.456  46.430  1.00  0.00    +0.000 C 
ATOM     51  F10 UNL A   1      31.131  42.893  45.695  1.00  0.00    +0.000 F 
ENDBRANCH   40   41
BRANCH   55   56
ATOM     65  C44 UNL A   1      31.318  36.003  41.646  1.00  0.00    +0.000 C 
ATOM     66  F15 UNL A   1      30.637  37.085  41.242  1.00  0.00    +0.000 F 
ATOM     56  C39 UNL A   1      31.224  35.570  42.975  1.00  0.00    +0.000 C 
ATOM     57  C40 UNL A   1      31.950  34.430  43.347  1.00  0.00    +0.000 C 
ATOM     58  F11 UNL A   1      31.904  33.990  44.612  1.00  0.00    +0.000 F 
ATOM     59  C41 UNL A   1      32.749  33.756  42.426  1.00  0.00    +0.000 C 
ATOM     60  F12 UNL A   1      33.457  32.687  42.813  1.00  0.00    +0.000 F 
ATOM     61  C42 UNL A   1      32.818  34.194  41.112  1.00  0.00    +0.000 C 
ATOM     62  F13 UNL A   1      33.578  33.540  40.224  1.00  0.00    +0.000 F 
ATOM     63  C43 UNL A   1      32.100  35.315  40.720  1.00  0.00    +0.000 C 
ATOM     64  F14 UNL A   1      32.154  35.733  39.448  1.00  0.00    +0.000 F 
ENDBRANCH   55   56
TORSDOF 19
ENDMDL
MODEL 7
REMARK VINA RESULT:      -9.6     43.330     46.582
ROOT
ATOM     19  C15 UNL A   1      29.021 -14.046  31.410  1.00  0.00    +0.000 C 
ATOM     20  C16 UNL A   1      28.715 -14.106  32.879  1.00  0.00    +0.000 C 
ATOM     21  N3  UNL A   1      27.663 -13.673  33.526  1.00  0.00    +0.000 N 
ATOM     22  C17 UNL A   1      27.857 -14.045  34.850  1.00  0.00    +0.000 C 
ATOM     23  C18 UNL A   1      27.071 -13.789  35.922  1.00  0.00    +0.000 C 
ATOM     35  C25 UNL A   1      25.849 -13.032  35.866  1.00  0.00    +0.000 C 
ATOM     36  C26 UNL A   1      25.011 -12.666  36.905  1.00  0.00    +0.000 C 
ATOM     37  C27 UNL A   1      23.931 -11.959  36.366  1.00  0.00    +0.000 C 
ATOM     38  C28 UNL A   1      24.117 -11.850  34.998  1.00  0.00    +0.000 C 
ATOM     39  N4  UNL A   1      25.293 -12.519  34.703  1.00  0.00    +0.000 N 
ATOM     40  C29 UNL A   1      23.284 -11.184  34.030  1.00  0.00    +0.000 C 
ATOM     52  C36 UNL A   1      23.527 -11.128  32.697  1.00  0.00    +0.000 C 
ATOM     53  N5  UNL A   1      24.593 -11.657  31.983  1.00  0.00    +0.000 N 
ATOM     54  C37 UNL A   1      24.381 -11.338  30.730  1.00  0.00    +0.000 C 
ATOM     55  C38 UNL A   1      25.229 -11.630  29.521  1.00  0.00    +0.000 C 
ATOM     67  C45 UNL A   1      26.409 -12.258  29.679  1.00  0.00    +0.000 C 
ATOM     68  C46 UNL A   1      27.331 -12.615  28.604  1.00  0.00    +0.000 C 
ATOM     69  C47 UNL A   1      28.362 -13.302  29.121  1.00  0.00    +0.000 C 
ATOM     70  C48 UNL A   1      28.192 -13.400  30.571  1.00  0.00    +0.000 C 
ATOM     71  N6  UNL A   1      27.023 -12.724  30.816  1.00  0.00    +0.000 N 
ATOM     72  C49 UNL A   1      23.134 -10.595  30.501  1.00  0.00    +0.000 C 
ATOM     73  C50 UNL A   1      22.668 -10.466  31.737  1.00  0.00    +0.000 C 
ATOM     74  C51 UNL A   1      29.108 -14.770  34.907  1.00  0.00    +0.000 C 
ATOM     75  C52 UNL A   1      29.713 -14.772  33.729  1.00  0.00    +0.000 C 
ATOM    111  H21 UNL A   1      25.158 -12.877  37.904  1.00  0.00    +0.000 H 
ATOM    112  H22 UNL A   1      23.130 -11.584  36.898  1.00  0.00    +0.000 H 
ATOM    113  H23 UNL A   1      25.679 -12.616  33.802  1.00  0.00    +0.000 H 
ATOM    114  H24 UNL A   1      27.209 -12.378  27.607  1.00  0.00    +0.000 H 
ATOM    115  H25 UNL A   1      29.149 -13.697  28.582  1.00  0.00    +0.000 H 
ATOM    116  H26 UNL A   1      26.659 -12.586  31.721  1.00  0.00    +0.000 H 
ATOM    117  H27 UNL A   1      22.727 -10.261  29.614  1.00  0.00    +0.000 H 
ATOM    118  H28 UNL A   1      21.804  -9.958  31.983  1.00  0.00    +0.000 H 
ATOM    119  H29 UNL A   1      29.479 -15.227  35.755  1.00  0.00    +0.000 H 
ATOM    120  H30 UNL A   1      30.642 -15.144  33.474  1.00  0.00    +0.000 H 
ENDROOT
BRANCH   19   18
ATOM     76  C53 UNL A   1      31.469 -14.216  30.999  1.00  0.00    +0.000 C 
ATOM    109  H19 UNL A   1      31.068 -17.625  29.302  1.00  0.00    +0.000 H 
ATOM     77  C54 UNL A   1      32.581 -14.866  30.474  1.00  0.00    +0.000 C 
ATOM     15  C11 UNL A   1      32.439 -16.136  29.906  1.00  0.00    +0.000 C 
ATOM     16  C12 UNL A   1      31.172 -16.705  29.759  1.00  0.00    +0.000 C 
ATOM     17  C13 UNL A   1      30.048 -16.025  30.230  1.00  0.00    +0.000 C 
ATOM    110  H20 UNL A   1      29.109 -16.432  30.103  1.00  0.00    +0.000 H 
ATOM     18  C14 UNL A   1      30.192 -14.787  30.877  1.00  0.00    +0.000 C 
ATOM    121  H31 UNL A   1      31.582 -13.311  31.480  1.00  0.00    +0.000 H 
ATOM    122  H32 UNL A   1      33.508 -14.412  30.502  1.00  0.00    +0.000 H 
BRANCH   15   13
ATOM     13  C10 UNL A   1      33.626 -16.893  29.456  1.00  0.00    +0.000 C 
ATOM     14  O2  UNL A   1      34.136 -17.728  30.197  1.00  0.00    +0.000 O 
BRANCH   13   12
ATOM    108  H18 UNL A   1      35.132 -16.775  28.135  1.00  0.00    +0.000 H 
ATOM     12  N2  UNL A   1      34.160 -16.640  28.217  1.00  0.00    +0.000 N 
BRANCH   12   11
ATOM    106  H16 UNL A   1      33.817 -16.799  26.188  1.00  0.00    +0.000 H 
ATOM     11  C9  UNL A   1      33.480 -16.200  27.009  1.00  0.00    +0.000 C 
ATOM    107  H17 UNL A   1      32.428 -16.308  27.168  1.00  0.00    +0.000 H 
BRANCH   11   10
ATOM    105  H15 UNL A   1      33.975 -14.688  25.645  1.00  0.00    +0.000 H 
ATOM     10  C8  UNL A   1      33.755 -14.734  26.691  1.00  0.00    +0.000 C 
ATOM    104  H14 UNL A   1      34.567 -14.407  27.307  1.00  0.00    +0.000 H 
BRANCH   10    9
ATOM      9  C7  UNL A   1      32.571 -13.795  26.927  1.00  0.00    +0.000 C 
ATOM    102  H12 UNL A   1      32.266 -13.403  25.980  1.00  0.00    +0.000 H 
ATOM    103  H13 UNL A   1      31.816 -14.381  27.407  1.00  0.00    +0.000 H 
BRANCH    9    8
ATOM    100  H10 UNL A   1      33.162 -13.010  28.807  1.00  0.00    +0.000 H 
ATOM    101  H11 UNL A   1      33.610 -12.031  27.375  1.00  0.00    +0.000 H 
ATOM      8  C6  UNL A   1      32.856 -12.616  27.860  1.00  0.00    +0.000 C 
BRANCH    8    7
ATOM     98  H8  UNL A   1      31.741 -10.863  27.402  1.00  0.00    +0.000 H 
ATOM     99  H9  UNL A   1      30.786 -12.255  27.984  1.00  0.00    +0.000 H 
ATOM      7  C5  UNL A   1      31.674 -11.668  28.103  1.00  0.00    +0.000 C 
BRANCH    7    6
ATOM     97  H7  UNL A   1      32.427 -11.464  30.089  1.00  0.00    +0.000 H 
ATOM      6  C4  UNL A   1      31.614 -11.071  29.515  1.00  0.00    +0.000 C 
ATOM     96  H6  UNL A   1      30.679 -11.332  29.967  1.00  0.00    +0.000 H 
BRANCH    6    5
ATOM      5  N1  UNL A   1      31.733  -9.627  29.469  1.00  0.00    +0.000 N 
ATOM     95  H5  UNL A   1      32.387  -9.263  28.829  1.00  0.00    +0.000 H 
BRANCH    5    3
ATOM      3  C3  UNL A   1      31.040  -8.710  30.213  1.00  0.00    +0.000 C 
ATOM      4  O1  UNL A   1      31.665  -8.125  31.100  1.00  0.00    +0.000 O 
BRANCH    3    2
ATOM      2  C2  UNL A   1      29.537  -8.490  29.941  1.00  0.00    +0.000 C 
ATOM     94  H4  UNL A   1      29.280  -7.499  30.251  1.00  0.00    +0.000 H 
BRANCH    2    1
ATOM      1  C1  UNL A   1      28.737  -9.507  30.766  1.00  0.00    +0.000 C 
ATOM     91  H1  UNL A   1      28.961 -10.497  30.427  1.00  0.00    +0.000 H 
ATOM     92  H2  UNL A   1      27.691  -9.319  30.647  1.00  0.00    +0.000 H 
ATOM     93  H3  UNL A   1      29.001  -9.416  31.799  1.00  0.00    +0.000 H 
ENDBRANCH    2    1
BRANCH    2   78
ATOM    129  H39 UNL A   1      28.530 -10.529  28.417  1.00  0.00    +0.000 H 
ATOM     78  C55 UNL A   1      29.169  -8.518  28.448  1.00  0.00    +0.000 C 
ATOM     79  C56 UNL A   1      29.398  -7.411  27.614  1.00  0.00    +0.000 C 
ATOM     80  C57 UNL A   1      29.016  -7.423  26.268  1.00  0.00    +0.000 C 
ATOM     81  C58 UNL A   1      28.410  -8.552  25.709  1.00  0.00    +0.000 C 
ATOM     89  C64 UNL A   1      28.252  -9.690  26.504  1.00  0.00    +0.000 C 
ATOM     90  C65 UNL A   1      28.638  -9.673  27.851  1.00  0.00    +0.000 C 
ATOM    123  H33 UNL A   1      29.858  -6.572  28.001  1.00  0.00    +0.000 H 
ATOM    124  H34 UNL A   1      29.183  -6.590  25.682  1.00  0.00    +0.000 H 
ATOM    128  H38 UNL A   1      27.847 -10.548  26.097  1.00  0.00    +0.000 H 
BRANCH   81   82
ATOM     82  C59 UNL A   1      28.005  -8.504  24.267  1.00  0.00    +0.000 C 
ATOM     83  O3  UNL A   1      27.370  -9.456  23.815  1.00  0.00    +0.000 O 
BRANCH   82   84
ATOM     84  C60 UNL A   1      28.361  -7.348  23.465  1.00  0.00    +0.000 C 
ATOM     85  C61 UNL A   1      27.695  -6.147  23.299  1.00  0.00    +0.000 C 
ATOM     86  C62 UNL A   1      28.372  -5.277  22.395  1.00  0.00    +0.000 C 
ATOM     87  C63 UNL A   1      29.537  -5.836  21.915  1.00  0.00    +0.000 C 
ATOM     88  S1  UNL A   1      29.822  -7.388  22.573  1.00  0.00    +0.000 S 
ATOM    125  H35 UNL A   1      26.812  -5.909  23.775  1.00  0.00    +0.000 H 
ATOM    126  H36 UNL A   1      28.030  -4.340  22.130  1.00  0.00    +0.000 H 
ATOM    127  H37 UNL A   1      30.162  -5.372  21.239  1.00  0.00    +0.000 H 
ENDBRANCH   82   84
ENDBRANCH   81   82
ENDBRANCH    2   78
ENDBRANCH    3    2
ENDBRANCH    5    3
ENDBRANCH    6    5
ENDBRANCH    7    6
ENDBRANCH    8    7
ENDBRANCH    9    8
ENDBRANCH   10    9
ENDBRANCH   11   10
ENDBRANCH   12   11
ENDBRANCH   13   12
ENDBRANCH   15   13
ENDBRANCH   19   18
BRANCH   23   24
ATOM     33  C24 UNL A   1      28.562 -13.740  37.952  1.00  0.00    +0.000 C 
ATOM     34  F5  UNL A   1      29.181 -12.659  37.454  1.00  0.00    +0.000 F 
ATOM     24  C19 UNL A   1      27.511 -14.342  37.246  1.00  0.00    +0.000 C 
ATOM     25  C20 UNL A   1      26.903 -15.474  37.812  1.00  0.00    +0.000 C 
ATOM     26  F1  UNL A   1      25.884 -16.078  37.181  1.00  0.00    +0.000 F 
ATOM     27  C21 UNL A   1      27.306 -15.957  39.054  1.00  0.00    +0.000 C 
ATOM     28  F2  UNL A   1      26.671 -17.004  39.600  1.00  0.00    +0.000 F 
ATOM     29  C22 UNL A   1      28.348 -15.346  39.734  1.00  0.00    +0.000 C 
ATOM     30  F3  UNL A   1      28.734 -15.813  40.929  1.00  0.00    +0.000 F 
ATOM     31  C23 UNL A   1      28.983 -14.245  39.180  1.00  0.00    +0.000 C 
ATOM     32  F4  UNL A   1      29.997 -13.659  39.832  1.00  0.00    +0.000 F 
ENDBRANCH   23   24
BRANCH   40   41
ATOM     41  C30 UNL A   1      22.065 -10.474  34.538  1.00  0.00    +0.000 C 
ATOM     42  C31 UNL A   1      20.797 -11.073  34.504  1.00  0.00    +0.000 C 
ATOM     43  F6  UNL A   1      20.636 -12.281  33.943  1.00  0.00    +0.000 F 
ATOM     44  C32 UNL A   1      19.685 -10.417  35.023  1.00  0.00    +0.000 C 
ATOM     45  F7  UNL A   1      18.476 -10.992  34.952  1.00  0.00    +0.000 F 
ATOM     46  C33 UNL A   1      19.822  -9.167  35.608  1.00  0.00    +0.000 C 
ATOM     47  F8  UNL A   1      18.751  -8.541  36.116  1.00  0.00    +0.000 F 
ATOM     48  C34 UNL A   1      21.068  -8.560  35.660  1.00  0.00    +0.000 C 
ATOM     49  F9  UNL A   1      21.205  -7.357  36.234  1.00  0.00    +0.000 F 
ATOM     50  C35 UNL A   1      22.179  -9.203  35.121  1.00  0.00    +0.000 C 
ATOM     51  F10 UNL A   1      23.371  -8.592  35.181  1.00  0.00    +0.000 F 
ENDBRANCH   40   41
BRANCH   55   56
ATOM     65  C44 UNL A   1      25.039  -9.908  27.694  1.00  0.00    +0.000 C 
ATOM     66  F15 UNL A   1      25.686  -9.022  28.466  1.00  0.00    +0.000 F 
ATOM     56  C39 UNL A   1      24.799 -11.205  28.165  1.00  0.00    +0.000 C 
ATOM     57  C40 UNL A   1      24.113 -12.091  27.323  1.00  0.00    +0.000 C 
ATOM     58  F11 UNL A   1      23.876 -13.348  27.725  1.00  0.00    +0.000 F 
ATOM     59  C41 UNL A   1      23.694 -11.698  26.054  1.00  0.00    +0.000 C 
ATOM     60  F12 UNL A   1      23.067 -12.573  25.256  1.00  0.00    +0.000 F 
ATOM     61  C42 UNL A   1      23.931 -10.405  25.613  1.00  0.00    +0.000 C 
ATOM     62  F13 UNL A   1      23.520 -10.022  24.397  1.00  0.00    +0.000 F 
ATOM     63  C43 UNL A   1      24.600  -9.507  26.433  1.00  0.00    +0.000 C 
ATOM     64  F14 UNL A   1      24.820  -8.253  26.016  1.00  0.00    +0.000 F 
ENDBRANCH   55   56
TORSDOF 19
ENDMDL
MODEL 8
REMARK VINA RESULT:      -9.6     55.587     61.542
ROOT
ATOM     19  C15 UNL A   1       1.087  10.028  36.881  1.00  0.00    +0.000 C 
ATOM     20  C16 UNL A   1       1.264  11.296  37.668  1.00  0.00    +0.000 C 
ATOM     21  N3  UNL A   1       0.390  12.229  37.947  1.00  0.00    +0.000 N 
ATOM     22  C17 UNL A   1       1.056  13.137  38.759  1.00  0.00    +0.000 C 
ATOM     23  C18 UNL A   1       0.597  14.301  39.276  1.00  0.00    +0.000 C 
ATOM     35  C25 UNL A   1      -0.721  14.826  39.041  1.00  0.00    +0.000 C 
ATOM     36  C26 UNL A   1      -1.262  16.025  39.469  1.00  0.00    +0.000 C 
ATOM     37  C27 UNL A   1      -2.585  16.092  39.020  1.00  0.00    +0.000 C 
ATOM     38  C28 UNL A   1      -2.854  14.954  38.276  1.00  0.00    +0.000 C 
ATOM     39  N4  UNL A   1      -1.705  14.183  38.303  1.00  0.00    +0.000 N 
ATOM     40  C29 UNL A   1      -4.070  14.597  37.591  1.00  0.00    +0.000 C 
ATOM     52  C36 UNL A   1      -4.263  13.454  36.889  1.00  0.00    +0.000 C 
ATOM     53  N5  UNL A   1      -3.374  12.413  36.657  1.00  0.00    +0.000 N 
ATOM     54  C37 UNL A   1      -4.024  11.541  35.925  1.00  0.00    +0.000 C 
ATOM     55  C38 UNL A   1      -3.541  10.233  35.358  1.00  0.00    +0.000 C 
ATOM     67  C45 UNL A   1      -2.260   9.866  35.544  1.00  0.00    +0.000 C 
ATOM     68  C46 UNL A   1      -1.653   8.628  35.063  1.00  0.00    +0.000 C 
ATOM     69  C47 UNL A   1      -0.387   8.559  35.504  1.00  0.00    +0.000 C 
ATOM     70  C48 UNL A   1      -0.081   9.770  36.267  1.00  0.00    +0.000 C 
ATOM     71  N6  UNL A   1      -1.240  10.502  36.210  1.00  0.00    +0.000 N 
ATOM     72  C49 UNL A   1      -5.415  11.916  35.636  1.00  0.00    +0.000 C 
ATOM     73  C50 UNL A   1      -5.499  13.106  36.219  1.00  0.00    +0.000 C 
ATOM     74  C51 UNL A   1       2.395  12.624  38.958  1.00  0.00    +0.000 C 
ATOM     75  C52 UNL A   1       2.597  11.526  38.246  1.00  0.00    +0.000 C 
ATOM    111  H21 UNL A   1      -0.775  16.746  40.024  1.00  0.00    +0.000 H 
ATOM    112  H22 UNL A   1      -3.249  16.859  39.210  1.00  0.00    +0.000 H 
ATOM    113  H23 UNL A   1      -1.600  13.307  37.865  1.00  0.00    +0.000 H 
ATOM    114  H24 UNL A   1      -2.123   7.918  34.479  1.00  0.00    +0.000 H 
ATOM    115  H25 UNL A   1       0.267   7.779  35.332  1.00  0.00    +0.000 H 
ATOM    116  H26 UNL A   1      -1.333  11.398  36.609  1.00  0.00    +0.000 H 
ATOM    117  H27 UNL A   1      -6.137  11.394  35.116  1.00  0.00    +0.000 H 
ATOM    118  H28 UNL A   1      -6.338  13.705  36.198  1.00  0.00    +0.000 H 
ATOM    119  H29 UNL A   1       3.099  13.057  39.576  1.00  0.00    +0.000 H 
ATOM    120  H30 UNL A   1       3.462  10.976  38.127  1.00  0.00    +0.000 H 
ENDROOT
BRANCH   19   18
ATOM     76  C53 UNL A   1       2.237   8.075  37.906  1.00  0.00    +0.000 C 
ATOM    109  H19 UNL A   1       4.863   8.007  35.120  1.00  0.00    +0.000 H 
ATOM     77  C54 UNL A   1       3.267   7.141  37.946  1.00  0.00    +0.000 C 
ATOM     15  C11 UNL A   1       4.191   7.082  36.898  1.00  0.00    +0.000 C 
ATOM     16  C12 UNL A   1       4.154   8.029  35.871  1.00  0.00    +0.000 C 
ATOM     17  C13 UNL A   1       3.156   9.006  35.864  1.00  0.00    +0.000 C 
ATOM    110  H20 UNL A   1       3.140   9.719  35.119  1.00  0.00    +0.000 H 
ATOM     18  C14 UNL A   1       2.175   9.019  36.869  1.00  0.00    +0.000 C 
ATOM    121  H31 UNL A   1       1.515   8.075  38.643  1.00  0.00    +0.000 H 
ATOM    122  H32 UNL A   1       3.350   6.495  38.747  1.00  0.00    +0.000 H 
BRANCH   15   13
ATOM     13  C10 UNL A   1       5.217   6.019  36.861  1.00  0.00    +0.000 C 
ATOM     14  O2  UNL A   1       5.545   5.523  35.787  1.00  0.00    +0.000 O 
BRANCH   13   12
ATOM    108  H18 UNL A   1       5.642   4.629  38.244  1.00  0.00    +0.000 H 
ATOM     12  N2  UNL A   1       5.780   5.581  38.034  1.00  0.00    +0.000 N 
BRANCH   12   11
ATOM    106  H16 UNL A   1       5.896   7.005  39.523  1.00  0.00    +0.000 H 
ATOM     11  C9  UNL A   1       6.553   6.336  39.007  1.00  0.00    +0.000 C 
ATOM    107  H17 UNL A   1       7.007   5.637  39.677  1.00  0.00    +0.000 H 
BRANCH   11   10
ATOM    105  H15 UNL A   1       7.792   6.754  37.370  1.00  0.00    +0.000 H 
ATOM     10  C8  UNL A   1       7.667   7.148  38.356  1.00  0.00    +0.000 C 
ATOM    104  H14 UNL A   1       8.545   7.054  38.962  1.00  0.00    +0.000 H 
BRANCH   10    9
ATOM      9  C7  UNL A   1       7.361   8.638  38.191  1.00  0.00    +0.000 C 
ATOM    102  H12 UNL A   1       8.252   9.186  38.415  1.00  0.00    +0.000 H 
ATOM    103  H13 UNL A   1       7.027   8.764  37.183  1.00  0.00    +0.000 H 
BRANCH    9    8
ATOM    100  H10 UNL A   1       5.305   8.865  38.660  1.00  0.00    +0.000 H 
ATOM    101  H11 UNL A   1       6.420   8.768  40.059  1.00  0.00    +0.000 H 
ATOM      8  C6  UNL A   1       6.239   9.171  39.084  1.00  0.00    +0.000 C 
BRANCH    8    7
ATOM     98  H8  UNL A   1       5.536  11.099  38.523  1.00  0.00    +0.000 H 
ATOM     99  H9  UNL A   1       5.881  10.880  40.261  1.00  0.00    +0.000 H 
ATOM      7  C5  UNL A   1       6.203  10.696  39.256  1.00  0.00    +0.000 C 
BRANCH    7    6
ATOM     97  H7  UNL A   1       7.599  11.862  38.142  1.00  0.00    +0.000 H 
ATOM      6  C4  UNL A   1       7.562  11.389  39.101  1.00  0.00    +0.000 C 
ATOM     96  H6  UNL A   1       8.340  10.659  39.185  1.00  0.00    +0.000 H 
BRANCH    6    5
ATOM      5  N1  UNL A   1       7.745  12.400  40.125  1.00  0.00    +0.000 N 
ATOM     95  H5  UNL A   1       7.896  12.070  41.040  1.00  0.00    +0.000 H 
BRANCH    5    3
ATOM      3  C3  UNL A   1       7.733  13.759  39.965  1.00  0.00    +0.000 C 
ATOM      4  O1  UNL A   1       8.740  14.270  39.472  1.00  0.00    +0.000 O 
BRANCH    3    2
ATOM      2  C2  UNL A   1       6.509  14.569  40.437  1.00  0.00    +0.000 C 
ATOM     94  H4  UNL A   1       5.755  14.514  39.680  1.00  0.00    +0.000 H 
BRANCH    2    1
ATOM      1  C1  UNL A   1       6.934  16.031  40.629  1.00  0.00    +0.000 C 
ATOM     91  H1  UNL A   1       7.998  16.083  40.735  1.00  0.00    +0.000 H 
ATOM     92  H2  UNL A   1       6.470  16.425  41.508  1.00  0.00    +0.000 H 
ATOM     93  H3  UNL A   1       6.633  16.605  39.778  1.00  0.00    +0.000 H 
ENDBRANCH    2    1
BRANCH    2   78
ATOM    129  H39 UNL A   1       6.901  15.135  43.087  1.00  0.00    +0.000 H 
ATOM     78  C55 UNL A   1       5.824  13.983  41.684  1.00  0.00    +0.000 C 
ATOM     79  C56 UNL A   1       4.882  12.946  41.585  1.00  0.00    +0.000 C 
ATOM     80  C57 UNL A   1       4.225  12.450  42.718  1.00  0.00    +0.000 C 
ATOM     81  C58 UNL A   1       4.505  12.964  43.987  1.00  0.00    +0.000 C 
ATOM     89  C64 UNL A   1       5.501  13.938  44.110  1.00  0.00    +0.000 C 
ATOM     90  C65 UNL A   1       6.156  14.429  42.974  1.00  0.00    +0.000 C 
ATOM    123  H33 UNL A   1       4.670  12.540  40.660  1.00  0.00    +0.000 H 
ATOM    124  H34 UNL A   1       3.526  11.698  42.614  1.00  0.00    +0.000 H 
ATOM    128  H38 UNL A   1       5.753  14.298  45.044  1.00  0.00    +0.000 H 
BRANCH   81   82
ATOM     82  C59 UNL A   1       3.760  12.409  45.162  1.00  0.00    +0.000 C 
ATOM     83  O3  UNL A   1       2.596  12.049  44.989  1.00  0.00    +0.000 O 
BRANCH   82   84
ATOM     84  C60 UNL A   1       4.430  12.304  46.446  1.00  0.00    +0.000 C 
ATOM     85  C61 UNL A   1       5.234  11.295  46.944  1.00  0.00    +0.000 C 
ATOM     86  C62 UNL A   1       5.677  11.567  48.272  1.00  0.00    +0.000 C 
ATOM     87  C63 UNL A   1       5.210  12.778  48.734  1.00  0.00    +0.000 C 
ATOM     88  S1  UNL A   1       4.266  13.591  47.563  1.00  0.00    +0.000 S 
ATOM    125  H35 UNL A   1       5.485  10.445  46.416  1.00  0.00    +0.000 H 
ATOM    126  H36 UNL A   1       6.276  10.932  48.822  1.00  0.00    +0.000 H 
ATOM    127  H37 UNL A   1       5.407  13.150  49.675  1.00  0.00    +0.000 H 
ENDBRANCH   82   84
ENDBRANCH   81   82
ENDBRANCH    2   78
ENDBRANCH    3    2
ENDBRANCH    5    3
ENDBRANCH    6    5
ENDBRANCH    7    6
ENDBRANCH    8    7
ENDBRANCH    9    8
ENDBRANCH   10    9
ENDBRANCH   11   10
ENDBRANCH   12   11
ENDBRANCH   13   12
ENDBRANCH   15   13
ENDBRANCH   19   18
BRANCH   23   24
ATOM     33  C24 UNL A   1       1.549  14.864  41.540  1.00  0.00    +0.000 C 
ATOM     34  F5  UNL A   1       0.732  13.955  42.094  1.00  0.00    +0.000 F 
ATOM     24  C19 UNL A   1       1.533  15.079  40.155  1.00  0.00    +0.000 C 
ATOM     25  C20 UNL A   1       2.404  16.046  39.630  1.00  0.00    +0.000 C 
ATOM     26  F1  UNL A   1       2.436  16.279  38.309  1.00  0.00    +0.000 F 
ATOM     27  C21 UNL A   1       3.285  16.740  40.455  1.00  0.00    +0.000 C 
ATOM     28  F2  UNL A   1       4.148  17.616  39.924  1.00  0.00    +0.000 F 
ATOM     29  C22 UNL A   1       3.283  16.511  41.823  1.00  0.00    +0.000 C 
ATOM     30  F3  UNL A   1       4.132  17.180  42.616  1.00  0.00    +0.000 F 
ATOM     31  C23 UNL A   1       2.410  15.582  42.367  1.00  0.00    +0.000 C 
ATOM     32  F4  UNL A   1       2.401  15.367  43.690  1.00  0.00    +0.000 F 
ENDBRANCH   23   24
BRANCH   40   41
ATOM     41  C30 UNL A   1      -5.203  15.578  37.636  1.00  0.00    +0.000 C 
ATOM     42  C31 UNL A   1      -5.495  16.415  36.550  1.00  0.00    +0.000 C 
ATOM     43  F6  UNL A   1      -4.711  16.405  35.461  1.00  0.00    +0.000 F 
ATOM     44  C32 UNL A   1      -6.579  17.287  36.593  1.00  0.00    +0.000 C 
ATOM     45  F7  UNL A   1      -6.822  18.103  35.558  1.00  0.00    +0.000 F 
ATOM     46  C33 UNL A   1      -7.405  17.319  37.707  1.00  0.00    +0.000 C 
ATOM     47  F8  UNL A   1      -8.454  18.151  37.741  1.00  0.00    +0.000 F 
ATOM     48  C34 UNL A   1      -7.139  16.493  38.789  1.00  0.00    +0.000 C 
ATOM     49  F9  UNL A   1      -7.943  16.514  39.861  1.00  0.00    +0.000 F 
ATOM     50  C35 UNL A   1      -6.042  15.636  38.760  1.00  0.00    +0.000 C 
ATOM     51  F10 UNL A   1      -5.807  14.852  39.820  1.00  0.00    +0.000 F 
ENDBRANCH   40   41
BRANCH   55   56
ATOM     65  C44 UNL A   1      -4.620   9.542  33.190  1.00  0.00    +0.000 C 
ATOM     66  F15 UNL A   1      -3.946  10.509  32.550  1.00  0.00    +0.000 F 
ATOM     56  C39 UNL A   1      -4.448   9.361  34.569  1.00  0.00    +0.000 C 
ATOM     57  C40 UNL A   1      -5.180   8.342  35.193  1.00  0.00    +0.000 C 
ATOM     58  F11 UNL A   1      -5.034   8.121  36.507  1.00  0.00    +0.000 F 
ATOM     59  C41 UNL A   1      -6.043   7.527  34.463  1.00  0.00    +0.000 C 
ATOM     60  F12 UNL A   1      -6.709   6.540  35.077  1.00  0.00    +0.000 F 
ATOM     61  C42 UNL A   1      -6.208   7.732  33.101  1.00  0.00    +0.000 C 
ATOM     62  F13 UNL A   1      -7.045   6.955  32.401  1.00  0.00    +0.000 F 
ATOM     63  C43 UNL A   1      -5.500   8.741  32.465  1.00  0.00    +0.000 C 
ATOM     64  F14 UNL A   1      -5.667   8.951  31.152  1.00  0.00    +0.000 F 
ENDBRANCH   55   56
TORSDOF 19
ENDMDL
MODEL 9
REMARK VINA RESULT:      -9.5     43.245     46.547
ROOT
ATOM     19  C15 UNL A   1      28.868 -14.043  31.345  1.00  0.00    +0.000 C 
ATOM     20  C16 UNL A   1      28.614 -14.115  32.824  1.00  0.00    +0.000 C 
ATOM     21  N3  UNL A   1      27.594 -13.671  33.513  1.00  0.00    +0.000 N 
ATOM     22  C17 UNL A   1      27.829 -14.061  34.825  1.00  0.00    +0.000 C 
ATOM     23  C18 UNL A   1      27.087 -13.804  35.928  1.00  0.00    +0.000 C 
ATOM     35  C25 UNL A   1      25.879 -13.024  35.925  1.00  0.00    +0.000 C 
ATOM     36  C26 UNL A   1      25.086 -12.655  36.998  1.00  0.00    +0.000 C 
ATOM     37  C27 UNL A   1      24.000 -11.923  36.507  1.00  0.00    +0.000 C 
ATOM     38  C28 UNL A   1      24.139 -11.800  35.133  1.00  0.00    +0.000 C 
ATOM     39  N4  UNL A   1      25.291 -12.487  34.789  1.00  0.00    +0.000 N 
ATOM     40  C29 UNL A   1      23.283 -11.108  34.203  1.00  0.00    +0.000 C 
ATOM     52  C36 UNL A   1      23.479 -11.041  32.864  1.00  0.00    +0.000 C 
ATOM     53  N5  UNL A   1      24.509 -11.581  32.106  1.00  0.00    +0.000 N 
ATOM     54  C37 UNL A   1      24.258 -11.244  30.864  1.00  0.00    +0.000 C 
ATOM     55  C38 UNL A   1      25.056 -11.537  29.623  1.00  0.00    +0.000 C 
ATOM     67  C45 UNL A   1      26.229 -12.188  29.730  1.00  0.00    +0.000 C 
ATOM     68  C46 UNL A   1      27.104 -12.549  28.619  1.00  0.00    +0.000 C 
ATOM     69  C47 UNL A   1      28.141 -13.261  29.090  1.00  0.00    +0.000 C 
ATOM     70  C48 UNL A   1      28.021 -13.373  30.544  1.00  0.00    +0.000 C 
ATOM     71  N6  UNL A   1      26.875 -12.678  30.839  1.00  0.00    +0.000 N 
ATOM     72  C49 UNL A   1      23.017 -10.475  30.690  1.00  0.00    +0.000 C 
ATOM     73  C50 UNL A   1      22.599 -10.352  31.943  1.00  0.00    +0.000 C 
ATOM     74  C51 UNL A   1      29.068 -14.810  34.829  1.00  0.00    +0.000 C 
ATOM     75  C52 UNL A   1      29.630 -14.809  33.630  1.00  0.00    +0.000 C 
ATOM    111  H21 UNL A   1      25.264 -12.880  37.989  1.00  0.00    +0.000 H 
ATOM    112  H22 UNL A   1      23.226 -11.539  37.071  1.00  0.00    +0.000 H 
ATOM    113  H23 UNL A   1      25.642 -12.581  33.873  1.00  0.00    +0.000 H 
ATOM    114  H24 UNL A   1      26.950 -12.298  27.630  1.00  0.00    +0.000 H 
ATOM    115  H25 UNL A   1      28.900 -13.664  28.519  1.00  0.00    +0.000 H 
ATOM    116  H26 UNL A   1      26.546 -12.544  31.758  1.00  0.00    +0.000 H 
ATOM    117  H27 UNL A   1      22.585 -10.124  29.821  1.00  0.00    +0.000 H 
ATOM    118  H28 UNL A   1      21.754  -9.832  32.225  1.00  0.00    +0.000 H 
ATOM    119  H29 UNL A   1      29.461 -15.283  35.657  1.00  0.00    +0.000 H 
ATOM    120  H30 UNL A   1      30.542 -15.195  33.337  1.00  0.00    +0.000 H 
ENDROOT
BRANCH   19   18
ATOM     76  C53 UNL A   1      29.744 -16.002  30.087  1.00  0.00    +0.000 C 
ATOM    109  H19 UNL A   1      33.347 -14.744  30.399  1.00  0.00    +0.000 H 
ATOM     77  C54 UNL A   1      30.790 -16.756  29.564  1.00  0.00    +0.000 C 
ATOM     15  C11 UNL A   1      32.098 -16.266  29.630  1.00  0.00    +0.000 C 
ATOM     16  C12 UNL A   1      32.374 -15.082  30.318  1.00  0.00    +0.000 C 
ATOM     17  C13 UNL A   1      31.330 -14.357  30.897  1.00  0.00    +0.000 C 
ATOM    110  H20 UNL A   1      31.534 -13.494  31.424  1.00  0.00    +0.000 H 
ATOM     18  C14 UNL A   1      30.004 -14.799  30.762  1.00  0.00    +0.000 C 
ATOM    121  H31 UNL A   1      28.771 -16.328  29.978  1.00  0.00    +0.000 H 
ATOM    122  H32 UNL A   1      30.602 -17.673  29.130  1.00  0.00    +0.000 H 
BRANCH   15   13
ATOM     13  C10 UNL A   1      33.205 -16.991  28.972  1.00  0.00    +0.000 C 
ATOM     14  O2  UNL A   1      33.481 -18.134  29.323  1.00  0.00    +0.000 O 
BRANCH   13   12
ATOM    108  H18 UNL A   1      34.898 -16.541  27.994  1.00  0.00    +0.000 H 
ATOM     12  N2  UNL A   1      33.929 -16.370  27.985  1.00  0.00    +0.000 N 
BRANCH   12   11
ATOM    106  H16 UNL A   1      33.944 -15.759  26.014  1.00  0.00    +0.000 H 
ATOM     11  C9  UNL A   1      33.453 -15.492  26.927  1.00  0.00    +0.000 C 
ATOM    107  H17 UNL A   1      32.393 -15.615  26.853  1.00  0.00    +0.000 H 
BRANCH   11   10
ATOM    105  H15 UNL A   1      34.465 -13.706  26.511  1.00  0.00    +0.000 H 
ATOM     10  C8  UNL A   1      33.733 -14.024  27.224  1.00  0.00    +0.000 C 
ATOM    104  H14 UNL A   1      34.070 -13.947  28.237  1.00  0.00    +0.000 H 
BRANCH   10    9
ATOM      9  C7  UNL A   1      32.530 -13.095  27.052  1.00  0.00    +0.000 C 
ATOM    102  H12 UNL A   1      32.634 -12.588  26.116  1.00  0.00    +0.000 H 
ATOM    103  H13 UNL A   1      31.662 -13.719  27.102  1.00  0.00    +0.000 H 
BRANCH    9    8
ATOM    100  H10 UNL A   1      32.731 -12.456  29.064  1.00  0.00    +0.000 H 
ATOM    101  H11 UNL A   1      32.909 -11.182  27.817  1.00  0.00    +0.000 H 
ATOM      8  C6  UNL A   1      32.364 -12.041  28.148  1.00  0.00    +0.000 C 
BRANCH    8    7
ATOM     98  H8  UNL A   1      30.676 -10.855  27.628  1.00  0.00    +0.000 H 
ATOM     99  H9  UNL A   1      30.308 -12.438  28.368  1.00  0.00    +0.000 H 
ATOM      7  C5  UNL A   1      30.925 -11.563  28.390  1.00  0.00    +0.000 C 
BRANCH    7    6
ATOM     97  H7  UNL A   1      30.717 -11.658  30.511  1.00  0.00    +0.000 H 
ATOM      6  C4  UNL A   1      30.693 -10.902  29.754  1.00  0.00    +0.000 C 
ATOM     96  H6  UNL A   1      29.741 -10.412  29.749  1.00  0.00    +0.000 H 
BRANCH    6    5
ATOM      5  N1  UNL A   1      31.729  -9.927  30.037  1.00  0.00    +0.000 N 
ATOM     95  H5  UNL A   1      32.638 -10.281  30.166  1.00  0.00    +0.000 H 
BRANCH    5    3
ATOM      3  C3  UNL A   1      31.587  -8.570  30.146  1.00  0.00    +0.000 C 
ATOM      4  O1  UNL A   1      31.432  -8.115  31.280  1.00  0.00    +0.000 O 
BRANCH    3    2
ATOM      2  C2  UNL A   1      31.586  -7.701  28.871  1.00  0.00    +0.000 C 
ATOM     94  H4  UNL A   1      32.087  -6.782  29.089  1.00  0.00    +0.000 H 
BRANCH    2    1
ATOM      1  C1  UNL A   1      30.132  -7.411  28.478  1.00  0.00    +0.000 C 
ATOM     91  H1  UNL A   1      29.472  -7.870  29.185  1.00  0.00    +0.000 H 
ATOM     92  H2  UNL A   1      29.940  -7.808  27.503  1.00  0.00    +0.000 H 
ATOM     93  H3  UNL A   1      29.968  -6.354  28.472  1.00  0.00    +0.000 H 
ENDBRANCH    2    1
BRANCH    2   78
ATOM    129  H39 UNL A   1      30.744  -8.823  26.519  1.00  0.00    +0.000 H 
ATOM     78  C55 UNL A   1      32.404  -8.301  27.714  1.00  0.00    +0.000 C 
ATOM     79  C56 UNL A   1      33.803  -8.409  27.782  1.00  0.00    +0.000 C 
ATOM     80  C57 UNL A   1      34.547  -8.909  26.707  1.00  0.00    +0.000 C 
ATOM     81  C58 UNL A   1      33.911  -9.337  25.537  1.00  0.00    +0.000 C 
ATOM     89  C64 UNL A   1      32.514  -9.315  25.488  1.00  0.00    +0.000 C 
ATOM     90  C65 UNL A   1      31.775  -8.814  26.568  1.00  0.00    +0.000 C 
ATOM    123  H33 UNL A   1      34.293  -8.113  28.641  1.00  0.00    +0.000 H 
ATOM    124  H34 UNL A   1      35.575  -8.962  26.778  1.00  0.00    +0.000 H 
ATOM    128  H38 UNL A   1      32.025  -9.668  24.651  1.00  0.00    +0.000 H 
BRANCH   81   82
ATOM     82  C59 UNL A   1      34.757  -9.848  24.411  1.00  0.00    +0.000 C 
ATOM     83  O3  UNL A   1      35.022  -9.074  23.493  1.00  0.00    +0.000 O 
BRANCH   82   84
ATOM     84  C60 UNL A   1      35.238 -11.217  24.446  1.00  0.00    +0.000 C 
ATOM     85  C61 UNL A   1      36.062 -11.842  25.364  1.00  0.00    +0.000 C 
ATOM     86  C62 UNL A   1      36.320 -13.201  25.017  1.00  0.00    +0.000 C 
ATOM     87  C63 UNL A   1      35.673 -13.570  23.859  1.00  0.00    +0.000 C 
ATOM     88  S1  UNL A   1      34.741 -12.292  23.210  1.00  0.00    +0.000 S 
ATOM    125  H35 UNL A   1      36.445 -11.379  26.202  1.00  0.00    +0.000 H 
ATOM    126  H36 UNL A   1      36.921 -13.834  25.569  1.00  0.00    +0.000 H 
ATOM    127  H37 UNL A   1      35.743 -14.507  23.433  1.00  0.00    +0.000 H 
ENDBRANCH   82   84
ENDBRANCH   81   82
ENDBRANCH    2   78
ENDBRANCH    3    2
ENDBRANCH    5    3
ENDBRANCH    6    5
ENDBRANCH    7    6
ENDBRANCH    8    7
ENDBRANCH    9    8
ENDBRANCH   10    9
ENDBRANCH   11   10
ENDBRANCH   12   11
ENDBRANCH   13   12
ENDBRANCH   15   13
ENDBRANCH   19   18
BRANCH   23   24
ATOM     33  C24 UNL A   1      28.606 -13.764  37.938  1.00  0.00    +0.000 C 
ATOM     34  F5  UNL A   1      29.182 -12.649  37.463  1.00  0.00    +0.000 F 
ATOM     24  C19 UNL A   1      27.565 -14.380  37.229  1.00  0.00    +0.000 C 
ATOM     25  C20 UNL A   1      27.003 -15.547  37.769  1.00  0.00    +0.000 C 
ATOM     26  F1  UNL A   1      25.995 -16.166  37.135  1.00  0.00    +0.000 F 
ATOM     27  C21 UNL A   1      27.439 -16.053  38.991  1.00  0.00    +0.000 C 
ATOM     28  F2  UNL A   1      26.847 -17.136  39.514  1.00  0.00    +0.000 F 
ATOM     29  C22 UNL A   1      28.470 -15.428  39.674  1.00  0.00    +0.000 C 
ATOM     30  F3  UNL A   1      28.890 -15.916  40.850  1.00  0.00    +0.000 F 
ATOM     31  C23 UNL A   1      29.061 -14.290  39.145  1.00  0.00    +0.000 C 
ATOM     32  F4  UNL A   1      30.064 -13.691  39.800  1.00  0.00    +0.000 F 
ENDBRANCH   23   24
BRANCH   40   41
ATOM     41  C30 UNL A   1      22.097 -10.382  34.764  1.00  0.00    +0.000 C 
ATOM     42  C31 UNL A   1      22.202  -9.075  35.259  1.00  0.00    +0.000 C 
ATOM     43  F6  UNL A   1      23.396  -8.465  35.308  1.00  0.00    +0.000 F 
ATOM     44  C32 UNL A   1      21.081  -8.400  35.733  1.00  0.00    +0.000 C 
ATOM     45  F7  UNL A   1      21.206  -7.163  36.233  1.00  0.00    +0.000 F 
ATOM     46  C33 UNL A   1      19.834  -9.007  35.696  1.00  0.00    +0.000 C 
ATOM     47  F8  UNL A   1      18.754  -8.351  36.143  1.00  0.00    +0.000 F 
ATOM     48  C34 UNL A   1      19.707 -10.296  35.201  1.00  0.00    +0.000 C 
ATOM     49  F9  UNL A   1      18.501 -10.880  35.154  1.00  0.00    +0.000 F 
ATOM     50  C35 UNL A   1      20.829 -10.983  34.748  1.00  0.00    +0.000 C 
ATOM     51  F10 UNL A   1      20.679 -12.230  34.279  1.00  0.00    +0.000 F 
ENDBRANCH   40   41
BRANCH   55   56
ATOM     65  C44 UNL A   1      23.604 -11.798  27.582  1.00  0.00    +0.000 C 
ATOM     66  F15 UNL A   1      23.056 -12.899  28.117  1.00  0.00    +0.000 F 
ATOM     56  C39 UNL A   1      24.584 -11.088  28.288  1.00  0.00    +0.000 C 
ATOM     57  C40 UNL A   1      25.131  -9.948  27.683  1.00  0.00    +0.000 C 
ATOM     58  F11 UNL A   1      26.059  -9.228  28.329  1.00  0.00    +0.000 F 
ATOM     59  C41 UNL A   1      24.705  -9.527  26.426  1.00  0.00    +0.000 C 
ATOM     60  F12 UNL A   1      25.221  -8.417  25.882  1.00  0.00    +0.000 F 
ATOM     61  C42 UNL A   1      23.742 -10.252  25.739  1.00  0.00    +0.000 C 
ATOM     62  F13 UNL A   1      23.339  -9.853  24.525  1.00  0.00    +0.000 F 
ATOM     63  C43 UNL A   1      23.194 -11.389  26.314  1.00  0.00    +0.000 C 
ATOM     64  F14 UNL A   1      22.273 -12.099  25.648  1.00  0.00    +0.000 F 
ENDBRANCH   55   56
TORSDOF 19
ENDMDL
MODEL 10
REMARK VINA RESULT:      -9.5     47.398     52.315
ROOT
ATOM     19  C15 UNL A   1      13.932  53.452   5.714  1.00  0.00    +0.000 C 
ATOM     20  C16 UNL A   1      14.865  53.970   4.657  1.00  0.00    +0.000 C 
ATOM     21  N3  UNL A   1      15.329  53.369   3.592  1.00  0.00    +0.000 N 
ATOM     22  C17 UNL A   1      16.090  54.319   2.925  1.00  0.00    +0.000 C 
ATOM     23  C18 UNL A   1      16.815  54.176   1.790  1.00  0.00    +0.000 C 
ATOM     35  C25 UNL A   1      16.939  52.942   1.061  1.00  0.00    +0.000 C 
ATOM     36  C26 UNL A   1      17.698  52.677  -0.065  1.00  0.00    +0.000 C 
ATOM     37  C27 UNL A   1      17.481  51.345  -0.434  1.00  0.00    +0.000 C 
ATOM     38  C28 UNL A   1      16.620  50.770   0.486  1.00  0.00    +0.000 C 
ATOM     39  N4  UNL A   1      16.289  51.762   1.394  1.00  0.00    +0.000 N 
ATOM     40  C29 UNL A   1      16.134  49.414   0.535  1.00  0.00    +0.000 C 
ATOM     52  C36 UNL A   1      15.280  48.924   1.466  1.00  0.00    +0.000 C 
ATOM     53  N5  UNL A   1      14.709  49.573   2.553  1.00  0.00    +0.000 N 
ATOM     54  C37 UNL A   1      13.960  48.681   3.153  1.00  0.00    +0.000 C 
ATOM     55  C38 UNL A   1      13.131  48.824   4.400  1.00  0.00    +0.000 C 
ATOM     67  C45 UNL A   1      13.152  49.988   5.077  1.00  0.00    +0.000 C 
ATOM     68  C46 UNL A   1      12.395  50.277   6.292  1.00  0.00    +0.000 C 
ATOM     69  C47 UNL A   1      12.596  51.558   6.639  1.00  0.00    +0.000 C 
ATOM     70  C48 UNL A   1      13.527  52.170   5.691  1.00  0.00    +0.000 C 
ATOM     71  N6  UNL A   1      13.829  51.154   4.818  1.00  0.00    +0.000 N 
ATOM     72  C49 UNL A   1      13.945  47.367   2.494  1.00  0.00    +0.000 C 
ATOM     73  C50 UNL A   1      14.791  47.561   1.489  1.00  0.00    +0.000 C 
ATOM     74  C51 UNL A   1      15.995  55.547   3.685  1.00  0.00    +0.000 C 
ATOM     75  C52 UNL A   1      15.310  55.365   4.804  1.00  0.00    +0.000 C 
ATOM    111  H21 UNL A   1      18.317  53.345  -0.550  1.00  0.00    +0.000 H 
ATOM    112  H22 UNL A   1      17.891  50.871  -1.254  1.00  0.00    +0.000 H 
ATOM    113  H23 UNL A   1      15.683  51.648   2.162  1.00  0.00    +0.000 H 
ATOM    114  H24 UNL A   1      11.801  49.604   6.801  1.00  0.00    +0.000 H 
ATOM    115  H25 UNL A   1      12.164  52.035   7.446  1.00  0.00    +0.000 H 
ATOM    116  H26 UNL A   1      14.470  51.253   4.076  1.00  0.00    +0.000 H 
ATOM    117  H27 UNL A   1      13.417  46.518   2.745  1.00  0.00    +0.000 H 
ATOM    118  H28 UNL A   1      15.065  46.833   0.812  1.00  0.00    +0.000 H 
ATOM    119  H29 UNL A   1      16.406  56.448   3.393  1.00  0.00    +0.000 H 
ATOM    120  H30 UNL A   1      15.133  56.027   5.575  1.00  0.00    +0.000 H 
ENDROOT
BRANCH   19   18
ATOM     76  C53 UNL A   1      12.195  55.079   6.437  1.00  0.00    +0.000 C 
ATOM    109  H19 UNL A   1      13.952  55.647   9.791  1.00  0.00    +0.000 H 
ATOM     77  C54 UNL A   1      11.676  55.995   7.346  1.00  0.00    +0.000 C 
ATOM     15  C11 UNL A   1      12.288  56.157   8.593  1.00  0.00    +0.000 C 
ATOM     16  C12 UNL A   1      13.482  55.493   8.885  1.00  0.00    +0.000 C 
ATOM     17  C13 UNL A   1      14.037  54.621   7.947  1.00  0.00    +0.000 C 
ATOM    110  H20 UNL A   1      14.930  54.146   8.150  1.00  0.00    +0.000 H 
ATOM     18  C14 UNL A   1      13.383  54.388   6.726  1.00  0.00    +0.000 C 
ATOM    121  H31 UNL A   1      11.706  54.907   5.546  1.00  0.00    +0.000 H 
ATOM    122  H32 UNL A   1      10.842  56.552   7.102  1.00  0.00    +0.000 H 
BRANCH   15   13
ATOM     13  C10 UNL A   1      11.681  57.031   9.618  1.00  0.00    +0.000 C 
ATOM     14  O2  UNL A   1      11.618  58.243   9.431  1.00  0.00    +0.000 O 
BRANCH   13   12
ATOM    108  H18 UNL A   1      11.402  56.988  11.605  1.00  0.00    +0.000 H 
ATOM     12  N2  UNL A   1      11.209  56.480  10.784  1.00  0.00    +0.000 N 
BRANCH   12   11
ATOM    106  H16 UNL A   1       9.519  55.479  11.419  1.00  0.00    +0.000 H 
ATOM     11  C9  UNL A   1      10.461  55.246  10.967  1.00  0.00    +0.000 C 
ATOM    107  H17 UNL A   1      10.333  54.796  10.004  1.00  0.00    +0.000 H 
BRANCH   11   10
ATOM    105  H15 UNL A   1      11.655  53.540  11.195  1.00  0.00    +0.000 H 
ATOM     10  C8  UNL A   1      11.197  54.249  11.853  1.00  0.00    +0.000 C 
ATOM    104  H14 UNL A   1      10.486  53.807  12.519  1.00  0.00    +0.000 H 
BRANCH   10    9
ATOM      9  C7  UNL A   1      12.325  54.850  12.694  1.00  0.00    +0.000 C 
ATOM    102  H12 UNL A   1      12.477  55.858  12.372  1.00  0.00    +0.000 H 
ATOM    103  H13 UNL A   1      12.011  54.771  13.713  1.00  0.00    +0.000 H 
BRANCH    9    8
ATOM    100  H10 UNL A   1      14.436  54.848  12.485  1.00  0.00    +0.000 H 
ATOM    101  H11 UNL A   1      13.750  53.541  13.499  1.00  0.00    +0.000 H 
ATOM      8  C6  UNL A   1      13.664  54.115  12.600  1.00  0.00    +0.000 C 
BRANCH    8    7
ATOM     98  H8  UNL A   1      12.954  52.444  11.491  1.00  0.00    +0.000 H 
ATOM     99  H9  UNL A   1      13.809  53.693  10.543  1.00  0.00    +0.000 H 
ATOM      7  C5  UNL A   1      13.787  53.114  11.444  1.00  0.00    +0.000 C 
BRANCH    7    6
ATOM     97  H7  UNL A   1      14.913  51.409  12.057  1.00  0.00    +0.000 H 
ATOM      6  C4  UNL A   1      15.074  52.279  11.455  1.00  0.00    +0.000 C 
ATOM     96  H6  UNL A   1      15.871  52.868  11.858  1.00  0.00    +0.000 H 
BRANCH    6    5
ATOM      5  N1  UNL A   1      15.426  51.857  10.113  1.00  0.00    +0.000 N 
ATOM     95  H5  UNL A   1      15.900  52.518   9.558  1.00  0.00    +0.000 H 
BRANCH    5    3
ATOM      3  C3  UNL A   1      15.175  50.645   9.528  1.00  0.00    +0.000 C 
ATOM      4  O1  UNL A   1      15.537  50.505   8.359  1.00  0.00    +0.000 O 
BRANCH    3    2
ATOM      2  C2  UNL A   1      14.431  49.555  10.327  1.00  0.00    +0.000 C 
ATOM     94  H4  UNL A   1      14.429  49.836  11.359  1.00  0.00    +0.000 H 
BRANCH    2    1
ATOM      1  C1  UNL A   1      15.182  48.228  10.160  1.00  0.00    +0.000 C 
ATOM     91  H1  UNL A   1      14.911  47.779   9.228  1.00  0.00    +0.000 H 
ATOM     92  H2  UNL A   1      14.923  47.568  10.961  1.00  0.00    +0.000 H 
ATOM     93  H3  UNL A   1      16.236  48.410  10.174  1.00  0.00    +0.000 H 
ENDBRANCH    2    1
BRANCH    2   78
ATOM    129  H39 UNL A   1      13.054  47.493   9.166  1.00  0.00    +0.000 H 
ATOM     78  C55 UNL A   1      12.939  49.440   9.973  1.00  0.00    +0.000 C 
ATOM     79  C56 UNL A   1      12.053  50.514  10.165  1.00  0.00    +0.000 C 
ATOM     80  C57 UNL A   1      10.687  50.388   9.887  1.00  0.00    +0.000 C 
ATOM     81  C58 UNL A   1      10.167  49.189   9.390  1.00  0.00    +0.000 C 
ATOM     89  C64 UNL A   1      11.050  48.140   9.115  1.00  0.00    +0.000 C 
ATOM     90  C65 UNL A   1      12.416  48.272   9.392  1.00  0.00    +0.000 C 
ATOM    123  H33 UNL A   1      12.416  51.413  10.517  1.00  0.00    +0.000 H 
ATOM    124  H34 UNL A   1      10.056  51.188  10.053  1.00  0.00    +0.000 H 
ATOM    128  H38 UNL A   1      10.691  47.263   8.706  1.00  0.00    +0.000 H 
BRANCH   81   82
ATOM     82  C59 UNL A   1       8.695  49.104   9.127  1.00  0.00    +0.000 C 
ATOM     83  O3  UNL A   1       8.003  50.083   9.402  1.00  0.00    +0.000 O 
BRANCH   82   84
ATOM     84  C60 UNL A   1       8.142  47.890   8.554  1.00  0.00    +0.000 C 
ATOM     85  C61 UNL A   1       7.933  46.653   9.136  1.00  0.00    +0.000 C 
ATOM     86  C62 UNL A   1       7.390  45.710   8.214  1.00  0.00    +0.000 C 
ATOM     87  C63 UNL A   1       7.188  46.263   6.969  1.00  0.00    +0.000 C 
ATOM     88  S1  UNL A   1       7.627  47.915   6.921  1.00  0.00    +0.000 S 
ATOM    125  H35 UNL A   1       8.145  46.438  10.122  1.00  0.00    +0.000 H 
ATOM    126  H36 UNL A   1       7.174  44.729   8.452  1.00  0.00    +0.000 H 
ATOM    127  H37 UNL A   1       6.816  45.742   6.160  1.00  0.00    +0.000 H 
ENDBRANCH   82   84
ENDBRANCH   81   82
ENDBRANCH    2   78
ENDBRANCH    3    2
ENDBRANCH    5    3
ENDBRANCH    6    5
ENDBRANCH    7    6
ENDBRANCH    8    7
ENDBRANCH    9    8
ENDBRANCH   10    9
ENDBRANCH   11   10
ENDBRANCH   12   11
ENDBRANCH   13   12
ENDBRANCH   15   13
ENDBRANCH   19   18
BRANCH   23   24
ATOM     33  C24 UNL A   1      16.883  56.255   0.369  1.00  0.00    +0.000 C 
ATOM     34  F5  UNL A   1      15.627  56.007  -0.030  1.00  0.00    +0.000 F 
ATOM     24  C19 UNL A   1      17.524  55.391   1.268  1.00  0.00    +0.000 C 
ATOM     25  C20 UNL A   1      18.840  55.696   1.648  1.00  0.00    +0.000 C 
ATOM     26  F1  UNL A   1      19.492  54.908   2.517  1.00  0.00    +0.000 F 
ATOM     27  C21 UNL A   1      19.474  56.843   1.176  1.00  0.00    +0.000 C 
ATOM     28  F2  UNL A   1      20.710  57.144   1.598  1.00  0.00    +0.000 F 
ATOM     29  C22 UNL A   1      18.822  57.682   0.286  1.00  0.00    +0.000 C 
ATOM     30  F3  UNL A   1      19.433  58.785  -0.167  1.00  0.00    +0.000 F 
ATOM     31  C23 UNL A   1      17.531  57.385  -0.125  1.00  0.00    +0.000 C 
ATOM     32  F4  UNL A   1      16.903  58.191  -0.992  1.00  0.00    +0.000 F 
ENDBRANCH   23   24
BRANCH   40   41
ATOM     41  C30 UNL A   1      16.633  48.463  -0.511  1.00  0.00    +0.000 C 
ATOM     42  C31 UNL A   1      17.890  47.850  -0.408  1.00  0.00    +0.000 C 
ATOM     43  F6  UNL A   1      18.712  48.162   0.606  1.00  0.00    +0.000 F 
ATOM     44  C32 UNL A   1      18.318  46.935  -1.365  1.00  0.00    +0.000 C 
ATOM     45  F7  UNL A   1      19.536  46.384  -1.267  1.00  0.00    +0.000 F 
ATOM     46  C33 UNL A   1      17.489  46.595  -2.424  1.00  0.00    +0.000 C 
ATOM     47  F8  UNL A   1      17.898  45.705  -3.339  1.00  0.00    +0.000 F 
ATOM     48  C34 UNL A   1      16.238  47.183  -2.540  1.00  0.00    +0.000 C 
ATOM     49  F9  UNL A   1      15.431  46.847  -3.557  1.00  0.00    +0.000 F 
ATOM     50  C35 UNL A   1      15.816  48.116  -1.598  1.00  0.00    +0.000 C 
ATOM     51  F10 UNL A   1      14.604  48.672  -1.736  1.00  0.00    +0.000 F 
ENDBRANCH   40   41
BRANCH   55   56
ATOM     65  C44 UNL A   1      11.088  47.354   4.334  1.00  0.00    +0.000 C 
ATOM     66  F15 UNL A   1      10.626  48.047   3.283  1.00  0.00    +0.000 F 
ATOM     56  C39 UNL A   1      12.318  47.692   4.912  1.00  0.00    +0.000 C 
ATOM     57  C40 UNL A   1      12.754  46.940   6.013  1.00  0.00    +0.000 C 
ATOM     58  F11 UNL A   1      13.933  47.216   6.587  1.00  0.00    +0.000 F 
ATOM     59  C41 UNL A   1      11.992  45.884   6.508  1.00  0.00    +0.000 C 
ATOM     60  F12 UNL A   1      12.444  45.162   7.542  1.00  0.00    +0.000 F 
ATOM     61  C42 UNL A   1      10.771  45.575   5.929  1.00  0.00    +0.000 C 
ATOM     62  F13 UNL A   1      10.033  44.566   6.411  1.00  0.00    +0.000 F 
ATOM     63  C43 UNL A   1      10.316  46.311   4.844  1.00  0.00    +0.000 C 
ATOM     64  F14 UNL A   1       9.130  46.024   4.290  1.00  0.00    +0.000 F 
ENDBRANCH   55   56
TORSDOF 19
ENDMDL
