MODEL 1
REMARK VINA RESULT:     -11.4      0.000      0.000
ROOT
ATOM     19  C15 UNL A   1      25.693  35.285  45.174  1.00  0.00    +0.000 C 
ATOM     20  C16 UNL A   1      27.045  35.309  44.522  1.00  0.00    +0.000 C 
ATOM     21  N3  UNL A   1      28.027  36.157  44.691  1.00  0.00    +0.000 N 
ATOM     22  C17 UNL A   1      29.064  35.699  43.890  1.00  0.00    +0.000 C 
ATOM     23  C18 UNL A   1      30.283  36.255  43.695  1.00  0.00    +0.000 C 
ATOM     35  C25 UNL A   1      30.718  37.492  44.289  1.00  0.00    +0.000 C 
ATOM     36  C26 UNL A   1      31.884  38.198  44.050  1.00  0.00    +0.000 C 
ATOM     37  C27 UNL A   1      31.903  39.309  44.899  1.00  0.00    +0.000 C 
ATOM     38  C28 UNL A   1      30.732  39.314  45.639  1.00  0.00    +0.000 C 
ATOM     39  N4  UNL A   1      30.008  38.200  45.245  1.00  0.00    +0.000 N 
ATOM     40  C29 UNL A   1      30.308  40.254  46.642  1.00  0.00    +0.000 C 
ATOM     52  C36 UNL A   1      29.102  40.237  47.261  1.00  0.00    +0.000 C 
ATOM     53  N5  UNL A   1      28.051  39.348  47.092  1.00  0.00    +0.000 N 
ATOM     54  C37 UNL A   1      27.115  39.737  47.924  1.00  0.00    +0.000 C 
ATOM     55  C38 UNL A   1      25.753  39.146  48.161  1.00  0.00    +0.000 C 
ATOM     67  C45 UNL A   1      25.361  38.080  47.438  1.00  0.00    +0.000 C 
ATOM     68  C46 UNL A   1      24.081  37.393  47.576  1.00  0.00    +0.000 C 
ATOM     69  C47 UNL A   1      24.075  36.315  46.774  1.00  0.00    +0.000 C 
ATOM     70  C48 UNL A   1      25.339  36.258  46.036  1.00  0.00    +0.000 C 
ATOM     71  N6  UNL A   1      26.021  37.373  46.461  1.00  0.00    +0.000 N 
ATOM     72  C49 UNL A   1      27.479  40.914  48.728  1.00  0.00    +0.000 C 
ATOM     73  C50 UNL A   1      28.687  41.197  48.260  1.00  0.00    +0.000 C 
ATOM     74  C51 UNL A   1      28.604  34.483  43.256  1.00  0.00    +0.000 C 
ATOM     75  C52 UNL A   1      27.342  34.225  43.573  1.00  0.00    +0.000 C 
ATOM    111  H21 UNL A   1      32.613  37.949  43.364  1.00  0.00    +0.000 H 
ATOM    112  H22 UNL A   1      32.661  40.006  44.964  1.00  0.00    +0.000 H 
ATOM    113  H23 UNL A   1      29.122  37.949  45.594  1.00  0.00    +0.000 H 
ATOM    114  H24 UNL A   1      23.306  37.687  48.190  1.00  0.00    +0.000 H 
ATOM    115  H25 UNL A   1      23.303  35.636  46.691  1.00  0.00    +0.000 H 
ATOM    116  H26 UNL A   1      26.898  37.639  46.101  1.00  0.00    +0.000 H 
ATOM    117  H27 UNL A   1      26.936  41.393  49.462  1.00  0.00    +0.000 H 
ATOM    118  H28 UNL A   1      29.258  41.999  48.571  1.00  0.00    +0.000 H 
ATOM    119  H29 UNL A   1      29.183  33.892  42.638  1.00  0.00    +0.000 H 
ATOM    120  H30 UNL A   1      26.730  33.464  43.241  1.00  0.00    +0.000 H 
ENDROOT
BRANCH   19   18
ATOM     76  C53 UNL A   1      24.905  32.997  45.778  1.00  0.00    +0.000 C 
ATOM    109  H19 UNL A   1      22.052  33.195  43.232  1.00  0.00    +0.000 H 
ATOM     77  C54 UNL A   1      24.004  31.942  45.659  1.00  0.00    +0.000 C 
ATOM     15  C11 UNL A   1      22.921  32.050  44.783  1.00  0.00    +0.000 C 
ATOM     16  C12 UNL A   1      22.818  33.148  43.924  1.00  0.00    +0.000 C 
ATOM     17  C13 UNL A   1      23.754  34.181  44.005  1.00  0.00    +0.000 C 
ATOM    110  H20 UNL A   1      23.693  34.982  43.357  1.00  0.00    +0.000 H 
ATOM     18  C14 UNL A   1      24.778  34.134  44.965  1.00  0.00    +0.000 C 
ATOM    121  H31 UNL A   1      25.671  32.943  46.468  1.00  0.00    +0.000 H 
ATOM    122  H32 UNL A   1      24.136  31.083  46.216  1.00  0.00    +0.000 H 
BRANCH   15   13
ATOM     13  C10 UNL A   1      21.861  31.020  44.756  1.00  0.00    +0.000 C 
ATOM     14  O2  UNL A   1      22.147  29.844  44.963  1.00  0.00    +0.000 O 
BRANCH   13   12
ATOM    108  H18 UNL A   1      20.317  31.356  43.523  1.00  0.00    +0.000 H 
ATOM     12  N2  UNL A   1      20.567  31.382  44.474  1.00  0.00    +0.000 N 
BRANCH   12   11
ATOM    106  H16 UNL A   1      18.698  31.107  45.309  1.00  0.00    +0.000 H 
ATOM     11  C9  UNL A   1      19.511  31.799  45.386  1.00  0.00    +0.000 C 
ATOM    107  H17 UNL A   1      19.921  31.814  46.374  1.00  0.00    +0.000 H 
BRANCH   11   10
ATOM    105  H15 UNL A   1      19.777  33.876  45.349  1.00  0.00    +0.000 H 
ATOM     10  C8  UNL A   1      18.995  33.200  45.075  1.00  0.00    +0.000 C 
ATOM    104  H14 UNL A   1      18.091  33.351  45.629  1.00  0.00    +0.000 H 
BRANCH   10    9
ATOM      9  C7  UNL A   1      18.696  33.463  43.597  1.00  0.00    +0.000 C 
ATOM    102  H12 UNL A   1      19.368  34.221  43.254  1.00  0.00    +0.000 H 
ATOM    103  H13 UNL A   1      18.819  32.524  43.098  1.00  0.00    +0.000 H 
BRANCH    9    8
ATOM    100  H10 UNL A   1      17.294  34.974  43.098  1.00  0.00    +0.000 H 
ATOM    101  H11 UNL A   1      16.940  33.338  42.458  1.00  0.00    +0.000 H 
ATOM      8  C6  UNL A   1      17.267  33.922  43.294  1.00  0.00    +0.000 C 
BRANCH    8    7
ATOM     98  H8  UNL A   1      16.778  33.466  45.313  1.00  0.00    +0.000 H 
ATOM     99  H9  UNL A   1      15.645  34.559  44.475  1.00  0.00    +0.000 H 
ATOM      7  C5  UNL A   1      16.244  33.675  44.411  1.00  0.00    +0.000 C 
BRANCH    7    6
ATOM     97  H7  UNL A   1      14.982  32.548  43.117  1.00  0.00    +0.000 H 
ATOM      6  C4  UNL A   1      15.282  32.515  44.143  1.00  0.00    +0.000 C 
ATOM     96  H6  UNL A   1      14.431  32.610  44.784  1.00  0.00    +0.000 H 
BRANCH    6    5
ATOM      5  N1  UNL A   1      15.927  31.243  44.397  1.00  0.00    +0.000 N 
ATOM     95  H5  UNL A   1      15.991  30.987  45.345  1.00  0.00    +0.000 H 
BRANCH    5    3
ATOM      3  C3  UNL A   1      16.459  30.349  43.514  1.00  0.00    +0.000 C 
ATOM      4  O1  UNL A   1      16.631  30.747  42.360  1.00  0.00    +0.000 O 
BRANCH    3    2
ATOM      2  C2  UNL A   1      16.791  28.923  43.974  1.00  0.00    +0.000 C 
ATOM     94  H4  UNL A   1      16.567  28.888  45.020  1.00  0.00    +0.000 H 
BRANCH    2    1
ATOM      1  C1  UNL A   1      18.275  28.588  43.807  1.00  0.00    +0.000 C 
ATOM     91  H1  UNL A   1      18.512  27.719  44.385  1.00  0.00    +0.000 H 
ATOM     92  H2  UNL A   1      18.867  29.413  44.144  1.00  0.00    +0.000 H 
ATOM     93  H3  UNL A   1      18.483  28.398  42.774  1.00  0.00    +0.000 H 
ENDBRANCH    2    1
BRANCH    2   78
ATOM    134  H44 UNL A   1      14.069  25.166  43.949  1.00  0.00    +0.000 H 
ATOM     78  C55 UNL A   1      15.930  27.887  43.268  1.00  0.00    +0.000 C 
ATOM     79  C56 UNL A   1      15.719  27.921  41.883  1.00  0.00    +0.000 C 
ATOM     80  C57 UNL A   1      14.933  26.947  41.263  1.00  0.00    +0.000 C 
ATOM     81  C58 UNL A   1      14.346  25.917  42.003  1.00  0.00    +0.000 C 
ATOM     88  C64 UNL A   1      14.521  25.899  43.382  1.00  0.00    +0.000 C 
ATOM     89  C65 UNL A   1      15.306  26.872  43.998  1.00  0.00    +0.000 C 
ATOM     90  F16 UNL A   1      15.468  26.810  45.328  1.00  0.00    +0.000 F 
ATOM    123  H33 UNL A   1      16.147  28.670  41.318  1.00  0.00    +0.000 H 
ATOM    124  H34 UNL A   1      14.783  26.989  40.243  1.00  0.00    +0.000 H 
BRANCH   81   82
ATOM     82  O3  UNL A   1      13.632  25.034  41.253  1.00  0.00    +0.000 O 
BRANCH   82   83
ATOM    129  H39 UNL A   1      13.885  20.956  42.340  1.00  0.00    +0.000 H 
ATOM    130  H40 UNL A   1      12.325  21.324  39.831  1.00  0.00    +0.000 H 
ATOM    131  H41 UNL A   1      13.938  20.723  40.005  1.00  0.00    +0.000 H 
ATOM    132  H42 UNL A   1      14.789  22.811  39.615  1.00  0.00    +0.000 H 
ATOM    133  H43 UNL A   1      13.199  23.374  39.276  1.00  0.00    +0.000 H 
ATOM     83  C59 UNL A   1      13.802  23.628  41.341  1.00  0.00    +0.000 C 
ATOM     84  C60 UNL A   1      12.874  22.865  42.283  1.00  0.00    +0.000 C 
ATOM     85  C61 UNL A   1      13.057  21.421  41.845  1.00  0.00    +0.000 C 
ATOM     86  C62 UNL A   1      13.258  21.483  40.332  1.00  0.00    +0.000 C 
ATOM     87  C63 UNL A   1      13.797  22.876  40.011  1.00  0.00    +0.000 C 
ATOM    125  H35 UNL A   1      14.785  23.629  41.765  1.00  0.00    +0.000 H 
ATOM    126  H36 UNL A   1      11.858  23.180  42.159  1.00  0.00    +0.000 H 
ATOM    127  H37 UNL A   1      13.098  23.024  43.317  1.00  0.00    +0.000 H 
ATOM    128  H38 UNL A   1      12.189  20.844  42.085  1.00  0.00    +0.000 H 
ENDBRANCH   82   83
ENDBRANCH   81   82
ENDBRANCH    2   78
ENDBRANCH    3    2
ENDBRANCH    5    3
ENDBRANCH    6    5
ENDBRANCH    7    6
ENDBRANCH    8    7
ENDBRANCH    9    8
ENDBRANCH   10    9
ENDBRANCH   11   10
ENDBRANCH   12   11
ENDBRANCH   13   12
ENDBRANCH   15   13
ENDBRANCH   19   18
BRANCH   23   24
ATOM     33  C24 UNL A   1      31.361  35.917  41.447  1.00  0.00    +0.000 C 
ATOM     34  F5  UNL A   1      30.668  36.965  40.975  1.00  0.00    +0.000 F 
ATOM     24  C19 UNL A   1      31.246  35.542  42.794  1.00  0.00    +0.000 C 
ATOM     25  C20 UNL A   1      31.986  34.437  43.235  1.00  0.00    +0.000 C 
ATOM     26  F1  UNL A   1      31.914  34.043  44.516  1.00  0.00    +0.000 F 
ATOM     27  C21 UNL A   1      32.816  33.738  42.362  1.00  0.00    +0.000 C 
ATOM     28  F2  UNL A   1      33.532  32.697  42.810  1.00  0.00    +0.000 F 
ATOM     29  C22 UNL A   1      32.903  34.116  41.031  1.00  0.00    +0.000 C 
ATOM     30  F3  UNL A   1      33.689  33.431  40.189  1.00  0.00    +0.000 F 
ATOM     31  C23 UNL A   1      32.175  35.204  40.572  1.00  0.00    +0.000 C 
ATOM     32  F4  UNL A   1      32.248  35.563  39.283  1.00  0.00    +0.000 F 
ENDBRANCH   23   24
BRANCH   40   41
ATOM     41  C30 UNL A   1      31.264  41.342  47.028  1.00  0.00    +0.000 C 
ATOM     42  C31 UNL A   1      31.052  42.670  46.631  1.00  0.00    +0.000 C 
ATOM     43  F6  UNL A   1      30.015  42.979  45.837  1.00  0.00    +0.000 F 
ATOM     44  C32 UNL A   1      31.924  43.681  47.023  1.00  0.00    +0.000 C 
ATOM     45  F7  UNL A   1      31.723  44.937  46.603  1.00  0.00    +0.000 F 
ATOM     46  C33 UNL A   1      33.007  43.388  47.840  1.00  0.00    +0.000 C 
ATOM     47  F8  UNL A   1      33.839  44.365  48.226  1.00  0.00    +0.000 F 
ATOM     48  C34 UNL A   1      33.228  42.082  48.252  1.00  0.00    +0.000 C 
ATOM     49  F9  UNL A   1      34.268  41.800  49.050  1.00  0.00    +0.000 F 
ATOM     50  C35 UNL A   1      32.373  41.065  47.841  1.00  0.00    +0.000 C 
ATOM     51  F10 UNL A   1      32.615  39.810  48.250  1.00  0.00    +0.000 F 
ENDBRANCH   40   41
BRANCH   55   56
ATOM     65  C44 UNL A   1      23.944  40.744  48.873  1.00  0.00    +0.000 C 
ATOM     66  F15 UNL A   1      23.896  41.238  47.627  1.00  0.00    +0.000 F 
ATOM     56  C39 UNL A   1      24.849  39.721  49.190  1.00  0.00    +0.000 C 
ATOM     57  C40 UNL A   1      24.861  39.244  50.507  1.00  0.00    +0.000 C 
ATOM     58  F11 UNL A   1      25.694  38.249  50.850  1.00  0.00    +0.000 F 
ATOM     59  C41 UNL A   1      23.985  39.751  51.465  1.00  0.00    +0.000 C 
ATOM     60  F12 UNL A   1      23.983  39.243  52.704  1.00  0.00    +0.000 F 
ATOM     61  C42 UNL A   1      23.101  40.767  51.130  1.00  0.00    +0.000 C 
ATOM     62  F13 UNL A   1      22.259  41.254  52.051  1.00  0.00    +0.000 F 
ATOM     63  C43 UNL A   1      23.087  41.270  49.838  1.00  0.00    +0.000 C 
ATOM     64  F14 UNL A   1      22.243  42.259  49.515  1.00  0.00    +0.000 F 
ENDBRANCH   55   56
TORSDOF 19
ENDMDL
MODEL 2
REMARK VINA RESULT:     -11.1      1.120      1.809
ROOT
ATOM     19  C15 UNL A   1      26.026  35.800  45.481  1.00  0.00    +0.000 C 
ATOM     20  C16 UNL A   1      27.337  35.755  44.749  1.00  0.00    +0.000 C 
ATOM     21  N3  UNL A   1      28.368  36.555  44.853  1.00  0.00    +0.000 N 
ATOM     22  C17 UNL A   1      29.331  36.042  43.995  1.00  0.00    +0.000 C 
ATOM     23  C18 UNL A   1      30.563  36.536  43.725  1.00  0.00    +0.000 C 
ATOM     35  C25 UNL A   1      31.092  37.753  44.282  1.00  0.00    +0.000 C 
ATOM     36  C26 UNL A   1      32.275  38.400  43.968  1.00  0.00    +0.000 C 
ATOM     37  C27 UNL A   1      32.398  39.512  44.806  1.00  0.00    +0.000 C 
ATOM     38  C28 UNL A   1      31.276  39.578  45.614  1.00  0.00    +0.000 C 
ATOM     39  N4  UNL A   1      30.476  38.499  45.273  1.00  0.00    +0.000 N 
ATOM     40  C29 UNL A   1      30.958  40.543  46.633  1.00  0.00    +0.000 C 
ATOM     52  C36 UNL A   1      29.792  40.589  47.322  1.00  0.00    +0.000 C 
ATOM     53  N5  UNL A   1      28.691  39.753  47.224  1.00  0.00    +0.000 N 
ATOM     54  C37 UNL A   1      27.826  40.191  48.106  1.00  0.00    +0.000 C 
ATOM     55  C38 UNL A   1      26.454  39.669  48.428  1.00  0.00    +0.000 C 
ATOM     67  C45 UNL A   1      25.967  38.620  47.738  1.00  0.00    +0.000 C 
ATOM     68  C46 UNL A   1      24.666  37.998  47.957  1.00  0.00    +0.000 C 
ATOM     69  C47 UNL A   1      24.560  36.917  47.166  1.00  0.00    +0.000 C 
ATOM     70  C48 UNL A   1      25.773  36.795  46.354  1.00  0.00    +0.000 C 
ATOM     71  N6  UNL A   1      26.532  37.876  46.729  1.00  0.00    +0.000 N 
ATOM     72  C49 UNL A   1      28.295  41.353  48.878  1.00  0.00    +0.000 C 
ATOM     73  C50 UNL A   1      29.485  41.573  48.337  1.00  0.00    +0.000 C 
ATOM     74  C51 UNL A   1      28.776  34.847  43.399  1.00  0.00    +0.000 C 
ATOM     75  C52 UNL A   1      27.524  34.653  43.793  1.00  0.00    +0.000 C 
ATOM    111  H21 UNL A   1      32.948  38.111  43.242  1.00  0.00    +0.000 H 
ATOM    112  H22 UNL A   1      33.193  40.171  44.820  1.00  0.00    +0.000 H 
ATOM    113  H23 UNL A   1      29.601  38.295  45.675  1.00  0.00    +0.000 H 
ATOM    114  H24 UNL A   1      23.944  38.332  48.614  1.00  0.00    +0.000 H 
ATOM    115  H25 UNL A   1      23.752  36.276  47.134  1.00  0.00    +0.000 H 
ATOM    116  H26 UNL A   1      27.398  38.097  46.316  1.00  0.00    +0.000 H 
ATOM    117  H27 UNL A   1      27.821  41.861  49.639  1.00  0.00    +0.000 H 
ATOM    118  H28 UNL A   1      30.112  42.348  48.607  1.00  0.00    +0.000 H 
ATOM    119  H29 UNL A   1      29.287  34.225  42.753  1.00  0.00    +0.000 H 
ATOM    120  H30 UNL A   1      26.856  33.922  43.504  1.00  0.00    +0.000 H 
ENDROOT
BRANCH   19   18
ATOM     76  C53 UNL A   1      24.171  34.691  44.237  1.00  0.00    +0.000 C 
ATOM    109  H19 UNL A   1      24.173  31.733  46.669  1.00  0.00    +0.000 H 
ATOM     77  C54 UNL A   1      23.303  33.621  44.033  1.00  0.00    +0.000 C 
ATOM     15  C11 UNL A   1      23.359  32.511  44.879  1.00  0.00    +0.000 C 
ATOM     16  C12 UNL A   1      24.181  32.529  46.010  1.00  0.00    +0.000 C 
ATOM     17  C13 UNL A   1      25.010  33.627  46.246  1.00  0.00    +0.000 C 
ATOM    110  H20 UNL A   1      25.601  33.652  47.092  1.00  0.00    +0.000 H 
ATOM     18  C14 UNL A   1      25.046  34.695  45.335  1.00  0.00    +0.000 C 
ATOM    121  H31 UNL A   1      24.172  35.485  43.579  1.00  0.00    +0.000 H 
ATOM    122  H32 UNL A   1      22.621  33.649  43.259  1.00  0.00    +0.000 H 
BRANCH   15   13
ATOM     13  C10 UNL A   1      22.569  31.295  44.589  1.00  0.00    +0.000 C 
ATOM     14  O2  UNL A   1      23.140  30.221  44.425  1.00  0.00    +0.000 O 
BRANCH   13   12
ATOM    108  H18 UNL A   1      20.863  31.609  43.584  1.00  0.00    +0.000 H 
ATOM     12  N2  UNL A   1      21.203  31.381  44.479  1.00  0.00    +0.000 N 
BRANCH   12   11
ATOM    106  H16 UNL A   1      19.330  30.726  45.050  1.00  0.00    +0.000 H 
ATOM     11  C9  UNL A   1      20.186  31.182  45.502  1.00  0.00    +0.000 C 
ATOM    107  H17 UNL A   1      20.607  30.559  46.263  1.00  0.00    +0.000 H 
BRANCH   11   10
ATOM    105  H15 UNL A   1      20.463  32.684  46.936  1.00  0.00    +0.000 H 
ATOM     10  C8  UNL A   1      19.756  32.491  46.157  1.00  0.00    +0.000 C 
ATOM    104  H14 UNL A   1      18.754  32.371  46.513  1.00  0.00    +0.000 H 
BRANCH   10    9
ATOM      9  C7  UNL A   1      19.789  33.713  45.235  1.00  0.00    +0.000 C 
ATOM    102  H12 UNL A   1      20.227  34.525  45.778  1.00  0.00    +0.000 H 
ATOM    103  H13 UNL A   1      20.354  33.421  44.374  1.00  0.00    +0.000 H 
BRANCH    9    8
ATOM    100  H10 UNL A   1      17.914  34.664  45.516  1.00  0.00    +0.000 H 
ATOM    101  H11 UNL A   1      18.626  34.810  43.878  1.00  0.00    +0.000 H 
ATOM      8  C6  UNL A   1      18.424  34.173  44.714  1.00  0.00    +0.000 C 
BRANCH    8    7
ATOM     98  H8  UNL A   1      17.657  32.190  44.794  1.00  0.00    +0.000 H 
ATOM     99  H9  UNL A   1      16.511  33.436  44.231  1.00  0.00    +0.000 H 
ATOM      7  C5  UNL A   1      17.511  33.057  44.186  1.00  0.00    +0.000 C 
BRANCH    7    6
ATOM     97  H7  UNL A   1      18.812  32.757  42.526  1.00  0.00    +0.000 H 
ATOM      6  C4  UNL A   1      17.765  32.669  42.728  1.00  0.00    +0.000 C 
ATOM     96  H6  UNL A   1      17.207  33.321  42.088  1.00  0.00    +0.000 H 
BRANCH    6    5
ATOM      5  N1  UNL A   1      17.358  31.301  42.481  1.00  0.00    +0.000 N 
ATOM     95  H5  UNL A   1      17.968  30.778  41.913  1.00  0.00    +0.000 H 
BRANCH    5    3
ATOM      3  C3  UNL A   1      16.253  30.632  42.920  1.00  0.00    +0.000 C 
ATOM      4  O1  UNL A   1      15.170  31.208  42.789  1.00  0.00    +0.000 O 
BRANCH    3    2
ATOM      2  C2  UNL A   1      16.401  29.244  43.557  1.00  0.00    +0.000 C 
ATOM     94  H4  UNL A   1      15.859  29.281  44.479  1.00  0.00    +0.000 H 
BRANCH    2    1
ATOM      1  C1  UNL A   1      17.857  28.907  43.888  1.00  0.00    +0.000 C 
ATOM     91  H1  UNL A   1      18.497  29.312  43.132  1.00  0.00    +0.000 H 
ATOM     92  H2  UNL A   1      17.977  27.844  43.926  1.00  0.00    +0.000 H 
ATOM     93  H3  UNL A   1      18.113  29.329  44.838  1.00  0.00    +0.000 H 
ENDBRANCH    2    1
BRANCH    2   78
ATOM    134  H44 UNL A   1      14.119  25.246  42.971  1.00  0.00    +0.000 H 
ATOM     78  C55 UNL A   1      15.788  28.156  42.688  1.00  0.00    +0.000 C 
ATOM     79  C56 UNL A   1      15.826  28.219  41.288  1.00  0.00    +0.000 C 
ATOM     80  C57 UNL A   1      15.266  27.197  40.518  1.00  0.00    +0.000 C 
ATOM     81  C58 UNL A   1      14.663  26.090  41.121  1.00  0.00    +0.000 C 
ATOM     88  C64 UNL A   1      14.589  26.039  42.508  1.00  0.00    +0.000 C 
ATOM     89  C65 UNL A   1      15.150  27.060  43.274  1.00  0.00    +0.000 C 
ATOM     90  F16 UNL A   1      15.077  26.967  44.611  1.00  0.00    +0.000 F 
ATOM    123  H33 UNL A   1      16.271  29.025  40.824  1.00  0.00    +0.000 H 
ATOM    124  H34 UNL A   1      15.298  27.261  39.489  1.00  0.00    +0.000 H 
BRANCH   81   82
ATOM     82  O3  UNL A   1      14.187  25.170  40.238  1.00  0.00    +0.000 O 
BRANCH   82   83
ATOM    129  H39 UNL A   1      16.689  22.919  37.679  1.00  0.00    +0.000 H 
ATOM    130  H40 UNL A   1      14.121  23.625  36.352  1.00  0.00    +0.000 H 
ATOM    131  H41 UNL A   1      15.684  24.315  36.083  1.00  0.00    +0.000 H 
ATOM    132  H42 UNL A   1      15.224  26.004  37.556  1.00  0.00    +0.000 H 
ATOM    133  H43 UNL A   1      13.614  25.416  37.696  1.00  0.00    +0.000 H 
ATOM     83  C59 UNL A   1      14.972  24.627  39.188  1.00  0.00    +0.000 C 
ATOM     84  C60 UNL A   1      15.067  23.106  39.095  1.00  0.00    +0.000 C 
ATOM     85  C61 UNL A   1      15.620  22.885  37.696  1.00  0.00    +0.000 C 
ATOM     86  C62 UNL A   1      15.000  23.989  36.840  1.00  0.00    +0.000 C 
ATOM     87  C63 UNL A   1      14.642  25.135  37.785  1.00  0.00    +0.000 C 
ATOM    125  H35 UNL A   1      15.921  25.005  39.507  1.00  0.00    +0.000 H 
ATOM    126  H36 UNL A   1      14.104  22.653  39.205  1.00  0.00    +0.000 H 
ATOM    127  H37 UNL A   1      15.675  22.673  39.862  1.00  0.00    +0.000 H 
ATOM    128  H38 UNL A   1      15.334  21.921  37.329  1.00  0.00    +0.000 H 
ENDBRANCH   82   83
ENDBRANCH   81   82
ENDBRANCH    2   78
ENDBRANCH    3    2
ENDBRANCH    5    3
ENDBRANCH    6    5
ENDBRANCH    7    6
ENDBRANCH    8    7
ENDBRANCH    9    8
ENDBRANCH   10    9
ENDBRANCH   11   10
ENDBRANCH   12   11
ENDBRANCH   13   12
ENDBRANCH   15   13
ENDBRANCH   19   18
BRANCH   23   24
ATOM     33  C24 UNL A   1      31.440  36.095  41.408  1.00  0.00    +0.000 C 
ATOM     34  F5  UNL A   1      30.728  37.139  40.957  1.00  0.00    +0.000 F 
ATOM     24  C19 UNL A   1      31.434  35.772  42.774  1.00  0.00    +0.000 C 
ATOM     25  C20 UNL A   1      32.190  34.669  43.192  1.00  0.00    +0.000 C 
ATOM     26  F1  UNL A   1      32.220  34.324  44.489  1.00  0.00    +0.000 F 
ATOM     27  C21 UNL A   1      32.932  33.923  42.280  1.00  0.00    +0.000 C 
ATOM     28  F2  UNL A   1      33.666  32.886  42.706  1.00  0.00    +0.000 F 
ATOM     29  C22 UNL A   1      32.913  34.251  40.933  1.00  0.00    +0.000 C 
ATOM     30  F3  UNL A   1      33.613  33.521  40.054  1.00  0.00    +0.000 F 
ATOM     31  C23 UNL A   1      32.166  35.335  40.496  1.00  0.00    +0.000 C 
ATOM     32  F4  UNL A   1      32.136  35.645  39.192  1.00  0.00    +0.000 F 
ENDBRANCH   23   24
BRANCH   40   41
ATOM     41  C30 UNL A   1      31.988  41.585  46.953  1.00  0.00    +0.000 C 
ATOM     42  C31 UNL A   1      33.165  41.257  47.642  1.00  0.00    +0.000 C 
ATOM     43  F6  UNL A   1      33.359  40.005  48.085  1.00  0.00    +0.000 F 
ATOM     44  C32 UNL A   1      34.132  42.222  47.903  1.00  0.00    +0.000 C 
ATOM     45  F7  UNL A   1      35.233  41.895  48.592  1.00  0.00    +0.000 F 
ATOM     46  C33 UNL A   1      33.954  43.524  47.459  1.00  0.00    +0.000 C 
ATOM     47  F8  UNL A   1      34.892  44.450  47.703  1.00  0.00    +0.000 F 
ATOM     48  C34 UNL A   1      32.801  43.868  46.768  1.00  0.00    +0.000 C 
ATOM     49  F9  UNL A   1      32.632  45.124  46.331  1.00  0.00    +0.000 F 
ATOM     50  C35 UNL A   1      31.820  42.911  46.527  1.00  0.00    +0.000 C 
ATOM     51  F10 UNL A   1      30.712  43.272  45.862  1.00  0.00    +0.000 F 
ENDBRANCH   40   41
BRANCH   55   56
ATOM     65  C44 UNL A   1      24.776  41.363  49.235  1.00  0.00    +0.000 C 
ATOM     66  F15 UNL A   1      24.684  41.857  47.992  1.00  0.00    +0.000 F 
ATOM     56  C39 UNL A   1      25.642  40.292  49.504  1.00  0.00    +0.000 C 
ATOM     57  C40 UNL A   1      25.702  39.817  50.821  1.00  0.00    +0.000 C 
ATOM     58  F11 UNL A   1      26.499  38.779  51.120  1.00  0.00    +0.000 F 
ATOM     59  C41 UNL A   1      24.911  40.371  51.825  1.00  0.00    +0.000 C 
ATOM     60  F12 UNL A   1      24.952  39.865  53.064  1.00  0.00    +0.000 F 
ATOM     61  C42 UNL A   1      24.065  41.433  51.536  1.00  0.00    +0.000 C 
ATOM     62  F13 UNL A   1      23.304  41.965  52.501  1.00  0.00    +0.000 F 
ATOM     63  C43 UNL A   1      24.005  41.935  50.245  1.00  0.00    +0.000 C 
ATOM     64  F14 UNL A   1      23.198  42.968  49.966  1.00  0.00    +0.000 F 
ENDBRANCH   55   56
TORSDOF 19
ENDMDL
MODEL 3
REMARK VINA RESULT:     -11.1     36.828     44.183
ROOT
ATOM     19  C15 UNL A   1      20.595  18.834   5.877  1.00  0.00    +0.000 C 
ATOM     20  C16 UNL A   1      19.448  18.558   6.807  1.00  0.00    +0.000 C 
ATOM     21  N3  UNL A   1      18.223  19.015   6.765  1.00  0.00    +0.000 N 
ATOM     22  C17 UNL A   1      17.558  18.412   7.824  1.00  0.00    +0.000 C 
ATOM     23  C18 UNL A   1      16.275  18.590   8.220  1.00  0.00    +0.000 C 
ATOM     35  C25 UNL A   1      15.351  19.503   7.600  1.00  0.00    +0.000 C 
ATOM     36  C26 UNL A   1      14.075  19.845   8.011  1.00  0.00    +0.000 C 
ATOM     37  C27 UNL A   1      13.534  20.723   7.065  1.00  0.00    +0.000 C 
ATOM     38  C28 UNL A   1      14.487  20.955   6.088  1.00  0.00    +0.000 C 
ATOM     39  N4  UNL A   1      15.603  20.210   6.435  1.00  0.00    +0.000 N 
ATOM     40  C29 UNL A   1      14.388  21.782   4.914  1.00  0.00    +0.000 C 
ATOM     52  C36 UNL A   1      15.401  22.026   4.050  1.00  0.00    +0.000 C 
ATOM     53  N5  UNL A   1      16.704  21.552   4.080  1.00  0.00    +0.000 N 
ATOM     54  C37 UNL A   1      17.294  22.053   3.023  1.00  0.00    +0.000 C 
ATOM     55  C38 UNL A   1      18.713  21.879   2.557  1.00  0.00    +0.000 C 
ATOM     67  C45 UNL A   1      19.562  21.136   3.292  1.00  0.00    +0.000 C 
ATOM     68  C46 UNL A   1      20.955  20.865   2.953  1.00  0.00    +0.000 C 
ATOM     69  C47 UNL A   1      21.465  20.006   3.851  1.00  0.00    +0.000 C 
ATOM     70  C48 UNL A   1      20.443  19.696   4.853  1.00  0.00    +0.000 C 
ATOM     71  N6  UNL A   1      19.361  20.449   4.466  1.00  0.00    +0.000 N 
ATOM     72  C49 UNL A   1      16.419  22.894   2.191  1.00  0.00    +0.000 C 
ATOM     73  C50 UNL A   1      15.287  22.869   2.880  1.00  0.00    +0.000 C 
ATOM     74  C51 UNL A   1      18.506  17.534   8.475  1.00  0.00    +0.000 C 
ATOM     75  C52 UNL A   1      19.705  17.626   7.916  1.00  0.00    +0.000 C 
ATOM    111  H21 UNL A   1      13.604  19.512   8.865  1.00  0.00    +0.000 H 
ATOM    112  H22 UNL A   1      12.585  21.128   7.092  1.00  0.00    +0.000 H 
ATOM    113  H23 UNL A   1      16.447  20.187   5.929  1.00  0.00    +0.000 H 
ATOM    114  H24 UNL A   1      21.466  21.267   2.152  1.00  0.00    +0.000 H 
ATOM    115  H25 UNL A   1      22.424  19.625   3.837  1.00  0.00    +0.000 H 
ATOM    116  H26 UNL A   1      18.522  20.492   4.979  1.00  0.00    +0.000 H 
ATOM    117  H27 UNL A   1      16.632  23.375   1.304  1.00  0.00    +0.000 H 
ATOM    118  H28 UNL A   1      14.433  23.386   2.614  1.00  0.00    +0.000 H 
ATOM    119  H29 UNL A   1      18.277  16.916   9.269  1.00  0.00    +0.000 H 
ATOM    120  H30 UNL A   1      20.587  17.165   8.188  1.00  0.00    +0.000 H 
ENDROOT
BRANCH   19   18
ATOM     76  C53 UNL A   1      22.899  18.604   6.802  1.00  0.00    +0.000 C 
ATOM    109  H19 UNL A   1      23.301  15.143   5.216  1.00  0.00    +0.000 H 
ATOM     77  C54 UNL A   1      24.067  17.875   7.010  1.00  0.00    +0.000 C 
ATOM     15  C11 UNL A   1      24.179  16.582   6.491  1.00  0.00    +0.000 C 
ATOM     16  C12 UNL A   1      23.186  16.073   5.649  1.00  0.00    +0.000 C 
ATOM     17  C13 UNL A   1      22.040  16.828   5.395  1.00  0.00    +0.000 C 
ATOM    110  H20 UNL A   1      21.315  16.464   4.756  1.00  0.00    +0.000 H 
ATOM     18  C14 UNL A   1      21.867  18.080   6.008  1.00  0.00    +0.000 C 
ATOM    121  H31 UNL A   1      22.792  19.536   7.233  1.00  0.00    +0.000 H 
ATOM    122  H32 UNL A   1      24.848  18.288   7.544  1.00  0.00    +0.000 H 
BRANCH   15   13
ATOM     13  C10 UNL A   1      25.334  15.725   6.834  1.00  0.00    +0.000 C 
ATOM     14  O2  UNL A   1      26.232  15.556   6.015  1.00  0.00    +0.000 O 
BRANCH   13   12
ATOM    108  H18 UNL A   1      26.198  15.263   8.583  1.00  0.00    +0.000 H 
ATOM     12  N2  UNL A   1      25.381  15.102   8.057  1.00  0.00    +0.000 N 
BRANCH   12   11
ATOM    106  H16 UNL A   1      23.538  14.173   8.045  1.00  0.00    +0.000 H 
ATOM     11  C9  UNL A   1      24.393  14.238   8.685  1.00  0.00    +0.000 C 
ATOM    107  H17 UNL A   1      24.845  13.280   8.834  1.00  0.00    +0.000 H 
BRANCH   11   10
ATOM    105  H15 UNL A   1      24.835  15.083  10.551  1.00  0.00    +0.000 H 
ATOM     10  C8  UNL A   1      23.947  14.760  10.048  1.00  0.00    +0.000 C 
ATOM    104  H14 UNL A   1      23.437  13.969  10.556  1.00  0.00    +0.000 H 
BRANCH   10    9
ATOM      9  C7  UNL A   1      23.015  15.973   9.999  1.00  0.00    +0.000 C 
ATOM    102  H12 UNL A   1      23.445  16.694   9.336  1.00  0.00    +0.000 H 
ATOM    103  H13 UNL A   1      22.065  15.605   9.672  1.00  0.00    +0.000 H 
BRANCH    9    8
ATOM    100  H10 UNL A   1      23.230  17.621  11.318  1.00  0.00    +0.000 H 
ATOM    101  H11 UNL A   1      21.704  16.694  11.468  1.00  0.00    +0.000 H 
ATOM      8  C6  UNL A   1      22.766  16.657  11.347  1.00  0.00    +0.000 C 
BRANCH    8    7
ATOM     98  H8  UNL A   1      22.747  15.005  12.689  1.00  0.00    +0.000 H 
ATOM     99  H9  UNL A   1      24.346  15.736  12.392  1.00  0.00    +0.000 H 
ATOM      7  C5  UNL A   1      23.306  15.910  12.575  1.00  0.00    +0.000 C 
BRANCH    7    6
ATOM     97  H7  UNL A   1      23.920  16.286  14.579  1.00  0.00    +0.000 H 
ATOM      6  C4  UNL A   1      23.218  16.696  13.884  1.00  0.00    +0.000 C 
ATOM     96  H6  UNL A   1      22.223  16.621  14.272  1.00  0.00    +0.000 H 
BRANCH    6    5
ATOM      5  N1  UNL A   1      23.539  18.092  13.670  1.00  0.00    +0.000 N 
ATOM     95  H5  UNL A   1      22.772  18.707  13.693  1.00  0.00    +0.000 H 
BRANCH    5    3
ATOM      3  C3  UNL A   1      24.750  18.678  13.438  1.00  0.00    +0.000 C 
ATOM      4  O1  UNL A   1      25.725  18.169  13.995  1.00  0.00    +0.000 O 
BRANCH    3    2
ATOM      2  C2  UNL A   1      24.841  19.918  12.540  1.00  0.00    +0.000 C 
ATOM     94  H4  UNL A   1      25.213  20.707  13.159  1.00  0.00    +0.000 H 
BRANCH    2    1
ATOM      1  C1  UNL A   1      23.473  20.353  12.007  1.00  0.00    +0.000 C 
ATOM     91  H1  UNL A   1      23.605  20.924  11.112  1.00  0.00    +0.000 H 
ATOM     92  H2  UNL A   1      22.978  20.952  12.742  1.00  0.00    +0.000 H 
ATOM     93  H3  UNL A   1      22.882  19.487  11.795  1.00  0.00    +0.000 H 
ENDBRANCH    2    1
BRANCH    2   78
ATOM    134  H44 UNL A   1      28.583  21.099  10.063  1.00  0.00    +0.000 H 
ATOM     78  C55 UNL A   1      25.817  19.713  11.392  1.00  0.00    +0.000 C 
ATOM     79  C56 UNL A   1      25.689  18.645  10.494  1.00  0.00    +0.000 C 
ATOM     80  C57 UNL A   1      26.595  18.491   9.442  1.00  0.00    +0.000 C 
ATOM     81  C58 UNL A   1      27.642  19.398   9.256  1.00  0.00    +0.000 C 
ATOM     88  C64 UNL A   1      27.797  20.439  10.165  1.00  0.00    +0.000 C 
ATOM     89  C65 UNL A   1      26.891  20.589  11.213  1.00  0.00    +0.000 C 
ATOM     90  F16 UNL A   1      27.061  21.618  12.058  1.00  0.00    +0.000 F 
ATOM    123  H33 UNL A   1      24.920  17.967  10.611  1.00  0.00    +0.000 H 
ATOM    124  H34 UNL A   1      26.490  17.696   8.793  1.00  0.00    +0.000 H 
BRANCH   81   82
ATOM     82  O3  UNL A   1      28.423  19.127   8.175  1.00  0.00    +0.000 O 
BRANCH   82   83
ATOM    129  H39 UNL A   1      26.263  18.303   4.635  1.00  0.00    +0.000 H 
ATOM    130  H40 UNL A   1      29.167  18.654   4.086  1.00  0.00    +0.000 H 
ATOM    131  H41 UNL A   1      28.260  17.182   4.122  1.00  0.00    +0.000 H 
ATOM    132  H42 UNL A   1      28.859  16.832   6.302  1.00  0.00    +0.000 H 
ATOM    133  H43 UNL A   1      29.894  18.203   6.217  1.00  0.00    +0.000 H 
ATOM     83  C59 UNL A   1      27.903  18.648   6.945  1.00  0.00    +0.000 C 
ATOM     84  C60 UNL A   1      27.198  19.654   6.039  1.00  0.00    +0.000 C 
ATOM     85  C61 UNL A   1      27.131  18.924   4.707  1.00  0.00    +0.000 C 
ATOM     86  C62 UNL A   1      28.422  18.111   4.630  1.00  0.00    +0.000 C 
ATOM     87  C63 UNL A   1      28.886  17.876   6.066  1.00  0.00    +0.000 C 
ATOM    125  H35 UNL A   1      27.166  17.985   7.349  1.00  0.00    +0.000 H 
ATOM    126  H36 UNL A   1      27.764  20.558   5.955  1.00  0.00    +0.000 H 
ATOM    127  H37 UNL A   1      26.238  19.952   6.405  1.00  0.00    +0.000 H 
ATOM    128  H38 UNL A   1      27.079  19.624   3.899  1.00  0.00    +0.000 H 
ENDBRANCH   82   83
ENDBRANCH   81   82
ENDBRANCH    2   78
ENDBRANCH    3    2
ENDBRANCH    5    3
ENDBRANCH    6    5
ENDBRANCH    7    6
ENDBRANCH    8    7
ENDBRANCH    9    8
ENDBRANCH   10    9
ENDBRANCH   11   10
ENDBRANCH   12   11
ENDBRANCH   13   12
ENDBRANCH   15   13
ENDBRANCH   19   18
BRANCH   23   24
ATOM     33  C24 UNL A   1      15.769  18.354  10.673  1.00  0.00    +0.000 C 
ATOM     34  F5  UNL A   1      16.123  19.636  10.853  1.00  0.00    +0.000 F 
ATOM     24  C19 UNL A   1      15.783  17.790   9.388  1.00  0.00    +0.000 C 
ATOM     25  C20 UNL A   1      15.410  16.446   9.255  1.00  0.00    +0.000 C 
ATOM     26  F1  UNL A   1      15.401  15.864   8.046  1.00  0.00    +0.000 F 
ATOM     27  C21 UNL A   1      15.030  15.696  10.365  1.00  0.00    +0.000 C 
ATOM     28  F2  UNL A   1      14.656  14.419  10.212  1.00  0.00    +0.000 F 
ATOM     29  C22 UNL A   1      15.038  16.269  11.629  1.00  0.00    +0.000 C 
ATOM     30  F3  UNL A   1      14.689  15.540  12.698  1.00  0.00    +0.000 F 
ATOM     31  C23 UNL A   1      15.409  17.596  11.784  1.00  0.00    +0.000 C 
ATOM     32  F4  UNL A   1      15.429  18.147  13.005  1.00  0.00    +0.000 F 
ENDBRANCH   23   24
BRANCH   40   41
ATOM     41  C30 UNL A   1      13.067  22.432   4.629  1.00  0.00    +0.000 C 
ATOM     42  C31 UNL A   1      12.122  21.823   3.791  1.00  0.00    +0.000 C 
ATOM     43  F6  UNL A   1      12.414  20.667   3.176  1.00  0.00    +0.000 F 
ATOM     44  C32 UNL A   1      10.885  22.416   3.560  1.00  0.00    +0.000 C 
ATOM     45  F7  UNL A   1      10.010  21.833   2.729  1.00  0.00    +0.000 F 
ATOM     46  C33 UNL A   1      10.560  23.613   4.181  1.00  0.00    +0.000 C 
ATOM     47  F8  UNL A   1       9.363  24.176   3.965  1.00  0.00    +0.000 F 
ATOM     48  C34 UNL A   1      11.477  24.227   5.021  1.00  0.00    +0.000 C 
ATOM     49  F9  UNL A   1      11.159  25.379   5.629  1.00  0.00    +0.000 F 
ATOM     50  C35 UNL A   1      12.724  23.650   5.235  1.00  0.00    +0.000 C 
ATOM     51  F10 UNL A   1      13.594  24.270   6.047  1.00  0.00    +0.000 F 
ENDBRANCH   40   41
BRANCH   55   56
ATOM     65  C44 UNL A   1      19.906  23.706   1.303  1.00  0.00    +0.000 C 
ATOM     66  F15 UNL A   1      20.180  24.318   2.465  1.00  0.00    +0.000 F 
ATOM     56  C39 UNL A   1      19.177  22.508   1.294  1.00  0.00    +0.000 C 
ATOM     57  C40 UNL A   1      18.915  21.912   0.054  1.00  0.00    +0.000 C 
ATOM     58  F11 UNL A   1      18.241  20.754  -0.002  1.00  0.00    +0.000 F 
ATOM     59  C41 UNL A   1      19.384  22.477  -1.131  1.00  0.00    +0.000 C 
ATOM     60  F12 UNL A   1      19.162  21.861  -2.298  1.00  0.00    +0.000 F 
ATOM     61  C42 UNL A   1      20.099  23.666  -1.098  1.00  0.00    +0.000 C 
ATOM     62  F13 UNL A   1      20.551  24.208  -2.236  1.00  0.00    +0.000 F 
ATOM     63  C43 UNL A   1      20.352  24.285   0.117  1.00  0.00    +0.000 C 
ATOM     64  F14 UNL A   1      21.032  25.439   0.151  1.00  0.00    +0.000 F 
ENDBRANCH   55   56
TORSDOF 19
ENDMDL
MODEL 4
REMARK VINA RESULT:     -11.0      3.890      8.348
ROOT
ATOM     19  C15 UNL A   1      21.298  38.109  49.295  1.00  0.00    +0.000 C 
ATOM     20  C16 UNL A   1      22.148  39.341  49.411  1.00  0.00    +0.000 C 
ATOM     21  N3  UNL A   1      23.343  39.568  48.926  1.00  0.00    +0.000 N 
ATOM     22  C17 UNL A   1      23.650  40.875  49.278  1.00  0.00    +0.000 C 
ATOM     23  C18 UNL A   1      24.791  41.563  49.035  1.00  0.00    +0.000 C 
ATOM     35  C25 UNL A   1      25.945  41.018  48.369  1.00  0.00    +0.000 C 
ATOM     36  C26 UNL A   1      27.190  41.596  48.192  1.00  0.00    +0.000 C 
ATOM     37  C27 UNL A   1      27.974  40.719  47.435  1.00  0.00    +0.000 C 
ATOM     38  C28 UNL A   1      27.229  39.581  47.173  1.00  0.00    +0.000 C 
ATOM     39  N4  UNL A   1      25.990  39.773  47.763  1.00  0.00    +0.000 N 
ATOM     40  C29 UNL A   1      27.609  38.411  46.428  1.00  0.00    +0.000 C 
ATOM     52  C36 UNL A   1      26.850  37.297  46.291  1.00  0.00    +0.000 C 
ATOM     53  N5  UNL A   1      25.585  37.040  46.798  1.00  0.00    +0.000 N 
ATOM     54  C37 UNL A   1      25.267  35.839  46.379  1.00  0.00    +0.000 C 
ATOM     55  C38 UNL A   1      24.015  35.048  46.633  1.00  0.00    +0.000 C 
ATOM     67  C45 UNL A   1      23.048  35.572  47.411  1.00  0.00    +0.000 C 
ATOM     68  C46 UNL A   1      21.777  34.929  47.723  1.00  0.00    +0.000 C 
ATOM     69  C47 UNL A   1      21.019  35.781  48.432  1.00  0.00    +0.000 C 
ATOM     70  C48 UNL A   1      21.769  37.019  48.657  1.00  0.00    +0.000 C 
ATOM     71  N6  UNL A   1      22.981  36.785  48.054  1.00  0.00    +0.000 N 
ATOM     72  C49 UNL A   1      26.297  35.205  45.541  1.00  0.00    +0.000 C 
ATOM     73  C50 UNL A   1      27.252  36.124  45.546  1.00  0.00    +0.000 C 
ATOM     74  C51 UNL A   1      22.508  41.403  49.992  1.00  0.00    +0.000 C 
ATOM     75  C52 UNL A   1      21.571  40.477  50.146  1.00  0.00    +0.000 C 
ATOM    111  H21 UNL A   1      27.488  42.513  48.556  1.00  0.00    +0.000 H 
ATOM    112  H22 UNL A   1      28.942  40.892  47.124  1.00  0.00    +0.000 H 
ATOM    113  H23 UNL A   1      25.252  39.120  47.752  1.00  0.00    +0.000 H 
ATOM    114  H24 UNL A   1      21.503  33.974  47.445  1.00  0.00    +0.000 H 
ATOM    115  H25 UNL A   1      20.060  35.594  48.766  1.00  0.00    +0.000 H 
ATOM    116  H26 UNL A   1      23.729  37.425  48.079  1.00  0.00    +0.000 H 
ATOM    117  H27 UNL A   1      26.279  34.287  45.072  1.00  0.00    +0.000 H 
ATOM    118  H28 UNL A   1      28.166  36.015  45.079  1.00  0.00    +0.000 H 
ATOM    119  H29 UNL A   1      22.432  42.373  50.334  1.00  0.00    +0.000 H 
ATOM    120  H30 UNL A   1      20.673  40.537  50.651  1.00  0.00    +0.000 H 
ENDROOT
BRANCH   19   18
ATOM     76  C53 UNL A   1      18.866  38.499  48.908  1.00  0.00    +0.000 C 
ATOM    109  H19 UNL A   1      18.000  37.240  52.419  1.00  0.00    +0.000 H 
ATOM     77  C54 UNL A   1      17.536  38.429  49.314  1.00  0.00    +0.000 C 
ATOM     15  C11 UNL A   1      17.220  37.899  50.568  1.00  0.00    +0.000 C 
ATOM     16  C12 UNL A   1      18.236  37.571  51.470  1.00  0.00    +0.000 C 
ATOM     17  C13 UNL A   1      19.572  37.694  51.082  1.00  0.00    +0.000 C 
ATOM    110  H20 UNL A   1      20.325  37.474  51.753  1.00  0.00    +0.000 H 
ATOM     18  C14 UNL A   1      19.895  38.115  49.781  1.00  0.00    +0.000 C 
ATOM    121  H31 UNL A   1      19.097  38.835  47.960  1.00  0.00    +0.000 H 
ATOM    122  H32 UNL A   1      16.786  38.768  48.691  1.00  0.00    +0.000 H 
BRANCH   15   13
ATOM     13  C10 UNL A   1      15.814  37.660  50.958  1.00  0.00    +0.000 C 
ATOM     14  O2  UNL A   1      15.334  38.266  51.911  1.00  0.00    +0.000 O 
BRANCH   13   12
ATOM    108  H18 UNL A   1      15.276  35.799  50.444  1.00  0.00    +0.000 H 
ATOM     12  N2  UNL A   1      15.062  36.743  50.266  1.00  0.00    +0.000 N 
BRANCH   12   11
ATOM    106  H16 UNL A   1      13.074  36.605  49.722  1.00  0.00    +0.000 H 
ATOM     11  C9  UNL A   1      13.991  36.971  49.307  1.00  0.00    +0.000 C 
ATOM    107  H17 UNL A   1      13.942  38.022  49.116  1.00  0.00    +0.000 H 
BRANCH   11   10
ATOM    105  H15 UNL A   1      13.810  36.889  47.221  1.00  0.00    +0.000 H 
ATOM     10  C8  UNL A   1      14.243  36.267  47.977  1.00  0.00    +0.000 C 
ATOM    104  H14 UNL A   1      13.803  35.293  48.027  1.00  0.00    +0.000 H 
BRANCH   10    9
ATOM      9  C7  UNL A   1      15.719  36.103  47.605  1.00  0.00    +0.000 C 
ATOM    102  H12 UNL A   1      16.307  36.375  48.456  1.00  0.00    +0.000 H 
ATOM    103  H13 UNL A   1      15.839  35.081  47.311  1.00  0.00    +0.000 H 
BRANCH    9    8
ATOM    100  H10 UNL A   1      15.387  36.988  45.706  1.00  0.00    +0.000 H 
ATOM    101  H11 UNL A   1      16.456  37.901  46.818  1.00  0.00    +0.000 H 
ATOM      8  C6  UNL A   1      16.187  36.946  46.415  1.00  0.00    +0.000 C 
BRANCH    8    7
ATOM     98  H8  UNL A   1      17.525  36.949  44.761  1.00  0.00    +0.000 H 
ATOM     99  H9  UNL A   1      18.263  36.596  46.346  1.00  0.00    +0.000 H 
ATOM      7  C5  UNL A   1      17.436  36.425  45.689  1.00  0.00    +0.000 C 
BRANCH    7    6
ATOM     97  H7  UNL A   1      17.011  34.773  44.414  1.00  0.00    +0.000 H 
ATOM      6  C4  UNL A   1      17.416  34.924  45.393  1.00  0.00    +0.000 C 
ATOM     96  H6  UNL A   1      16.813  34.430  46.126  1.00  0.00    +0.000 H 
BRANCH    6    5
ATOM      5  N1  UNL A   1      18.755  34.374  45.431  1.00  0.00    +0.000 N 
ATOM     95  H5  UNL A   1      19.478  35.035  45.517  1.00  0.00    +0.000 H 
BRANCH    5    3
ATOM      3  C3  UNL A   1      19.160  33.073  45.364  1.00  0.00    +0.000 C 
ATOM      4  O1  UNL A   1      19.523  32.551  46.420  1.00  0.00    +0.000 O 
BRANCH    3    2
ATOM      2  C2  UNL A   1      19.167  32.341  44.014  1.00  0.00    +0.000 C 
ATOM     94  H4  UNL A   1      20.171  32.006  43.863  1.00  0.00    +0.000 H 
BRANCH    2    1
ATOM      1  C1  UNL A   1      18.806  33.266  42.849  1.00  0.00    +0.000 C 
ATOM     91  H1  UNL A   1      17.998  32.839  42.293  1.00  0.00    +0.000 H 
ATOM     92  H2  UNL A   1      19.656  33.383  42.210  1.00  0.00    +0.000 H 
ATOM     93  H3  UNL A   1      18.511  34.222  43.230  1.00  0.00    +0.000 H 
ENDBRANCH    2    1
BRANCH    2   78
ATOM    134  H44 UNL A   1      18.406  27.779  44.378  1.00  0.00    +0.000 H 
ATOM     78  C55 UNL A   1      18.256  31.123  44.028  1.00  0.00    +0.000 C 
ATOM     79  C56 UNL A   1      16.868  31.236  43.867  1.00  0.00    +0.000 C 
ATOM     80  C57 UNL A   1      16.060  30.097  43.871  1.00  0.00    +0.000 C 
ATOM     81  C58 UNL A   1      16.612  28.823  44.029  1.00  0.00    +0.000 C 
ATOM     88  C64 UNL A   1      17.984  28.707  44.227  1.00  0.00    +0.000 C 
ATOM     89  C65 UNL A   1      18.788  29.846  44.221  1.00  0.00    +0.000 C 
ATOM     90  F16 UNL A   1      20.109  29.693  44.395  1.00  0.00    +0.000 F 
ATOM    123  H33 UNL A   1      16.441  32.167  43.744  1.00  0.00    +0.000 H 
ATOM    124  H34 UNL A   1      15.040  30.198  43.757  1.00  0.00    +0.000 H 
BRANCH   81   82
ATOM     82  O3  UNL A   1      15.700  27.815  43.987  1.00  0.00    +0.000 O 
BRANCH   82   83
ATOM    129  H39 UNL A   1      14.156  27.304  40.084  1.00  0.00    +0.000 H 
ATOM    130  H40 UNL A   1      15.257  24.759  41.165  1.00  0.00    +0.000 H 
ATOM    131  H41 UNL A   1      13.598  25.209  40.982  1.00  0.00    +0.000 H 
ATOM    132  H42 UNL A   1      13.525  25.934  43.151  1.00  0.00    +0.000 H 
ATOM    133  H43 UNL A   1      15.120  25.335  43.384  1.00  0.00    +0.000 H 
ATOM     83  C59 UNL A   1      15.040  27.417  42.795  1.00  0.00    +0.000 C 
ATOM     84  C60 UNL A   1      15.774  27.645  41.475  1.00  0.00    +0.000 C 
ATOM     85  C61 UNL A   1      14.992  26.781  40.499  1.00  0.00    +0.000 C 
ATOM     86  C62 UNL A   1      14.558  25.557  41.303  1.00  0.00    +0.000 C 
ATOM     87  C63 UNL A   1      14.524  25.979  42.771  1.00  0.00    +0.000 C 
ATOM    125  H35 UNL A   1      14.221  28.105  42.847  1.00  0.00    +0.000 H 
ATOM    126  H36 UNL A   1      16.793  27.325  41.543  1.00  0.00    +0.000 H 
ATOM    127  H37 UNL A   1      15.816  28.674  41.188  1.00  0.00    +0.000 H 
ATOM    128  H38 UNL A   1      15.613  26.489  39.677  1.00  0.00    +0.000 H 
ENDBRANCH   82   83
ENDBRANCH   81   82
ENDBRANCH    2   78
ENDBRANCH    3    2
ENDBRANCH    5    3
ENDBRANCH    6    5
ENDBRANCH    7    6
ENDBRANCH    8    7
ENDBRANCH    9    8
ENDBRANCH   10    9
ENDBRANCH   11   10
ENDBRANCH   12   11
ENDBRANCH   13   12
ENDBRANCH   15   13
ENDBRANCH   19   18
BRANCH   23   24
ATOM     33  C24 UNL A   1      24.491  44.029  48.635  1.00  0.00    +0.000 C 
ATOM     34  F5  UNL A   1      23.989  43.756  47.422  1.00  0.00    +0.000 F 
ATOM     24  C19 UNL A   1      24.866  42.987  49.497  1.00  0.00    +0.000 C 
ATOM     25  C20 UNL A   1      25.390  43.327  50.751  1.00  0.00    +0.000 C 
ATOM     26  F1  UNL A   1      25.758  42.365  51.612  1.00  0.00    +0.000 F 
ATOM     27  C21 UNL A   1      25.526  44.659  51.133  1.00  0.00    +0.000 C 
ATOM     28  F2  UNL A   1      26.008  44.961  52.346  1.00  0.00    +0.000 F 
ATOM     29  C22 UNL A   1      25.162  45.674  50.260  1.00  0.00    +0.000 C 
ATOM     30  F3  UNL A   1      25.310  46.956  50.623  1.00  0.00    +0.000 F 
ATOM     31  C23 UNL A   1      24.646  45.360  49.012  1.00  0.00    +0.000 C 
ATOM     32  F4  UNL A   1      24.306  46.340  48.162  1.00  0.00    +0.000 F 
ENDBRANCH   23   24
BRANCH   40   41
ATOM     41  C30 UNL A   1      28.952  38.414  45.760  1.00  0.00    +0.000 C 
ATOM     42  C31 UNL A   1      29.195  39.197  44.622  1.00  0.00    +0.000 C 
ATOM     43  F6  UNL A   1      28.203  39.913  44.071  1.00  0.00    +0.000 F 
ATOM     44  C32 UNL A   1      30.454  39.223  44.030  1.00  0.00    +0.000 C 
ATOM     45  F7  UNL A   1      30.656  39.951  42.923  1.00  0.00    +0.000 F 
ATOM     46  C33 UNL A   1      31.497  38.490  44.577  1.00  0.00    +0.000 C 
ATOM     47  F8  UNL A   1      32.711  38.525  44.010  1.00  0.00    +0.000 F 
ATOM     48  C34 UNL A   1      31.279  37.716  45.707  1.00  0.00    +0.000 C 
ATOM     49  F9  UNL A   1      32.288  37.015  46.242  1.00  0.00    +0.000 F 
ATOM     50  C35 UNL A   1      30.016  37.668  46.288  1.00  0.00    +0.000 C 
ATOM     51  F10 UNL A   1      29.832  36.907  47.377  1.00  0.00    +0.000 F 
ENDBRANCH   40   41
BRANCH   55   56
ATOM     65  C44 UNL A   1      23.066  33.528  44.865  1.00  0.00    +0.000 C 
ATOM     66  F15 UNL A   1      22.460  34.579  44.293  1.00  0.00    +0.000 F 
ATOM     56  C39 UNL A   1      23.833  33.704  46.026  1.00  0.00    +0.000 C 
ATOM     57  C40 UNL A   1      24.441  32.573  46.585  1.00  0.00    +0.000 C 
ATOM     58  F11 UNL A   1      25.204  32.697  47.682  1.00  0.00    +0.000 F 
ATOM     59  C41 UNL A   1      24.308  31.317  45.995  1.00  0.00    +0.000 C 
ATOM     60  F12 UNL A   1      24.940  30.261  46.522  1.00  0.00    +0.000 F 
ATOM     61  C42 UNL A   1      23.539  31.166  44.849  1.00  0.00    +0.000 C 
ATOM     62  F13 UNL A   1      23.412  29.959  44.281  1.00  0.00    +0.000 F 
ATOM     63  C43 UNL A   1      22.911  32.268  44.290  1.00  0.00    +0.000 C 
ATOM     64  F14 UNL A   1      22.158  32.123  43.191  1.00  0.00    +0.000 F 
ENDBRANCH   55   56
TORSDOF 19
ENDMDL
MODEL 5
REMARK VINA RESULT:     -10.9     40.631     47.264
ROOT
ATOM     19  C15 UNL A   1      53.596  19.450  11.545  1.00  0.00    +0.000 C 
ATOM     20  C16 UNL A   1      54.961  18.833  11.435  1.00  0.00    +0.000 C 
ATOM     21  N3  UNL A   1      55.960  18.885  12.278  1.00  0.00    +0.000 N 
ATOM     22  C17 UNL A   1      56.966  18.109  11.720  1.00  0.00    +0.000 C 
ATOM     23  C18 UNL A   1      58.212  17.879  12.198  1.00  0.00    +0.000 C 
ATOM     35  C25 UNL A   1      58.739  18.454  13.408  1.00  0.00    +0.000 C 
ATOM     36  C26 UNL A   1      60.029  18.383  13.904  1.00  0.00    +0.000 C 
ATOM     37  C27 UNL A   1      60.059  19.043  15.137  1.00  0.00    +0.000 C 
ATOM     38  C28 UNL A   1      58.797  19.556  15.389  1.00  0.00    +0.000 C 
ATOM     39  N4  UNL A   1      58.000  19.199  14.313  1.00  0.00    +0.000 N 
ATOM     40  C29 UNL A   1      58.344  20.305  16.531  1.00  0.00    +0.000 C 
ATOM     52  C36 UNL A   1      57.111  20.850  16.662  1.00  0.00    +0.000 C 
ATOM     53  N5  UNL A   1      56.043  20.807  15.778  1.00  0.00    +0.000 N 
ATOM     54  C37 UNL A   1      55.068  21.463  16.360  1.00  0.00    +0.000 C 
ATOM     55  C38 UNL A   1      53.679  21.738  15.856  1.00  0.00    +0.000 C 
ATOM     67  C45 UNL A   1      53.321  21.302  14.633  1.00  0.00    +0.000 C 
ATOM     68  C46 UNL A   1      52.006  21.478  14.028  1.00  0.00    +0.000 C 
ATOM     69  C47 UNL A   1      51.974  20.825  12.854  1.00  0.00    +0.000 C 
ATOM     70  C48 UNL A   1      53.283  20.216  12.607  1.00  0.00    +0.000 C 
ATOM     71  N6  UNL A   1      54.033  20.591  13.696  1.00  0.00    +0.000 N 
ATOM     72  C49 UNL A   1      55.409  21.984  17.693  1.00  0.00    +0.000 C 
ATOM     73  C50 UNL A   1      56.675  21.610  17.813  1.00  0.00    +0.000 C 
ATOM     74  C51 UNL A   1      56.450  17.574  10.479  1.00  0.00    +0.000 C 
ATOM     75  C52 UNL A   1      55.231  18.033  10.230  1.00  0.00    +0.000 C 
ATOM    111  H21 UNL A   1      60.829  17.923  13.445  1.00  0.00    +0.000 H 
ATOM    112  H22 UNL A   1      60.881  19.131  15.754  1.00  0.00    +0.000 H 
ATOM    113  H23 UNL A   1      57.051  19.438  14.209  1.00  0.00    +0.000 H 
ATOM    114  H24 UNL A   1      51.225  22.016  14.435  1.00  0.00    +0.000 H 
ATOM    115  H25 UNL A   1      51.158  20.763  12.226  1.00  0.00    +0.000 H 
ATOM    116  H26 UNL A   1      54.987  20.372  13.795  1.00  0.00    +0.000 H 
ATOM    117  H27 UNL A   1      54.817  22.504  18.358  1.00  0.00    +0.000 H 
ATOM    118  H28 UNL A   1      57.273  21.833  18.625  1.00  0.00    +0.000 H 
ATOM    119  H29 UNL A   1      56.963  16.919   9.868  1.00  0.00    +0.000 H 
ATOM    120  H30 UNL A   1      54.630  17.872   9.407  1.00  0.00    +0.000 H 
ENDROOT
BRANCH   19   18
ATOM     76  C53 UNL A   1      52.284  20.040   9.508  1.00  0.00    +0.000 C 
ATOM    109  H19 UNL A   1      50.464  16.672   9.578  1.00  0.00    +0.000 H 
ATOM     77  C54 UNL A   1      51.365  19.725   8.510  1.00  0.00    +0.000 C 
ATOM     15  C11 UNL A   1      50.759  18.466   8.498  1.00  0.00    +0.000 C 
ATOM     16  C12 UNL A   1      50.963  17.576   9.557  1.00  0.00    +0.000 C 
ATOM     17  C13 UNL A   1      51.842  17.916  10.587  1.00  0.00    +0.000 C 
ATOM    110  H20 UNL A   1      51.977  17.271  11.381  1.00  0.00    +0.000 H 
ATOM     18  C14 UNL A   1      52.545  19.132  10.545  1.00  0.00    +0.000 C 
ATOM    121  H31 UNL A   1      52.776  20.948   9.485  1.00  0.00    +0.000 H 
ATOM    122  H32 UNL A   1      51.132  20.419   7.783  1.00  0.00    +0.000 H 
BRANCH   15   13
ATOM     13  C10 UNL A   1      49.909  18.044   7.364  1.00  0.00    +0.000 C 
ATOM     14  O2  UNL A   1      50.214  17.052   6.710  1.00  0.00    +0.000 O 
BRANCH   13   12
ATOM    108  H18 UNL A   1      48.061  18.750   7.685  1.00  0.00    +0.000 H 
ATOM     12  N2  UNL A   1      48.798  18.781   7.035  1.00  0.00    +0.000 N 
BRANCH   12   11
ATOM    106  H16 UNL A   1      47.778  20.302   6.080  1.00  0.00    +0.000 H 
ATOM     11  C9  UNL A   1      48.559  19.605   5.858  1.00  0.00    +0.000 C 
ATOM    107  H17 UNL A   1      49.474  20.104   5.618  1.00  0.00    +0.000 H 
BRANCH   11   10
ATOM    105  H15 UNL A   1      48.898  18.023   4.526  1.00  0.00    +0.000 H 
ATOM     10  C8  UNL A   1      48.149  18.777   4.644  1.00  0.00    +0.000 C 
ATOM    104  H14 UNL A   1      48.074  19.435   3.803  1.00  0.00    +0.000 H 
BRANCH   10    9
ATOM      9  C7  UNL A   1      46.816  18.038   4.789  1.00  0.00    +0.000 C 
ATOM    102  H12 UNL A   1      47.009  17.097   5.260  1.00  0.00    +0.000 H 
ATOM    103  H13 UNL A   1      46.180  18.681   5.362  1.00  0.00    +0.000 H 
BRANCH    9    8
ATOM    100  H10 UNL A   1      46.781  17.853   2.676  1.00  0.00    +0.000 H 
ATOM    101  H11 UNL A   1      45.651  16.790   3.572  1.00  0.00    +0.000 H 
ATOM      8  C6  UNL A   1      46.075  17.768   3.476  1.00  0.00    +0.000 C 
BRANCH    8    7
ATOM     98  H8  UNL A   1      45.023  19.594   3.765  1.00  0.00    +0.000 H 
ATOM     99  H9  UNL A   1      44.932  18.906   2.122  1.00  0.00    +0.000 H 
ATOM      7  C5  UNL A   1      44.902  18.711   3.174  1.00  0.00    +0.000 C 
BRANCH    7    6
ATOM     97  H7  UNL A   1      43.492  17.817   4.496  1.00  0.00    +0.000 H 
ATOM      6  C4  UNL A   1      43.522  18.121   3.471  1.00  0.00    +0.000 C 
ATOM     96  H6  UNL A   1      43.354  17.281   2.829  1.00  0.00    +0.000 H 
BRANCH    6    5
ATOM      5  N1  UNL A   1      42.482  19.104   3.248  1.00  0.00    +0.000 N 
ATOM     95  H5  UNL A   1      42.417  19.808   3.932  1.00  0.00    +0.000 H 
BRANCH    5    3
ATOM      3  C3  UNL A   1      41.580  19.195   2.229  1.00  0.00    +0.000 C 
ATOM      4  O1  UNL A   1      40.465  18.709   2.432  1.00  0.00    +0.000 O 
BRANCH    3    2
ATOM      2  C2  UNL A   1      41.984  19.859   0.905  1.00  0.00    +0.000 C 
ATOM     94  H4  UNL A   1      42.268  19.064   0.249  1.00  0.00    +0.000 H 
BRANCH    2    1
ATOM      1  C1  UNL A   1      43.192  20.785   1.063  1.00  0.00    +0.000 C 
ATOM     91  H1  UNL A   1      43.078  21.372   1.951  1.00  0.00    +0.000 H 
ATOM     92  H2  UNL A   1      43.259  21.433   0.214  1.00  0.00    +0.000 H 
ATOM     93  H3  UNL A   1      44.084  20.198   1.136  1.00  0.00    +0.000 H 
ENDBRANCH    2    1
BRANCH    2   78
ATOM    134  H44 UNL A   1      38.878  20.526  -2.477  1.00  0.00    +0.000 H 
ATOM     78  C55 UNL A   1      40.821  20.607   0.271  1.00  0.00    +0.000 C 
ATOM     79  C56 UNL A   1      40.226  21.713   0.893  1.00  0.00    +0.000 C 
ATOM     80  C57 UNL A   1      39.168  22.387   0.278  1.00  0.00    +0.000 C 
ATOM     81  C58 UNL A   1      38.683  21.980  -0.968  1.00  0.00    +0.000 C 
ATOM     88  C64 UNL A   1      39.244  20.861  -1.573  1.00  0.00    +0.000 C 
ATOM     89  C65 UNL A   1      40.300  20.191  -0.957  1.00  0.00    +0.000 C 
ATOM     90  F16 UNL A   1      40.829  19.128  -1.581  1.00  0.00    +0.000 F 
ATOM    123  H33 UNL A   1      40.573  22.032   1.810  1.00  0.00    +0.000 H 
ATOM    124  H34 UNL A   1      38.738  23.196   0.751  1.00  0.00    +0.000 H 
BRANCH   81   82
ATOM     82  O3  UNL A   1      37.668  22.751  -1.445  1.00  0.00    +0.000 O 
BRANCH   82   83
ATOM    129  H39 UNL A   1      33.655  21.641  -0.716  1.00  0.00    +0.000 H 
ATOM    130  H40 UNL A   1      33.873  23.483  -3.044  1.00  0.00    +0.000 H 
ATOM    131  H41 UNL A   1      33.584  21.778  -3.058  1.00  0.00    +0.000 H 
ATOM    132  H42 UNL A   1      35.816  21.371  -3.350  1.00  0.00    +0.000 H 
ATOM    133  H43 UNL A   1      36.084  23.063  -3.505  1.00  0.00    +0.000 H 
ATOM     83  C59 UNL A   1      36.318  22.316  -1.485  1.00  0.00    +0.000 C 
ATOM     84  C60 UNL A   1      35.334  22.988  -0.532  1.00  0.00    +0.000 C 
ATOM     85  C61 UNL A   1      33.982  22.585  -1.099  1.00  0.00    +0.000 C 
ATOM     86  C62 UNL A   1      34.176  22.551  -2.614  1.00  0.00    +0.000 C 
ATOM     87  C63 UNL A   1      35.664  22.314  -2.866  1.00  0.00    +0.000 C 
ATOM    125  H35 UNL A   1      36.481  21.313  -1.149  1.00  0.00    +0.000 H 
ATOM    126  H36 UNL A   1      35.455  24.052  -0.542  1.00  0.00    +0.000 H 
ATOM    127  H37 UNL A   1      35.468  22.696   0.489  1.00  0.00    +0.000 H 
ATOM    128  H38 UNL A   1      33.235  23.304  -0.832  1.00  0.00    +0.000 H 
ENDBRANCH   82   83
ENDBRANCH   81   82
ENDBRANCH    2   78
ENDBRANCH    3    2
ENDBRANCH    5    3
ENDBRANCH    6    5
ENDBRANCH    7    6
ENDBRANCH    8    7
ENDBRANCH    9    8
ENDBRANCH   10    9
ENDBRANCH   11   10
ENDBRANCH   12   11
ENDBRANCH   13   12
ENDBRANCH   15   13
ENDBRANCH   19   18
BRANCH   23   24
ATOM     33  C24 UNL A   1      59.984  17.501  10.452  1.00  0.00    +0.000 C 
ATOM     34  F5  UNL A   1      60.078  18.829  10.283  1.00  0.00    +0.000 F 
ATOM     24  C19 UNL A   1      59.110  16.971  11.414  1.00  0.00    +0.000 C 
ATOM     25  C20 UNL A   1      59.046  15.577  11.547  1.00  0.00    +0.000 C 
ATOM     26  F1  UNL A   1      58.229  15.023  12.456  1.00  0.00    +0.000 F 
ATOM     27  C21 UNL A   1      59.831  14.746  10.753  1.00  0.00    +0.000 C 
ATOM     28  F2  UNL A   1      59.771  13.417  10.912  1.00  0.00    +0.000 F 
ATOM     29  C22 UNL A   1      60.678  15.291   9.798  1.00  0.00    +0.000 C 
ATOM     30  F3  UNL A   1      61.420  14.488   9.023  1.00  0.00    +0.000 F 
ATOM     31  C23 UNL A   1      60.753  16.667   9.646  1.00  0.00    +0.000 C 
ATOM     32  F4  UNL A   1      61.560  17.195   8.716  1.00  0.00    +0.000 F 
ENDBRANCH   23   24
BRANCH   40   41
ATOM     41  C30 UNL A   1      59.310  20.510  17.659  1.00  0.00    +0.000 C 
ATOM     42  C31 UNL A   1      60.015  21.714  17.804  1.00  0.00    +0.000 C 
ATOM     43  F6  UNL A   1      59.881  22.687  16.890  1.00  0.00    +0.000 F 
ATOM     44  C32 UNL A   1      60.881  21.909  18.874  1.00  0.00    +0.000 C 
ATOM     45  F7  UNL A   1      61.571  23.054  18.975  1.00  0.00    +0.000 F 
ATOM     46  C33 UNL A   1      61.041  20.918  19.832  1.00  0.00    +0.000 C 
ATOM     47  F8  UNL A   1      61.869  21.113  20.868  1.00  0.00    +0.000 F 
ATOM     48  C34 UNL A   1      60.346  19.723  19.712  1.00  0.00    +0.000 C 
ATOM     49  F9  UNL A   1      60.492  18.769  20.642  1.00  0.00    +0.000 F 
ATOM     50  C35 UNL A   1      59.497  19.514  18.630  1.00  0.00    +0.000 C 
ATOM     51  F10 UNL A   1      58.843  18.347  18.536  1.00  0.00    +0.000 F 
ENDBRANCH   40   41
BRANCH   55   56
ATOM     65  C44 UNL A   1      52.023  21.841  17.749  1.00  0.00    +0.000 C 
ATOM     66  F15 UNL A   1      52.234  20.540  17.997  1.00  0.00    +0.000 F 
ATOM     56  C39 UNL A   1      52.702  22.475  16.698  1.00  0.00    +0.000 C 
ATOM     57  C40 UNL A   1      52.443  23.835  16.479  1.00  0.00    +0.000 C 
ATOM     58  F11 UNL A   1      53.087  24.488  15.501  1.00  0.00    +0.000 F 
ATOM     59  C41 UNL A   1      51.559  24.540  17.294  1.00  0.00    +0.000 C 
ATOM     60  F12 UNL A   1      51.367  25.850  17.093  1.00  0.00    +0.000 F 
ATOM     61  C42 UNL A   1      50.895  23.891  18.324  1.00  0.00    +0.000 C 
ATOM     62  F13 UNL A   1      50.046  24.568  19.108  1.00  0.00    +0.000 F 
ATOM     63  C43 UNL A   1      51.119  22.540  18.546  1.00  0.00    +0.000 C 
ATOM     64  F14 UNL A   1      50.470  21.907  19.533  1.00  0.00    +0.000 F 
ENDBRANCH   55   56
TORSDOF 19
ENDMDL
MODEL 6
REMARK VINA RESULT:     -10.8      3.157      4.947
ROOT
ATOM     19  C15 UNL A   1      24.011  37.339  47.023  1.00  0.00    +0.000 C 
ATOM     20  C16 UNL A   1      25.348  37.920  46.665  1.00  0.00    +0.000 C 
ATOM     21  N3  UNL A   1      25.806  39.128  46.874  1.00  0.00    +0.000 N 
ATOM     22  C17 UNL A   1      27.109  39.126  46.397  1.00  0.00    +0.000 C 
ATOM     23  C18 UNL A   1      27.990  40.154  46.357  1.00  0.00    +0.000 C 
ATOM     35  C25 UNL A   1      27.698  41.494  46.793  1.00  0.00    +0.000 C 
ATOM     36  C26 UNL A   1      28.481  42.629  46.672  1.00  0.00    +0.000 C 
ATOM     37  C27 UNL A   1      27.812  43.688  47.294  1.00  0.00    +0.000 C 
ATOM     38  C28 UNL A   1      26.597  43.221  47.767  1.00  0.00    +0.000 C 
ATOM     39  N4  UNL A   1      26.534  41.876  47.442  1.00  0.00    +0.000 N 
ATOM     40  C29 UNL A   1      25.573  43.941  48.477  1.00  0.00    +0.000 C 
ATOM     52  C36 UNL A   1      24.369  43.431  48.830  1.00  0.00    +0.000 C 
ATOM     53  N5  UNL A   1      23.868  42.155  48.615  1.00  0.00    +0.000 N 
ATOM     54  C37 UNL A   1      22.674  42.142  49.155  1.00  0.00    +0.000 C 
ATOM     55  C38 UNL A   1      21.673  41.022  49.214  1.00  0.00    +0.000 C 
ATOM     67  C45 UNL A   1      21.965  39.844  48.630  1.00  0.00    +0.000 C 
ATOM     68  C46 UNL A   1      21.101  38.668  48.627  1.00  0.00    +0.000 C 
ATOM     69  C47 UNL A   1      21.755  37.648  48.049  1.00  0.00    +0.000 C 
ATOM     70  C48 UNL A   1      23.072  38.110  47.605  1.00  0.00    +0.000 C 
ATOM     71  N6  UNL A   1      23.090  39.439  47.952  1.00  0.00    +0.000 N 
ATOM     72  C49 UNL A   1      22.290  43.412  49.791  1.00  0.00    +0.000 C 
ATOM     73  C50 UNL A   1      23.346  44.172  49.535  1.00  0.00    +0.000 C 
ATOM     74  C51 UNL A   1      27.382  37.791  45.912  1.00  0.00    +0.000 C 
ATOM     75  C52 UNL A   1      26.308  37.018  46.008  1.00  0.00    +0.000 C 
ATOM    111  H21 UNL A   1      29.398  42.683  46.205  1.00  0.00    +0.000 H 
ATOM    112  H22 UNL A   1      28.164  44.654  47.384  1.00  0.00    +0.000 H 
ATOM    113  H23 UNL A   1      25.776  41.280  47.643  1.00  0.00    +0.000 H 
ATOM    114  H24 UNL A   1      20.143  38.627  49.008  1.00  0.00    +0.000 H 
ATOM    115  H25 UNL A   1      21.388  36.690  47.935  1.00  0.00    +0.000 H 
ATOM    116  H26 UNL A   1      23.836  40.044  47.735  1.00  0.00    +0.000 H 
ATOM    117  H27 UNL A   1      21.426  43.649  50.301  1.00  0.00    +0.000 H 
ATOM    118  H28 UNL A   1      23.427  45.165  49.805  1.00  0.00    +0.000 H 
ATOM    119  H29 UNL A   1      28.293  37.480  45.541  1.00  0.00    +0.000 H 
ATOM    120  H30 UNL A   1      26.178  36.042  45.701  1.00  0.00    +0.000 H 
ENDROOT
BRANCH   19   18
ATOM     76  C53 UNL A   1      23.338  35.413  45.588  1.00  0.00    +0.000 C 
ATOM    109  H19 UNL A   1      24.015  32.931  48.424  1.00  0.00    +0.000 H 
ATOM     77  C54 UNL A   1      23.171  34.048  45.373  1.00  0.00    +0.000 C 
ATOM     15  C11 UNL A   1      23.491  33.141  46.387  1.00  0.00    +0.000 C 
ATOM     16  C12 UNL A   1      23.841  33.602  47.659  1.00  0.00    +0.000 C 
ATOM     17  C13 UNL A   1      23.954  34.975  47.890  1.00  0.00    +0.000 C 
ATOM    110  H20 UNL A   1      24.191  35.319  48.834  1.00  0.00    +0.000 H 
ATOM     18  C14 UNL A   1      23.749  35.888  46.843  1.00  0.00    +0.000 C 
ATOM    121  H31 UNL A   1      23.159  36.080  44.821  1.00  0.00    +0.000 H 
ATOM    122  H32 UNL A   1      22.812  33.706  44.467  1.00  0.00    +0.000 H 
BRANCH   15   13
ATOM     13  C10 UNL A   1      23.481  31.684  46.132  1.00  0.00    +0.000 C 
ATOM     14  O2  UNL A   1      24.455  31.150  45.610  1.00  0.00    +0.000 O 
BRANCH   13   12
ATOM    108  H18 UNL A   1      22.546  30.134  46.991  1.00  0.00    +0.000 H 
ATOM     12  N2  UNL A   1      22.372  30.943  46.459  1.00  0.00    +0.000 N 
BRANCH   12   11
ATOM    106  H16 UNL A   1      20.364  30.554  46.738  1.00  0.00    +0.000 H 
ATOM     11  C9  UNL A   1      20.976  31.188  46.130  1.00  0.00    +0.000 C 
ATOM    107  H17 UNL A   1      20.773  32.222  46.314  1.00  0.00    +0.000 H 
BRANCH   11   10
ATOM    105  H15 UNL A   1      19.693  30.465  44.639  1.00  0.00    +0.000 H 
ATOM     10  C8  UNL A   1      20.667  30.907  44.662  1.00  0.00    +0.000 C 
ATOM    104  H14 UNL A   1      21.433  30.266  44.278  1.00  0.00    +0.000 H 
BRANCH   10    9
ATOM      9  C7  UNL A   1      20.596  32.149  43.771  1.00  0.00    +0.000 C 
ATOM    102  H12 UNL A   1      21.573  32.584  43.730  1.00  0.00    +0.000 H 
ATOM    103  H13 UNL A   1      20.237  31.813  42.820  1.00  0.00    +0.000 H 
BRANCH    9    8
ATOM    100  H10 UNL A   1      19.738  33.351  45.294  1.00  0.00    +0.000 H 
ATOM    101  H11 UNL A   1      19.855  34.108  43.674  1.00  0.00    +0.000 H 
ATOM      8  C6  UNL A   1      19.616  33.230  44.237  1.00  0.00    +0.000 C 
BRANCH    8    7
ATOM     98  H8  UNL A   1      17.842  32.100  44.557  1.00  0.00    +0.000 H 
ATOM     99  H9  UNL A   1      17.598  33.832  44.208  1.00  0.00    +0.000 H 
ATOM      7  C5  UNL A   1      18.134  32.939  43.962  1.00  0.00    +0.000 C 
BRANCH    7    6
ATOM     97  H7  UNL A   1      18.710  32.710  41.924  1.00  0.00    +0.000 H 
ATOM      6  C4  UNL A   1      17.812  32.625  42.499  1.00  0.00    +0.000 C 
ATOM     96  H6  UNL A   1      17.077  33.318  42.146  1.00  0.00    +0.000 H 
BRANCH    6    5
ATOM      5  N1  UNL A   1      17.298  31.278  42.363  1.00  0.00    +0.000 N 
ATOM     95  H5  UNL A   1      17.769  30.714  41.709  1.00  0.00    +0.000 H 
BRANCH    5    3
ATOM      3  C3  UNL A   1      16.257  30.677  43.008  1.00  0.00    +0.000 C 
ATOM      4  O1  UNL A   1      15.179  31.276  42.995  1.00  0.00    +0.000 O 
BRANCH    3    2
ATOM      2  C2  UNL A   1      16.469  29.333  43.719  1.00  0.00    +0.000 C 
ATOM     94  H4  UNL A   1      16.040  29.442  44.693  1.00  0.00    +0.000 H 
BRANCH    2    1
ATOM      1  C1  UNL A   1      17.951  28.997  43.899  1.00  0.00    +0.000 C 
ATOM     91  H1  UNL A   1      18.217  29.102  44.930  1.00  0.00    +0.000 H 
ATOM     92  H2  UNL A   1      18.543  29.666  43.308  1.00  0.00    +0.000 H 
ATOM     93  H3  UNL A   1      18.129  27.990  43.584  1.00  0.00    +0.000 H 
ENDBRANCH    2    1
BRANCH    2   78
ATOM    134  H44 UNL A   1      14.095  25.347  43.687  1.00  0.00    +0.000 H 
ATOM     78  C55 UNL A   1      15.749  28.199  43.006  1.00  0.00    +0.000 C 
ATOM     79  C56 UNL A   1      15.626  28.162  41.610  1.00  0.00    +0.000 C 
ATOM     80  C57 UNL A   1      14.971  27.099  40.985  1.00  0.00    +0.000 C 
ATOM     81  C58 UNL A   1      14.431  26.048  41.731  1.00  0.00    +0.000 C 
ATOM     88  C64 UNL A   1      14.517  26.097  43.117  1.00  0.00    +0.000 C 
ATOM     89  C65 UNL A   1      15.172  27.159  43.738  1.00  0.00    +0.000 C 
ATOM     90  F16 UNL A   1      15.253  27.161  45.078  1.00  0.00    +0.000 F 
ATOM    123  H33 UNL A   1      16.023  28.926  41.041  1.00  0.00    +0.000 H 
ATOM    124  H34 UNL A   1      14.884  27.090  39.957  1.00  0.00    +0.000 H 
BRANCH   81   82
ATOM     82  O3  UNL A   1      13.847  25.077  40.976  1.00  0.00    +0.000 O 
BRANCH   82   83
ATOM    129  H39 UNL A   1      13.537  21.267  42.783  1.00  0.00    +0.000 H 
ATOM    130  H40 UNL A   1      12.402  21.267  40.031  1.00  0.00    +0.000 H 
ATOM    131  H41 UNL A   1      13.905  20.598  40.564  1.00  0.00    +0.000 H 
ATOM    132  H42 UNL A   1      15.005  22.511  39.959  1.00  0.00    +0.000 H 
ATOM    133  H43 UNL A   1      13.545  23.110  39.276  1.00  0.00    +0.000 H 
ATOM     83  C59 UNL A   1      13.863  23.704  41.334  1.00  0.00    +0.000 C 
ATOM     84  C60 UNL A   1      12.738  23.198  42.233  1.00  0.00    +0.000 C 
ATOM     85  C61 UNL A   1      12.840  21.688  42.089  1.00  0.00    +0.000 C 
ATOM     86  C62 UNL A   1      13.263  21.451  40.640  1.00  0.00    +0.000 C 
ATOM     87  C63 UNL A   1      13.978  22.718  40.173  1.00  0.00    +0.000 C 
ATOM    125  H35 UNL A   1      14.770  23.715  41.904  1.00  0.00    +0.000 H 
ATOM    126  H36 UNL A   1      11.787  23.555  41.895  1.00  0.00    +0.000 H 
ATOM    127  H37 UNL A   1      12.823  23.532  43.246  1.00  0.00    +0.000 H 
ATOM    128  H38 UNL A   1      11.893  21.229  42.283  1.00  0.00    +0.000 H 
ENDBRANCH   82   83
ENDBRANCH   81   82
ENDBRANCH    2   78
ENDBRANCH    3    2
ENDBRANCH    5    3
ENDBRANCH    6    5
ENDBRANCH    7    6
ENDBRANCH    8    7
ENDBRANCH    9    8
ENDBRANCH   10    9
ENDBRANCH   11   10
ENDBRANCH   12   11
ENDBRANCH   13   12
ENDBRANCH   15   13
ENDBRANCH   19   18
BRANCH   23   24
ATOM     33  C24 UNL A   1      29.600  39.963  44.432  1.00  0.00    +0.000 C 
ATOM     34  F5  UNL A   1      28.625  40.354  43.598  1.00  0.00    +0.000 F 
ATOM     24  C19 UNL A   1      29.361  39.886  45.813  1.00  0.00    +0.000 C 
ATOM     25  C20 UNL A   1      30.411  39.466  46.640  1.00  0.00    +0.000 C 
ATOM     26  F1  UNL A   1      30.233  39.382  47.968  1.00  0.00    +0.000 F 
ATOM     27  C21 UNL A   1      31.657  39.145  46.108  1.00  0.00    +0.000 C 
ATOM     28  F2  UNL A   1      32.654  38.768  46.919  1.00  0.00    +0.000 F 
ATOM     29  C22 UNL A   1      31.867  39.214  44.738  1.00  0.00    +0.000 C 
ATOM     30  F3  UNL A   1      33.062  38.888  44.226  1.00  0.00    +0.000 F 
ATOM     31  C23 UNL A   1      30.840  39.621  43.901  1.00  0.00    +0.000 C 
ATOM     32  F4  UNL A   1      31.038  39.677  42.576  1.00  0.00    +0.000 F 
ENDBRANCH   23   24
BRANCH   40   41
ATOM     41  C30 UNL A   1      25.851  45.367  48.846  1.00  0.00    +0.000 C 
ATOM     42  C31 UNL A   1      25.475  46.423  48.003  1.00  0.00    +0.000 C 
ATOM     43  F6  UNL A   1      24.913  46.166  46.812  1.00  0.00    +0.000 F 
ATOM     44  C32 UNL A   1      25.704  47.745  48.369  1.00  0.00    +0.000 C 
ATOM     45  F7  UNL A   1      25.368  48.738  47.534  1.00  0.00    +0.000 F 
ATOM     46  C33 UNL A   1      26.286  48.038  49.594  1.00  0.00    +0.000 C 
ATOM     47  F8  UNL A   1      26.495  49.314  49.949  1.00  0.00    +0.000 F 
ATOM     48  C34 UNL A   1      26.657  47.009  50.447  1.00  0.00    +0.000 C 
ATOM     49  F9  UNL A   1      27.211  47.291  51.635  1.00  0.00    +0.000 F 
ATOM     50  C35 UNL A   1      26.453  45.684  50.073  1.00  0.00    +0.000 C 
ATOM     51  F10 UNL A   1      26.826  44.709  50.915  1.00  0.00    +0.000 F 
ENDBRANCH   40   41
BRANCH   55   56
ATOM     65  C44 UNL A   1      20.182  40.721  51.220  1.00  0.00    +0.000 C 
ATOM     66  F15 UNL A   1      21.168  40.064  51.848  1.00  0.00    +0.000 F 
ATOM     56  C39 UNL A   1      20.377  41.203  49.917  1.00  0.00    +0.000 C 
ATOM     57  C40 UNL A   1      19.313  41.879  49.305  1.00  0.00    +0.000 C 
ATOM     58  F11 UNL A   1      19.461  42.377  48.068  1.00  0.00    +0.000 F 
ATOM     59  C41 UNL A   1      18.110  42.087  49.976  1.00  0.00    +0.000 C 
ATOM     60  F12 UNL A   1      17.127  42.779  49.386  1.00  0.00    +0.000 F 
ATOM     61  C42 UNL A   1      17.938  41.597  51.263  1.00  0.00    +0.000 C 
ATOM     62  F13 UNL A   1      16.782  41.798  51.909  1.00  0.00    +0.000 F 
ATOM     63  C43 UNL A   1      18.970  40.906  51.881  1.00  0.00    +0.000 C 
ATOM     64  F14 UNL A   1      18.803  40.421  53.119  1.00  0.00    +0.000 F 
ENDBRANCH   55   56
TORSDOF 19
ENDMDL
MODEL 7
REMARK VINA RESULT:     -10.7     42.896     46.543
ROOT
ATOM     19  C15 UNL A   1      13.636  53.897   4.923  1.00  0.00    +0.000 C 
ATOM     20  C16 UNL A   1      13.208  52.458   4.962  1.00  0.00    +0.000 C 
ATOM     21  N3  UNL A   1      13.561  51.470   4.180  1.00  0.00    +0.000 N 
ATOM     22  C17 UNL A   1      12.918  50.346   4.678  1.00  0.00    +0.000 C 
ATOM     23  C18 UNL A   1      12.940  49.082   4.191  1.00  0.00    +0.000 C 
ATOM     35  C25 UNL A   1      13.639  48.680   2.999  1.00  0.00    +0.000 C 
ATOM     36  C26 UNL A   1      13.613  47.454   2.358  1.00  0.00    +0.000 C 
ATOM     37  C27 UNL A   1      14.494  47.511   1.273  1.00  0.00    +0.000 C 
ATOM     38  C28 UNL A   1      15.038  48.783   1.218  1.00  0.00    +0.000 C 
ATOM     39  N4  UNL A   1      14.495  49.495   2.276  1.00  0.00    +0.000 N 
ATOM     40  C29 UNL A   1      15.995  49.311   0.281  1.00  0.00    +0.000 C 
ATOM     52  C36 UNL A   1      16.413  50.598   0.242  1.00  0.00    +0.000 C 
ATOM     53  N5  UNL A   1      16.049  51.657   1.061  1.00  0.00    +0.000 N 
ATOM     54  C37 UNL A   1      16.734  52.691   0.639  1.00  0.00    +0.000 C 
ATOM     55  C38 UNL A   1      16.732  54.103   1.153  1.00  0.00    +0.000 C 
ATOM     67  C45 UNL A   1      15.917  54.433   2.174  1.00  0.00    +0.000 C 
ATOM     68  C46 UNL A   1      15.826  55.754   2.786  1.00  0.00    +0.000 C 
ATOM     69  C47 UNL A   1      14.995  55.691   3.840  1.00  0.00    +0.000 C 
ATOM     70  C48 UNL A   1      14.465  54.330   3.953  1.00  0.00    +0.000 C 
ATOM     71  N6  UNL A   1      15.033  53.665   2.893  1.00  0.00    +0.000 N 
ATOM     72  C49 UNL A   1      17.628  52.396  -0.492  1.00  0.00    +0.000 C 
ATOM     73  C50 UNL A   1      17.368  51.115  -0.714  1.00  0.00    +0.000 C 
ATOM     74  C51 UNL A   1      12.176  50.764   5.847  1.00  0.00    +0.000 C 
ATOM     75  C52 UNL A   1      12.280  52.073   6.037  1.00  0.00    +0.000 C 
ATOM    111  H21 UNL A   1      13.043  46.640   2.632  1.00  0.00    +0.000 H 
ATOM    112  H22 UNL A   1      14.703  46.736   0.625  1.00  0.00    +0.000 H 
ATOM    113  H23 UNL A   1      14.689  50.438   2.481  1.00  0.00    +0.000 H 
ATOM    114  H24 UNL A   1      16.320  56.600   2.463  1.00  0.00    +0.000 H 
ATOM    115  H25 UNL A   1      14.767  56.476   4.470  1.00  0.00    +0.000 H 
ATOM    116  H26 UNL A   1      14.826  52.728   2.671  1.00  0.00    +0.000 H 
ATOM    117  H27 UNL A   1      18.284  53.023  -0.983  1.00  0.00    +0.000 H 
ATOM    118  H28 UNL A   1      17.794  50.559  -1.473  1.00  0.00    +0.000 H 
ATOM    119  H29 UNL A   1      11.637  50.127   6.454  1.00  0.00    +0.000 H 
ATOM    120  H30 UNL A   1      11.828  52.665   6.750  1.00  0.00    +0.000 H 
ENDROOT
BRANCH   19   18
ATOM     76  C53 UNL A   1      12.133  55.668   5.831  1.00  0.00    +0.000 C 
ATOM    109  H19 UNL A   1      13.948  55.624   9.202  1.00  0.00    +0.000 H 
ATOM     77  C54 UNL A   1      11.694  56.486   6.869  1.00  0.00    +0.000 C 
ATOM     15  C11 UNL A   1      12.312  56.412   8.120  1.00  0.00    +0.000 C 
ATOM     16  C12 UNL A   1      13.455  55.627   8.295  1.00  0.00    +0.000 C 
ATOM     17  C13 UNL A   1      13.929  54.849   7.236  1.00  0.00    +0.000 C 
ATOM    110  H20 UNL A   1      14.786  54.285   7.356  1.00  0.00    +0.000 H 
ATOM     18  C14 UNL A   1      13.244  54.828   6.011  1.00  0.00    +0.000 C 
ATOM    121  H31 UNL A   1      11.640  55.679   4.924  1.00  0.00    +0.000 H 
ATOM    122  H32 UNL A   1      10.915  57.145   6.714  1.00  0.00    +0.000 H 
BRANCH   15   13
ATOM     13  C10 UNL A   1      11.763  57.144   9.281  1.00  0.00    +0.000 C 
ATOM     14  O2  UNL A   1      11.825  58.369   9.314  1.00  0.00    +0.000 O 
BRANCH   13   12
ATOM    108  H18 UNL A   1      11.250  55.466  10.250  1.00  0.00    +0.000 H 
ATOM     12  N2  UNL A   1      11.211  56.447  10.327  1.00  0.00    +0.000 N 
BRANCH   12   11
ATOM    106  H16 UNL A   1      11.162  57.765  11.916  1.00  0.00    +0.000 H 
ATOM     11  C9  UNL A   1      10.576  56.954  11.535  1.00  0.00    +0.000 C 
ATOM    107  H17 UNL A   1       9.588  57.272  11.275  1.00  0.00    +0.000 H 
BRANCH   11   10
ATOM    105  H15 UNL A   1       9.433  55.561  12.602  1.00  0.00    +0.000 H 
ATOM     10  C8  UNL A   1      10.451  55.887  12.618  1.00  0.00    +0.000 C 
ATOM    104  H14 UNL A   1      10.741  56.325  13.551  1.00  0.00    +0.000 H 
BRANCH   10    9
ATOM      9  C7  UNL A   1      11.307  54.638  12.393  1.00  0.00    +0.000 C 
ATOM    102  H12 UNL A   1      10.660  53.786  12.411  1.00  0.00    +0.000 H 
ATOM    103  H13 UNL A   1      11.799  54.780  11.454  1.00  0.00    +0.000 H 
BRANCH    9    8
ATOM    100  H10 UNL A   1      13.213  53.887  12.943  1.00  0.00    +0.000 H 
ATOM    101  H11 UNL A   1      12.692  55.386  13.777  1.00  0.00    +0.000 H 
ATOM      8  C6  UNL A   1      12.415  54.414  13.426  1.00  0.00    +0.000 C 
BRANCH    8    7
ATOM     98  H8  UNL A   1      12.684  53.855  15.461  1.00  0.00    +0.000 H 
ATOM     99  H9  UNL A   1      10.995  53.889  14.889  1.00  0.00    +0.000 H 
ATOM      7  C5  UNL A   1      12.005  53.614  14.670  1.00  0.00    +0.000 C 
BRANCH    7    6
ATOM     97  H7  UNL A   1      11.080  51.800  14.046  1.00  0.00    +0.000 H 
ATOM      6  C4  UNL A   1      12.013  52.096  14.478  1.00  0.00    +0.000 C 
ATOM     96  H6  UNL A   1      12.150  51.623  15.428  1.00  0.00    +0.000 H 
BRANCH    6    5
ATOM      5  N1  UNL A   1      13.084  51.694  13.590  1.00  0.00    +0.000 N 
ATOM     95  H5  UNL A   1      13.969  52.066  13.806  1.00  0.00    +0.000 H 
BRANCH    5    3
ATOM      3  C3  UNL A   1      13.045  50.876  12.499  1.00  0.00    +0.000 C 
ATOM      4  O1  UNL A   1      13.185  49.669  12.707  1.00  0.00    +0.000 O 
BRANCH    3    2
ATOM      2  C2  UNL A   1      12.856  51.476  11.099  1.00  0.00    +0.000 C 
ATOM     94  H4  UNL A   1      13.105  52.513  11.184  1.00  0.00    +0.000 H 
BRANCH    2    1
ATOM      1  C1  UNL A   1      11.406  51.385  10.617  1.00  0.00    +0.000 C 
ATOM     91  H1  UNL A   1      10.812  52.106  11.139  1.00  0.00    +0.000 H 
ATOM     92  H2  UNL A   1      11.027  50.403  10.810  1.00  0.00    +0.000 H 
ATOM     93  H3  UNL A   1      11.367  51.583   9.566  1.00  0.00    +0.000 H 
ENDBRANCH    2    1
BRANCH    2   78
ATOM    134  H44 UNL A   1      16.965  51.088   8.979  1.00  0.00    +0.000 H 
ATOM     78  C55 UNL A   1      13.794  50.843  10.082  1.00  0.00    +0.000 C 
ATOM     79  C56 UNL A   1      13.383  49.794   9.249  1.00  0.00    +0.000 C 
ATOM     80  C57 UNL A   1      14.264  49.243   8.317  1.00  0.00    +0.000 C 
ATOM     81  C58 UNL A   1      15.570  49.725   8.188  1.00  0.00    +0.000 C 
ATOM     88  C64 UNL A   1      15.996  50.741   9.037  1.00  0.00    +0.000 C 
ATOM     89  C65 UNL A   1      15.113  51.289   9.966  1.00  0.00    +0.000 C 
ATOM     90  F16 UNL A   1      15.554  52.281  10.754  1.00  0.00    +0.000 F 
ATOM    123  H33 UNL A   1      12.422  49.427   9.325  1.00  0.00    +0.000 H 
ATOM    124  H34 UNL A   1      13.947  48.468   7.715  1.00  0.00    +0.000 H 
BRANCH   81   82
ATOM     82  O3  UNL A   1      16.297  49.103   7.220  1.00  0.00    +0.000 O 
BRANCH   82   83
ATOM    129  H39 UNL A   1      16.274  51.192   3.545  1.00  0.00    +0.000 H 
ATOM    130  H40 UNL A   1      18.591  49.333   3.731  1.00  0.00    +0.000 H 
ATOM    131  H41 UNL A   1      17.145  49.142   2.803  1.00  0.00    +0.000 H 
ATOM    132  H42 UNL A   1      16.198  47.905   4.478  1.00  0.00    +0.000 H 
ATOM    133  H43 UNL A   1      17.691  47.951   5.329  1.00  0.00    +0.000 H 
ATOM     83  C59 UNL A   1      16.322  49.539   5.870  1.00  0.00    +0.000 C 
ATOM     84  C60 UNL A   1      16.929  50.910   5.584  1.00  0.00    +0.000 C 
ATOM     85  C61 UNL A   1      17.146  50.879   4.080  1.00  0.00    +0.000 C 
ATOM     86  C62 UNL A   1      17.527  49.435   3.759  1.00  0.00    +0.000 C 
ATOM     87  C63 UNL A   1      16.944  48.564   4.871  1.00  0.00    +0.000 C 
ATOM    125  H35 UNL A   1      15.264  49.601   5.719  1.00  0.00    +0.000 H 
ATOM    126  H36 UNL A   1      17.855  51.036   6.106  1.00  0.00    +0.000 H 
ATOM    127  H37 UNL A   1      16.309  51.721   5.905  1.00  0.00    +0.000 H 
ATOM    128  H38 UNL A   1      17.937  51.546   3.803  1.00  0.00    +0.000 H 
ENDBRANCH   82   83
ENDBRANCH   81   82
ENDBRANCH    2   78
ENDBRANCH    3    2
ENDBRANCH    5    3
ENDBRANCH    6    5
ENDBRANCH    7    6
ENDBRANCH    8    7
ENDBRANCH    9    8
ENDBRANCH   10    9
ENDBRANCH   11   10
ENDBRANCH   12   11
ENDBRANCH   13   12
ENDBRANCH   15   13
ENDBRANCH   19   18
BRANCH   23   24
ATOM     33  C24 UNL A   1      10.786  47.924   4.785  1.00  0.00    +0.000 C 
ATOM     34  F5  UNL A   1      10.140  48.714   3.915  1.00  0.00    +0.000 F 
ATOM     24  C19 UNL A   1      12.178  48.028   4.936  1.00  0.00    +0.000 C 
ATOM     25  C20 UNL A   1      12.804  47.184   5.863  1.00  0.00    +0.000 C 
ATOM     26  F1  UNL A   1      14.133  47.242   6.039  1.00  0.00    +0.000 F 
ATOM     27  C21 UNL A   1      12.067  46.264   6.604  1.00  0.00    +0.000 C 
ATOM     28  F2  UNL A   1      12.689  45.450   7.468  1.00  0.00    +0.000 F 
ATOM     29  C22 UNL A   1      10.690  46.187   6.450  1.00  0.00    +0.000 C 
ATOM     30  F3  UNL A   1       9.981  45.313   7.177  1.00  0.00    +0.000 F 
ATOM     31  C23 UNL A   1      10.050  47.018   5.542  1.00  0.00    +0.000 C 
ATOM     32  F4  UNL A   1       8.718  46.954   5.401  1.00  0.00    +0.000 F 
ENDBRANCH   23   24
BRANCH   40   41
ATOM     41  C30 UNL A   1      16.566  48.370  -0.737  1.00  0.00    +0.000 C 
ATOM     42  C31 UNL A   1      17.836  47.800  -0.569  1.00  0.00    +0.000 C 
ATOM     43  F6  UNL A   1      18.593  48.141   0.486  1.00  0.00    +0.000 F 
ATOM     44  C32 UNL A   1      18.344  46.900  -1.500  1.00  0.00    +0.000 C 
ATOM     45  F7  UNL A   1      19.574  46.394  -1.337  1.00  0.00    +0.000 F 
ATOM     46  C33 UNL A   1      17.584  46.534  -2.601  1.00  0.00    +0.000 C 
ATOM     47  F8  UNL A   1      18.072  45.658  -3.491  1.00  0.00    +0.000 F 
ATOM     48  C34 UNL A   1      16.322  47.079  -2.781  1.00  0.00    +0.000 C 
ATOM     49  F9  UNL A   1      15.582  46.718  -3.840  1.00  0.00    +0.000 F 
ATOM     50  C35 UNL A   1      15.820  47.998  -1.866  1.00  0.00    +0.000 C 
ATOM     51  F10 UNL A   1      14.598  48.514  -2.068  1.00  0.00    +0.000 F 
ENDBRANCH   40   41
BRANCH   55   56
ATOM     65  C44 UNL A   1      18.839  55.480   1.159  1.00  0.00    +0.000 C 
ATOM     66  F15 UNL A   1      19.206  54.904   2.313  1.00  0.00    +0.000 F 
ATOM     56  C39 UNL A   1      17.624  55.128   0.553  1.00  0.00    +0.000 C 
ATOM     57  C40 UNL A   1      17.286  55.762  -0.650  1.00  0.00    +0.000 C 
ATOM     58  F11 UNL A   1      16.145  55.441  -1.277  1.00  0.00    +0.000 F 
ATOM     59  C41 UNL A   1      18.140  56.693  -1.238  1.00  0.00    +0.000 C 
ATOM     60  F12 UNL A   1      17.816  57.248  -2.413  1.00  0.00    +0.000 F 
ATOM     61  C42 UNL A   1      19.335  57.030  -0.618  1.00  0.00    +0.000 C 
ATOM     62  F13 UNL A   1      20.156  57.924  -1.183  1.00  0.00    +0.000 F 
ATOM     63  C43 UNL A   1      19.680  56.430   0.585  1.00  0.00    +0.000 C 
ATOM     64  F14 UNL A   1      20.827  56.762   1.192  1.00  0.00    +0.000 F 
ENDBRANCH   55   56
TORSDOF 19
ENDMDL
MODEL 8
REMARK VINA RESULT:     -10.6     40.170     47.794
ROOT
ATOM     19  C15 UNL A   1      52.842  20.018  11.566  1.00  0.00    +0.000 C 
ATOM     20  C16 UNL A   1      52.625  20.630  12.920  1.00  0.00    +0.000 C 
ATOM     21  N3  UNL A   1      53.450  20.709  13.932  1.00  0.00    +0.000 N 
ATOM     22  C17 UNL A   1      52.773  21.412  14.919  1.00  0.00    +0.000 C 
ATOM     23  C18 UNL A   1      53.194  21.722  16.168  1.00  0.00    +0.000 C 
ATOM     35  C25 UNL A   1      54.462  21.327  16.721  1.00  0.00    +0.000 C 
ATOM     36  C26 UNL A   1      54.922  21.482  18.017  1.00  0.00    +0.000 C 
ATOM     37  C27 UNL A   1      56.234  21.000  18.075  1.00  0.00    +0.000 C 
ATOM     38  C28 UNL A   1      56.576  20.511  16.825  1.00  0.00    +0.000 C 
ATOM     39  N4  UNL A   1      55.475  20.705  16.007  1.00  0.00    +0.000 N 
ATOM     40  C29 UNL A   1      57.818  19.922  16.400  1.00  0.00    +0.000 C 
ATOM     52  C36 UNL A   1      58.044  19.384  15.178  1.00  0.00    +0.000 C 
ATOM     53  N5  UNL A   1      57.181  19.291  14.096  1.00  0.00    +0.000 N 
ATOM     54  C37 UNL A   1      57.864  18.711  13.140  1.00  0.00    +0.000 C 
ATOM     55  C38 UNL A   1      57.426  18.350  11.747  1.00  0.00    +0.000 C 
ATOM     67  C45 UNL A   1      56.161  18.609  11.365  1.00  0.00    +0.000 C 
ATOM     68  C46 UNL A   1      55.608  18.334  10.043  1.00  0.00    +0.000 C 
ATOM     69  C47 UNL A   1      54.356  18.817   9.984  1.00  0.00    +0.000 C 
ATOM     70  C48 UNL A   1      54.006  19.402  11.280  1.00  0.00    +0.000 C 
ATOM     71  N6  UNL A   1      55.123  19.191  12.052  1.00  0.00    +0.000 N 
ATOM     72  C49 UNL A   1      59.250  18.383  13.508  1.00  0.00    +0.000 C 
ATOM     73  C50 UNL A   1      59.296  18.786  14.770  1.00  0.00    +0.000 C 
ATOM     74  C51 UNL A   1      51.479  21.763  14.376  1.00  0.00    +0.000 C 
ATOM     75  C52 UNL A   1      51.316  21.259  13.160  1.00  0.00    +0.000 C 
ATOM    111  H21 UNL A   1      54.390  21.884  18.804  1.00  0.00    +0.000 H 
ATOM    112  H22 UNL A   1      56.843  21.009  18.908  1.00  0.00    +0.000 H 
ATOM    113  H23 UNL A   1      55.421  20.442  15.060  1.00  0.00    +0.000 H 
ATOM    114  H24 UNL A   1      56.099  17.847   9.277  1.00  0.00    +0.000 H 
ATOM    115  H25 UNL A   1      53.739  18.781   9.158  1.00  0.00    +0.000 H 
ATOM    116  H26 UNL A   1      55.175  19.434  13.004  1.00  0.00    +0.000 H 
ATOM    117  H27 UNL A   1      59.991  17.954  12.934  1.00  0.00    +0.000 H 
ATOM    118  H28 UNL A   1      60.121  18.686  15.382  1.00  0.00    +0.000 H 
ATOM    119  H29 UNL A   1      50.775  22.333  14.871  1.00  0.00    +0.000 H 
ATOM    120  H30 UNL A   1      50.489  21.296  12.545  1.00  0.00    +0.000 H 
ENDROOT
BRANCH   19   18
ATOM     76  C53 UNL A   1      51.811  21.360   9.734  1.00  0.00    +0.000 C 
ATOM    109  H19 UNL A   1      49.407  18.511   8.860  1.00  0.00    +0.000 H 
ATOM     77  C54 UNL A   1      50.925  21.499   8.669  1.00  0.00    +0.000 C 
ATOM     15  C11 UNL A   1      50.102  20.429   8.307  1.00  0.00    +0.000 C 
ATOM     16  C12 UNL A   1      50.062  19.274   9.093  1.00  0.00    +0.000 C 
ATOM     17  C13 UNL A   1      50.912  19.158  10.196  1.00  0.00    +0.000 C 
ATOM    110  H20 UNL A   1      50.869  18.315  10.791  1.00  0.00    +0.000 H 
ATOM     18  C14 UNL A   1      51.825  20.181  10.496  1.00  0.00    +0.000 C 
ATOM    121  H31 UNL A   1      52.461  22.128   9.966  1.00  0.00    +0.000 H 
ATOM    122  H32 UNL A   1      50.876  22.389   8.149  1.00  0.00    +0.000 H 
BRANCH   15   13
ATOM     13  C10 UNL A   1      49.274  20.490   7.084  1.00  0.00    +0.000 C 
ATOM     14  O2  UNL A   1      48.124  20.915   7.146  1.00  0.00    +0.000 O 
BRANCH   13   12
ATOM    108  H18 UNL A   1      49.129  19.885   5.178  1.00  0.00    +0.000 H 
ATOM     12  N2  UNL A   1      49.788  20.046   5.890  1.00  0.00    +0.000 N 
BRANCH   12   11
ATOM    106  H16 UNL A   1      51.245  19.716   4.464  1.00  0.00    +0.000 H 
ATOM     11  C9  UNL A   1      51.174  19.780   5.530  1.00  0.00    +0.000 C 
ATOM    107  H17 UNL A   1      51.770  20.580   5.916  1.00  0.00    +0.000 H 
BRANCH   11   10
ATOM    105  H15 UNL A   1      51.080  18.281   6.991  1.00  0.00    +0.000 H 
ATOM     10  C8  UNL A   1      51.693  18.480   6.136  1.00  0.00    +0.000 C 
ATOM    104  H14 UNL A   1      52.726  18.615   6.378  1.00  0.00    +0.000 H 
BRANCH   10    9
ATOM      9  C7  UNL A   1      51.573  17.253   5.228  1.00  0.00    +0.000 C 
ATOM    102  H12 UNL A   1      51.356  17.595   4.237  1.00  0.00    +0.000 H 
ATOM    103  H13 UNL A   1      52.505  16.733   5.306  1.00  0.00    +0.000 H 
BRANCH    9    8
ATOM    100  H10 UNL A   1      50.717  15.314   5.161  1.00  0.00    +0.000 H 
ATOM    101  H11 UNL A   1      50.507  16.208   6.700  1.00  0.00    +0.000 H 
ATOM      8  C6  UNL A   1      50.489  16.249   5.630  1.00  0.00    +0.000 C 
BRANCH    8    7
ATOM     98  H8  UNL A   1      49.102  17.481   4.591  1.00  0.00    +0.000 H 
ATOM     99  H9  UNL A   1      48.622  15.774   4.780  1.00  0.00    +0.000 H 
ATOM      7  C5  UNL A   1      49.055  16.636   5.244  1.00  0.00    +0.000 C 
BRANCH    7    6
ATOM     97  H7  UNL A   1      48.477  17.928   6.835  1.00  0.00    +0.000 H 
ATOM      6  C4  UNL A   1      48.155  16.993   6.428  1.00  0.00    +0.000 C 
ATOM     96  H6  UNL A   1      48.225  16.222   7.167  1.00  0.00    +0.000 H 
BRANCH    6    5
ATOM      5  N1  UNL A   1      46.775  17.121   6.006  1.00  0.00    +0.000 N 
ATOM     95  H5  UNL A   1      46.140  16.522   6.461  1.00  0.00    +0.000 H 
BRANCH    5    3
ATOM      3  C3  UNL A   1      46.228  17.950   5.071  1.00  0.00    +0.000 C 
ATOM      4  O1  UNL A   1      46.361  19.162   5.260  1.00  0.00    +0.000 O 
BRANCH    3    2
ATOM      2  C2  UNL A   1      45.474  17.360   3.871  1.00  0.00    +0.000 C 
ATOM     94  H4  UNL A   1      44.826  16.608   4.269  1.00  0.00    +0.000 H 
BRANCH    2    1
ATOM      1  C1  UNL A   1      46.413  16.681   2.871  1.00  0.00    +0.000 C 
ATOM     91  H1  UNL A   1      47.410  17.041   3.017  1.00  0.00    +0.000 H 
ATOM     92  H2  UNL A   1      46.095  16.906   1.874  1.00  0.00    +0.000 H 
ATOM     93  H3  UNL A   1      46.390  15.622   3.022  1.00  0.00    +0.000 H 
ENDBRANCH    2    1
BRANCH    2   78
ATOM    134  H44 UNL A   1      41.419  19.434   2.988  1.00  0.00    +0.000 H 
ATOM     78  C55 UNL A   1      44.619  18.405   3.172  1.00  0.00    +0.000 C 
ATOM     79  C56 UNL A   1      45.171  19.339   2.284  1.00  0.00    +0.000 C 
ATOM     80  C57 UNL A   1      44.356  20.278   1.648  1.00  0.00    +0.000 C 
ATOM     81  C58 UNL A   1      42.978  20.306   1.875  1.00  0.00    +0.000 C 
ATOM     88  C64 UNL A   1      42.429  19.407   2.783  1.00  0.00    +0.000 C 
ATOM     89  C65 UNL A   1      43.245  18.471   3.415  1.00  0.00    +0.000 C 
ATOM     90  F16 UNL A   1      42.677  17.606   4.270  1.00  0.00    +0.000 F 
ATOM    123  H33 UNL A   1      46.186  19.331   2.099  1.00  0.00    +0.000 H 
ATOM    124  H34 UNL A   1      44.779  20.961   1.001  1.00  0.00    +0.000 H 
BRANCH   81   82
ATOM     82  O3  UNL A   1      42.319  21.261   1.163  1.00  0.00    +0.000 O 
BRANCH   82   83
ATOM    129  H39 UNL A   1      39.941  19.993  -2.094  1.00  0.00    +0.000 H 
ATOM    130  H40 UNL A   1      38.746  19.188   0.510  1.00  0.00    +0.000 H 
ATOM    131  H41 UNL A   1      38.238  20.458  -0.548  1.00  0.00    +0.000 H 
ATOM    132  H42 UNL A   1      39.460  21.981   0.644  1.00  0.00    +0.000 H 
ATOM    133  H43 UNL A   1      39.830  20.755   1.792  1.00  0.00    +0.000 H 
ATOM     83  C59 UNL A   1      41.304  20.961   0.219  1.00  0.00    +0.000 C 
ATOM     84  C60 UNL A   1      41.444  19.665  -0.577  1.00  0.00    +0.000 C 
ATOM     85  C61 UNL A   1      40.055  19.475  -1.165  1.00  0.00    +0.000 C 
ATOM     86  C62 UNL A   1      39.093  19.997  -0.099  1.00  0.00    +0.000 C 
ATOM     87  C63 UNL A   1      39.872  20.999   0.751  1.00  0.00    +0.000 C 
ATOM    125  H35 UNL A   1      41.476  21.783  -0.445  1.00  0.00    +0.000 H 
ATOM    126  H36 UNL A   1      41.707  18.848   0.063  1.00  0.00    +0.000 H 
ATOM    127  H37 UNL A   1      42.214  19.706  -1.318  1.00  0.00    +0.000 H 
ATOM    128  H38 UNL A   1      39.871  18.439  -1.362  1.00  0.00    +0.000 H 
ENDBRANCH   82   83
ENDBRANCH   81   82
ENDBRANCH    2   78
ENDBRANCH    3    2
ENDBRANCH    5    3
ENDBRANCH    6    5
ENDBRANCH    7    6
ENDBRANCH    8    7
ENDBRANCH    9    8
ENDBRANCH   10    9
ENDBRANCH   11   10
ENDBRANCH   12   11
ENDBRANCH   13   12
ENDBRANCH   15   13
ENDBRANCH   19   18
BRANCH   23   24
ATOM     33  C24 UNL A   1      52.232  23.921  16.923  1.00  0.00    +0.000 C 
ATOM     34  F5  UNL A   1      52.952  24.542  15.976  1.00  0.00    +0.000 F 
ATOM     24  C19 UNL A   1      52.277  22.523  17.041  1.00  0.00    +0.000 C 
ATOM     25  C20 UNL A   1      51.511  21.924  18.050  1.00  0.00    +0.000 C 
ATOM     26  F1  UNL A   1      51.516  20.590  18.199  1.00  0.00    +0.000 F 
ATOM     27  C21 UNL A   1      50.724  22.693  18.903  1.00  0.00    +0.000 C 
ATOM     28  F2  UNL A   1      49.982  22.098  19.847  1.00  0.00    +0.000 F 
ATOM     29  C22 UNL A   1      50.707  24.075  18.779  1.00  0.00    +0.000 C 
ATOM     30  F3  UNL A   1      49.963  24.814  19.612  1.00  0.00    +0.000 F 
ATOM     31  C23 UNL A   1      51.461  24.689  17.790  1.00  0.00    +0.000 C 
ATOM     32  F4  UNL A   1      51.455  26.024  17.676  1.00  0.00    +0.000 F 
ENDBRANCH   23   24
BRANCH   40   41
ATOM     41  C30 UNL A   1      58.947  19.888  17.386  1.00  0.00    +0.000 C 
ATOM     42  C31 UNL A   1      59.386  18.680  17.948  1.00  0.00    +0.000 C 
ATOM     43  F6  UNL A   1      58.753  17.533  17.658  1.00  0.00    +0.000 F 
ATOM     44  C32 UNL A   1      60.458  18.653  18.833  1.00  0.00    +0.000 C 
ATOM     45  F7  UNL A   1      60.839  17.493  19.386  1.00  0.00    +0.000 F 
ATOM     46  C33 UNL A   1      61.128  19.825  19.153  1.00  0.00    +0.000 C 
ATOM     47  F8  UNL A   1      62.168  19.794  19.999  1.00  0.00    +0.000 F 
ATOM     48  C34 UNL A   1      60.716  21.029  18.601  1.00  0.00    +0.000 C 
ATOM     49  F9  UNL A   1      61.369  22.161  18.902  1.00  0.00    +0.000 F 
ATOM     50  C35 UNL A   1      59.628  21.064  17.734  1.00  0.00    +0.000 C 
ATOM     51  F10 UNL A   1      59.248  22.243  17.220  1.00  0.00    +0.000 F 
ENDBRANCH   40   41
BRANCH   55   56
ATOM     65  C44 UNL A   1      59.200  18.507   9.968  1.00  0.00    +0.000 C 
ATOM     66  F15 UNL A   1      59.120  19.845  10.012  1.00  0.00    +0.000 F 
ATOM     56  C39 UNL A   1      58.379  17.725  10.794  1.00  0.00    +0.000 C 
ATOM     57  C40 UNL A   1      58.499  16.332  10.705  1.00  0.00    +0.000 C 
ATOM     58  F11 UNL A   1      57.751  15.545  11.493  1.00  0.00    +0.000 F 
ATOM     59  C41 UNL A   1      59.421  15.742   9.843  1.00  0.00    +0.000 C 
ATOM     60  F12 UNL A   1      59.550  14.410   9.813  1.00  0.00    +0.000 F 
ATOM     61  C42 UNL A   1      60.220  16.535   9.030  1.00  0.00    +0.000 C 
ATOM     62  F13 UNL A   1      61.106  15.969   8.202  1.00  0.00    +0.000 F 
ATOM     63  C43 UNL A   1      60.102  17.916   9.086  1.00  0.00    +0.000 C 
ATOM     64  F14 UNL A   1      60.864  18.684   8.295  1.00  0.00    +0.000 F 
ENDBRANCH   55   56
TORSDOF 19
ENDMDL
MODEL 9
REMARK VINA RESULT:     -10.6     38.600     45.486
ROOT
ATOM     19  C15 UNL A   1      23.042  20.160   4.060  1.00  0.00    +0.000 C 
ATOM     20  C16 UNL A   1      21.929  19.296   4.582  1.00  0.00    +0.000 C 
ATOM     21  N3  UNL A   1      20.641  19.399   4.379  1.00  0.00    +0.000 N 
ATOM     22  C17 UNL A   1      20.067  18.325   5.045  1.00  0.00    +0.000 C 
ATOM     23  C18 UNL A   1      18.754  18.013   5.160  1.00  0.00    +0.000 C 
ATOM     35  C25 UNL A   1      17.680  18.799   4.614  1.00  0.00    +0.000 C 
ATOM     36  C26 UNL A   1      16.317  18.633   4.790  1.00  0.00    +0.000 C 
ATOM     37  C27 UNL A   1      15.658  19.598   4.020  1.00  0.00    +0.000 C 
ATOM     38  C28 UNL A   1      16.611  20.386   3.397  1.00  0.00    +0.000 C 
ATOM     39  N4  UNL A   1      17.848  19.892   3.780  1.00  0.00    +0.000 N 
ATOM     40  C29 UNL A   1      16.413  21.497   2.505  1.00  0.00    +0.000 C 
ATOM     52  C36 UNL A   1      17.402  22.276   2.004  1.00  0.00    +0.000 C 
ATOM     53  N5  UNL A   1      18.771  22.183   2.210  1.00  0.00    +0.000 N 
ATOM     54  C37 UNL A   1      19.308  23.144   1.499  1.00  0.00    +0.000 C 
ATOM     55  C38 UNL A   1      20.756  23.518   1.352  1.00  0.00    +0.000 C 
ATOM     67  C45 UNL A   1      21.689  22.828   2.035  1.00  0.00    +0.000 C 
ATOM     68  C46 UNL A   1      23.127  23.065   1.972  1.00  0.00    +0.000 C 
ATOM     69  C47 UNL A   1      23.758  22.125   2.695  1.00  0.00    +0.000 C 
ATOM     70  C48 UNL A   1      22.763  21.240   3.304  1.00  0.00    +0.000 C 
ATOM     71  N6  UNL A   1      21.560  21.762   2.894  1.00  0.00    +0.000 N 
ATOM     72  C49 UNL A   1      18.333  23.949   0.747  1.00  0.00    +0.000 C 
ATOM     73  C50 UNL A   1      17.185  23.397   1.116  1.00  0.00    +0.000 C 
ATOM     74  C51 UNL A   1      21.148  17.565   5.635  1.00  0.00    +0.000 C 
ATOM     75  C52 UNL A   1      22.318  18.153   5.422  1.00  0.00    +0.000 C 
ATOM    111  H21 UNL A   1      15.866  17.922   5.385  1.00  0.00    +0.000 H 
ATOM    112  H22 UNL A   1      14.635  19.703   3.932  1.00  0.00    +0.000 H 
ATOM    113  H23 UNL A   1      18.716  20.264   3.501  1.00  0.00    +0.000 H 
ATOM    114  H24 UNL A   1      23.586  23.831   1.455  1.00  0.00    +0.000 H 
ATOM    115  H25 UNL A   1      24.780  22.040   2.804  1.00  0.00    +0.000 H 
ATOM    116  H26 UNL A   1      20.689  21.408   3.187  1.00  0.00    +0.000 H 
ATOM    117  H27 UNL A   1      18.499  24.736   0.101  1.00  0.00    +0.000 H 
ATOM    118  H28 UNL A   1      16.256  23.726   0.808  1.00  0.00    +0.000 H 
ATOM    119  H29 UNL A   1      21.024  16.681   6.153  1.00  0.00    +0.000 H 
ATOM    120  H30 UNL A   1      23.254  17.880   5.757  1.00  0.00    +0.000 H 
ENDROOT
BRANCH   19   18
ATOM     76  C53 UNL A   1      25.154  20.291   5.379  1.00  0.00    +0.000 C 
ATOM    109  H19 UNL A   1      26.848  17.707   3.118  1.00  0.00    +0.000 H 
ATOM     77  C54 UNL A   1      26.455  19.875   5.651  1.00  0.00    +0.000 C 
ATOM     15  C11 UNL A   1      27.042  18.877   4.868  1.00  0.00    +0.000 C 
ATOM     16  C12 UNL A   1      26.385  18.397   3.731  1.00  0.00    +0.000 C 
ATOM     17  C13 UNL A   1      25.102  18.857   3.427  1.00  0.00    +0.000 C 
ATOM    110  H20 UNL A   1      24.624  18.521   2.576  1.00  0.00    +0.000 H 
ATOM     18  C14 UNL A   1      24.459  19.773   4.276  1.00  0.00    +0.000 C 
ATOM    121  H31 UNL A   1      24.698  20.986   5.992  1.00  0.00    +0.000 H 
ATOM    122  H32 UNL A   1      26.984  20.302   6.428  1.00  0.00    +0.000 H 
BRANCH   15   13
ATOM     13  C10 UNL A   1      28.353  18.300   5.233  1.00  0.00    +0.000 C 
ATOM     14  O2  UNL A   1      29.349  18.587   4.576  1.00  0.00    +0.000 O 
BRANCH   13   12
ATOM    108  H18 UNL A   1      28.509  16.476   6.048  1.00  0.00    +0.000 H 
ATOM     12  N2  UNL A   1      28.443  17.427   6.289  1.00  0.00    +0.000 N 
BRANCH   12   11
ATOM    106  H16 UNL A   1      29.007  16.942   8.215  1.00  0.00    +0.000 H 
ATOM     11  C9  UNL A   1      28.456  17.712   7.717  1.00  0.00    +0.000 C 
ATOM    107  H17 UNL A   1      28.910  18.671   7.854  1.00  0.00    +0.000 H 
BRANCH   11   10
ATOM    105  H15 UNL A   1      26.530  18.534   7.768  1.00  0.00    +0.000 H 
ATOM     10  C8  UNL A   1      27.051  17.773   8.309  1.00  0.00    +0.000 C 
ATOM    104  H14 UNL A   1      27.141  17.983   9.355  1.00  0.00    +0.000 H 
BRANCH   10    9
ATOM      9  C7  UNL A   1      26.229  16.492   8.150  1.00  0.00    +0.000 C 
ATOM    102  H12 UNL A   1      26.908  15.679   8.004  1.00  0.00    +0.000 H 
ATOM    103  H13 UNL A   1      25.641  16.404   9.039  1.00  0.00    +0.000 H 
BRANCH    9    8
ATOM    100  H10 UNL A   1      24.250  16.413   7.388  1.00  0.00    +0.000 H 
ATOM    101  H11 UNL A   1      25.408  17.412   6.454  1.00  0.00    +0.000 H 
ATOM      8  C6  UNL A   1      25.237  16.497   6.982  1.00  0.00    +0.000 C 
BRANCH    8    7
ATOM     98  H8  UNL A   1      26.346  15.539   5.439  1.00  0.00    +0.000 H 
ATOM     99  H9  UNL A   1      25.413  14.454   6.504  1.00  0.00    +0.000 H 
ATOM      7  C5  UNL A   1      25.423  15.372   5.955  1.00  0.00    +0.000 C 
BRANCH    7    6
ATOM     97  H7  UNL A   1      24.715  15.473   3.948  1.00  0.00    +0.000 H 
ATOM      6  C4  UNL A   1      24.305  15.272   4.916  1.00  0.00    +0.000 C 
ATOM     96  H6  UNL A   1      23.542  15.985   5.151  1.00  0.00    +0.000 H 
BRANCH    6    5
ATOM      5  N1  UNL A   1      23.726  13.945   4.907  1.00  0.00    +0.000 N 
ATOM     95  H5  UNL A   1      24.305  13.237   4.544  1.00  0.00    +0.000 H 
BRANCH    5    3
ATOM      3  C3  UNL A   1      22.496  13.532   5.329  1.00  0.00    +0.000 C 
ATOM      4  O1  UNL A   1      21.541  13.801   4.596  1.00  0.00    +0.000 O 
BRANCH    3    2
ATOM      2  C2  UNL A   1      22.353  12.792   6.666  1.00  0.00    +0.000 C 
ATOM     94  H4  UNL A   1      23.069  11.997   6.643  1.00  0.00    +0.000 H 
BRANCH    2    1
ATOM      1  C1  UNL A   1      20.967  12.164   6.838  1.00  0.00    +0.000 C 
ATOM     91  H1  UNL A   1      20.324  12.853   7.343  1.00  0.00    +0.000 H 
ATOM     92  H2  UNL A   1      21.052  11.267   7.415  1.00  0.00    +0.000 H 
ATOM     93  H3  UNL A   1      20.559  11.932   5.876  1.00  0.00    +0.000 H 
ENDBRANCH    2    1
BRANCH    2   78
ATOM    134  H44 UNL A   1      21.538  16.462   9.385  1.00  0.00    +0.000 H 
ATOM     78  C55 UNL A   1      22.678  13.693   7.847  1.00  0.00    +0.000 C 
ATOM     79  C56 UNL A   1      23.768  13.440   8.692  1.00  0.00    +0.000 C 
ATOM     80  C57 UNL A   1      24.048  14.294   9.760  1.00  0.00    +0.000 C 
ATOM     81  C58 UNL A   1      23.257  15.419  10.009  1.00  0.00    +0.000 C 
ATOM     88  C64 UNL A   1      22.153  15.655   9.198  1.00  0.00    +0.000 C 
ATOM     89  C65 UNL A   1      21.876  14.801   8.131  1.00  0.00    +0.000 C 
ATOM     90  F16 UNL A   1      20.814  15.072   7.358  1.00  0.00    +0.000 F 
ATOM    123  H33 UNL A   1      24.367  12.618   8.522  1.00  0.00    +0.000 H 
ATOM    124  H34 UNL A   1      24.850  14.092  10.376  1.00  0.00    +0.000 H 
BRANCH   81   82
ATOM     82  O3  UNL A   1      23.672  16.165  11.070  1.00  0.00    +0.000 O 
BRANCH   82   83
ATOM    129  H39 UNL A   1      21.777  15.574  14.802  1.00  0.00    +0.000 H 
ATOM    130  H40 UNL A   1      23.434  18.046  14.798  1.00  0.00    +0.000 H 
ATOM    131  H41 UNL A   1      21.711  17.918  14.718  1.00  0.00    +0.000 H 
ATOM    132  H42 UNL A   1      21.778  18.039  12.434  1.00  0.00    +0.000 H 
ATOM    133  H43 UNL A   1      23.470  18.334  12.519  1.00  0.00    +0.000 H 
ATOM     83  C59 UNL A   1      22.952  16.244  12.290  1.00  0.00    +0.000 C 
ATOM     84  C60 UNL A   1      23.467  15.417  13.465  1.00  0.00    +0.000 C 
ATOM     85  C61 UNL A   1      22.736  16.023  14.653  1.00  0.00    +0.000 C 
ATOM     86  C62 UNL A   1      22.627  17.514  14.339  1.00  0.00    +0.000 C 
ATOM     87  C63 UNL A   1      22.700  17.655  12.819  1.00  0.00    +0.000 C 
ATOM    125  H35 UNL A   1      22.038  15.806  11.946  1.00  0.00    +0.000 H 
ATOM    126  H36 UNL A   1      24.527  15.519  13.571  1.00  0.00    +0.000 H 
ATOM    127  H37 UNL A   1      23.292  14.367  13.352  1.00  0.00    +0.000 H 
ATOM    128  H38 UNL A   1      23.294  15.869  15.553  1.00  0.00    +0.000 H 
ENDBRANCH   82   83
ENDBRANCH   81   82
ENDBRANCH    2   78
ENDBRANCH    3    2
ENDBRANCH    5    3
ENDBRANCH    6    5
ENDBRANCH    7    6
ENDBRANCH    8    7
ENDBRANCH    9    8
ENDBRANCH   10    9
ENDBRANCH   11   10
ENDBRANCH   12   11
ENDBRANCH   13   12
ENDBRANCH   15   13
ENDBRANCH   19   18
BRANCH   23   24
ATOM     33  C24 UNL A   1      18.359  15.530   5.260  1.00  0.00    +0.000 C 
ATOM     34  F5  UNL A   1      18.729  15.435   3.974  1.00  0.00    +0.000 F 
ATOM     24  C19 UNL A   1      18.390  16.770   5.915  1.00  0.00    +0.000 C 
ATOM     25  C20 UNL A   1      17.988  16.816   7.257  1.00  0.00    +0.000 C 
ATOM     26  F1  UNL A   1      18.006  17.977   7.928  1.00  0.00    +0.000 F 
ATOM     27  C21 UNL A   1      17.577  15.662   7.920  1.00  0.00    +0.000 C 
ATOM     28  F2  UNL A   1      17.218  15.724   9.210  1.00  0.00    +0.000 F 
ATOM     29  C22 UNL A   1      17.539  14.449   7.249  1.00  0.00    +0.000 C 
ATOM     30  F3  UNL A   1      17.127  13.343   7.884  1.00  0.00    +0.000 F 
ATOM     31  C23 UNL A   1      17.928  14.382   5.919  1.00  0.00    +0.000 C 
ATOM     32  F4  UNL A   1      17.880  13.213   5.266  1.00  0.00    +0.000 F 
ENDBRANCH   23   24
BRANCH   40   41
ATOM     41  C30 UNL A   1      15.007  21.830   2.106  1.00  0.00    +0.000 C 
ATOM     42  C31 UNL A   1      14.453  21.337   0.916  1.00  0.00    +0.000 C 
ATOM     43  F6  UNL A   1      15.201  20.604   0.077  1.00  0.00    +0.000 F 
ATOM     44  C32 UNL A   1      13.136  21.620   0.570  1.00  0.00    +0.000 C 
ATOM     45  F7  UNL A   1      12.636  21.167  -0.588  1.00  0.00    +0.000 F 
ATOM     46  C33 UNL A   1      12.341  22.378   1.417  1.00  0.00    +0.000 C 
ATOM     47  F8  UNL A   1      11.069  22.641   1.087  1.00  0.00    +0.000 F 
ATOM     48  C34 UNL A   1      12.867  22.868   2.603  1.00  0.00    +0.000 C 
ATOM     49  F9  UNL A   1      12.097  23.593   3.428  1.00  0.00    +0.000 F 
ATOM     50  C35 UNL A   1      14.191  22.608   2.941  1.00  0.00    +0.000 C 
ATOM     51  F10 UNL A   1      14.676  23.100   4.091  1.00  0.00    +0.000 F 
ENDBRANCH   40   41
BRANCH   55   56
ATOM     65  C44 UNL A   1      21.334  24.429  -0.922  1.00  0.00    +0.000 C 
ATOM     66  F15 UNL A   1      21.152  23.211  -1.451  1.00  0.00    +0.000 F 
ATOM     56  C39 UNL A   1      21.162  24.631   0.455  1.00  0.00    +0.000 C 
ATOM     57  C40 UNL A   1      21.368  25.922   0.957  1.00  0.00    +0.000 C 
ATOM     58  F11 UNL A   1      21.193  26.167   2.264  1.00  0.00    +0.000 F 
ATOM     59  C41 UNL A   1      21.708  26.978   0.113  1.00  0.00    +0.000 C 
ATOM     60  F12 UNL A   1      21.851  28.212   0.612  1.00  0.00    +0.000 F 
ATOM     61  C42 UNL A   1      21.878  26.754  -1.246  1.00  0.00    +0.000 C 
ATOM     62  F13 UNL A   1      22.203  27.768  -2.058  1.00  0.00    +0.000 F 
ATOM     63  C43 UNL A   1      21.700  25.479  -1.762  1.00  0.00    +0.000 C 
ATOM     64  F14 UNL A   1      21.874  25.257  -3.072  1.00  0.00    +0.000 F 
ENDBRANCH   55   56
TORSDOF 19
ENDMDL
MODEL 10
REMARK VINA RESULT:     -10.5      1.790      2.809
ROOT
ATOM     19  C15 UNL A   1      25.840  35.423  45.155  1.00  0.00    +0.000 C 
ATOM     20  C16 UNL A   1      27.191  35.428  44.500  1.00  0.00    +0.000 C 
ATOM     21  N3  UNL A   1      28.186  36.261  44.666  1.00  0.00    +0.000 N 
ATOM     22  C17 UNL A   1      29.214  35.787  43.863  1.00  0.00    +0.000 C 
ATOM     23  C18 UNL A   1      30.441  36.326  43.666  1.00  0.00    +0.000 C 
ATOM     35  C25 UNL A   1      30.895  37.556  44.258  1.00  0.00    +0.000 C 
ATOM     36  C26 UNL A   1      32.070  38.245  44.016  1.00  0.00    +0.000 C 
ATOM     37  C27 UNL A   1      32.107  39.356  44.865  1.00  0.00    +0.000 C 
ATOM     38  C28 UNL A   1      30.938  39.378  45.607  1.00  0.00    +0.000 C 
ATOM     39  N4  UNL A   1      30.197  38.275  45.215  1.00  0.00    +0.000 N 
ATOM     40  C29 UNL A   1      30.529  40.325  46.611  1.00  0.00    +0.000 C 
ATOM     52  C36 UNL A   1      29.325  40.326  47.232  1.00  0.00    +0.000 C 
ATOM     53  N5  UNL A   1      28.261  39.453  47.066  1.00  0.00    +0.000 N 
ATOM     54  C37 UNL A   1      27.332  39.855  47.899  1.00  0.00    +0.000 C 
ATOM     55  C38 UNL A   1      25.963  39.284  48.140  1.00  0.00    +0.000 C 
ATOM     67  C45 UNL A   1      25.553  38.224  47.418  1.00  0.00    +0.000 C 
ATOM     68  C46 UNL A   1      24.264  37.555  47.559  1.00  0.00    +0.000 C 
ATOM     69  C47 UNL A   1      24.241  36.478  46.758  1.00  0.00    +0.000 C 
ATOM     70  C48 UNL A   1      25.502  36.402  46.017  1.00  0.00    +0.000 C 
ATOM     71  N6  UNL A   1      26.201  37.507  46.440  1.00  0.00    +0.000 N 
ATOM     72  C49 UNL A   1      27.715  41.027  48.702  1.00  0.00    +0.000 C 
ATOM     73  C50 UNL A   1      28.926  41.292  48.231  1.00  0.00    +0.000 C 
ATOM     74  C51 UNL A   1      28.735  34.578  43.230  1.00  0.00    +0.000 C 
ATOM     75  C52 UNL A   1      27.470  34.339  43.551  1.00  0.00    +0.000 C 
ATOM    111  H21 UNL A   1      32.793  37.985  43.328  1.00  0.00    +0.000 H 
ATOM    112  H22 UNL A   1      32.875  40.042  44.927  1.00  0.00    +0.000 H 
ATOM    113  H23 UNL A   1      29.308  38.038  45.566  1.00  0.00    +0.000 H 
ATOM    114  H24 UNL A   1      23.495  37.861  48.175  1.00  0.00    +0.000 H 
ATOM    115  H25 UNL A   1      23.459  35.809  46.677  1.00  0.00    +0.000 H 
ATOM    116  H26 UNL A   1      27.080  37.760  46.078  1.00  0.00    +0.000 H 
ATOM    117  H27 UNL A   1      27.181  41.515  49.437  1.00  0.00    +0.000 H 
ATOM    118  H28 UNL A   1      29.509  42.087  48.540  1.00  0.00    +0.000 H 
ATOM    119  H29 UNL A   1      29.304  33.979  42.612  1.00  0.00    +0.000 H 
ATOM    120  H30 UNL A   1      26.846  33.587  43.221  1.00  0.00    +0.000 H 
ENDROOT
BRANCH   19   18
ATOM     76  C53 UNL A   1      25.003  33.158  45.779  1.00  0.00    +0.000 C 
ATOM    109  H19 UNL A   1      22.192  33.369  43.188  1.00  0.00    +0.000 H 
ATOM     77  C54 UNL A   1      24.085  32.117  45.662  1.00  0.00    +0.000 C 
ATOM     15  C11 UNL A   1      23.018  32.232  44.767  1.00  0.00    +0.000 C 
ATOM     16  C12 UNL A   1      22.946  33.319  43.892  1.00  0.00    +0.000 C 
ATOM     17  C13 UNL A   1      23.900  34.336  43.972  1.00  0.00    +0.000 C 
ATOM    110  H20 UNL A   1      23.862  35.129  43.312  1.00  0.00    +0.000 H 
ATOM     18  C14 UNL A   1      24.908  34.285  44.948  1.00  0.00    +0.000 C 
ATOM    121  H31 UNL A   1      25.758  33.100  46.481  1.00  0.00    +0.000 H 
ATOM    122  H32 UNL A   1      24.193  31.264  46.233  1.00  0.00    +0.000 H 
BRANCH   15   13
ATOM     13  C10 UNL A   1      21.940  31.220  44.740  1.00  0.00    +0.000 C 
ATOM     14  O2  UNL A   1      22.140  30.102  45.204  1.00  0.00    +0.000 O 
BRANCH   13   12
ATOM    108  H18 UNL A   1      20.737  32.291  43.546  1.00  0.00    +0.000 H 
ATOM     12  N2  UNL A   1      20.729  31.530  44.170  1.00  0.00    +0.000 N 
BRANCH   12   11
ATOM    106  H16 UNL A   1      19.536  29.845  44.155  1.00  0.00    +0.000 H 
ATOM     11  C9  UNL A   1      19.435  30.891  44.360  1.00  0.00    +0.000 C 
ATOM    107  H17 UNL A   1      19.131  31.064  45.371  1.00  0.00    +0.000 H 
BRANCH   11   10
ATOM    105  H15 UNL A   1      18.844  31.689  42.516  1.00  0.00    +0.000 H 
ATOM     10  C8  UNL A   1      18.361  31.470  43.445  1.00  0.00    +0.000 C 
ATOM    104  H14 UNL A   1      17.948  32.334  43.921  1.00  0.00    +0.000 H 
BRANCH   10    9
ATOM      9  C7  UNL A   1      17.212  30.513  43.116  1.00  0.00    +0.000 C 
ATOM    102  H12 UNL A   1      16.337  30.860  43.624  1.00  0.00    +0.000 H 
ATOM    103  H13 UNL A   1      17.117  30.518  42.050  1.00  0.00    +0.000 H 
BRANCH    9    8
ATOM    100  H10 UNL A   1      17.601  28.487  42.621  1.00  0.00    +0.000 H 
ATOM    101  H11 UNL A   1      18.290  29.059  44.173  1.00  0.00    +0.000 H 
ATOM      8  C6  UNL A   1      17.446  29.053  43.516  1.00  0.00    +0.000 C 
BRANCH    8    7
ATOM     98  H8  UNL A   1      16.432  28.624  45.337  1.00  0.00    +0.000 H 
ATOM     99  H9  UNL A   1      15.392  28.784  43.897  1.00  0.00    +0.000 H 
ATOM      7  C5  UNL A   1      16.303  28.394  44.300  1.00  0.00    +0.000 C 
BRANCH    7    6
ATOM     97  H7  UNL A   1      16.434  26.425  45.103  1.00  0.00    +0.000 H 
ATOM      6  C4  UNL A   1      16.229  26.872  44.153  1.00  0.00    +0.000 C 
ATOM     96  H6  UNL A   1      16.950  26.555  43.429  1.00  0.00    +0.000 H 
BRANCH    6    5
ATOM      5  N1  UNL A   1      14.910  26.460  43.720  1.00  0.00    +0.000 N 
ATOM     95  H5  UNL A   1      14.182  27.083  43.944  1.00  0.00    +0.000 H 
BRANCH    5    3
ATOM      3  C3  UNL A   1      14.530  25.334  43.050  1.00  0.00    +0.000 C 
ATOM      4  O1  UNL A   1      15.164  24.305  43.293  1.00  0.00    +0.000 O 
BRANCH    3    2
ATOM      2  C2  UNL A   1      13.378  25.398  42.037  1.00  0.00    +0.000 C 
ATOM     94  H4  UNL A   1      13.202  26.437  41.853  1.00  0.00    +0.000 H 
BRANCH    2    1
ATOM      1  C1  UNL A   1      12.082  24.799  42.589  1.00  0.00    +0.000 C 
ATOM     91  H1  UNL A   1      11.473  24.459  41.778  1.00  0.00    +0.000 H 
ATOM     92  H2  UNL A   1      11.553  25.545  43.145  1.00  0.00    +0.000 H 
ATOM     93  H3  UNL A   1      12.316  23.975  43.231  1.00  0.00    +0.000 H 
ENDBRANCH    2    1
BRANCH    2   78
ATOM    134  H44 UNL A   1      13.734  21.712  39.242  1.00  0.00    +0.000 H 
ATOM     78  C55 UNL A   1      13.749  24.737  40.718  1.00  0.00    +0.000 C 
ATOM     79  C56 UNL A   1      14.276  25.470  39.646  1.00  0.00    +0.000 C 
ATOM     80  C57 UNL A   1      14.619  24.831  38.453  1.00  0.00    +0.000 C 
ATOM     81  C58 UNL A   1      14.452  23.452  38.301  1.00  0.00    +0.000 C 
ATOM     88  C64 UNL A   1      13.895  22.725  39.347  1.00  0.00    +0.000 C 
ATOM     89  C65 UNL A   1      13.555  23.366  40.537  1.00  0.00    +0.000 C 
ATOM     90  F16 UNL A   1      13.039  22.628  41.532  1.00  0.00    +0.000 F 
ATOM    123  H33 UNL A   1      14.412  26.489  39.740  1.00  0.00    +0.000 H 
ATOM    124  H34 UNL A   1      15.001  25.386  37.671  1.00  0.00    +0.000 H 
BRANCH   81   82
ATOM     82  O3  UNL A   1      14.855  22.976  37.091  1.00  0.00    +0.000 O 
BRANCH   82   83
ATOM    129  H39 UNL A   1      18.816  23.538  35.723  1.00  0.00    +0.000 H 
ATOM    130  H40 UNL A   1      16.903  23.278  33.457  1.00  0.00    +0.000 H 
ATOM    131  H41 UNL A   1      17.671  24.711  34.044  1.00  0.00    +0.000 H 
ATOM    132  H42 UNL A   1      15.850  25.192  35.341  1.00  0.00    +0.000 H 
ATOM    133  H43 UNL A   1      15.020  23.862  34.634  1.00  0.00    +0.000 H 
ATOM     83  C59 UNL A   1      16.066  23.373  36.467  1.00  0.00    +0.000 C 
ATOM     84  C60 UNL A   1      17.121  22.296  36.228  1.00  0.00    +0.000 C 
ATOM     85  C61 UNL A   1      18.062  22.957  35.234  1.00  0.00    +0.000 C 
ATOM     86  C62 UNL A   1      17.167  23.816  34.343  1.00  0.00    +0.000 C 
ATOM     87  C63 UNL A   1      15.913  24.140  35.154  1.00  0.00    +0.000 C 
ATOM    125  H35 UNL A   1      16.419  24.024  37.240  1.00  0.00    +0.000 H 
ATOM    126  H36 UNL A   1      16.681  21.413  35.814  1.00  0.00    +0.000 H 
ATOM    127  H37 UNL A   1      17.610  21.978  37.125  1.00  0.00    +0.000 H 
ATOM    128  H38 UNL A   1      18.571  22.216  34.651  1.00  0.00    +0.000 H 
ENDBRANCH   82   83
ENDBRANCH   81   82
ENDBRANCH    2   78
ENDBRANCH    3    2
ENDBRANCH    5    3
ENDBRANCH    6    5
ENDBRANCH    7    6
ENDBRANCH    8    7
ENDBRANCH    9    8
ENDBRANCH   10    9
ENDBRANCH   11   10
ENDBRANCH   12   11
ENDBRANCH   13   12
ENDBRANCH   15   13
ENDBRANCH   19   18
BRANCH   23   24
ATOM     33  C24 UNL A   1      31.446  35.913  41.396  1.00  0.00    +0.000 C 
ATOM     34  F5  UNL A   1      30.706  36.918  40.904  1.00  0.00    +0.000 F 
ATOM     24  C19 UNL A   1      31.391  35.598  42.763  1.00  0.00    +0.000 C 
ATOM     25  C20 UNL A   1      32.179  34.536  43.226  1.00  0.00    +0.000 C 
ATOM     26  F1  UNL A   1      32.165  34.202  44.525  1.00  0.00    +0.000 F 
ATOM     27  C21 UNL A   1      32.997  33.820  42.356  1.00  0.00    +0.000 C 
ATOM     28  F2  UNL A   1      33.760  32.823  42.824  1.00  0.00    +0.000 F 
ATOM     29  C22 UNL A   1      33.025  34.138  41.006  1.00  0.00    +0.000 C 
ATOM     30  F3  UNL A   1      33.800  33.437  40.167  1.00  0.00    +0.000 F 
ATOM     31  C23 UNL A   1      32.249  35.182  40.525  1.00  0.00    +0.000 C 
ATOM     32  F4  UNL A   1      32.265  35.482  39.219  1.00  0.00    +0.000 F 
ENDBRANCH   23   24
BRANCH   40   41
ATOM     41  C30 UNL A   1      31.502  41.400  46.994  1.00  0.00    +0.000 C 
ATOM     42  C31 UNL A   1      31.300  42.734  46.611  1.00  0.00    +0.000 C 
ATOM     43  F6  UNL A   1      30.256  43.061  45.834  1.00  0.00    +0.000 F 
ATOM     44  C32 UNL A   1      32.188  43.731  47.001  1.00  0.00    +0.000 C 
ATOM     45  F7  UNL A   1      31.995  44.993  46.595  1.00  0.00    +0.000 F 
ATOM     46  C33 UNL A   1      33.277  43.419  47.802  1.00  0.00    +0.000 C 
ATOM     47  F8  UNL A   1      34.125  44.384  48.185  1.00  0.00    +0.000 F 
ATOM     48  C34 UNL A   1      33.490  42.108  48.199  1.00  0.00    +0.000 C 
ATOM     49  F9  UNL A   1      34.537  41.807  48.981  1.00  0.00    +0.000 F 
ATOM     50  C35 UNL A   1      32.618  41.103  47.790  1.00  0.00    +0.000 C 
ATOM     51  F10 UNL A   1      32.852  39.842  48.184  1.00  0.00    +0.000 F 
ENDBRANCH   40   41
BRANCH   55   56
ATOM     65  C44 UNL A   1      24.224  40.951  48.871  1.00  0.00    +0.000 C 
ATOM     66  F15 UNL A   1      24.226  41.486  47.641  1.00  0.00    +0.000 F 
ATOM     56  C39 UNL A   1      25.069  39.872  49.170  1.00  0.00    +0.000 C 
ATOM     57  C40 UNL A   1      25.030  39.354  50.471  1.00  0.00    +0.000 C 
ATOM     58  F11 UNL A   1      25.804  38.308  50.797  1.00  0.00    +0.000 F 
ATOM     59  C41 UNL A   1      24.163  39.875  51.429  1.00  0.00    +0.000 C 
ATOM     60  F12 UNL A   1      24.111  39.329  52.651  1.00  0.00    +0.000 F 
ATOM     61  C42 UNL A   1      23.339  40.946  51.112  1.00  0.00    +0.000 C 
ATOM     62  F13 UNL A   1      22.505  41.447  52.032  1.00  0.00    +0.000 F 
ATOM     63  C43 UNL A   1      23.376  41.490  49.836  1.00  0.00    +0.000 C 
ATOM     64  F14 UNL A   1      22.591  42.531  49.530  1.00  0.00    +0.000 F 
ENDBRANCH   55   56
TORSDOF 19
ENDMDL
