MODEL 1
REMARK VINA RESULT:      -9.6      0.000      0.000
ROOT
ATOM     34  C25 UNL A   1      22.172  19.515   5.214  1.00  0.00    +0.000 C 
ATOM     35  C26 UNL A   1      21.906  20.538   4.142  1.00  0.00    +0.000 C 
ATOM     36  N4  UNL A   1      20.769  21.068   3.769  1.00  0.00    +0.000 N 
ATOM     37  C27 UNL A   1      21.084  21.970   2.762  1.00  0.00    +0.000 C 
ATOM     38  C28 UNL A   1      20.247  22.714   2.002  1.00  0.00    +0.000 C 
ATOM     50  C35 UNL A   1      18.814  22.690   2.117  1.00  0.00    +0.000 C 
ATOM     51  C36 UNL A   1      17.880  23.374   1.360  1.00  0.00    +0.000 C 
ATOM     52  C37 UNL A   1      16.609  23.062   1.850  1.00  0.00    +0.000 C 
ATOM     53  C38 UNL A   1      16.750  22.149   2.881  1.00  0.00    +0.000 C 
ATOM     54  N5  UNL A   1      18.109  21.935   3.041  1.00  0.00    +0.000 N 
ATOM     55  C39 UNL A   1      15.719  21.522   3.666  1.00  0.00    +0.000 C 
ATOM     67  C46 UNL A   1      15.934  20.639   4.670  1.00  0.00    +0.000 C 
ATOM     68  N6  UNL A   1      17.137  20.135   5.144  1.00  0.00    +0.000 N 
ATOM     69  C47 UNL A   1      16.828  19.328   6.128  1.00  0.00    +0.000 C 
ATOM     70  C48 UNL A   1      17.735  18.483   6.983  1.00  0.00    +0.000 C 
ATOM     82  C55 UNL A   1      19.067  18.534   6.780  1.00  0.00    +0.000 C 
ATOM     83  C56 UNL A   1      20.066  17.754   7.507  1.00  0.00    +0.000 C 
ATOM     84  C57 UNL A   1      21.287  18.056   7.035  1.00  0.00    +0.000 C 
ATOM     85  C58 UNL A   1      21.153  19.028   5.949  1.00  0.00    +0.000 C 
ATOM     86  N7  UNL A   1      19.804  19.275   5.889  1.00  0.00    +0.000 N 
ATOM     87  C59 UNL A   1      15.387  19.250   6.409  1.00  0.00    +0.000 C 
ATOM     88  C60 UNL A   1      14.884  20.038   5.467  1.00  0.00    +0.000 C 
ATOM     89  C61 UNL A   1      22.522  21.963   2.618  1.00  0.00    +0.000 C 
ATOM     90  C62 UNL A   1      23.072  21.047   3.402  1.00  0.00    +0.000 C 
ATOM    117  H25 UNL A   1      18.085  24.005   0.570  1.00  0.00    +0.000 H 
ATOM    118  H26 UNL A   1      15.716  23.447   1.501  1.00  0.00    +0.000 H 
ATOM    119  H27 UNL A   1      18.514  21.337   3.710  1.00  0.00    +0.000 H 
ATOM    120  H28 UNL A   1      19.866  17.080   8.262  1.00  0.00    +0.000 H 
ATOM    121  H29 UNL A   1      22.176  17.665   7.383  1.00  0.00    +0.000 H 
ATOM    122  H30 UNL A   1      19.403  19.923   5.266  1.00  0.00    +0.000 H 
ATOM    123  H31 UNL A   1      14.894  18.721   7.145  1.00  0.00    +0.000 H 
ATOM    124  H32 UNL A   1      13.877  20.202   5.320  1.00  0.00    +0.000 H 
ATOM    125  H33 UNL A   1      23.050  22.588   1.988  1.00  0.00    +0.000 H 
ATOM    126  H34 UNL A   1      24.062  20.765   3.474  1.00  0.00    +0.000 H 
ENDROOT
BRANCH   34   33
ATOM     33  C24 UNL A   1      23.560  19.045   5.465  1.00  0.00    +0.000 C 
ATOM    127  H35 UNL A   1      23.937  20.393   7.051  1.00  0.00    +0.000 H 
ATOM    115  H23 UNL A   1      25.829  16.830   4.346  1.00  0.00    +0.000 H 
ATOM    116  H24 UNL A   1      23.553  17.568   3.951  1.00  0.00    +0.000 H 
ATOM     91  C63 UNL A   1      24.348  19.665   6.446  1.00  0.00    +0.000 C 
ATOM     92  C64 UNL A   1      25.684  19.300   6.610  1.00  0.00    +0.000 C 
ATOM     32  C23 UNL A   1      24.118  18.019   4.688  1.00  0.00    +0.000 C 
ATOM     30  C21 UNL A   1      26.216  18.238   5.874  1.00  0.00    +0.000 C 
ATOM     31  C22 UNL A   1      25.434  17.604   4.903  1.00  0.00    +0.000 C 
ATOM    128  H36 UNL A   1      26.280  19.815   7.276  1.00  0.00    +0.000 H 
BRANCH   30    2
ATOM      1  O1  UNL A   1      28.083  16.947   5.285  1.00  0.00    +0.000 O 
ATOM      2  C1  UNL A   1      27.621  17.797   6.042  1.00  0.00    +0.000 C 
BRANCH    2    3
ATOM      3  N1  UNL A   1      28.405  18.318   7.038  1.00  0.00    +0.000 N 
ATOM     93  H1  UNL A   1      28.733  19.232   6.876  1.00  0.00    +0.000 H 
BRANCH    3    4
ATOM      4  C2  UNL A   1      28.827  17.726   8.294  1.00  0.00    +0.000 C 
ATOM     94  H2  UNL A   1      29.835  18.022   8.492  1.00  0.00    +0.000 H 
ATOM     95  H3  UNL A   1      28.740  16.664   8.197  1.00  0.00    +0.000 H 
BRANCH    4    5
ATOM     97  H5  UNL A   1      26.948  17.898   9.196  1.00  0.00    +0.000 H 
ATOM      5  C3  UNL A   1      27.951  18.157   9.466  1.00  0.00    +0.000 C 
ATOM     96  H4  UNL A   1      28.303  17.655  10.343  1.00  0.00    +0.000 H 
BRANCH    5    6
ATOM     98  H6  UNL A   1      27.149  20.098   9.179  1.00  0.00    +0.000 H 
ATOM     99  H7  UNL A   1      28.912  20.017   9.498  1.00  0.00    +0.000 H 
ATOM      6  C4  UNL A   1      27.936  19.660   9.756  1.00  0.00    +0.000 C 
BRANCH    6    7
ATOM    100  H8  UNL A   1      28.659  20.382  11.613  1.00  0.00    +0.000 H 
ATOM    101  H9  UNL A   1      27.333  19.178  11.702  1.00  0.00    +0.000 H 
ATOM      7  C5  UNL A   1      27.721  20.051  11.220  1.00  0.00    +0.000 C 
BRANCH    7    8
ATOM    102  H10 UNL A   1      25.976  21.126  10.670  1.00  0.00    +0.000 H 
ATOM    103  H11 UNL A   1      27.244  22.073  11.508  1.00  0.00    +0.000 H 
ATOM      8  C6  UNL A   1      26.691  21.157  11.466  1.00  0.00    +0.000 C 
BRANCH    8    9
ATOM      9  C7  UNL A   1      25.934  21.058  12.786  1.00  0.00    +0.000 C 
ATOM    105  H13 UNL A   1      26.610  21.325  13.573  1.00  0.00    +0.000 H 
ATOM    104  H12 UNL A   1      25.095  21.720  12.753  1.00  0.00    +0.000 H 
BRANCH    9   10
ATOM     10  N2  UNL A   1      25.459  19.712  13.046  1.00  0.00    +0.000 N 
ATOM    106  H14 UNL A   1      26.130  19.079  13.391  1.00  0.00    +0.000 H 
BRANCH   10   11
ATOM     11  C8  UNL A   1      24.195  19.209  12.869  1.00  0.00    +0.000 C 
ATOM     12  O2  UNL A   1      23.251  19.651  13.520  1.00  0.00    +0.000 O 
BRANCH   11   13
ATOM    107  H15 UNL A   1      24.599  19.480  10.286  1.00  0.00    +0.000 H 
ATOM    108  H16 UNL A   1      24.296  17.853   8.509  1.00  0.00    +0.000 H 
ATOM     13  C9  UNL A   1      23.948  18.192  11.829  1.00  0.00    +0.000 C 
ATOM     14  C10 UNL A   1      24.247  18.535  10.506  1.00  0.00    +0.000 C 
ATOM     15  C11 UNL A   1      24.070  17.600   9.484  1.00  0.00    +0.000 C 
ATOM     16  C12 UNL A   1      23.584  16.318   9.779  1.00  0.00    +0.000 C 
ATOM    113  H21 UNL A   1      22.880  15.057  11.326  1.00  0.00    +0.000 H 
ATOM     27  C19 UNL A   1      23.253  15.994  11.104  1.00  0.00    +0.000 C 
ATOM     28  C20 UNL A   1      23.423  16.931  12.123  1.00  0.00    +0.000 C 
BRANCH   16   17
ATOM    109  H17 UNL A   1      24.438  16.328   7.138  1.00  0.00    +0.000 H 
ATOM    110  H18 UNL A   1      23.946  14.747   5.459  1.00  0.00    +0.000 H 
ATOM    112  H20 UNL A   1      22.412  14.020   9.999  1.00  0.00    +0.000 H 
ATOM     17  C13 UNL A   1      23.415  15.295   8.731  1.00  0.00    +0.000 C 
ATOM     18  C14 UNL A   1      23.888  15.487   7.373  1.00  0.00    +0.000 C 
ATOM     19  C15 UNL A   1      23.616  14.586   6.423  1.00  0.00    +0.000 C 
ATOM     20  N3  UNL A   1      22.899  13.441   6.714  1.00  0.00    +0.000 N 
ATOM     24  C17 UNL A   1      22.440  13.152   7.989  1.00  0.00    +0.000 C 
ATOM     25  O3  UNL A   1      21.809  12.152   8.314  1.00  0.00    +0.000 O 
ATOM     26  C18 UNL A   1      22.735  14.175   9.032  1.00  0.00    +0.000 C 
BRANCH   20   21
ATOM     21  C16 UNL A   1      22.573  12.500   5.674  1.00  0.00    +0.000 C 
ATOM     22  F1  UNL A   1      22.018  13.120   4.605  1.00  0.00    +0.000 F 
ATOM    111  H19 UNL A   1      21.873  11.806   6.090  1.00  0.00    +0.000 H 
ATOM     23  F2  UNL A   1      23.683  11.844   5.251  1.00  0.00    +0.000 F 
ENDBRANCH   20   21
ENDBRANCH   16   17
BRANCH   28   29
ATOM    114  H22 UNL A   1      23.391  15.794  13.776  1.00  0.00    +0.000 H 
ATOM     29  O4  UNL A   1      23.086  16.598  13.406  1.00  0.00    +0.000 O 
ENDBRANCH   28   29
ENDBRANCH   11   13
ENDBRANCH   10   11
ENDBRANCH    9   10
ENDBRANCH    8    9
ENDBRANCH    7    8
ENDBRANCH    6    7
ENDBRANCH    5    6
ENDBRANCH    4    5
ENDBRANCH    3    4
ENDBRANCH    2    3
ENDBRANCH   30    2
ENDBRANCH   34   33
BRANCH   38   39
ATOM     39  C29 UNL A   1      20.847  23.600   0.951  1.00  0.00    +0.000 C 
ATOM     40  C30 UNL A   1      20.951  23.180  -0.382  1.00  0.00    +0.000 C 
ATOM     41  F3  UNL A   1      20.603  21.931  -0.726  1.00  0.00    +0.000 F 
ATOM     42  C31 UNL A   1      21.428  24.039  -1.368  1.00  0.00    +0.000 C 
ATOM     43  F4  UNL A   1      21.543  23.608  -2.632  1.00  0.00    +0.000 F 
ATOM     44  C32 UNL A   1      21.785  25.340  -1.046  1.00  0.00    +0.000 C 
ATOM     45  F5  UNL A   1      22.222  26.173  -2.000  1.00  0.00    +0.000 F 
ATOM     46  C33 UNL A   1      21.686  25.778   0.267  1.00  0.00    +0.000 C 
ATOM     47  F6  UNL A   1      22.015  27.039   0.578  1.00  0.00    +0.000 F 
ATOM     48  C34 UNL A   1      21.235  24.912   1.260  1.00  0.00    +0.000 C 
ATOM     49  F7  UNL A   1      21.148  25.365   2.520  1.00  0.00    +0.000 F 
ENDBRANCH   38   39
BRANCH   55   56
ATOM     65  C45 UNL A   1      13.609  22.824   4.110  1.00  0.00    +0.000 C 
ATOM     66  F12 UNL A   1      14.239  23.480   5.096  1.00  0.00    +0.000 F 
ATOM     56  C40 UNL A   1      14.300  21.880   3.335  1.00  0.00    +0.000 C 
ATOM     57  C41 UNL A   1      13.595  21.212   2.324  1.00  0.00    +0.000 C 
ATOM     58  F8  UNL A   1      14.218  20.310   1.551  1.00  0.00    +0.000 F 
ATOM     59  C42 UNL A   1      12.248  21.479   2.100  1.00  0.00    +0.000 C 
ATOM     60  F9  UNL A   1      11.597  20.843   1.116  1.00  0.00    +0.000 F 
ATOM     61  C43 UNL A   1      11.576  22.396   2.895  1.00  0.00    +0.000 C 
ATOM     62  F10 UNL A   1      10.273  22.631   2.695  1.00  0.00    +0.000 F 
ATOM     63  C44 UNL A   1      12.256  23.068   3.901  1.00  0.00    +0.000 C 
ATOM     64  F11 UNL A   1      11.605  23.941   4.681  1.00  0.00    +0.000 F 
ENDBRANCH   55   56
BRANCH   70   71
ATOM     71  C49 UNL A   1      17.178  17.571   8.015  1.00  0.00    +0.000 C 
ATOM     72  C50 UNL A   1      16.715  18.069   9.242  1.00  0.00    +0.000 C 
ATOM     73  F13 UNL A   1      16.796  19.382   9.503  1.00  0.00    +0.000 F 
ATOM     74  C51 UNL A   1      16.200  17.218  10.218  1.00  0.00    +0.000 C 
ATOM     75  F14 UNL A   1      15.802  17.717  11.396  1.00  0.00    +0.000 F 
ATOM     76  C52 UNL A   1      16.112  15.856   9.977  1.00  0.00    +0.000 C 
ATOM     77  F15 UNL A   1      15.610  15.039  10.912  1.00  0.00    +0.000 F 
ATOM     78  C53 UNL A   1      16.551  15.341   8.766  1.00  0.00    +0.000 C 
ATOM     79  F16 UNL A   1      16.454  14.027   8.524  1.00  0.00    +0.000 F 
ATOM     80  C54 UNL A   1      17.090  16.187   7.800  1.00  0.00    +0.000 C 
ATOM     81  F17 UNL A   1      17.516  15.660   6.643  1.00  0.00    +0.000 F 
ENDBRANCH   70   71
TORSDOF 18
ENDMDL
MODEL 2
REMARK VINA RESULT:      -9.6     34.845     39.137
ROOT
ATOM     34  C25 UNL A   1       1.067   9.723  37.035  1.00  0.00    +0.000 C 
ATOM     35  C26 UNL A   1       1.275  10.979  37.837  1.00  0.00    +0.000 C 
ATOM     36  N4  UNL A   1       0.431  11.948  38.091  1.00  0.00    +0.000 N 
ATOM     37  C27 UNL A   1       1.118  12.849  38.893  1.00  0.00    +0.000 C 
ATOM     38  C28 UNL A   1       0.706  14.050  39.359  1.00  0.00    +0.000 C 
ATOM     50  C35 UNL A   1      -0.584  14.624  39.084  1.00  0.00    +0.000 C 
ATOM     51  C36 UNL A   1      -1.076  15.857  39.474  1.00  0.00    +0.000 C 
ATOM     52  C37 UNL A   1      -2.385  15.973  39.000  1.00  0.00    +0.000 C 
ATOM     53  C38 UNL A   1      -2.691  14.833  38.276  1.00  0.00    +0.000 C 
ATOM     54  N5  UNL A   1      -1.580  14.009  38.342  1.00  0.00    +0.000 N 
ATOM     55  C39 UNL A   1      -3.911  14.517  37.580  1.00  0.00    +0.000 C 
ATOM     67  C46 UNL A   1      -4.142  13.372  36.895  1.00  0.00    +0.000 C 
ATOM     68  N6  UNL A   1      -3.294  12.292  36.692  1.00  0.00    +0.000 N 
ATOM     69  C47 UNL A   1      -3.974  11.428  35.981  1.00  0.00    +0.000 C 
ATOM     70  C48 UNL A   1      -3.538  10.091  35.443  1.00  0.00    +0.000 C 
ATOM     82  C55 UNL A   1      -2.295   9.645  35.712  1.00  0.00    +0.000 C 
ATOM     83  C56 UNL A   1      -1.722   8.388  35.237  1.00  0.00    +0.000 C 
ATOM     84  C57 UNL A   1      -0.464   8.278  35.695  1.00  0.00    +0.000 C 
ATOM     85  C58 UNL A   1      -0.130   9.474  36.470  1.00  0.00    +0.000 C 
ATOM     86  N7  UNL A   1      -1.286  10.215  36.452  1.00  0.00    +0.000 N 
ATOM     87  C59 UNL A   1      -5.348  11.853  35.675  1.00  0.00    +0.000 C 
ATOM     88  C60 UNL A   1      -5.386  13.061  36.222  1.00  0.00    +0.000 C 
ATOM     89  C61 UNL A   1       2.430  12.291  39.134  1.00  0.00    +0.000 C 
ATOM     90  C62 UNL A   1       2.600  11.169  38.450  1.00  0.00    +0.000 C 
ATOM    117  H25 UNL A   1      -0.566  16.568  40.021  1.00  0.00    +0.000 H 
ATOM    118  H26 UNL A   1      -3.017  16.773  39.162  1.00  0.00    +0.000 H 
ATOM    119  H27 UNL A   1      -1.508  13.120  37.925  1.00  0.00    +0.000 H 
ATOM    120  H28 UNL A   1      -2.206   7.696  34.645  1.00  0.00    +0.000 H 
ATOM    121  H29 UNL A   1       0.166   7.479  35.526  1.00  0.00    +0.000 H 
ATOM    122  H30 UNL A   1      -1.383  11.073  36.924  1.00  0.00    +0.000 H 
ATOM    123  H31 UNL A   1      -6.089  11.345  35.168  1.00  0.00    +0.000 H 
ATOM    124  H32 UNL A   1      -6.197  13.697  36.175  1.00  0.00    +0.000 H 
ATOM    125  H33 UNL A   1       3.139  12.710  39.756  1.00  0.00    +0.000 H 
ATOM    126  H34 UNL A   1       3.444  10.580  38.369  1.00  0.00    +0.000 H 
ENDROOT
BRANCH   34   33
ATOM     33  C24 UNL A   1       2.182   8.754  36.869  1.00  0.00    +0.000 C 
ATOM    127  H35 UNL A   1       1.836   7.747  38.696  1.00  0.00    +0.000 H 
ATOM    115  H23 UNL A   1       4.660   7.934  34.750  1.00  0.00    +0.000 H 
ATOM    116  H24 UNL A   1       2.824   9.498  34.996  1.00  0.00    +0.000 H 
ATOM     91  C63 UNL A   1       2.458   7.817  37.876  1.00  0.00    +0.000 C 
ATOM     92  C64 UNL A   1       3.569   6.980  37.774  1.00  0.00    +0.000 C 
ATOM     32  C23 UNL A   1       3.007   8.801  35.735  1.00  0.00    +0.000 C 
ATOM     30  C21 UNL A   1       4.351   6.991  36.615  1.00  0.00    +0.000 C 
ATOM     31  C22 UNL A   1       4.075   7.912  35.599  1.00  0.00    +0.000 C 
ATOM    128  H36 UNL A   1       3.813   6.352  38.555  1.00  0.00    +0.000 H 
BRANCH   30    2
ATOM      1  O1  UNL A   1       5.472   5.181  35.632  1.00  0.00    +0.000 O 
ATOM      2  C1  UNL A   1       5.519   6.094  36.453  1.00  0.00    +0.000 C 
BRANCH    2    3
ATOM      3  N1  UNL A   1       6.645   6.264  37.215  1.00  0.00    +0.000 N 
ATOM     93  H1  UNL A   1       6.922   5.473  37.733  1.00  0.00    +0.000 H 
BRANCH    3    4
ATOM      4  C2  UNL A   1       7.491   7.432  37.376  1.00  0.00    +0.000 C 
ATOM     94  H2  UNL A   1       7.300   8.108  36.570  1.00  0.00    +0.000 H 
ATOM     95  H3  UNL A   1       8.508   7.099  37.378  1.00  0.00    +0.000 H 
BRANCH    4    5
ATOM     97  H5  UNL A   1       6.277   7.834  39.030  1.00  0.00    +0.000 H 
ATOM      5  C3  UNL A   1       7.239   8.158  38.693  1.00  0.00    +0.000 C 
ATOM     96  H4  UNL A   1       8.035   7.910  39.365  1.00  0.00    +0.000 H 
BRANCH    5    6
ATOM     98  H6  UNL A   1       8.017  10.024  38.053  1.00  0.00    +0.000 H 
ATOM     99  H7  UNL A   1       7.121  10.038  39.607  1.00  0.00    +0.000 H 
ATOM      6  C4  UNL A   1       7.161   9.684  38.597  1.00  0.00    +0.000 C 
BRANCH    6    7
ATOM    100  H8  UNL A   1       5.556  11.064  38.493  1.00  0.00    +0.000 H 
ATOM    101  H9  UNL A   1       5.225   9.425  37.844  1.00  0.00    +0.000 H 
ATOM      7  C5  UNL A   1       5.913  10.242  37.909  1.00  0.00    +0.000 C 
BRANCH    7    8
ATOM    102  H10 UNL A   1       5.445  11.554  36.308  1.00  0.00    +0.000 H 
ATOM    103  H11 UNL A   1       5.925   9.894  35.841  1.00  0.00    +0.000 H 
ATOM      8  C6  UNL A   1       6.115  10.736  36.473  1.00  0.00    +0.000 C 
BRANCH    8    9
ATOM      9  C7  UNL A   1       7.527  11.207  36.141  1.00  0.00    +0.000 C 
ATOM    105  H13 UNL A   1       8.159  10.959  36.969  1.00  0.00    +0.000 H 
ATOM    104  H12 UNL A   1       7.850  10.720  35.245  1.00  0.00    +0.000 H 
BRANCH    9   10
ATOM     10  N2  UNL A   1       7.594  12.642  35.944  1.00  0.00    +0.000 N 
ATOM    106  H14 UNL A   1       7.335  12.966  35.051  1.00  0.00    +0.000 H 
BRANCH   10   11
ATOM     11  C8  UNL A   1       7.976  13.605  36.845  1.00  0.00    +0.000 C 
ATOM     12  O2  UNL A   1       8.713  14.526  36.499  1.00  0.00    +0.000 O 
BRANCH   11   13
ATOM    107  H15 UNL A   1       5.549  14.306  37.573  1.00  0.00    +0.000 H 
ATOM    108  H16 UNL A   1       4.534  14.244  39.778  1.00  0.00    +0.000 H 
ATOM     13  C9  UNL A   1       7.429  13.587  38.215  1.00  0.00    +0.000 C 
ATOM     14  C10 UNL A   1       6.099  13.987  38.386  1.00  0.00    +0.000 C 
ATOM     15  C11 UNL A   1       5.517  13.953  39.654  1.00  0.00    +0.000 C 
ATOM     16  C12 UNL A   1       6.264  13.529  40.761  1.00  0.00    +0.000 C 
ATOM    113  H21 UNL A   1       8.169  12.864  41.402  1.00  0.00    +0.000 H 
ATOM     27  C19 UNL A   1       7.609  13.163  40.588  1.00  0.00    +0.000 C 
ATOM     28  C20 UNL A   1       8.192  13.204  39.322  1.00  0.00    +0.000 C 
BRANCH   16   17
ATOM    109  H17 UNL A   1       6.686  15.144  42.978  1.00  0.00    +0.000 H 
ATOM    110  H18 UNL A   1       5.865  14.832  45.167  1.00  0.00    +0.000 H 
ATOM    112  H20 UNL A   1       4.518  11.819  41.617  1.00  0.00    +0.000 H 
ATOM     17  C13 UNL A   1       5.673  13.451  42.110  1.00  0.00    +0.000 C 
ATOM     18  C14 UNL A   1       6.047  14.359  43.178  1.00  0.00    +0.000 C 
ATOM     19  C15 UNL A   1       5.574  14.186  44.416  1.00  0.00    +0.000 C 
ATOM     20  N3  UNL A   1       4.701  13.155  44.706  1.00  0.00    +0.000 N 
ATOM     24  C17 UNL A   1       4.255  12.263  43.745  1.00  0.00    +0.000 C 
ATOM     25  O3  UNL A   1       3.476  11.335  43.934  1.00  0.00    +0.000 O 
ATOM     26  C18 UNL A   1       4.806  12.457  42.374  1.00  0.00    +0.000 C 
BRANCH   20   21
ATOM     21  C16 UNL A   1       4.233  12.952  46.053  1.00  0.00    +0.000 C 
ATOM     22  F1  UNL A   1       5.209  12.443  46.842  1.00  0.00    +0.000 F 
ATOM    111  H19 UNL A   1       3.418  12.261  45.998  1.00  0.00    +0.000 H 
ATOM     23  F2  UNL A   1       3.816  14.121  46.600  1.00  0.00    +0.000 F 
ENDBRANCH   20   21
ENDBRANCH   16   17
BRANCH   28   29
ATOM    114  H22 UNL A   1       9.899  12.252  39.775  1.00  0.00    +0.000 H 
ATOM     29  O4  UNL A   1       9.506  12.853  39.175  1.00  0.00    +0.000 O 
ENDBRANCH   28   29
ENDBRANCH   11   13
ENDBRANCH   10   11
ENDBRANCH    9   10
ENDBRANCH    8    9
ENDBRANCH    7    8
ENDBRANCH    6    7
ENDBRANCH    5    6
ENDBRANCH    4    5
ENDBRANCH    3    4
ENDBRANCH    2    3
ENDBRANCH   30    2
ENDBRANCH   34   33
BRANCH   38   39
ATOM     39  C29 UNL A   1       1.661  14.851  40.192  1.00  0.00    +0.000 C 
ATOM     40  C30 UNL A   1       2.424  15.885  39.632  1.00  0.00    +0.000 C 
ATOM     41  F3  UNL A   1       2.384  16.115  38.310  1.00  0.00    +0.000 F 
ATOM     42  C31 UNL A   1       3.244  16.681  40.427  1.00  0.00    +0.000 C 
ATOM     43  F4  UNL A   1       3.984  17.648  39.866  1.00  0.00    +0.000 F 
ATOM     44  C32 UNL A   1       3.297  16.476  41.797  1.00  0.00    +0.000 C 
ATOM     45  F5  UNL A   1       4.069  17.258  42.564  1.00  0.00    +0.000 F 
ATOM     46  C33 UNL A   1       2.548  15.460  42.373  1.00  0.00    +0.000 C 
ATOM     47  F6  UNL A   1       2.586  15.270  43.699  1.00  0.00    +0.000 F 
ATOM     48  C34 UNL A   1       1.747  14.645  41.577  1.00  0.00    +0.000 C 
ATOM     49  F7  UNL A   1       1.033  13.673  42.162  1.00  0.00    +0.000 F 
ENDBRANCH   38   39
BRANCH   55   56
ATOM     65  C45 UNL A   1      -5.800  15.687  38.766  1.00  0.00    +0.000 C 
ATOM     66  F12 UNL A   1      -5.535  14.968  39.866  1.00  0.00    +0.000 F 
ATOM     56  C40 UNL A   1      -5.002  15.547  37.619  1.00  0.00    +0.000 C 
ATOM     57  C41 UNL A   1      -5.326  16.312  36.491  1.00  0.00    +0.000 C 
ATOM     58  F8  UNL A   1      -4.584  16.219  35.378  1.00  0.00    +0.000 F 
ATOM     59  C42 UNL A   1      -6.410  17.185  36.510  1.00  0.00    +0.000 C 
ATOM     60  F9  UNL A   1      -6.691  17.922  35.427  1.00  0.00    +0.000 F 
ATOM     61  C43 UNL A   1      -7.202  17.290  37.644  1.00  0.00    +0.000 C 
ATOM     62  F10 UNL A   1      -8.260  18.111  37.650  1.00  0.00    +0.000 F 
ATOM     63  C44 UNL A   1      -6.898  16.541  38.771  1.00  0.00    +0.000 C 
ATOM     64  F11 UNL A   1      -7.672  16.628  39.861  1.00  0.00    +0.000 F 
ENDBRANCH   55   56
BRANCH   70   71
ATOM     71  C49 UNL A   1      -4.446   9.281  34.589  1.00  0.00    +0.000 C 
ATOM     72  C50 UNL A   1      -5.248   8.273  35.146  1.00  0.00    +0.000 C 
ATOM     73  F13 UNL A   1      -5.183   8.018  36.461  1.00  0.00    +0.000 F 
ATOM     74  C51 UNL A   1      -6.094   7.503  34.351  1.00  0.00    +0.000 C 
ATOM     75  F14 UNL A   1      -6.819   6.522  34.903  1.00  0.00    +0.000 F 
ATOM     76  C52 UNL A   1      -6.176   7.742  32.988  1.00  0.00    +0.000 C 
ATOM     77  F15 UNL A   1      -6.995   7.007  32.224  1.00  0.00    +0.000 F 
ATOM     78  C53 UNL A   1      -5.402   8.742  32.416  1.00  0.00    +0.000 C 
ATOM     79  F16 UNL A   1      -5.489   8.985  31.101  1.00  0.00    +0.000 F 
ATOM     80  C54 UNL A   1      -4.536   9.494  33.206  1.00  0.00    +0.000 C 
ATOM     81  F17 UNL A   1      -3.792  10.447  32.624  1.00  0.00    +0.000 F 
ENDBRANCH   70   71
TORSDOF 18
ENDMDL
MODEL 3
REMARK VINA RESULT:      -9.5      1.617      4.044
ROOT
ATOM     34  C25 UNL A   1      22.442  19.910   4.669  1.00  0.00    +0.000 C 
ATOM     35  C26 UNL A   1      22.143  20.963   3.636  1.00  0.00    +0.000 C 
ATOM     36  N4  UNL A   1      20.985  21.440   3.253  1.00  0.00    +0.000 N 
ATOM     37  C27 UNL A   1      21.270  22.405   2.297  1.00  0.00    +0.000 C 
ATOM     38  C28 UNL A   1      20.410  23.131   1.546  1.00  0.00    +0.000 C 
ATOM     50  C35 UNL A   1      18.978  23.017   1.619  1.00  0.00    +0.000 C 
ATOM     51  C36 UNL A   1      18.024  23.678   0.867  1.00  0.00    +0.000 C 
ATOM     52  C37 UNL A   1      16.763  23.269   1.306  1.00  0.00    +0.000 C 
ATOM     53  C38 UNL A   1      16.932  22.319   2.301  1.00  0.00    +0.000 C 
ATOM     54  N5  UNL A   1      18.297  22.180   2.489  1.00  0.00    +0.000 N 
ATOM     55  C39 UNL A   1      15.921  21.597   3.028  1.00  0.00    +0.000 C 
ATOM     67  C46 UNL A   1      16.163  20.684   3.998  1.00  0.00    +0.000 C 
ATOM     68  N6  UNL A   1      17.382  20.232   4.484  1.00  0.00    +0.000 N 
ATOM     69  C47 UNL A   1      17.098  19.364   5.422  1.00  0.00    +0.000 C 
ATOM     70  C48 UNL A   1      18.032  18.537   6.264  1.00  0.00    +0.000 C 
ATOM     82  C55 UNL A   1      19.363  18.676   6.102  1.00  0.00    +0.000 C 
ATOM     83  C56 UNL A   1      20.389  17.925   6.822  1.00  0.00    +0.000 C 
ATOM     84  C57 UNL A   1      21.601  18.320   6.399  1.00  0.00    +0.000 C 
ATOM     85  C58 UNL A   1      21.436  19.330   5.353  1.00  0.00    +0.000 C 
ATOM     86  N7  UNL A   1      20.076  19.500   5.265  1.00  0.00    +0.000 N 
ATOM     87  C59 UNL A   1      15.657  19.188   5.658  1.00  0.00    +0.000 C 
ATOM     88  C60 UNL A   1      15.132  19.986   4.737  1.00  0.00    +0.000 C 
ATOM     89  C61 UNL A   1      22.710  22.490   2.193  1.00  0.00    +0.000 C 
ATOM     90  C62 UNL A   1      23.294  21.574   2.951  1.00  0.00    +0.000 C 
ATOM    117  H25 UNL A   1      18.211  24.355   0.112  1.00  0.00    +0.000 H 
ATOM    118  H26 UNL A   1      15.857  23.616   0.950  1.00  0.00    +0.000 H 
ATOM    119  H27 UNL A   1      18.720  21.577   3.143  1.00  0.00    +0.000 H 
ATOM    120  H28 UNL A   1      20.211  17.207   7.540  1.00  0.00    +0.000 H 
ATOM    121  H29 UNL A   1      22.503  17.967   6.754  1.00  0.00    +0.000 H 
ATOM    122  H30 UNL A   1      19.653  20.150   4.660  1.00  0.00    +0.000 H 
ATOM    123  H31 UNL A   1      15.179  18.598   6.356  1.00  0.00    +0.000 H 
ATOM    124  H32 UNL A   1      14.120  20.097   4.570  1.00  0.00    +0.000 H 
ATOM    125  H33 UNL A   1      23.215  23.173   1.607  1.00  0.00    +0.000 H 
ATOM    126  H34 UNL A   1      24.297  21.348   3.039  1.00  0.00    +0.000 H 
ENDROOT
BRANCH   34   33
ATOM     33  C24 UNL A   1      23.849  19.513   4.938  1.00  0.00    +0.000 C 
ATOM    127  H35 UNL A   1      23.971  20.489   6.810  1.00  0.00    +0.000 H 
ATOM    115  H23 UNL A   1      26.407  17.809   3.575  1.00  0.00    +0.000 H 
ATOM    116  H24 UNL A   1      24.102  18.425   3.142  1.00  0.00    +0.000 H 
ATOM     91  C63 UNL A   1      24.497  19.955   6.101  1.00  0.00    +0.000 C 
ATOM     92  C64 UNL A   1      25.848  19.675   6.304  1.00  0.00    +0.000 C 
ATOM     32  C23 UNL A   1      24.564  18.741   4.009  1.00  0.00    +0.000 C 
ATOM     30  C21 UNL A   1      26.538  18.857   5.405  1.00  0.00    +0.000 C 
ATOM     31  C22 UNL A   1      25.896  18.400   4.250  1.00  0.00    +0.000 C 
ATOM    128  H36 UNL A   1      26.339  20.073   7.120  1.00  0.00    +0.000 H 
BRANCH   30    2
ATOM      1  O1  UNL A   1      28.809  18.962   4.833  1.00  0.00    +0.000 O 
ATOM      2  C1  UNL A   1      27.964  18.509   5.602  1.00  0.00    +0.000 C 
BRANCH    2    3
ATOM      3  N1  UNL A   1      28.350  17.680   6.622  1.00  0.00    +0.000 N 
ATOM     93  H1  UNL A   1      28.911  18.101   7.313  1.00  0.00    +0.000 H 
BRANCH    3    4
ATOM      4  C2  UNL A   1      28.057  16.275   6.838  1.00  0.00    +0.000 C 
ATOM     94  H2  UNL A   1      28.709  15.902   7.599  1.00  0.00    +0.000 H 
ATOM     95  H3  UNL A   1      28.205  15.766   5.908  1.00  0.00    +0.000 H 
BRANCH    4    5
ATOM     97  H5  UNL A   1      26.666  15.461   8.170  1.00  0.00    +0.000 H 
ATOM      5  C3  UNL A   1      26.614  16.039   7.271  1.00  0.00    +0.000 C 
ATOM     96  H4  UNL A   1      26.148  16.994   7.401  1.00  0.00    +0.000 H 
BRANCH    5    6
ATOM     98  H6  UNL A   1      25.632  14.248   6.705  1.00  0.00    +0.000 H 
ATOM     99  H7  UNL A   1      26.290  15.240   5.364  1.00  0.00    +0.000 H 
ATOM      6  C4  UNL A   1      25.761  15.227   6.294  1.00  0.00    +0.000 C 
BRANCH    6    7
ATOM    100  H8  UNL A   1      24.503  16.718   5.465  1.00  0.00    +0.000 H 
ATOM    101  H9  UNL A   1      23.889  15.906   6.942  1.00  0.00    +0.000 H 
ATOM      7  C5  UNL A   1      24.372  15.797   5.993  1.00  0.00    +0.000 C 
BRANCH    7    8
ATOM    102  H10 UNL A   1      23.534  15.208   4.135  1.00  0.00    +0.000 H 
ATOM    103  H11 UNL A   1      22.473  15.018   5.565  1.00  0.00    +0.000 H 
ATOM      8  C6  UNL A   1      23.455  14.901   5.157  1.00  0.00    +0.000 C 
BRANCH    8    9
ATOM      9  C7  UNL A   1      23.767  13.409   5.226  1.00  0.00    +0.000 C 
ATOM    105  H13 UNL A   1      23.787  13.031   4.224  1.00  0.00    +0.000 H 
ATOM    104  H12 UNL A   1      24.711  13.276   5.711  1.00  0.00    +0.000 H 
BRANCH    9   10
ATOM     10  N2  UNL A   1      22.756  12.671   5.959  1.00  0.00    +0.000 N 
ATOM    106  H14 UNL A   1      22.047  12.256   5.415  1.00  0.00    +0.000 H 
BRANCH   10   11
ATOM     11  C8  UNL A   1      22.660  12.481   7.315  1.00  0.00    +0.000 C 
ATOM     12  O2  UNL A   1      22.568  11.348   7.781  1.00  0.00    +0.000 O 
BRANCH   11   13
ATOM    107  H15 UNL A   1      24.648  13.029   8.946  1.00  0.00    +0.000 H 
ATOM    108  H16 UNL A   1      24.933  14.933  10.426  1.00  0.00    +0.000 H 
ATOM     13  C9  UNL A   1      22.756  13.637   8.228  1.00  0.00    +0.000 C 
ATOM     14  C10 UNL A   1      23.914  13.753   9.004  1.00  0.00    +0.000 C 
ATOM     15  C11 UNL A   1      24.077  14.846   9.857  1.00  0.00    +0.000 C 
ATOM     16  C12 UNL A   1      23.078  15.826   9.944  1.00  0.00    +0.000 C 
ATOM    113  H21 UNL A   1      21.158  16.394   9.260  1.00  0.00    +0.000 H 
ATOM     27  C19 UNL A   1      21.903  15.684   9.188  1.00  0.00    +0.000 C 
ATOM     28  C20 UNL A   1      21.739  14.588   8.342  1.00  0.00    +0.000 C 
BRANCH   16   17
ATOM    109  H17 UNL A   1      22.126  16.278  12.512  1.00  0.00    +0.000 H 
ATOM    110  H18 UNL A   1      22.228  18.280  13.755  1.00  0.00    +0.000 H 
ATOM    112  H20 UNL A   1      24.359  18.011   9.410  1.00  0.00    +0.000 H 
ATOM     17  C13 UNL A   1      23.230  17.010  10.810  1.00  0.00    +0.000 C 
ATOM     18  C14 UNL A   1      22.618  17.098  12.122  1.00  0.00    +0.000 C 
ATOM     19  C15 UNL A   1      22.684  18.231  12.830  1.00  0.00    +0.000 C 
ATOM     20  N3  UNL A   1      23.353  19.336  12.342  1.00  0.00    +0.000 N 
ATOM     24  C17 UNL A   1      24.002  19.334  11.118  1.00  0.00    +0.000 C 
ATOM     25  O3  UNL A   1      24.620  20.276  10.633  1.00  0.00    +0.000 O 
ATOM     26  C18 UNL A   1      23.903  18.072  10.333  1.00  0.00    +0.000 C 
BRANCH   20   21
ATOM     21  C16 UNL A   1      23.379  20.565  13.093  1.00  0.00    +0.000 C 
ATOM     22  F1  UNL A   1      22.605  21.513  12.513  1.00  0.00    +0.000 F 
ATOM    111  H19 UNL A   1      24.396  20.895  13.115  1.00  0.00    +0.000 H 
ATOM     23  F2  UNL A   1      22.927  20.367  14.357  1.00  0.00    +0.000 F 
ENDBRANCH   20   21
ENDBRANCH   16   17
BRANCH   28   29
ATOM    114  H22 UNL A   1      19.973  13.784   7.829  1.00  0.00    +0.000 H 
ATOM     29  O4  UNL A   1      20.583  14.463   7.621  1.00  0.00    +0.000 O 
ENDBRANCH   28   29
ENDBRANCH   11   13
ENDBRANCH   10   11
ENDBRANCH    9   10
ENDBRANCH    8    9
ENDBRANCH    7    8
ENDBRANCH    6    7
ENDBRANCH    5    6
ENDBRANCH    4    5
ENDBRANCH    3    4
ENDBRANCH    2    3
ENDBRANCH   30    2
ENDBRANCH   34   33
BRANCH   38   39
ATOM     39  C29 UNL A   1      20.982  24.098   0.553  1.00  0.00    +0.000 C 
ATOM     40  C30 UNL A   1      21.130  23.751  -0.798  1.00  0.00    +0.000 C 
ATOM     41  F3  UNL A   1      20.853  22.505  -1.210  1.00  0.00    +0.000 F 
ATOM     42  C31 UNL A   1      21.580  24.682  -1.730  1.00  0.00    +0.000 C 
ATOM     43  F4  UNL A   1      21.739  24.321  -3.011  1.00  0.00    +0.000 F 
ATOM     44  C32 UNL A   1      21.863  25.981  -1.337  1.00  0.00    +0.000 C 
ATOM     45  F5  UNL A   1      22.273  26.882  -2.240  1.00  0.00    +0.000 F 
ATOM     46  C33 UNL A   1      21.720  26.347  -0.007  1.00  0.00    +0.000 C 
ATOM     47  F6  UNL A   1      21.978  27.606   0.373  1.00  0.00    +0.000 F 
ATOM     48  C34 UNL A   1      21.296  25.411   0.934  1.00  0.00    +0.000 C 
ATOM     49  F7  UNL A   1      21.164  25.795   2.212  1.00  0.00    +0.000 F 
ENDBRANCH   38   39
BRANCH   55   56
ATOM     65  C45 UNL A   1      13.726  22.750   3.469  1.00  0.00    +0.000 C 
ATOM     66  F12 UNL A   1      14.289  23.397   4.500  1.00  0.00    +0.000 F 
ATOM     56  C40 UNL A   1      14.492  21.885   2.672  1.00  0.00    +0.000 C 
ATOM     57  C41 UNL A   1      13.855  21.224   1.614  1.00  0.00    +0.000 C 
ATOM     58  F8  UNL A   1      14.551  20.396   0.819  1.00  0.00    +0.000 F 
ATOM     59  C42 UNL A   1      12.500  21.419   1.363  1.00  0.00    +0.000 C 
ATOM     60  F9  UNL A   1      11.915  20.792   0.335  1.00  0.00    +0.000 F 
ATOM     61  C43 UNL A   1      11.754  22.258   2.179  1.00  0.00    +0.000 C 
ATOM     62  F10 UNL A   1      10.444  22.423   1.952  1.00  0.00    +0.000 F 
ATOM     63  C44 UNL A   1      12.365  22.922   3.232  1.00  0.00    +0.000 C 
ATOM     64  F11 UNL A   1      11.643  23.719   4.031  1.00  0.00    +0.000 F 
ENDBRANCH   55   56
BRANCH   70   71
ATOM     71  C49 UNL A   1      17.505  17.547   7.239  1.00  0.00    +0.000 C 
ATOM     72  C50 UNL A   1      17.066  17.951   8.509  1.00  0.00    +0.000 C 
ATOM     73  F13 UNL A   1      17.143  19.243   8.863  1.00  0.00    +0.000 F 
ATOM     74  C51 UNL A   1      16.580  17.027   9.432  1.00  0.00    +0.000 C 
ATOM     75  F14 UNL A   1      16.204  17.436  10.651  1.00  0.00    +0.000 F 
ATOM     76  C52 UNL A   1      16.497  15.685   9.094  1.00  0.00    +0.000 C 
ATOM     77  F15 UNL A   1      16.022  14.797   9.979  1.00  0.00    +0.000 F 
ATOM     78  C53 UNL A   1      16.912  15.263   7.840  1.00  0.00    +0.000 C 
ATOM     79  F16 UNL A   1      16.820  13.969   7.505  1.00  0.00    +0.000 F 
ATOM     80  C54 UNL A   1      17.423  16.182   6.926  1.00  0.00    +0.000 C 
ATOM     81  F17 UNL A   1      17.828  15.743   5.725  1.00  0.00    +0.000 F 
ENDBRANCH   70   71
TORSDOF 18
ENDMDL
MODEL 4
REMARK VINA RESULT:      -9.4     28.450     33.262
ROOT
ATOM     34  C25 UNL A   1      13.732  53.837   5.070  1.00  0.00    +0.000 C 
ATOM     35  C26 UNL A   1      14.663  54.336   3.998  1.00  0.00    +0.000 C 
ATOM     36  N4  UNL A   1      15.188  53.686   2.989  1.00  0.00    +0.000 N 
ATOM     37  C27 UNL A   1      15.949  54.616   2.294  1.00  0.00    +0.000 C 
ATOM     38  C28 UNL A   1      16.747  54.420   1.220  1.00  0.00    +0.000 C 
ATOM     50  C35 UNL A   1      16.951  53.146   0.586  1.00  0.00    +0.000 C 
ATOM     51  C36 UNL A   1      17.777  52.839  -0.481  1.00  0.00    +0.000 C 
ATOM     52  C37 UNL A   1      17.630  51.480  -0.770  1.00  0.00    +0.000 C 
ATOM     53  C38 UNL A   1      16.747  50.932   0.146  1.00  0.00    +0.000 C 
ATOM     54  N5  UNL A   1      16.332  51.966   0.967  1.00  0.00    +0.000 N 
ATOM     55  C39 UNL A   1      16.312  49.564   0.258  1.00  0.00    +0.000 C 
ATOM     67  C46 UNL A   1      15.436  49.099   1.180  1.00  0.00    +0.000 C 
ATOM     68  N6  UNL A   1      14.796  49.791   2.199  1.00  0.00    +0.000 N 
ATOM     69  C47 UNL A   1      14.041  48.914   2.812  1.00  0.00    +0.000 C 
ATOM     70  C48 UNL A   1      13.152  49.102   4.012  1.00  0.00    +0.000 C 
ATOM     82  C55 UNL A   1      13.050  50.323   4.573  1.00  0.00    +0.000 C 
ATOM     83  C56 UNL A   1      12.253  50.653   5.753  1.00  0.00    +0.000 C 
ATOM     84  C57 UNL A   1      12.396  51.960   6.028  1.00  0.00    +0.000 C 
ATOM     85  C58 UNL A   1      13.320  52.554   5.062  1.00  0.00    +0.000 C 
ATOM     86  N7  UNL A   1      13.633  51.516   4.219  1.00  0.00    +0.000 N 
ATOM     87  C59 UNL A   1      14.096  47.565   2.229  1.00  0.00    +0.000 C 
ATOM     88  C60 UNL A   1      14.990  47.724   1.262  1.00  0.00    +0.000 C 
ATOM     89  C61 UNL A   1      15.777  55.889   2.957  1.00  0.00    +0.000 C 
ATOM     90  C62 UNL A   1      15.044  55.757   4.053  1.00  0.00    +0.000 C 
ATOM    117  H25 UNL A   1      18.396  53.499  -0.978  1.00  0.00    +0.000 H 
ATOM    118  H26 UNL A   1      18.099  50.971  -1.536  1.00  0.00    +0.000 H 
ATOM    119  H27 UNL A   1      15.692  51.878   1.711  1.00  0.00    +0.000 H 
ATOM    120  H28 UNL A   1      11.675  49.988   6.288  1.00  0.00    +0.000 H 
ATOM    121  H29 UNL A   1      11.929  52.463   6.798  1.00  0.00    +0.000 H 
ATOM    122  H30 UNL A   1      14.220  51.617   3.435  1.00  0.00    +0.000 H 
ATOM    123  H31 UNL A   1      13.575  46.716   2.500  1.00  0.00    +0.000 H 
ATOM    124  H32 UNL A   1      15.324  46.967   0.646  1.00  0.00    +0.000 H 
ATOM    125  H33 UNL A   1      16.171  56.782   2.621  1.00  0.00    +0.000 H 
ATOM    126  H34 UNL A   1      14.804  56.468   4.762  1.00  0.00    +0.000 H 
ENDROOT
BRANCH   34   33
ATOM     33  C24 UNL A   1      13.262  54.761   6.135  1.00  0.00    +0.000 C 
ATOM    127  H35 UNL A   1      11.506  55.354   5.116  1.00  0.00    +0.000 H 
ATOM    115  H23 UNL A   1      14.130  55.945   9.160  1.00  0.00    +0.000 H 
ATOM    116  H24 UNL A   1      14.888  54.411   7.442  1.00  0.00    +0.000 H 
ATOM     91  C63 UNL A   1      12.088  55.507   5.954  1.00  0.00    +0.000 C 
ATOM     92  C64 UNL A   1      11.702  56.454   6.903  1.00  0.00    +0.000 C 
ATOM     32  C23 UNL A   1      14.014  54.942   7.306  1.00  0.00    +0.000 C 
ATOM     30  C21 UNL A   1      12.423  56.587   8.094  1.00  0.00    +0.000 C 
ATOM     31  C22 UNL A   1      13.587  55.837   8.289  1.00  0.00    +0.000 C 
ATOM    128  H36 UNL A   1      10.884  57.057   6.725  1.00  0.00    +0.000 H 
BRANCH   30    2
ATOM      1  O1  UNL A   1      12.366  58.734   9.035  1.00  0.00    +0.000 O 
ATOM      2  C1  UNL A   1      12.027  57.558   9.141  1.00  0.00    +0.000 C 
BRANCH    2    3
ATOM      3  N1  UNL A   1      11.299  57.157  10.230  1.00  0.00    +0.000 N 
ATOM     93  H1  UNL A   1      11.063  57.874  10.861  1.00  0.00    +0.000 H 
BRANCH    3    4
ATOM      4  C2  UNL A   1      10.824  55.835  10.595  1.00  0.00    +0.000 C 
ATOM     94  H2  UNL A   1      11.074  55.152   9.811  1.00  0.00    +0.000 H 
ATOM     95  H3  UNL A   1       9.766  55.898  10.740  1.00  0.00    +0.000 H 
BRANCH    4    5
ATOM     97  H5  UNL A   1      11.791  56.201  12.412  1.00  0.00    +0.000 H 
ATOM      5  C3  UNL A   1      11.440  55.332  11.896  1.00  0.00    +0.000 C 
ATOM     96  H4  UNL A   1      10.686  54.791  12.431  1.00  0.00    +0.000 H 
BRANCH    5    6
ATOM     98  H6  UNL A   1      13.342  54.893  11.072  1.00  0.00    +0.000 H 
ATOM     99  H7  UNL A   1      12.272  53.485  11.370  1.00  0.00    +0.000 H 
ATOM      6  C4  UNL A   1      12.654  54.415  11.737  1.00  0.00    +0.000 C 
BRANCH    6    7
ATOM    100  H8  UNL A   1      12.708  54.136  13.838  1.00  0.00    +0.000 H 
ATOM    101  H9  UNL A   1      14.206  54.783  13.093  1.00  0.00    +0.000 H 
ATOM      7  C5  UNL A   1      13.405  54.077  13.028  1.00  0.00    +0.000 C 
BRANCH    7    8
ATOM    102  H10 UNL A   1      13.409  52.003  12.576  1.00  0.00    +0.000 H 
ATOM    103  H11 UNL A   1      14.215  52.471  14.105  1.00  0.00    +0.000 H 
ATOM      8  C6  UNL A   1      14.060  52.694  13.070  1.00  0.00    +0.000 C 
BRANCH    8    9
ATOM      9  C7  UNL A   1      15.432  52.605  12.408  1.00  0.00    +0.000 C 
ATOM    105  H13 UNL A   1      15.469  53.340  11.630  1.00  0.00    +0.000 H 
ATOM    104  H12 UNL A   1      16.184  52.783  13.147  1.00  0.00    +0.000 H 
BRANCH    9   10
ATOM     10  N2  UNL A   1      15.666  51.307  11.804  1.00  0.00    +0.000 N 
ATOM    106  H14 UNL A   1      16.004  50.607  12.409  1.00  0.00    +0.000 H 
BRANCH   10   11
ATOM     11  C8  UNL A   1      15.480  50.932  10.497  1.00  0.00    +0.000 C 
ATOM     12  O2  UNL A   1      16.354  51.137   9.659  1.00  0.00    +0.000 O 
BRANCH   11   13
ATOM    107  H15 UNL A   1      13.097  51.964  10.083  1.00  0.00    +0.000 H 
ATOM    108  H16 UNL A   1      11.052  50.861   9.377  1.00  0.00    +0.000 H 
ATOM     13  C9  UNL A   1      14.259  50.199  10.110  1.00  0.00    +0.000 C 
ATOM     14  C10 UNL A   1      13.089  50.944   9.923  1.00  0.00    +0.000 C 
ATOM     15  C11 UNL A   1      11.913  50.309   9.520  1.00  0.00    +0.000 C 
ATOM     16  C12 UNL A   1      11.898  48.923   9.310  1.00  0.00    +0.000 C 
ATOM    113  H21 UNL A   1      13.057  47.155   9.397  1.00  0.00    +0.000 H 
ATOM     27  C19 UNL A   1      13.066  48.178   9.535  1.00  0.00    +0.000 C 
ATOM     28  C20 UNL A   1      14.238  48.812   9.945  1.00  0.00    +0.000 C 
BRANCH   16   17
ATOM    109  H17 UNL A   1      10.779  46.545  10.204  1.00  0.00    +0.000 H 
ATOM    110  H18 UNL A   1       8.949  45.378   9.284  1.00  0.00    +0.000 H 
ATOM    112  H20 UNL A   1      10.254  49.673   7.456  1.00  0.00    +0.000 H 
ATOM     17  C13 UNL A   1      10.682  48.224   8.854  1.00  0.00    +0.000 C 
ATOM     18  C14 UNL A   1      10.265  46.949   9.406  1.00  0.00    +0.000 C 
ATOM     19  C15 UNL A   1       9.221  46.292   8.889  1.00  0.00    +0.000 C 
ATOM     20  N3  UNL A   1       8.501  46.818   7.833  1.00  0.00    +0.000 N 
ATOM     24  C17 UNL A   1       8.800  48.047   7.267  1.00  0.00    +0.000 C 
ATOM     25  O3  UNL A   1       8.197  48.573   6.338  1.00  0.00    +0.000 O 
ATOM     26  C18 UNL A   1       9.977  48.758   7.841  1.00  0.00    +0.000 C 
BRANCH   20   21
ATOM     21  C16 UNL A   1       7.408  46.081   7.255  1.00  0.00    +0.000 C 
ATOM     22  F1  UNL A   1       7.394  44.798   7.692  1.00  0.00    +0.000 F 
ATOM    111  H19 UNL A   1       7.547  46.098   6.195  1.00  0.00    +0.000 H 
ATOM     23  F2  UNL A   1       6.219  46.649   7.578  1.00  0.00    +0.000 F 
ENDBRANCH   20   21
ENDBRANCH   16   17
BRANCH   28   29
ATOM    114  H22 UNL A   1      16.184  48.491  10.315  1.00  0.00    +0.000 H 
ATOM     29  O4  UNL A   1      15.363  48.066  10.167  1.00  0.00    +0.000 O 
ENDBRANCH   28   29
ENDBRANCH   11   13
ENDBRANCH   10   11
ENDBRANCH    9   10
ENDBRANCH    8    9
ENDBRANCH    7    8
ENDBRANCH    6    7
ENDBRANCH    5    6
ENDBRANCH    4    5
ENDBRANCH    3    4
ENDBRANCH    2    3
ENDBRANCH   30    2
ENDBRANCH   34   33
BRANCH   38   39
ATOM     39  C29 UNL A   1      17.491  55.600   0.668  1.00  0.00    +0.000 C 
ATOM     40  C30 UNL A   1      18.785  55.915   1.109  1.00  0.00    +0.000 C 
ATOM     41  F3  UNL A   1      19.345  55.220   2.110  1.00  0.00    +0.000 F 
ATOM     42  C31 UNL A   1      19.503  56.958   0.531  1.00  0.00    +0.000 C 
ATOM     43  F4  UNL A   1      20.728  57.258   0.986  1.00  0.00    +0.000 F 
ATOM     44  C32 UNL A   1      18.955  57.687  -0.513  1.00  0.00    +0.000 C 
ATOM     45  F5  UNL A   1      19.658  58.675  -1.084  1.00  0.00    +0.000 F 
ATOM     46  C33 UNL A   1      17.679  57.390  -0.968  1.00  0.00    +0.000 C 
ATOM     47  F6  UNL A   1      17.153  58.082  -1.988  1.00  0.00    +0.000 F 
ATOM     48  C34 UNL A   1      16.947  56.364  -0.374  1.00  0.00    +0.000 C 
ATOM     49  F7  UNL A   1      15.716  56.098  -0.837  1.00  0.00    +0.000 F 
ENDBRANCH   38   39
BRANCH   55   56
ATOM     65  C45 UNL A   1      16.166  48.246  -1.883  1.00  0.00    +0.000 C 
ATOM     66  F12 UNL A   1      15.008  48.860  -2.165  1.00  0.00    +0.000 F 
ATOM     56  C40 UNL A   1      16.884  48.586  -0.725  1.00  0.00    +0.000 C 
ATOM     57  C41 UNL A   1      18.083  47.908  -0.469  1.00  0.00    +0.000 C 
ATOM     58  F8  UNL A   1      18.808  48.208   0.620  1.00  0.00    +0.000 F 
ATOM     59  C42 UNL A   1      18.547  46.925  -1.338  1.00  0.00    +0.000 C 
ATOM     60  F9  UNL A   1      19.705  46.302  -1.084  1.00  0.00    +0.000 F 
ATOM     61  C43 UNL A   1      17.809  46.585  -2.463  1.00  0.00    +0.000 C 
ATOM     62  F10 UNL A   1      18.243  45.619  -3.283  1.00  0.00    +0.000 F 
ATOM     63  C44 UNL A   1      16.619  47.243  -2.735  1.00  0.00    +0.000 C 
ATOM     64  F11 UNL A   1      15.897  46.904  -3.811  1.00  0.00    +0.000 F 
ENDBRANCH   55   56
BRANCH   70   71
ATOM     71  C49 UNL A   1      12.420  47.952   4.606  1.00  0.00    +0.000 C 
ATOM     72  C50 UNL A   1      11.208  47.509   4.056  1.00  0.00    +0.000 C 
ATOM     73  F13 UNL A   1      10.685  48.141   2.995  1.00  0.00    +0.000 F 
ATOM     74  C51 UNL A   1      10.512  46.438   4.613  1.00  0.00    +0.000 C 
ATOM     75  F14 UNL A   1       9.337  46.062   4.091  1.00  0.00    +0.000 F 
ATOM     76  C52 UNL A   1      11.026  45.772   5.714  1.00  0.00    +0.000 C 
ATOM     77  F15 UNL A   1      10.361  44.737   6.246  1.00  0.00    +0.000 F 
ATOM     78  C53 UNL A   1      12.230  46.183   6.268  1.00  0.00    +0.000 C 
ATOM     79  F16 UNL A   1      12.737  45.532   7.324  1.00  0.00    +0.000 F 
ATOM     80  C54 UNL A   1      12.913  47.270   5.728  1.00  0.00    +0.000 C 
ATOM     81  F17 UNL A   1      14.069  47.652   6.291  1.00  0.00    +0.000 F 
ENDBRANCH   70   71
TORSDOF 18
ENDMDL
MODEL 5
REMARK VINA RESULT:      -9.3     28.793     34.344
ROOT
ATOM     34  C25 UNL A   1      13.915  54.166   4.328  1.00  0.00    +0.000 C 
ATOM     35  C26 UNL A   1      13.439  52.740   4.393  1.00  0.00    +0.000 C 
ATOM     36  N4  UNL A   1      13.781  51.719   3.648  1.00  0.00    +0.000 N 
ATOM     37  C27 UNL A   1      13.072  50.634   4.143  1.00  0.00    +0.000 C 
ATOM     38  C28 UNL A   1      13.022  49.368   3.667  1.00  0.00    +0.000 C 
ATOM     50  C35 UNL A   1      13.734  48.914   2.503  1.00  0.00    +0.000 C 
ATOM     51  C36 UNL A   1      13.711  47.661   1.916  1.00  0.00    +0.000 C 
ATOM     52  C37 UNL A   1      14.581  47.676   0.824  1.00  0.00    +0.000 C 
ATOM     53  C38 UNL A   1      15.111  48.950   0.703  1.00  0.00    +0.000 C 
ATOM     54  N5  UNL A   1      14.589  49.698   1.745  1.00  0.00    +0.000 N 
ATOM     55  C39 UNL A   1      16.029  49.446  -0.289  1.00  0.00    +0.000 C 
ATOM     67  C46 UNL A   1      16.512  50.710  -0.340  1.00  0.00    +0.000 C 
ATOM     68  N6  UNL A   1      16.235  51.782   0.497  1.00  0.00    +0.000 N 
ATOM     69  C47 UNL A   1      16.952  52.783   0.051  1.00  0.00    +0.000 C 
ATOM     70  C48 UNL A   1      17.020  54.200   0.555  1.00  0.00    +0.000 C 
ATOM     82  C55 UNL A   1      16.286  54.554   1.628  1.00  0.00    +0.000 C 
ATOM     83  C56 UNL A   1      16.226  55.892   2.212  1.00  0.00    +0.000 C 
ATOM     84  C57 UNL A   1      15.389  55.876   3.263  1.00  0.00    +0.000 C 
ATOM     85  C58 UNL A   1      14.829  54.531   3.407  1.00  0.00    +0.000 C 
ATOM     86  N7  UNL A   1      15.441  53.808   2.413  1.00  0.00    +0.000 N 
ATOM     87  C59 UNL A   1      17.791  52.448  -1.109  1.00  0.00    +0.000 C 
ATOM     88  C60 UNL A   1      17.456  51.183  -1.330  1.00  0.00    +0.000 C 
ATOM     89  C61 UNL A   1      12.323  51.100   5.288  1.00  0.00    +0.000 C 
ATOM     90  C62 UNL A   1      12.464  52.409   5.445  1.00  0.00    +0.000 C 
ATOM    117  H25 UNL A   1      13.149  46.855   2.231  1.00  0.00    +0.000 H 
ATOM    118  H26 UNL A   1      14.794  46.873   0.210  1.00  0.00    +0.000 H 
ATOM    119  H27 UNL A   1      14.795  50.645   1.921  1.00  0.00    +0.000 H 
ATOM    120  H28 UNL A   1      16.742  56.717   1.871  1.00  0.00    +0.000 H 
ATOM    121  H29 UNL A   1      15.176  56.681   3.870  1.00  0.00    +0.000 H 
ATOM    122  H30 UNL A   1      15.288  52.845   2.277  1.00  0.00    +0.000 H 
ATOM    123  H31 UNL A   1      18.465  53.040  -1.619  1.00  0.00    +0.000 H 
ATOM    124  H32 UNL A   1      17.821  50.611  -2.106  1.00  0.00    +0.000 H 
ATOM    125  H33 UNL A   1      11.754  50.496   5.902  1.00  0.00    +0.000 H 
ATOM    126  H34 UNL A   1      12.008  53.033   6.128  1.00  0.00    +0.000 H 
ENDROOT
BRANCH   34   33
ATOM     33  C24 UNL A   1      13.379  55.173   5.281  1.00  0.00    +0.000 C 
ATOM    127  H35 UNL A   1      11.748  55.745   4.064  1.00  0.00    +0.000 H 
ATOM    115  H23 UNL A   1      14.002  56.533   8.293  1.00  0.00    +0.000 H 
ATOM    116  H24 UNL A   1      14.864  54.866   6.757  1.00  0.00    +0.000 H 
ATOM     91  C63 UNL A   1      12.254  55.938   4.942  1.00  0.00    +0.000 C 
ATOM     92  C64 UNL A   1      11.814  56.957   5.787  1.00  0.00    +0.000 C 
ATOM     32  C23 UNL A   1      14.024  55.411   6.505  1.00  0.00    +0.000 C 
ATOM     30  C21 UNL A   1      12.424  57.149   7.030  1.00  0.00    +0.000 C 
ATOM     31  C22 UNL A   1      13.538  56.382   7.383  1.00  0.00    +0.000 C 
ATOM    128  H36 UNL A   1      11.037  57.569   5.494  1.00  0.00    +0.000 H 
BRANCH   30    2
ATOM      1  O1  UNL A   1      12.789  58.789   8.666  1.00  0.00    +0.000 O 
ATOM      2  C1  UNL A   1      11.966  58.199   7.970  1.00  0.00    +0.000 C 
BRANCH    2    3
ATOM      3  N1  UNL A   1      10.636  58.510   8.081  1.00  0.00    +0.000 N 
ATOM     93  H1  UNL A   1      10.293  59.128   7.396  1.00  0.00    +0.000 H 
BRANCH    3    4
ATOM      4  C2  UNL A   1       9.657  58.067   9.057  1.00  0.00    +0.000 C 
ATOM     94  H2  UNL A   1       8.682  58.152   8.627  1.00  0.00    +0.000 H 
ATOM     95  H3  UNL A   1       9.760  58.685   9.924  1.00  0.00    +0.000 H 
BRANCH    4    5
ATOM     97  H5  UNL A   1      10.932  56.513   9.634  1.00  0.00    +0.000 H 
ATOM      5  C3  UNL A   1       9.877  56.621   9.490  1.00  0.00    +0.000 C 
ATOM     96  H4  UNL A   1       9.304  56.452  10.378  1.00  0.00    +0.000 H 
BRANCH    5    6
ATOM     98  H6  UNL A   1       9.398  56.039   7.509  1.00  0.00    +0.000 H 
ATOM     99  H7  UNL A   1       8.562  55.139   8.815  1.00  0.00    +0.000 H 
ATOM      6  C4  UNL A   1       9.480  55.560   8.461  1.00  0.00    +0.000 C 
BRANCH    6    7
ATOM    100  H8  UNL A   1      11.444  54.763   8.419  1.00  0.00    +0.000 H 
ATOM    101  H9  UNL A   1      10.247  53.957   7.354  1.00  0.00    +0.000 H 
ATOM      7  C5  UNL A   1      10.449  54.384   8.314  1.00  0.00    +0.000 C 
BRANCH    7    8
ATOM    102  H10 UNL A   1      10.449  52.322   8.817  1.00  0.00    +0.000 H 
ATOM    103  H11 UNL A   1       9.271  53.341   9.700  1.00  0.00    +0.000 H 
ATOM      8  C6  UNL A   1      10.268  53.247   9.324  1.00  0.00    +0.000 C 
BRANCH    8    9
ATOM      9  C7  UNL A   1      11.187  53.307  10.540  1.00  0.00    +0.000 C 
ATOM    105  H13 UNL A   1      11.948  54.033  10.341  1.00  0.00    +0.000 H 
ATOM    104  H12 UNL A   1      10.607  53.578  11.397  1.00  0.00    +0.000 H 
BRANCH    9   10
ATOM     10  N2  UNL A   1      11.839  52.038  10.798  1.00  0.00    +0.000 N 
ATOM    106  H14 UNL A   1      11.241  51.270  10.949  1.00  0.00    +0.000 H 
BRANCH   10   11
ATOM     11  C8  UNL A   1      13.185  51.772  10.861  1.00  0.00    +0.000 C 
ATOM     12  O2  UNL A   1      13.768  51.760  11.941  1.00  0.00    +0.000 O 
BRANCH   11   13
ATOM    107  H15 UNL A   1      14.403  53.425   9.219  1.00  0.00    +0.000 H 
ATOM    108  H16 UNL A   1      15.695  52.927   7.224  1.00  0.00    +0.000 H 
ATOM     13  C9  UNL A   1      13.920  51.410   9.633  1.00  0.00    +0.000 C 
ATOM     14  C10 UNL A   1      14.513  52.448   8.906  1.00  0.00    +0.000 C 
ATOM     15  C11 UNL A   1      15.253  52.161   7.757  1.00  0.00    +0.000 C 
ATOM     16  C12 UNL A   1      15.397  50.836   7.324  1.00  0.00    +0.000 C 
ATOM    113  H21 UNL A   1      14.858  48.827   7.717  1.00  0.00    +0.000 H 
ATOM     27  C19 UNL A   1      14.769  49.804   8.039  1.00  0.00    +0.000 C 
ATOM     28  C20 UNL A   1      14.024  50.092   9.182  1.00  0.00    +0.000 C 
BRANCH   16   17
ATOM    109  H17 UNL A   1      16.890  52.480   5.659  1.00  0.00    +0.000 H 
ATOM    110  H18 UNL A   1      17.973  51.892   3.649  1.00  0.00    +0.000 H 
ATOM    112  H20 UNL A   1      15.765  48.487   6.299  1.00  0.00    +0.000 H 
ATOM     17  C13 UNL A   1      16.197  50.493   6.134  1.00  0.00    +0.000 C 
ATOM     18  C14 UNL A   1      16.883  51.497   5.342  1.00  0.00    +0.000 C 
ATOM     19  C15 UNL A   1      17.505  51.161   4.207  1.00  0.00    +0.000 C 
ATOM     20  N3  UNL A   1      17.529  49.851   3.771  1.00  0.00    +0.000 N 
ATOM     24  C17 UNL A   1      16.937  48.818   4.479  1.00  0.00    +0.000 C 
ATOM     25  O3  UNL A   1      16.931  47.636   4.152  1.00  0.00    +0.000 O 
ATOM     26  C18 UNL A   1      16.232  49.210   5.731  1.00  0.00    +0.000 C 
BRANCH   20   21
ATOM     21  C16 UNL A   1      18.163  49.508   2.523  1.00  0.00    +0.000 C 
ATOM     22  F1  UNL A   1      18.674  50.605   1.914  1.00  0.00    +0.000 F 
ATOM    111  H19 UNL A   1      17.410  49.069   1.902  1.00  0.00    +0.000 H 
ATOM     23  F2  UNL A   1      19.174  48.627   2.722  1.00  0.00    +0.000 F 
ENDBRANCH   20   21
ENDBRANCH   16   17
BRANCH   28   29
ATOM    114  H22 UNL A   1      13.282  49.138  10.785  1.00  0.00    +0.000 H 
ATOM     29  O4  UNL A   1      13.412  49.073   9.860  1.00  0.00    +0.000 O 
ENDBRANCH   28   29
ENDBRANCH   11   13
ENDBRANCH   10   11
ENDBRANCH    9   10
ENDBRANCH    8    9
ENDBRANCH    7    8
ENDBRANCH    6    7
ENDBRANCH    5    6
ENDBRANCH    4    5
ENDBRANCH    3    4
ENDBRANCH    2    3
ENDBRANCH   30    2
ENDBRANCH   34   33
BRANCH   38   39
ATOM     39  C29 UNL A   1      12.146  48.380   4.378  1.00  0.00    +0.000 C 
ATOM     40  C30 UNL A   1      10.805  48.200   4.011  1.00  0.00    +0.000 C 
ATOM     41  F3  UNL A   1      10.250  48.985   3.075  1.00  0.00    +0.000 F 
ATOM     42  C31 UNL A   1      10.023  47.220   4.616  1.00  0.00    +0.000 C 
ATOM     43  F4  UNL A   1       8.736  47.083   4.267  1.00  0.00    +0.000 F 
ATOM     44  C32 UNL A   1      10.571  46.386   5.577  1.00  0.00    +0.000 C 
ATOM     45  F5  UNL A   1       9.824  45.428   6.142  1.00  0.00    +0.000 F 
ATOM     46  C33 UNL A   1      11.898  46.544   5.953  1.00  0.00    +0.000 C 
ATOM     47  F6  UNL A   1      12.435  45.728   6.872  1.00  0.00    +0.000 F 
ATOM     48  C34 UNL A   1      12.676  47.540   5.369  1.00  0.00    +0.000 C 
ATOM     49  F7  UNL A   1      13.955  47.667   5.751  1.00  0.00    +0.000 F 
ENDBRANCH   38   39
BRANCH   55   56
ATOM     65  C45 UNL A   1      15.682  48.257  -2.482  1.00  0.00    +0.000 C 
ATOM     66  F12 UNL A   1      14.566  48.974  -2.678  1.00  0.00    +0.000 F 
ATOM     56  C40 UNL A   1      16.475  48.478  -1.345  1.00  0.00    +0.000 C 
ATOM     57  C41 UNL A   1      17.626  47.695  -1.180  1.00  0.00    +0.000 C 
ATOM     58  F8  UNL A   1      18.420  47.880  -0.114  1.00  0.00    +0.000 F 
ATOM     59  C42 UNL A   1      17.969  46.725  -2.117  1.00  0.00    +0.000 C 
ATOM     60  F9  UNL A   1      19.083  46.001  -1.949  1.00  0.00    +0.000 F 
ATOM     61  C43 UNL A   1      17.157  46.504  -3.220  1.00  0.00    +0.000 C 
ATOM     62  F10 UNL A   1      17.475  45.551  -4.106  1.00  0.00    +0.000 F 
ATOM     63  C44 UNL A   1      16.014  47.268  -3.403  1.00  0.00    +0.000 C 
ATOM     64  F11 UNL A   1      15.220  47.043  -4.458  1.00  0.00    +0.000 F 
ENDBRANCH   55   56
BRANCH   70   71
ATOM     71  C49 UNL A   1      17.853  55.217  -0.139  1.00  0.00    +0.000 C 
ATOM     72  C50 UNL A   1      19.123  55.560   0.348  1.00  0.00    +0.000 C 
ATOM     73  F13 UNL A   1      19.587  54.985   1.467  1.00  0.00    +0.000 F 
ATOM     74  C51 UNL A   1      19.906  56.519  -0.292  1.00  0.00    +0.000 C 
ATOM     75  F14 UNL A   1      21.098  56.856   0.218  1.00  0.00    +0.000 F 
ATOM     76  C52 UNL A   1      19.447  57.134  -1.446  1.00  0.00    +0.000 C 
ATOM     77  F15 UNL A   1      20.203  58.050  -2.067  1.00  0.00    +0.000 F 
ATOM     78  C53 UNL A   1      18.200  56.801  -1.956  1.00  0.00    +0.000 C 
ATOM     79  F16 UNL A   1      17.760  57.382  -3.079  1.00  0.00    +0.000 F 
ATOM     80  C54 UNL A   1      17.406  55.862  -1.302  1.00  0.00    +0.000 C 
ATOM     81  F17 UNL A   1      16.200  55.568  -1.811  1.00  0.00    +0.000 F 
ENDBRANCH   70   71
TORSDOF 18
ENDMDL
MODEL 6
REMARK VINA RESULT:      -9.3     28.746     34.463
ROOT
ATOM     34  C25 UNL A   1      16.732  49.965   0.588  1.00  0.00    +0.000 C 
ATOM     35  C26 UNL A   1      16.787  51.414   0.184  1.00  0.00    +0.000 C 
ATOM     36  N4  UNL A   1      16.526  52.482   0.896  1.00  0.00    +0.000 N 
ATOM     37  C27 UNL A   1      16.756  53.563   0.055  1.00  0.00    +0.000 C 
ATOM     38  C28 UNL A   1      16.556  54.879   0.298  1.00  0.00    +0.000 C 
ATOM     50  C35 UNL A   1      16.043  55.404   1.534  1.00  0.00    +0.000 C 
ATOM     51  C36 UNL A   1      15.763  56.720   1.858  1.00  0.00    +0.000 C 
ATOM     52  C37 UNL A   1      15.309  56.756   3.179  1.00  0.00    +0.000 C 
ATOM     53  C38 UNL A   1      15.264  55.458   3.662  1.00  0.00    +0.000 C 
ATOM     54  N5  UNL A   1      15.725  54.639   2.645  1.00  0.00    +0.000 N 
ATOM     55  C39 UNL A   1      14.835  55.002   4.958  1.00  0.00    +0.000 C 
ATOM     67  C46 UNL A   1      14.825  53.711   5.364  1.00  0.00    +0.000 C 
ATOM     68  N6  UNL A   1      15.186  52.573   4.657  1.00  0.00    +0.000 N 
ATOM     69  C47 UNL A   1      15.017  51.567   5.479  1.00  0.00    +0.000 C 
ATOM     70  C48 UNL A   1      15.222  50.096   5.234  1.00  0.00    +0.000 C 
ATOM     82  C55 UNL A   1      15.666  49.684   4.030  1.00  0.00    +0.000 C 
ATOM     83  C56 UNL A   1      15.886  48.295   3.635  1.00  0.00    +0.000 C 
ATOM     84  C57 UNL A   1      16.322  48.262   2.365  1.00  0.00    +0.000 C 
ATOM     85  C58 UNL A   1      16.384  49.629   1.845  1.00  0.00    +0.000 C 
ATOM     86  N7  UNL A   1      16.006  50.407   2.912  1.00  0.00    +0.000 N 
ATOM     87  C59 UNL A   1      14.553  51.960   6.818  1.00  0.00    +0.000 C 
ATOM     88  C60 UNL A   1      14.415  53.273   6.682  1.00  0.00    +0.000 C 
ATOM     89  C61 UNL A   1      17.232  53.032  -1.202  1.00  0.00    +0.000 C 
ATOM     90  C62 UNL A   1      17.206  51.707  -1.197  1.00  0.00    +0.000 C 
ATOM    117  H25 UNL A   1      15.870  57.534   1.233  1.00  0.00    +0.000 H 
ATOM    118  H26 UNL A   1      15.052  57.606   3.706  1.00  0.00    +0.000 H 
ATOM    119  H27 UNL A   1      15.813  53.660   2.702  1.00  0.00    +0.000 H 
ATOM    120  H28 UNL A   1      15.729  47.471   4.236  1.00  0.00    +0.000 H 
ATOM    121  H29 UNL A   1      16.574  47.410   1.841  1.00  0.00    +0.000 H 
ATOM    122  H30 UNL A   1      15.981  51.390   2.878  1.00  0.00    +0.000 H 
ATOM    123  H31 UNL A   1      14.380  51.371   7.646  1.00  0.00    +0.000 H 
ATOM    124  H32 UNL A   1      14.062  53.901   7.420  1.00  0.00    +0.000 H 
ATOM    125  H33 UNL A   1      17.549  53.607  -1.998  1.00  0.00    +0.000 H 
ATOM    126  H34 UNL A   1      17.425  51.050  -1.963  1.00  0.00    +0.000 H 
ENDROOT
BRANCH   34   33
ATOM     33  C24 UNL A   1      17.066  48.906  -0.399  1.00  0.00    +0.000 C 
ATOM    127  H35 UNL A   1      19.157  49.015  -0.100  1.00  0.00    +0.000 H 
ATOM    115  H23 UNL A   1      15.622  46.803  -2.590  1.00  0.00    +0.000 H 
ATOM    116  H24 UNL A   1      15.065  48.508  -0.958  1.00  0.00    +0.000 H 
ATOM     91  C63 UNL A   1      18.406  48.577  -0.656  1.00  0.00    +0.000 C 
ATOM     92  C64 UNL A   1      18.727  47.662  -1.658  1.00  0.00    +0.000 C 
ATOM     32  C23 UNL A   1      16.053  48.262  -1.127  1.00  0.00    +0.000 C 
ATOM     30  C21 UNL A   1      17.713  46.982  -2.337  1.00  0.00    +0.000 C 
ATOM     31  C22 UNL A   1      16.374  47.291  -2.078  1.00  0.00    +0.000 C 
ATOM    128  H36 UNL A   1      19.715  47.487  -1.897  1.00  0.00    +0.000 H 
BRANCH   30    2
ATOM      1  O1  UNL A   1      18.953  45.203  -3.229  1.00  0.00    +0.000 O 
ATOM      2  C1  UNL A   1      18.012  45.978  -3.385  1.00  0.00    +0.000 C 
BRANCH    2    3
ATOM      3  N1  UNL A   1      17.261  45.912  -4.529  1.00  0.00    +0.000 N 
ATOM     93  H1  UNL A   1      16.377  45.491  -4.425  1.00  0.00    +0.000 H 
BRANCH    3    4
ATOM      4  C2  UNL A   1      17.572  46.367  -5.872  1.00  0.00    +0.000 C 
ATOM     94  H2  UNL A   1      16.702  46.254  -6.483  1.00  0.00    +0.000 H 
ATOM     95  H3  UNL A   1      18.388  45.776  -6.234  1.00  0.00    +0.000 H 
BRANCH    4    5
ATOM     97  H5  UNL A   1      18.801  47.917  -5.193  1.00  0.00    +0.000 H 
ATOM      5  C3  UNL A   1      18.008  47.828  -5.907  1.00  0.00    +0.000 C 
ATOM     96  H4  UNL A   1      18.304  48.060  -6.909  1.00  0.00    +0.000 H 
BRANCH    5    6
ATOM     98  H6  UNL A   1      16.097  48.296  -5.117  1.00  0.00    +0.000 H 
ATOM     99  H7  UNL A   1      16.736  49.429  -6.353  1.00  0.00    +0.000 H 
ATOM      6  C4  UNL A   1      16.942  48.841  -5.482  1.00  0.00    +0.000 C 
BRANCH    6    7
ATOM    100  H8  UNL A   1      18.118  49.366  -3.799  1.00  0.00    +0.000 H 
ATOM    101  H9  UNL A   1      16.473  50.079  -3.861  1.00  0.00    +0.000 H 
ATOM      7  C5  UNL A   1      17.366  49.835  -4.398  1.00  0.00    +0.000 C 
BRANCH    7    8
ATOM    102  H10 UNL A   1      18.546  50.963  -5.754  1.00  0.00    +0.000 H 
ATOM    103  H11 UNL A   1      18.462  51.594  -4.080  1.00  0.00    +0.000 H 
ATOM      8  C6  UNL A   1      17.929  51.166  -4.904  1.00  0.00    +0.000 C 
BRANCH    8    9
ATOM      9  C7  UNL A   1      16.884  52.199  -5.314  1.00  0.00    +0.000 C 
ATOM    105  H13 UNL A   1      16.634  52.776  -4.447  1.00  0.00    +0.000 H 
ATOM    104  H12 UNL A   1      17.293  52.815  -6.087  1.00  0.00    +0.000 H 
BRANCH    9   10
ATOM     10  N2  UNL A   1      15.666  51.582  -5.803  1.00  0.00    +0.000 N 
ATOM    106  H14 UNL A   1      15.778  50.924  -6.528  1.00  0.00    +0.000 H 
BRANCH   10   11
ATOM     11  C8  UNL A   1      14.377  51.800  -5.386  1.00  0.00    +0.000 C 
ATOM     12  O2  UNL A   1      13.459  51.861  -6.201  1.00  0.00    +0.000 O 
BRANCH   11   13
ATOM    107  H15 UNL A   1      14.183  53.984  -3.935  1.00  0.00    +0.000 H 
ATOM    108  H16 UNL A   1      13.621  54.216  -1.584  1.00  0.00    +0.000 H 
ATOM     13  C9  UNL A   1      14.075  51.874  -3.943  1.00  0.00    +0.000 C 
ATOM     14  C10 UNL A   1      14.000  53.145  -3.362  1.00  0.00    +0.000 C 
ATOM     15  C11 UNL A   1      13.680  53.278  -2.010  1.00  0.00    +0.000 C 
ATOM     16  C12 UNL A   1      13.441  52.139  -1.228  1.00  0.00    +0.000 C 
ATOM    113  H21 UNL A   1      13.392  50.023  -1.236  1.00  0.00    +0.000 H 
ATOM     27  C19 UNL A   1      13.552  50.866  -1.810  1.00  0.00    +0.000 C 
ATOM     28  C20 UNL A   1      13.879  50.734  -3.159  1.00  0.00    +0.000 C 
BRANCH   16   17
ATOM    109  H17 UNL A   1      13.128  50.140   0.672  1.00  0.00    +0.000 H 
ATOM    110  H18 UNL A   1      12.326  50.363   2.879  1.00  0.00    +0.000 H 
ATOM    112  H20 UNL A   1      12.947  54.296   0.115  1.00  0.00    +0.000 H 
ATOM     17  C13 UNL A   1      13.070  52.242   0.195  1.00  0.00    +0.000 C 
ATOM     18  C14 UNL A   1      12.902  51.077   1.042  1.00  0.00    +0.000 C 
ATOM     19  C15 UNL A   1      12.455  51.205   2.296  1.00  0.00    +0.000 C 
ATOM     20  N3  UNL A   1      12.164  52.448   2.824  1.00  0.00    +0.000 N 
ATOM     24  C17 UNL A   1      12.331  53.621   2.105  1.00  0.00    +0.000 C 
ATOM     25  O3  UNL A   1      12.101  54.753   2.517  1.00  0.00    +0.000 O 
ATOM     26  C18 UNL A   1      12.811  53.460   0.704  1.00  0.00    +0.000 C 
BRANCH   20   21
ATOM     21  C16 UNL A   1      11.641  52.570   4.160  1.00  0.00    +0.000 C 
ATOM     22  F1  UNL A   1      10.305  52.794   4.147  1.00  0.00    +0.000 F 
ATOM    111  H19 UNL A   1      12.140  53.400   4.615  1.00  0.00    +0.000 H 
ATOM     23  F2  UNL A   1      11.872  51.440   4.873  1.00  0.00    +0.000 F 
ENDBRANCH   20   21
ENDBRANCH   16   17
BRANCH   28   29
ATOM    114  H22 UNL A   1      14.448  48.811  -3.241  1.00  0.00    +0.000 H 
ATOM     29  O4  UNL A   1      13.992  49.485  -3.704  1.00  0.00    +0.000 O 
ENDBRANCH   28   29
ENDBRANCH   11   13
ENDBRANCH   10   11
ENDBRANCH    9   10
ENDBRANCH    8    9
ENDBRANCH    7    8
ENDBRANCH    6    7
ENDBRANCH    5    6
ENDBRANCH    4    5
ENDBRANCH    3    4
ENDBRANCH    2    3
ENDBRANCH   30    2
ENDBRANCH   34   33
BRANCH   38   39
ATOM     39  C29 UNL A   1      16.860  55.854  -0.801  1.00  0.00    +0.000 C 
ATOM     40  C30 UNL A   1      18.180  56.218  -1.105  1.00  0.00    +0.000 C 
ATOM     41  F3  UNL A   1      19.195  55.772  -0.350  1.00  0.00    +0.000 F 
ATOM     42  C31 UNL A   1      18.461  57.055  -2.181  1.00  0.00    +0.000 C 
ATOM     43  F4  UNL A   1      19.727  57.411  -2.438  1.00  0.00    +0.000 F 
ATOM     44  C32 UNL A   1      17.434  57.522  -2.988  1.00  0.00    +0.000 C 
ATOM     45  F5  UNL A   1      17.708  58.309  -4.037  1.00  0.00    +0.000 F 
ATOM     46  C33 UNL A   1      16.121  57.172  -2.707  1.00  0.00    +0.000 C 
ATOM     47  F6  UNL A   1      15.128  57.609  -3.494  1.00  0.00    +0.000 F 
ATOM     48  C34 UNL A   1      15.834  56.356  -1.615  1.00  0.00    +0.000 C 
ATOM     49  F7  UNL A   1      14.556  56.032  -1.370  1.00  0.00    +0.000 F 
ENDBRANCH   38   39
BRANCH   55   56
ATOM     65  C45 UNL A   1      12.988  56.276   6.102  1.00  0.00    +0.000 C 
ATOM     66  F12 UNL A   1      12.088  55.501   5.480  1.00  0.00    +0.000 F 
ATOM     56  C40 UNL A   1      14.362  56.048   5.924  1.00  0.00    +0.000 C 
ATOM     57  C41 UNL A   1      15.263  56.893   6.586  1.00  0.00    +0.000 C 
ATOM     58  F8  UNL A   1      16.584  56.704   6.454  1.00  0.00    +0.000 F 
ATOM     59  C42 UNL A   1      14.806  57.929   7.396  1.00  0.00    +0.000 C 
ATOM     60  F9  UNL A   1      15.684  58.712   8.035  1.00  0.00    +0.000 F 
ATOM     61  C43 UNL A   1      13.444  58.154   7.537  1.00  0.00    +0.000 C 
ATOM     62  F10 UNL A   1      13.007  59.169   8.295  1.00  0.00    +0.000 F 
ATOM     63  C44 UNL A   1      12.535  57.330   6.890  1.00  0.00    +0.000 C 
ATOM     64  F11 UNL A   1      11.220  57.557   7.012  1.00  0.00    +0.000 F 
ENDBRANCH   55   56
BRANCH   70   71
ATOM     71  C49 UNL A   1      14.905  49.096   6.287  1.00  0.00    +0.000 C 
ATOM     72  C50 UNL A   1      13.655  48.461   6.323  1.00  0.00    +0.000 C 
ATOM     73  F13 UNL A   1      12.721  48.772   5.412  1.00  0.00    +0.000 F 
ATOM     74  C51 UNL A   1      13.347  47.530   7.312  1.00  0.00    +0.000 C 
ATOM     75  F14 UNL A   1      12.132  46.968   7.345  1.00  0.00    +0.000 F 
ATOM     76  C52 UNL A   1      14.292  47.195   8.270  1.00  0.00    +0.000 C 
ATOM     77  F15 UNL A   1      13.999  46.294   9.218  1.00  0.00    +0.000 F 
ATOM     78  C53 UNL A   1      15.540  47.800   8.248  1.00  0.00    +0.000 C 
ATOM     79  F16 UNL A   1      16.461  47.469   9.163  1.00  0.00    +0.000 F 
ATOM     80  C54 UNL A   1      15.839  48.751   7.274  1.00  0.00    +0.000 C 
ATOM     81  F17 UNL A   1      17.050  49.327   7.284  1.00  0.00    +0.000 F 
ENDBRANCH   70   71
TORSDOF 18
ENDMDL
MODEL 7
REMARK VINA RESULT:      -9.2     30.217     36.701
ROOT
ATOM     34  C25 UNL A   1      43.145  28.005  33.548  1.00  0.00    +0.000 C 
ATOM     35  C26 UNL A   1      42.954  27.703  32.086  1.00  0.00    +0.000 C 
ATOM     36  N4  UNL A   1      42.083  28.203  31.245  1.00  0.00    +0.000 N 
ATOM     37  C27 UNL A   1      42.353  27.606  30.021  1.00  0.00    +0.000 C 
ATOM     38  C28 UNL A   1      41.682  27.734  28.853  1.00  0.00    +0.000 C 
ATOM     50  C35 UNL A   1      40.514  28.554  28.677  1.00  0.00    +0.000 C 
ATOM     51  C36 UNL A   1      39.738  28.712  27.542  1.00  0.00    +0.000 C 
ATOM     52  C37 UNL A   1      38.723  29.627  27.832  1.00  0.00    +0.000 C 
ATOM     53  C38 UNL A   1      38.840  30.004  29.160  1.00  0.00    +0.000 C 
ATOM     54  N5  UNL A   1      39.948  29.344  29.665  1.00  0.00    +0.000 N 
ATOM     55  C39 UNL A   1      38.004  30.904  29.910  1.00  0.00    +0.000 C 
ATOM     67  C46 UNL A   1      38.185  31.233  31.211  1.00  0.00    +0.000 C 
ATOM     68  N6  UNL A   1      39.158  30.787  32.095  1.00  0.00    +0.000 N 
ATOM     69  C47 UNL A   1      38.924  31.399  33.229  1.00  0.00    +0.000 C 
ATOM     70  C48 UNL A   1      39.647  31.269  34.543  1.00  0.00    +0.000 C 
ATOM     82  C55 UNL A   1      40.709  30.444  34.633  1.00  0.00    +0.000 C 
ATOM     83  C56 UNL A   1      41.490  30.194  35.842  1.00  0.00    +0.000 C 
ATOM     84  C57 UNL A   1      42.465  29.313  35.561  1.00  0.00    +0.000 C 
ATOM     85  C58 UNL A   1      42.358  28.914  34.157  1.00  0.00    +0.000 C 
ATOM     86  N7  UNL A   1      41.308  29.658  33.679  1.00  0.00    +0.000 N 
ATOM     87  C59 UNL A   1      37.787  32.329  33.183  1.00  0.00    +0.000 C 
ATOM     88  C60 UNL A   1      37.348  32.161  31.943  1.00  0.00    +0.000 C 
ATOM     89  C61 UNL A   1      43.502  26.750  30.208  1.00  0.00    +0.000 C 
ATOM     90  C62 UNL A   1      43.871  26.723  31.481  1.00  0.00    +0.000 C 
ATOM    117  H25 UNL A   1      39.882  28.236  26.638  1.00  0.00    +0.000 H 
ATOM    118  H26 UNL A   1      38.008  29.966  27.169  1.00  0.00    +0.000 H 
ATOM    119  H27 UNL A   1      40.284  29.425  30.587  1.00  0.00    +0.000 H 
ATOM    120  H28 UNL A   1      41.319  30.623  36.764  1.00  0.00    +0.000 H 
ATOM    121  H29 UNL A   1      43.175  28.974  36.228  1.00  0.00    +0.000 H 
ATOM    122  H30 UNL A   1      41.012  29.629  32.741  1.00  0.00    +0.000 H 
ATOM    123  H31 UNL A   1      37.424  32.951  33.922  1.00  0.00    +0.000 H 
ATOM    124  H32 UNL A   1      36.519  32.631  31.548  1.00  0.00    +0.000 H 
ATOM    125  H33 UNL A   1      43.973  26.228  29.452  1.00  0.00    +0.000 H 
ATOM    126  H34 UNL A   1      44.610  26.161  31.930  1.00  0.00    +0.000 H 
ENDROOT
BRANCH   34   33
ATOM     33  C24 UNL A   1      44.205  27.305  34.318  1.00  0.00    +0.000 C 
ATOM    127  H35 UNL A   1      45.705  28.746  33.938  1.00  0.00    +0.000 H 
ATOM    115  H23 UNL A   1      44.732  24.527  36.138  1.00  0.00    +0.000 H 
ATOM    116  H24 UNL A   1      42.988  25.679  34.910  1.00  0.00    +0.000 H 
ATOM     91  C63 UNL A   1      45.505  27.830  34.369  1.00  0.00    +0.000 C 
ATOM     92  C64 UNL A   1      46.527  27.120  34.999  1.00  0.00    +0.000 C 
ATOM     32  C23 UNL A   1      43.936  26.083  34.955  1.00  0.00    +0.000 C 
ATOM     30  C21 UNL A   1      46.240  25.935  35.682  1.00  0.00    +0.000 C 
ATOM     31  C22 UNL A   1      44.944  25.411  35.649  1.00  0.00    +0.000 C 
ATOM    128  H36 UNL A   1      47.496  27.472  34.961  1.00  0.00    +0.000 H 
BRANCH   30    2
ATOM      1  O1  UNL A   1      47.966  24.350  35.772  1.00  0.00    +0.000 O 
ATOM      2  C1  UNL A   1      47.291  25.169  36.392  1.00  0.00    +0.000 C 
BRANCH    2    3
ATOM      3  N1  UNL A   1      47.510  25.353  37.732  1.00  0.00    +0.000 N 
ATOM     93  H1  UNL A   1      48.153  24.730  38.139  1.00  0.00    +0.000 H 
BRANCH    3    4
ATOM      4  C2  UNL A   1      46.936  26.328  38.641  1.00  0.00    +0.000 C 
ATOM     94  H2  UNL A   1      46.263  26.954  38.094  1.00  0.00    +0.000 H 
ATOM     95  H3  UNL A   1      47.741  26.891  39.064  1.00  0.00    +0.000 H 
BRANCH    4    5
ATOM     97  H5  UNL A   1      46.902  25.139  40.360  1.00  0.00    +0.000 H 
ATOM      5  C3  UNL A   1      46.173  25.677  39.790  1.00  0.00    +0.000 C 
ATOM     96  H4  UNL A   1      45.683  26.452  40.342  1.00  0.00    +0.000 H 
BRANCH    5    6
ATOM     98  H6  UNL A   1      45.091  24.614  38.309  1.00  0.00    +0.000 H 
ATOM     99  H7  UNL A   1      44.200  24.979  39.822  1.00  0.00    +0.000 H 
ATOM      6  C4  UNL A   1      45.116  24.649  39.378  1.00  0.00    +0.000 C 
BRANCH    6    7
ATOM    100  H8  UNL A   1      44.383  22.797  40.102  1.00  0.00    +0.000 H 
ATOM    101  H9  UNL A   1      45.972  23.319  40.749  1.00  0.00    +0.000 H 
ATOM      7  C5  UNL A   1      45.341  23.225  39.891  1.00  0.00    +0.000 C 
BRANCH    7    8
ATOM    102  H10 UNL A   1      46.039  22.714  37.953  1.00  0.00    +0.000 H 
ATOM    103  H11 UNL A   1      45.576  21.340  39.002  1.00  0.00    +0.000 H 
ATOM      8  C6  UNL A   1      46.075  22.284  38.932  1.00  0.00    +0.000 C 
BRANCH    8    9
ATOM      9  C7  UNL A   1      47.537  22.017  39.277  1.00  0.00    +0.000 C 
ATOM    105  H13 UNL A   1      48.080  22.927  39.130  1.00  0.00    +0.000 H 
ATOM    104  H12 UNL A   1      47.597  21.688  40.293  1.00  0.00    +0.000 H 
BRANCH    9   10
ATOM     10  N2  UNL A   1      48.126  21.005  38.421  1.00  0.00    +0.000 N 
ATOM    106  H14 UNL A   1      48.389  21.304  37.520  1.00  0.00    +0.000 H 
BRANCH   10   11
ATOM     11  C8  UNL A   1      48.360  19.683  38.707  1.00  0.00    +0.000 C 
ATOM     12  O2  UNL A   1      49.464  19.185  38.499  1.00  0.00    +0.000 O 
BRANCH   11   13
ATOM    107  H15 UNL A   1      46.269  18.610  37.529  1.00  0.00    +0.000 H 
ATOM    108  H16 UNL A   1      44.528  17.208  38.478  1.00  0.00    +0.000 H 
ATOM     13  C9  UNL A   1      47.307  18.873  39.350  1.00  0.00    +0.000 C 
ATOM     14  C10 UNL A   1      46.283  18.379  38.535  1.00  0.00    +0.000 C 
ATOM     15  C11 UNL A   1      45.280  17.575  39.082  1.00  0.00    +0.000 C 
ATOM     16  C12 UNL A   1      45.292  17.268  40.449  1.00  0.00    +0.000 C 
ATOM    113  H21 UNL A   1      46.309  17.587  42.278  1.00  0.00    +0.000 H 
ATOM     27  C19 UNL A   1      46.304  17.797  41.267  1.00  0.00    +0.000 C 
ATOM     28  C20 UNL A   1      47.300  18.605  40.722  1.00  0.00    +0.000 C 
BRANCH   16   17
ATOM    109  H17 UNL A   1      44.908  16.567  43.107  1.00  0.00    +0.000 H 
ATOM    110  H18 UNL A   1      43.376  14.999  43.977  1.00  0.00    +0.000 H 
ATOM    112  H20 UNL A   1      43.366  16.031  39.241  1.00  0.00    +0.000 H 
ATOM     17  C13 UNL A   1      44.268  16.397  41.055  1.00  0.00    +0.000 C 
ATOM     18  C14 UNL A   1      44.243  16.096  42.474  1.00  0.00    +0.000 C 
ATOM     19  C15 UNL A   1      43.368  15.213  42.967  1.00  0.00    +0.000 C 
ATOM     20  N3  UNL A   1      42.453  14.583  42.145  1.00  0.00    +0.000 N 
ATOM     24  C17 UNL A   1      42.375  14.836  40.786  1.00  0.00    +0.000 C 
ATOM     25  O3  UNL A   1      41.582  14.320  40.005  1.00  0.00    +0.000 O 
ATOM     26  C18 UNL A   1      43.368  15.807  40.248  1.00  0.00    +0.000 C 
BRANCH   20   21
ATOM     21  C16 UNL A   1      41.546  13.601  42.681  1.00  0.00    +0.000 C 
ATOM     22  F1  UNL A   1      42.209  12.499  43.107  1.00  0.00    +0.000 F 
ATOM    111  H19 UNL A   1      40.875  13.334  41.890  1.00  0.00    +0.000 H 
ATOM     23  F2  UNL A   1      40.851  14.107  43.729  1.00  0.00    +0.000 F 
ENDBRANCH   20   21
ENDBRANCH   16   17
BRANCH   28   29
ATOM    114  H22 UNL A   1      48.084  19.287  42.439  1.00  0.00    +0.000 H 
ATOM     29  O4  UNL A   1      48.271  19.118  41.537  1.00  0.00    +0.000 O 
ENDBRANCH   28   29
ENDBRANCH   11   13
ENDBRANCH   10   11
ENDBRANCH    9   10
ENDBRANCH    8    9
ENDBRANCH    7    8
ENDBRANCH    6    7
ENDBRANCH    5    6
ENDBRANCH    4    5
ENDBRANCH    3    4
ENDBRANCH    2    3
ENDBRANCH   30    2
ENDBRANCH   34   33
BRANCH   38   39
ATOM     39  C29 UNL A   1      42.167  26.950  27.670  1.00  0.00    +0.000 C 
ATOM     40  C30 UNL A   1      43.131  27.474  26.796  1.00  0.00    +0.000 C 
ATOM     41  F3  UNL A   1      43.568  28.733  26.948  1.00  0.00    +0.000 F 
ATOM     42  C31 UNL A   1      43.641  26.708  25.751  1.00  0.00    +0.000 C 
ATOM     43  F4  UNL A   1      44.543  27.237  24.913  1.00  0.00    +0.000 F 
ATOM     44  C32 UNL A   1      43.218  25.399  25.576  1.00  0.00    +0.000 C 
ATOM     45  F5  UNL A   1      43.727  24.656  24.584  1.00  0.00    +0.000 F 
ATOM     46  C33 UNL A   1      42.268  24.860  26.431  1.00  0.00    +0.000 C 
ATOM     47  F6  UNL A   1      41.869  23.590  26.273  1.00  0.00    +0.000 F 
ATOM     48  C34 UNL A   1      41.736  25.632  27.461  1.00  0.00    +0.000 C 
ATOM     49  F7  UNL A   1      40.821  25.082  28.273  1.00  0.00    +0.000 F 
ENDBRANCH   38   39
BRANCH   55   56
ATOM     65  C45 UNL A   1      36.848  32.885  28.869  1.00  0.00    +0.000 C 
ATOM     66  F12 UNL A   1      37.928  33.635  29.132  1.00  0.00    +0.000 F 
ATOM     56  C40 UNL A   1      36.842  31.517  29.184  1.00  0.00    +0.000 C 
ATOM     57  C41 UNL A   1      35.686  30.778  28.900  1.00  0.00    +0.000 C 
ATOM     58  F8  UNL A   1      35.641  29.466  29.174  1.00  0.00    +0.000 F 
ATOM     59  C42 UNL A   1      34.575  31.387  28.324  1.00  0.00    +0.000 C 
ATOM     60  F9  UNL A   1      33.486  30.659  28.043  1.00  0.00    +0.000 F 
ATOM     61  C43 UNL A   1      34.591  32.746  28.045  1.00  0.00    +0.000 C 
ATOM     62  F10 UNL A   1      33.510  33.335  27.515  1.00  0.00    +0.000 F 
ATOM     63  C44 UNL A   1      35.725  33.495  28.318  1.00  0.00    +0.000 C 
ATOM     64  F11 UNL A   1      35.736  34.811  28.065  1.00  0.00    +0.000 F 
ENDBRANCH   55   56
BRANCH   70   71
ATOM     71  C49 UNL A   1      39.179  32.007  35.746  1.00  0.00    +0.000 C 
ATOM     72  C50 UNL A   1      39.616  33.315  36.001  1.00  0.00    +0.000 C 
ATOM     73  F13 UNL A   1      40.484  33.906  35.166  1.00  0.00    +0.000 F 
ATOM     74  C51 UNL A   1      39.189  34.010  37.131  1.00  0.00    +0.000 C 
ATOM     75  F14 UNL A   1      39.653  35.244  37.371  1.00  0.00    +0.000 F 
ATOM     76  C52 UNL A   1      38.298  33.421  38.014  1.00  0.00    +0.000 C 
ATOM     77  F15 UNL A   1      37.881  34.091  39.097  1.00  0.00    +0.000 F 
ATOM     78  C53 UNL A   1      37.842  32.133  37.776  1.00  0.00    +0.000 C 
ATOM     79  F16 UNL A   1      36.969  31.566  38.620  1.00  0.00    +0.000 F 
ATOM     80  C54 UNL A   1      38.288  31.428  36.660  1.00  0.00    +0.000 C 
ATOM     81  F17 UNL A   1      37.838  30.180  36.461  1.00  0.00    +0.000 F 
ENDBRANCH   70   71
TORSDOF 18
ENDMDL
MODEL 8
REMARK VINA RESULT:      -9.2      7.451     14.225
ROOT
ATOM     34  C25 UNL A   1      13.581  26.042  -1.943  1.00  0.00    +0.000 C 
ATOM     35  C26 UNL A   1      14.965  25.455  -1.886  1.00  0.00    +0.000 C 
ATOM     36  N4  UNL A   1      15.483  24.641  -1.000  1.00  0.00    +0.000 N 
ATOM     37  C27 UNL A   1      16.779  24.389  -1.429  1.00  0.00    +0.000 C 
ATOM     38  C28 UNL A   1      17.747  23.669  -0.817  1.00  0.00    +0.000 C 
ATOM     50  C35 UNL A   1      17.584  23.008   0.450  1.00  0.00    +0.000 C 
ATOM     51  C36 UNL A   1      18.521  22.292   1.173  1.00  0.00    +0.000 C 
ATOM     52  C37 UNL A   1      17.904  21.811   2.330  1.00  0.00    +0.000 C 
ATOM     53  C38 UNL A   1      16.596  22.266   2.350  1.00  0.00    +0.000 C 
ATOM     54  N5  UNL A   1      16.410  22.993   1.186  1.00  0.00    +0.000 N 
ATOM     55  C39 UNL A   1      15.590  22.048   3.357  1.00  0.00    +0.000 C 
ATOM     67  C46 UNL A   1      14.322  22.521   3.304  1.00  0.00    +0.000 C 
ATOM     68  N6  UNL A   1      13.725  23.307   2.329  1.00  0.00    +0.000 N 
ATOM     69  C47 UNL A   1      12.489  23.491   2.719  1.00  0.00    +0.000 C 
ATOM     70  C48 UNL A   1      11.396  24.293   2.064  1.00  0.00    +0.000 C 
ATOM     82  C55 UNL A   1      11.647  24.917   0.896  1.00  0.00    +0.000 C 
ATOM     83  C56 UNL A   1      10.701  25.751   0.158  1.00  0.00    +0.000 C 
ATOM     84  C57 UNL A   1      11.296  26.213  -0.954  1.00  0.00    +0.000 C 
ATOM     85  C58 UNL A   1      12.677  25.731  -0.992  1.00  0.00    +0.000 C 
ATOM     86  N7  UNL A   1      12.787  24.946   0.129  1.00  0.00    +0.000 N 
ATOM     87  C59 UNL A   1      12.152  22.814   3.980  1.00  0.00    +0.000 C 
ATOM     88  C60 UNL A   1      13.315  22.269   4.314  1.00  0.00    +0.000 C 
ATOM     89  C61 UNL A   1      16.957  25.087  -2.682  1.00  0.00    +0.000 C 
ATOM     90  C62 UNL A   1      15.888  25.814  -2.975  1.00  0.00    +0.000 C 
ATOM    117  H25 UNL A   1      19.505  22.139   0.905  1.00  0.00    +0.000 H 
ATOM    118  H26 UNL A   1      18.348  21.216   3.049  1.00  0.00    +0.000 H 
ATOM    119  H27 UNL A   1      15.569  23.433   0.922  1.00  0.00    +0.000 H 
ATOM    120  H28 UNL A   1       9.731  25.954   0.447  1.00  0.00    +0.000 H 
ATOM    121  H29 UNL A   1      10.850  26.810  -1.667  1.00  0.00    +0.000 H 
ATOM    122  H30 UNL A   1      13.605  24.451   0.361  1.00  0.00    +0.000 H 
ATOM    123  H31 UNL A   1      11.248  22.772   4.476  1.00  0.00    +0.000 H 
ATOM    124  H32 UNL A   1      13.481  21.735   5.181  1.00  0.00    +0.000 H 
ATOM    125  H33 UNL A   1      17.803  25.028  -3.271  1.00  0.00    +0.000 H 
ATOM    126  H34 UNL A   1      15.741  26.463  -3.764  1.00  0.00    +0.000 H 
ENDROOT
BRANCH   34   33
ATOM     33  C24 UNL A   1      13.208  26.960  -3.050  1.00  0.00    +0.000 C 
ATOM    127  H35 UNL A   1      14.023  28.691  -2.148  1.00  0.00    +0.000 H 
ATOM    115  H23 UNL A   1      11.665  26.987  -6.037  1.00  0.00    +0.000 H 
ATOM    116  H24 UNL A   1      12.298  25.475  -4.251  1.00  0.00    +0.000 H 
ATOM     91  C63 UNL A   1      13.486  28.332  -2.953  1.00  0.00    +0.000 C 
ATOM     92  C64 UNL A   1      13.041  29.212  -3.939  1.00  0.00    +0.000 C 
ATOM     32  C23 UNL A   1      12.523  26.480  -4.177  1.00  0.00    +0.000 C 
ATOM     30  C21 UNL A   1      12.412  28.720  -5.086  1.00  0.00    +0.000 C 
ATOM     31  C22 UNL A   1      12.144  27.352  -5.199  1.00  0.00    +0.000 C 
ATOM    128  H36 UNL A   1      13.176  30.228  -3.821  1.00  0.00    +0.000 H 
BRANCH   30    2
ATOM      1  O1  UNL A   1      12.660  29.773  -7.166  1.00  0.00    +0.000 O 
ATOM      2  C1  UNL A   1      11.955  29.618  -6.172  1.00  0.00    +0.000 C 
BRANCH    2    3
ATOM      3  N1  UNL A   1      10.762  30.285  -6.075  1.00  0.00    +0.000 N 
ATOM     93  H1  UNL A   1      10.199  30.254  -6.882  1.00  0.00    +0.000 H 
BRANCH    3    4
ATOM      4  C2  UNL A   1      10.203  31.032  -4.963  1.00  0.00    +0.000 C 
ATOM     94  H2  UNL A   1      10.219  30.413  -4.091  1.00  0.00    +0.000 H 
ATOM     95  H3  UNL A   1       9.205  31.312  -5.229  1.00  0.00    +0.000 H 
BRANCH    4    5
ATOM     97  H5  UNL A   1      11.823  32.302  -5.328  1.00  0.00    +0.000 H 
ATOM      5  C3  UNL A   1      10.980  32.311  -4.669  1.00  0.00    +0.000 C 
ATOM     96  H4  UNL A   1      10.321  33.141  -4.827  1.00  0.00    +0.000 H 
BRANCH    5    6
ATOM     98  H6  UNL A   1      11.438  31.471  -2.778  1.00  0.00    +0.000 H 
ATOM     99  H7  UNL A   1      11.003  33.211  -2.780  1.00  0.00    +0.000 H 
ATOM      6  C4  UNL A   1      11.550  32.422  -3.254  1.00  0.00    +0.000 C 
BRANCH    6    7
ATOM    100  H8  UNL A   1      13.327  33.184  -4.123  1.00  0.00    +0.000 H 
ATOM    101  H9  UNL A   1      13.547  31.945  -2.845  1.00  0.00    +0.000 H 
ATOM      7  C5  UNL A   1      13.025  32.823  -3.162  1.00  0.00    +0.000 C 
BRANCH    7    8
ATOM    102  H10 UNL A   1      13.235  34.858  -2.597  1.00  0.00    +0.000 H 
ATOM    103  H11 UNL A   1      14.355  33.708  -1.804  1.00  0.00    +0.000 H 
ATOM      8  C6  UNL A   1      13.354  33.903  -2.128  1.00  0.00    +0.000 C 
BRANCH    8    9
ATOM      9  C7  UNL A   1      12.491  33.884  -0.871  1.00  0.00    +0.000 C 
ATOM    105  H13 UNL A   1      12.117  34.875  -0.714  1.00  0.00    +0.000 H 
ATOM    104  H12 UNL A   1      11.693  33.185  -1.012  1.00  0.00    +0.000 H 
BRANCH    9   10
ATOM     10  N2  UNL A   1      13.246  33.502   0.307  1.00  0.00    +0.000 N 
ATOM    106  H14 UNL A   1      13.577  34.244   0.864  1.00  0.00    +0.000 H 
BRANCH   10   11
ATOM     11  C8  UNL A   1      13.560  32.238   0.742  1.00  0.00    +0.000 C 
ATOM     12  O2  UNL A   1      12.752  31.587   1.399  1.00  0.00    +0.000 O 
BRANCH   11   13
ATOM    107  H15 UNL A   1      13.907  30.410  -1.116  1.00  0.00    +0.000 H 
ATOM    108  H16 UNL A   1      15.969  29.390  -1.893  1.00  0.00    +0.000 H 
ATOM     13  C9  UNL A   1      14.840  31.622   0.343  1.00  0.00    +0.000 C 
ATOM     14  C10 UNL A   1      14.808  30.674  -0.686  1.00  0.00    +0.000 C 
ATOM     15  C11 UNL A   1      15.993  30.085  -1.131  1.00  0.00    +0.000 C 
ATOM     16  C12 UNL A   1      17.217  30.435  -0.543  1.00  0.00    +0.000 C 
ATOM    113  H21 UNL A   1      18.132  31.610   0.960  1.00  0.00    +0.000 H 
ATOM     27  C19 UNL A   1      17.236  31.360   0.513  1.00  0.00    +0.000 C 
ATOM     28  C20 UNL A   1      16.051  31.942   0.962  1.00  0.00    +0.000 C 
BRANCH   16   17
ATOM    109  H17 UNL A   1      19.820  31.074   0.176  1.00  0.00    +0.000 H 
ATOM    110  H18 UNL A   1      21.819  30.252  -0.767  1.00  0.00    +0.000 H 
ATOM    112  H20 UNL A   1      17.543  28.513  -2.247  1.00  0.00    +0.000 H 
ATOM     17  C13 UNL A   1      18.491  29.857  -1.008  1.00  0.00    +0.000 C 
ATOM     18  C14 UNL A   1      19.779  30.350  -0.559  1.00  0.00    +0.000 C 
ATOM     19  C15 UNL A   1      20.912  29.877  -1.088  1.00  0.00    +0.000 C 
ATOM     20  N3  UNL A   1      20.887  28.894  -2.058  1.00  0.00    +0.000 N 
ATOM     24  C17 UNL A   1      19.708  28.333  -2.521  1.00  0.00    +0.000 C 
ATOM     25  O3  UNL A   1      19.618  27.453  -3.371  1.00  0.00    +0.000 O 
ATOM     26  C18 UNL A   1      18.454  28.884  -1.936  1.00  0.00    +0.000 C 
BRANCH   20   21
ATOM     21  C16 UNL A   1      22.112  28.424  -2.653  1.00  0.00    +0.000 C 
ATOM     22  F1  UNL A   1      22.431  29.144  -3.755  1.00  0.00    +0.000 F 
ATOM    111  H19 UNL A   1      21.954  27.401  -2.925  1.00  0.00    +0.000 H 
ATOM     23  F2  UNL A   1      23.142  28.518  -1.776  1.00  0.00    +0.000 F 
ENDBRANCH   20   21
ENDBRANCH   16   17
BRANCH   28   29
ATOM    114  H22 UNL A   1      15.873  33.732   1.850  1.00  0.00    +0.000 H 
ATOM     29  O4  UNL A   1      16.090  32.834   1.998  1.00  0.00    +0.000 O 
ENDBRANCH   28   29
ENDBRANCH   11   13
ENDBRANCH   10   11
ENDBRANCH    9   10
ENDBRANCH    8    9
ENDBRANCH    7    8
ENDBRANCH    6    7
ENDBRANCH    5    6
ENDBRANCH    4    5
ENDBRANCH    3    4
ENDBRANCH    2    3
ENDBRANCH   30    2
ENDBRANCH   34   33
BRANCH   38   39
ATOM     39  C29 UNL A   1      19.086  23.573  -1.484  1.00  0.00    +0.000 C 
ATOM     40  C30 UNL A   1      19.371  22.550  -2.401  1.00  0.00    +0.000 C 
ATOM     41  F3  UNL A   1      18.476  21.576  -2.625  1.00  0.00    +0.000 F 
ATOM     42  C31 UNL A   1      20.584  22.518  -3.082  1.00  0.00    +0.000 C 
ATOM     43  F4  UNL A   1      20.845  21.517  -3.935  1.00  0.00    +0.000 F 
ATOM     44  C32 UNL A   1      21.524  23.517  -2.881  1.00  0.00    +0.000 C 
ATOM     45  F5  UNL A   1      22.682  23.497  -3.555  1.00  0.00    +0.000 F 
ATOM     46  C33 UNL A   1      21.262  24.540  -1.981  1.00  0.00    +0.000 C 
ATOM     47  F6  UNL A   1      22.162  25.516  -1.796  1.00  0.00    +0.000 F 
ATOM     48  C34 UNL A   1      20.060  24.562  -1.278  1.00  0.00    +0.000 C 
ATOM     49  F7  UNL A   1      19.834  25.564  -0.417  1.00  0.00    +0.000 F 
ENDBRANCH   38   39
BRANCH   55   56
ATOM     65  C45 UNL A   1      15.906  19.834   4.516  1.00  0.00    +0.000 C 
ATOM     66  F12 UNL A   1      15.557  19.207   3.383  1.00  0.00    +0.000 F 
ATOM     56  C40 UNL A   1      15.990  21.235   4.553  1.00  0.00    +0.000 C 
ATOM     57  C41 UNL A   1      16.348  21.844   5.763  1.00  0.00    +0.000 C 
ATOM     58  F8  UNL A   1      16.451  23.179   5.842  1.00  0.00    +0.000 F 
ATOM     59  C42 UNL A   1      16.611  21.078   6.895  1.00  0.00    +0.000 C 
ATOM     60  F9  UNL A   1      16.971  21.679   8.037  1.00  0.00    +0.000 F 
ATOM     61  C43 UNL A   1      16.497  19.697   6.845  1.00  0.00    +0.000 C 
ATOM     62  F10 UNL A   1      16.725  18.964   7.943  1.00  0.00    +0.000 F 
ATOM     63  C44 UNL A   1      16.144  19.074   5.657  1.00  0.00    +0.000 C 
ATOM     64  F11 UNL A   1      16.017  17.741   5.611  1.00  0.00    +0.000 F 
ENDBRANCH   55   56
BRANCH   70   71
ATOM     71  C49 UNL A   1      10.064  24.436   2.708  1.00  0.00    +0.000 C 
ATOM     72  C50 UNL A   1       9.832  25.433   3.667  1.00  0.00    +0.000 C 
ATOM     73  F13 UNL A   1      10.826  26.257   4.028  1.00  0.00    +0.000 F 
ATOM     74  C51 UNL A   1       8.589  25.566   4.281  1.00  0.00    +0.000 C 
ATOM     75  F14 UNL A   1       8.406  26.503   5.222  1.00  0.00    +0.000 F 
ATOM     76  C52 UNL A   1       7.545  24.723   3.931  1.00  0.00    +0.000 C 
ATOM     77  F15 UNL A   1       6.347  24.856   4.517  1.00  0.00    +0.000 F 
ATOM     78  C53 UNL A   1       7.747  23.738   2.976  1.00  0.00    +0.000 C 
ATOM     79  F16 UNL A   1       6.737  22.931   2.624  1.00  0.00    +0.000 F 
ATOM     80  C54 UNL A   1       8.997  23.587   2.380  1.00  0.00    +0.000 C 
ATOM     81  F17 UNL A   1       9.166  22.618   1.468  1.00  0.00    +0.000 F 
ENDBRANCH   70   71
TORSDOF 18
ENDMDL
MODEL 9
REMARK VINA RESULT:      -9.2     41.091     46.874
ROOT
ATOM     34  C25 UNL A   1      24.427  36.747  45.862  1.00  0.00    +0.000 C 
ATOM     35  C26 UNL A   1      25.818  36.392  45.411  1.00  0.00    +0.000 C 
ATOM     36  N4  UNL A   1      26.951  36.998  45.667  1.00  0.00    +0.000 N 
ATOM     37  C27 UNL A   1      27.933  36.249  45.034  1.00  0.00    +0.000 C 
ATOM     38  C28 UNL A   1      29.258  36.503  44.937  1.00  0.00    +0.000 C 
ATOM     50  C35 UNL A   1      29.904  37.656  45.504  1.00  0.00    +0.000 C 
ATOM     51  C36 UNL A   1      31.235  38.024  45.419  1.00  0.00    +0.000 C 
ATOM     52  C37 UNL A   1      31.408  39.204  46.147  1.00  0.00    +0.000 C 
ATOM     53  C38 UNL A   1      30.176  39.595  46.646  1.00  0.00    +0.000 C 
ATOM     54  N5  UNL A   1      29.263  38.631  46.251  1.00  0.00    +0.000 N 
ATOM     55  C39 UNL A   1      29.859  40.760  47.430  1.00  0.00    +0.000 C 
ATOM     67  C46 UNL A   1      28.626  41.075  47.892  1.00  0.00    +0.000 C 
ATOM     68  N6  UNL A   1      27.429  40.396  47.711  1.00  0.00    +0.000 N 
ATOM     69  C47 UNL A   1      26.522  41.085  48.358  1.00  0.00    +0.000 C 
ATOM     70  C48 UNL A   1      25.043  40.830  48.475  1.00  0.00    +0.000 C 
ATOM     82  C55 UNL A   1      24.510  39.746  47.876  1.00  0.00    +0.000 C 
ATOM     83  C56 UNL A   1      23.095  39.385  47.877  1.00  0.00    +0.000 C 
ATOM     84  C57 UNL A   1      22.930  38.250  47.177  1.00  0.00    +0.000 C 
ATOM     85  C58 UNL A   1      24.227  37.821  46.652  1.00  0.00    +0.000 C 
ATOM     86  N7  UNL A   1      25.109  38.752  47.142  1.00  0.00    +0.000 N 
ATOM     87  C59 UNL A   1      27.050  42.269  49.050  1.00  0.00    +0.000 C 
ATOM     88  C60 UNL A   1      28.330  42.238  48.702  1.00  0.00    +0.000 C 
ATOM     89  C61 UNL A   1      27.277  35.111  44.429  1.00  0.00    +0.000 C 
ATOM     90  C62 UNL A   1      25.963  35.188  44.576  1.00  0.00    +0.000 C 
ATOM    117  H25 UNL A   1      31.972  37.516  44.908  1.00  0.00    +0.000 H 
ATOM    118  H26 UNL A   1      32.302  39.700  46.289  1.00  0.00    +0.000 H 
ATOM    119  H27 UNL A   1      28.302  38.639  46.468  1.00  0.00    +0.000 H 
ATOM    120  H28 UNL A   1      22.342  39.917  48.341  1.00  0.00    +0.000 H 
ATOM    121  H29 UNL A   1      22.034  37.760  47.034  1.00  0.00    +0.000 H 
ATOM    122  H30 UNL A   1      26.079  38.710  46.982  1.00  0.00    +0.000 H 
ATOM    123  H31 UNL A   1      26.557  42.948  49.650  1.00  0.00    +0.000 H 
ATOM    124  H32 UNL A   1      29.026  42.950  48.973  1.00  0.00    +0.000 H 
ATOM    125  H33 UNL A   1      27.768  34.342  43.945  1.00  0.00    +0.000 H 
ATOM    126  H34 UNL A   1      25.230  34.565  44.203  1.00  0.00    +0.000 H 
ENDROOT
BRANCH   34   33
ATOM     33  C24 UNL A   1      23.273  35.911  45.440  1.00  0.00    +0.000 C 
ATOM    127  H35 UNL A   1      22.839  37.041  43.706  1.00  0.00    +0.000 H 
ATOM    115  H23 UNL A   1      21.497  33.215  46.378  1.00  0.00    +0.000 H 
ATOM    116  H24 UNL A   1      23.401  34.554  47.057  1.00  0.00    +0.000 H 
ATOM     91  C63 UNL A   1      22.532  36.255  44.299  1.00  0.00    +0.000 C 
ATOM     92  C64 UNL A   1      21.385  35.537  43.962  1.00  0.00    +0.000 C 
ATOM     32  C23 UNL A   1      22.874  34.805  46.206  1.00  0.00    +0.000 C 
ATOM     30  C21 UNL A   1      21.028  34.401  44.694  1.00  0.00    +0.000 C 
ATOM     31  C22 UNL A   1      21.768  34.043  45.825  1.00  0.00    +0.000 C 
ATOM    128  H36 UNL A   1      20.800  35.845  43.170  1.00  0.00    +0.000 H 
BRANCH   30    2
ATOM      1  O1  UNL A   1      19.983  32.475  43.860  1.00  0.00    +0.000 O 
ATOM      2  C1  UNL A   1      19.835  33.593  44.348  1.00  0.00    +0.000 C 
BRANCH    2    3
ATOM      3  N1  UNL A   1      18.572  34.080  44.556  1.00  0.00    +0.000 N 
ATOM     93  H1  UNL A   1      17.954  33.976  43.797  1.00  0.00    +0.000 H 
BRANCH    3    4
ATOM      4  C2  UNL A   1      18.007  34.729  45.725  1.00  0.00    +0.000 C 
ATOM     94  H2  UNL A   1      18.774  34.835  46.463  1.00  0.00    +0.000 H 
ATOM     95  H3  UNL A   1      17.203  34.117  46.079  1.00  0.00    +0.000 H 
BRANCH    4    5
ATOM     97  H5  UNL A   1      17.229  36.108  44.360  1.00  0.00    +0.000 H 
ATOM      5  C3  UNL A   1      17.436  36.107  45.410  1.00  0.00    +0.000 C 
ATOM     96  H4  UNL A   1      16.567  36.252  46.019  1.00  0.00    +0.000 H 
BRANCH    5    6
ATOM     98  H6  UNL A   1      17.796  38.127  45.942  1.00  0.00    +0.000 H 
ATOM     99  H7  UNL A   1      18.922  37.419  44.739  1.00  0.00    +0.000 H 
ATOM      6  C4  UNL A   1      18.386  37.282  45.655  1.00  0.00    +0.000 C 
BRANCH    6    7
ATOM    100  H8  UNL A   1      20.410  37.123  46.265  1.00  0.00    +0.000 H 
ATOM    101  H9  UNL A   1      19.237  36.105  47.163  1.00  0.00    +0.000 H 
ATOM      7  C5  UNL A   1      19.450  37.062  46.734  1.00  0.00    +0.000 C 
BRANCH    7    8
ATOM    102  H10 UNL A   1      19.300  39.039  47.491  1.00  0.00    +0.000 H 
ATOM    103  H11 UNL A   1      20.356  37.927  48.415  1.00  0.00    +0.000 H 
ATOM      8  C6  UNL A   1      19.429  38.057  47.897  1.00  0.00    +0.000 C 
BRANCH    8    9
ATOM      9  C7  UNL A   1      18.331  37.825  48.930  1.00  0.00    +0.000 C 
ATOM    105  H13 UNL A   1      18.178  38.744  49.459  1.00  0.00    +0.000 H 
ATOM    104  H12 UNL A   1      17.440  37.516  48.423  1.00  0.00    +0.000 H 
BRANCH    9   10
ATOM     10  N2  UNL A   1      18.695  36.809  49.899  1.00  0.00    +0.000 N 
ATOM    106  H14 UNL A   1      18.246  35.938  49.797  1.00  0.00    +0.000 H 
BRANCH   10   11
ATOM     11  C8  UNL A   1      19.582  36.909  50.941  1.00  0.00    +0.000 C 
ATOM     12  O2  UNL A   1      19.180  37.080  52.089  1.00  0.00    +0.000 O 
BRANCH   11   13
ATOM    107  H15 UNL A   1      20.726  34.814  49.838  1.00  0.00    +0.000 H 
ATOM    108  H16 UNL A   1      23.070  34.441  49.327  1.00  0.00    +0.000 H 
ATOM     13  C9  UNL A   1      21.026  36.721  50.696  1.00  0.00    +0.000 C 
ATOM     14  C10 UNL A   1      21.427  35.532  50.078  1.00  0.00    +0.000 C 
ATOM     15  C11 UNL A   1      22.776  35.316  49.787  1.00  0.00    +0.000 C 
ATOM     16  C12 UNL A   1      23.731  36.286  50.120  1.00  0.00    +0.000 C 
ATOM    113  H21 UNL A   1      24.026  38.173  51.033  1.00  0.00    +0.000 H 
ATOM     27  C19 UNL A   1      23.325  37.461  50.772  1.00  0.00    +0.000 C 
ATOM     28  C20 UNL A   1      21.979  37.673  51.069  1.00  0.00    +0.000 C 
BRANCH   16   17
ATOM    109  H17 UNL A   1      25.923  37.815  50.871  1.00  0.00    +0.000 H 
ATOM    110  H18 UNL A   1      28.155  37.587  50.145  1.00  0.00    +0.000 H 
ATOM    112  H20 UNL A   1      24.801  34.396  48.710  1.00  0.00    +0.000 H 
ATOM     17  C13 UNL A   1      25.160  36.106  49.799  1.00  0.00    +0.000 C 
ATOM     18  C14 UNL A   1      26.180  37.039  50.240  1.00  0.00    +0.000 C 
ATOM     19  C15 UNL A   1      27.447  36.904  49.835  1.00  0.00    +0.000 C 
ATOM     20  N3  UNL A   1      27.822  35.863  49.007  1.00  0.00    +0.000 N 
ATOM     24  C17 UNL A   1      26.927  34.901  48.567  1.00  0.00    +0.000 C 
ATOM     25  O3  UNL A   1      27.196  33.950  47.842  1.00  0.00    +0.000 O 
ATOM     26  C18 UNL A   1      25.516  35.076  49.011  1.00  0.00    +0.000 C 
BRANCH   20   21
ATOM     21  C16 UNL A   1      29.180  35.754  48.541  1.00  0.00    +0.000 C 
ATOM     22  F1  UNL A   1      29.870  36.898  48.764  1.00  0.00    +0.000 F 
ATOM    111  H19 UNL A   1      29.133  35.562  47.489  1.00  0.00    +0.000 H 
ATOM     23  F2  UNL A   1      29.826  34.742  49.171  1.00  0.00    +0.000 F 
ENDBRANCH   20   21
ENDBRANCH   16   17
BRANCH   28   29
ATOM    114  H22 UNL A   1      20.743  39.166  51.589  1.00  0.00    +0.000 H 
ATOM     29  O4  UNL A   1      21.604  38.820  51.712  1.00  0.00    +0.000 O 
ENDBRANCH   28   29
ENDBRANCH   11   13
ENDBRANCH   10   11
ENDBRANCH    9   10
ENDBRANCH    8    9
ENDBRANCH    7    8
ENDBRANCH    6    7
ENDBRANCH    5    6
ENDBRANCH    4    5
ENDBRANCH    3    4
ENDBRANCH    2    3
ENDBRANCH   30    2
ENDBRANCH   34   33
BRANCH   38   39
ATOM     39  C29 UNL A   1      30.108  35.538  44.165  1.00  0.00    +0.000 C 
ATOM     40  C30 UNL A   1      30.509  35.813  42.850  1.00  0.00    +0.000 C 
ATOM     41  F3  UNL A   1      30.055  36.907  42.220  1.00  0.00    +0.000 F 
ATOM     42  C31 UNL A   1      31.368  34.954  42.170  1.00  0.00    +0.000 C 
ATOM     43  F4  UNL A   1      31.718  35.224  40.904  1.00  0.00    +0.000 F 
ATOM     44  C32 UNL A   1      31.864  33.822  42.799  1.00  0.00    +0.000 C 
ATOM     45  F5  UNL A   1      32.710  33.010  42.151  1.00  0.00    +0.000 F 
ATOM     46  C33 UNL A   1      31.483  33.533  44.101  1.00  0.00    +0.000 C 
ATOM     47  F6  UNL A   1      31.973  32.448  44.716  1.00  0.00    +0.000 F 
ATOM     48  C34 UNL A   1      30.602  34.375  44.775  1.00  0.00    +0.000 C 
ATOM     49  F7  UNL A   1      30.254  34.071  46.034  1.00  0.00    +0.000 F 
ENDBRANCH   38   39
BRANCH   55   56
ATOM     65  C45 UNL A   1      31.316  42.737  46.873  1.00  0.00    +0.000 C 
ATOM     66  F12 UNL A   1      30.563  42.968  45.787  1.00  0.00    +0.000 F 
ATOM     56  C40 UNL A   1      30.991  41.691  47.751  1.00  0.00    +0.000 C 
ATOM     57  C41 UNL A   1      31.815  41.483  48.865  1.00  0.00    +0.000 C 
ATOM     58  F8  UNL A   1      31.535  40.503  49.737  1.00  0.00    +0.000 F 
ATOM     59  C42 UNL A   1      32.926  42.291  49.090  1.00  0.00    +0.000 C 
ATOM     60  F9  UNL A   1      33.690  42.087  50.172  1.00  0.00    +0.000 F 
ATOM     61  C43 UNL A   1      33.246  43.302  48.196  1.00  0.00    +0.000 C 
ATOM     62  F10 UNL A   1      34.331  44.060  48.401  1.00  0.00    +0.000 F 
ATOM     63  C44 UNL A   1      32.443  43.525  47.087  1.00  0.00    +0.000 C 
ATOM     64  F11 UNL A   1      32.760  44.489  46.213  1.00  0.00    +0.000 F 
ENDBRANCH   55   56
BRANCH   70   71
ATOM     71  C49 UNL A   1      24.162  41.778  49.207  1.00  0.00    +0.000 C 
ATOM     72  C50 UNL A   1      23.628  42.906  48.566  1.00  0.00    +0.000 C 
ATOM     73  F13 UNL A   1      23.931  43.150  47.282  1.00  0.00    +0.000 F 
ATOM     74  C51 UNL A   1      22.810  43.804  49.248  1.00  0.00    +0.000 C 
ATOM     75  F14 UNL A   1      22.346  44.893  48.622  1.00  0.00    +0.000 F 
ATOM     76  C52 UNL A   1      22.487  43.578  50.577  1.00  0.00    +0.000 C 
ATOM     77  F15 UNL A   1      21.694  44.437  51.232  1.00  0.00    +0.000 F 
ATOM     78  C53 UNL A   1      22.992  42.463  51.230  1.00  0.00    +0.000 C 
ATOM     79  F16 UNL A   1      22.671  42.235  52.510  1.00  0.00    +0.000 F 
ATOM     80  C54 UNL A   1      23.832  41.579  50.556  1.00  0.00    +0.000 C 
ATOM     81  F17 UNL A   1      24.314  40.515  51.215  1.00  0.00    +0.000 F 
ENDBRANCH   70   71
TORSDOF 18
ENDMDL
MODEL 10
REMARK VINA RESULT:      -9.2     39.669     45.752
ROOT
ATOM     34  C25 UNL A   1      22.367  36.453  47.884  1.00  0.00    +0.000 C 
ATOM     35  C26 UNL A   1      23.319  37.618  47.917  1.00  0.00    +0.000 C 
ATOM     36  N4  UNL A   1      23.113  38.843  48.330  1.00  0.00    +0.000 N 
ATOM     37  C27 UNL A   1      24.322  39.506  48.169  1.00  0.00    +0.000 C 
ATOM     38  C28 UNL A   1      24.604  40.812  48.381  1.00  0.00    +0.000 C 
ATOM     50  C35 UNL A   1      23.645  41.783  48.833  1.00  0.00    +0.000 C 
ATOM     51  C36 UNL A   1      23.825  43.140  49.033  1.00  0.00    +0.000 C 
ATOM     52  C37 UNL A   1      22.623  43.675  49.502  1.00  0.00    +0.000 C 
ATOM     53  C38 UNL A   1      21.682  42.660  49.549  1.00  0.00    +0.000 C 
ATOM     54  N5  UNL A   1      22.324  41.502  49.144  1.00  0.00    +0.000 N 
ATOM     55  C39 UNL A   1      20.299  42.743  49.941  1.00  0.00    +0.000 C 
ATOM     67  C46 UNL A   1      19.435  41.700  49.970  1.00  0.00    +0.000 C 
ATOM     68  N6  UNL A   1      19.659  40.374  49.626  1.00  0.00    +0.000 N 
ATOM     69  C47 UNL A   1      18.526  39.751  49.834  1.00  0.00    +0.000 C 
ATOM     70  C48 UNL A   1      18.182  38.304  49.599  1.00  0.00    +0.000 C 
ATOM     82  C55 UNL A   1      19.131  37.468  49.133  1.00  0.00    +0.000 C 
ATOM     83  C56 UNL A   1      18.941  36.052  48.829  1.00  0.00    +0.000 C 
ATOM     84  C57 UNL A   1      20.098  35.539  48.380  1.00  0.00    +0.000 C 
ATOM     85  C58 UNL A   1      21.105  36.600  48.333  1.00  0.00    +0.000 C 
ATOM     86  N7  UNL A   1      20.450  37.702  48.826  1.00  0.00    +0.000 N 
ATOM     87  C59 UNL A   1      17.458  40.611  50.365  1.00  0.00    +0.000 C 
ATOM     88  C60 UNL A   1      18.053  41.797  50.392  1.00  0.00    +0.000 C 
ATOM     89  C61 UNL A   1      25.276  38.539  47.675  1.00  0.00    +0.000 C 
ATOM     90  C62 UNL A   1      24.690  37.373  47.440  1.00  0.00    +0.000 C 
ATOM    117  H25 UNL A   1      24.697  43.667  48.866  1.00  0.00    +0.000 H 
ATOM    118  H26 UNL A   1      22.463  44.660  49.768  1.00  0.00    +0.000 H 
ATOM    119  H27 UNL A   1      21.905  40.613  49.086  1.00  0.00    +0.000 H 
ATOM    120  H28 UNL A   1      18.058  35.530  48.942  1.00  0.00    +0.000 H 
ATOM    121  H29 UNL A   1      20.252  34.556  48.110  1.00  0.00    +0.000 H 
ATOM    122  H30 UNL A   1      20.885  38.576  48.949  1.00  0.00    +0.000 H 
ATOM    123  H31 UNL A   1      16.497  40.360  50.643  1.00  0.00    +0.000 H 
ATOM    124  H32 UNL A   1      17.592  42.674  50.677  1.00  0.00    +0.000 H 
ATOM    125  H33 UNL A   1      26.279  38.730  47.525  1.00  0.00    +0.000 H 
ATOM    126  H34 UNL A   1      25.092  36.516  47.029  1.00  0.00    +0.000 H 
ENDROOT
BRANCH   34   33
ATOM     33  C24 UNL A   1      22.819  35.138  47.360  1.00  0.00    +0.000 C 
ATOM    127  H35 UNL A   1      22.979  34.218  49.257  1.00  0.00    +0.000 H 
ATOM    115  H23 UNL A   1      23.546  33.565  44.478  1.00  0.00    +0.000 H 
ATOM    116  H24 UNL A   1      22.775  35.703  45.322  1.00  0.00    +0.000 H 
ATOM     91  C63 UNL A   1      23.138  34.097  48.245  1.00  0.00    +0.000 C 
ATOM     92  C64 UNL A   1      23.666  32.900  47.763  1.00  0.00    +0.000 C 
ATOM     32  C23 UNL A   1      22.990  34.939  45.981  1.00  0.00    +0.000 C 
ATOM     30  C21 UNL A   1      23.777  32.686  46.386  1.00  0.00    +0.000 C 
ATOM     31  C22 UNL A   1      23.449  33.713  45.495  1.00  0.00    +0.000 C 
ATOM    128  H36 UNL A   1      23.974  32.171  48.424  1.00  0.00    +0.000 H 
BRANCH   30    2
ATOM      1  O1  UNL A   1      25.513  31.279  45.676  1.00  0.00    +0.000 O 
ATOM      2  C1  UNL A   1      24.302  31.416  45.833  1.00  0.00    +0.000 C 
BRANCH    2    3
ATOM      3  N1  UNL A   1      23.453  30.399  45.483  1.00  0.00    +0.000 N 
ATOM     93  H1  UNL A   1      23.660  29.958  44.628  1.00  0.00    +0.000 H 
BRANCH    3    4
ATOM      4  C2  UNL A   1      22.296  29.873  46.183  1.00  0.00    +0.000 C 
ATOM     94  H2  UNL A   1      21.856  30.660  46.759  1.00  0.00    +0.000 H 
ATOM     95  H3  UNL A   1      22.630  29.069  46.806  1.00  0.00    +0.000 H 
BRANCH    4    5
ATOM     97  H5  UNL A   1      21.758  29.078  44.325  1.00  0.00    +0.000 H 
ATOM      5  C3  UNL A   1      21.242  29.315  45.233  1.00  0.00    +0.000 C 
ATOM     96  H4  UNL A   1      20.790  28.466  45.703  1.00  0.00    +0.000 H 
BRANCH    5    6
ATOM     98  H6  UNL A   1      19.389  30.271  45.617  1.00  0.00    +0.000 H 
ATOM     99  H7  UNL A   1      19.767  29.955  43.892  1.00  0.00    +0.000 H 
ATOM      6  C4  UNL A   1      20.128  30.289  44.843  1.00  0.00    +0.000 C 
BRANCH    6    7
ATOM    100  H8  UNL A   1      20.154  32.078  43.706  1.00  0.00    +0.000 H 
ATOM    101  H9  UNL A   1      21.629  31.738  44.668  1.00  0.00    +0.000 H 
ATOM      7  C5  UNL A   1      20.559  31.743  44.638  1.00  0.00    +0.000 C 
BRANCH    7    8
ATOM    102  H10 UNL A   1      20.718  33.606  45.643  1.00  0.00    +0.000 H 
ATOM    103  H11 UNL A   1      20.232  32.211  46.655  1.00  0.00    +0.000 H 
ATOM      8  C6  UNL A   1      20.114  32.726  45.724  1.00  0.00    +0.000 C 
BRANCH    8    9
ATOM      9  C7  UNL A   1      18.651  33.149  45.657  1.00  0.00    +0.000 C 
ATOM    105  H13 UNL A   1      18.052  32.309  45.944  1.00  0.00    +0.000 H 
ATOM    104  H12 UNL A   1      18.500  33.978  46.317  1.00  0.00    +0.000 H 
BRANCH    9   10
ATOM     10  N2  UNL A   1      18.254  33.540  44.317  1.00  0.00    +0.000 N 
ATOM    106  H14 UNL A   1      18.926  34.041  43.799  1.00  0.00    +0.000 H 
BRANCH   10   11
ATOM     11  C8  UNL A   1      17.061  33.303  43.681  1.00  0.00    +0.000 C 
ATOM     12  O2  UNL A   1      16.362  34.238  43.298  1.00  0.00    +0.000 O 
BRANCH   11   13
ATOM    107  H15 UNL A   1      16.562  31.397  45.422  1.00  0.00    +0.000 H 
ATOM    108  H16 UNL A   1      15.820  29.119  45.028  1.00  0.00    +0.000 H 
ATOM     13  C9  UNL A   1      16.654  31.918  43.377  1.00  0.00    +0.000 C 
ATOM     14  C10 UNL A   1      16.420  31.060  44.457  1.00  0.00    +0.000 C 
ATOM     15  C11 UNL A   1      15.996  29.749  44.230  1.00  0.00    +0.000 C 
ATOM     16  C12 UNL A   1      15.811  29.286  42.920  1.00  0.00    +0.000 C 
ATOM    113  H21 UNL A   1      15.963  29.802  40.873  1.00  0.00    +0.000 H 
ATOM     27  C19 UNL A   1      16.082  30.142  41.840  1.00  0.00    +0.000 C 
ATOM     28  C20 UNL A   1      16.513  31.448  42.068  1.00  0.00    +0.000 C 
BRANCH   16   17
ATOM    109  H17 UNL A   1      15.535  27.124  44.638  1.00  0.00    +0.000 H 
ATOM    110  H18 UNL A   1      14.965  24.904  44.081  1.00  0.00    +0.000 H 
ATOM    112  H20 UNL A   1      14.987  28.336  40.657  1.00  0.00    +0.000 H 
ATOM     17  C13 UNL A   1      15.334  27.918  42.644  1.00  0.00    +0.000 C 
ATOM     18  C14 UNL A   1      15.300  26.886  43.662  1.00  0.00    +0.000 C 
ATOM     19  C15 UNL A   1      14.968  25.629  43.346  1.00  0.00    +0.000 C 
ATOM     20  N3  UNL A   1      14.629  25.287  42.051  1.00  0.00    +0.000 N 
ATOM     24  C17 UNL A   1      14.595  26.212  41.021  1.00  0.00    +0.000 C 
ATOM     25  O3  UNL A   1      14.294  25.976  39.855  1.00  0.00    +0.000 O 
ATOM     26  C18 UNL A   1      14.985  27.603  41.384  1.00  0.00    +0.000 C 
BRANCH   20   21
ATOM     21  C16 UNL A   1      14.318  23.922  41.715  1.00  0.00    +0.000 C 
ATOM     22  F1  UNL A   1      15.435  23.226  41.397  1.00  0.00    +0.000 F 
ATOM    111  H19 UNL A   1      13.660  23.952  40.871  1.00  0.00    +0.000 H 
ATOM     23  F2  UNL A   1      13.713  23.295  42.754  1.00  0.00    +0.000 F 
ENDBRANCH   20   21
ENDBRANCH   16   17
BRANCH   28   29
ATOM    114  H22 UNL A   1      17.665  32.406  40.734  1.00  0.00    +0.000 H 
ATOM     29  O4  UNL A   1      16.780  32.263  41.003  1.00  0.00    +0.000 O 
ENDBRANCH   28   29
ENDBRANCH   11   13
ENDBRANCH   10   11
ENDBRANCH    9   10
ENDBRANCH    8    9
ENDBRANCH    7    8
ENDBRANCH    6    7
ENDBRANCH    5    6
ENDBRANCH    4    5
ENDBRANCH    3    4
ENDBRANCH    2    3
ENDBRANCH   30    2
ENDBRANCH   34   33
BRANCH   38   39
ATOM     39  C29 UNL A   1      25.999  41.288  48.101  1.00  0.00    +0.000 C 
ATOM     40  C30 UNL A   1      26.927  41.468  49.136  1.00  0.00    +0.000 C 
ATOM     41  F3  UNL A   1      26.553  41.310  50.415  1.00  0.00    +0.000 F 
ATOM     42  C31 UNL A   1      28.244  41.826  48.862  1.00  0.00    +0.000 C 
ATOM     43  F4  UNL A   1      29.108  42.017  49.869  1.00  0.00    +0.000 F 
ATOM     44  C32 UNL A   1      28.664  41.984  47.550  1.00  0.00    +0.000 C 
ATOM     45  F5  UNL A   1      29.938  42.306  47.287  1.00  0.00    +0.000 F 
ATOM     46  C33 UNL A   1      27.763  41.808  46.510  1.00  0.00    +0.000 C 
ATOM     47  F6  UNL A   1      28.171  41.945  45.241  1.00  0.00    +0.000 F 
ATOM     48  C34 UNL A   1      26.438  41.476  46.782  1.00  0.00    +0.000 C 
ATOM     49  F7  UNL A   1      25.591  41.309  45.756  1.00  0.00    +0.000 F 
ENDBRANCH   38   39
BRANCH   55   56
ATOM     65  C45 UNL A   1      19.280  44.975  49.374  1.00  0.00    +0.000 C 
ATOM     66  F12 UNL A   1      19.167  44.583  48.096  1.00  0.00    +0.000 F 
ATOM     56  C40 UNL A   1      19.785  44.094  50.343  1.00  0.00    +0.000 C 
ATOM     57  C41 UNL A   1      19.895  44.554  51.662  1.00  0.00    +0.000 C 
ATOM     58  F8  UNL A   1      20.361  43.743  52.623  1.00  0.00    +0.000 F 
ATOM     59  C42 UNL A   1      19.514  45.850  51.998  1.00  0.00    +0.000 C 
ATOM     60  F9  UNL A   1      19.608  46.264  53.269  1.00  0.00    +0.000 F 
ATOM     61  C43 UNL A   1      19.042  46.714  51.021  1.00  0.00    +0.000 C 
ATOM     62  F10 UNL A   1      18.701  47.969  51.342  1.00  0.00    +0.000 F 
ATOM     63  C44 UNL A   1      18.926  46.278  49.709  1.00  0.00    +0.000 C 
ATOM     64  F11 UNL A   1      18.486  47.117  48.761  1.00  0.00    +0.000 F 
ENDBRANCH   55   56
BRANCH   70   71
ATOM     71  C49 UNL A   1      16.804  37.800  49.837  1.00  0.00    +0.000 C 
ATOM     72  C50 UNL A   1      16.340  37.563  51.139  1.00  0.00    +0.000 C 
ATOM     73  F13 UNL A   1      17.152  37.769  52.186  1.00  0.00    +0.000 F 
ATOM     74  C51 UNL A   1      15.053  37.081  51.369  1.00  0.00    +0.000 C 
ATOM     75  F14 UNL A   1      14.649  36.827  52.621  1.00  0.00    +0.000 F 
ATOM     76  C52 UNL A   1      14.195  36.853  50.305  1.00  0.00    +0.000 C 
ATOM     77  F15 UNL A   1      12.955  36.397  50.526  1.00  0.00    +0.000 F 
ATOM     78  C53 UNL A   1      14.627  37.092  49.008  1.00  0.00    +0.000 C 
ATOM     79  F16 UNL A   1      13.796  36.886  47.978  1.00  0.00    +0.000 F 
ATOM     80  C54 UNL A   1      15.922  37.549  48.776  1.00  0.00    +0.000 C 
ATOM     81  F17 UNL A   1      16.316  37.761  47.511  1.00  0.00    +0.000 F 
ENDBRANCH   70   71
TORSDOF 18
ENDMDL
