MODEL 1
REMARK VINA RESULT:      -8.9      0.000      0.000
ROOT
ATOM    129  H34 UNL A   1      11.487  51.514   5.047  1.00  0.00    +0.000 H 
ATOM    130  H35 UNL A   1      14.477  52.427   2.307  1.00  0.00    +0.000 H 
ATOM    131  H36 UNL A   1      15.657  57.249   3.101  1.00  0.00    +0.000 H 
ATOM    132  H37 UNL A   1      17.304  57.032   1.154  1.00  0.00    +0.000 H 
ATOM    133  H38 UNL A   1      15.094  47.274   0.253  1.00  0.00    +0.000 H 
ATOM    134  H39 UNL A   1      13.131  47.573   1.870  1.00  0.00    +0.000 H 
ATOM     37  C28 UNL A   1      12.987  50.173   3.027  1.00  0.00    +0.000 C 
ATOM     38  C29 UNL A   1      13.928  49.695   1.957  1.00  0.00    +0.000 C 
ATOM     39  N5  UNL A   1      14.870  50.352   1.328  1.00  0.00    +0.000 N 
ATOM     40  C30 UNL A   1      15.469  49.432   0.478  1.00  0.00    +0.000 C 
ATOM     41  C31 UNL A   1      16.461  49.634  -0.423  1.00  0.00    +0.000 C 
ATOM     53  C38 UNL A   1      17.087  50.907  -0.666  1.00  0.00    +0.000 C 
ATOM     54  C39 UNL A   1      18.057  51.228  -1.601  1.00  0.00    +0.000 C 
ATOM     55  C40 UNL A   1      18.386  52.579  -1.443  1.00  0.00    +0.000 C 
ATOM     56  C41 UNL A   1      17.592  53.110  -0.439  1.00  0.00    +0.000 C 
ATOM     57  N6  UNL A   1      16.804  52.071   0.033  1.00  0.00    +0.000 N 
ATOM     58  C42 UNL A   1      17.554  54.462   0.055  1.00  0.00    +0.000 C 
ATOM     70  C49 UNL A   1      16.739  54.907   1.042  1.00  0.00    +0.000 C 
ATOM     71  N7  UNL A   1      15.788  54.208   1.771  1.00  0.00    +0.000 N 
ATOM     72  C50 UNL A   1      15.273  55.069   2.613  1.00  0.00    +0.000 C 
ATOM     73  C51 UNL A   1      14.181  54.868   3.628  1.00  0.00    +0.000 C 
ATOM     85  C58 UNL A   1      13.585  53.664   3.724  1.00  0.00    +0.000 C 
ATOM     86  C59 UNL A   1      12.511  53.323   4.653  1.00  0.00    +0.000 C 
ATOM     87  C60 UNL A   1      12.199  52.025   4.502  1.00  0.00    +0.000 C 
ATOM     88  C61 UNL A   1      13.029  51.453   3.441  1.00  0.00    +0.000 C 
ATOM     89  N8  UNL A   1      13.814  52.502   3.030  1.00  0.00    +0.000 N 
ATOM     90  C62 UNL A   1      15.861  56.413   2.531  1.00  0.00    +0.000 C 
ATOM     91  C63 UNL A   1      16.721  56.270   1.533  1.00  0.00    +0.000 C 
ATOM     92  C64 UNL A   1      14.816  48.161   0.703  1.00  0.00    +0.000 C 
ATOM     93  C65 UNL A   1      13.813  48.283   1.561  1.00  0.00    +0.000 C 
ATOM    125  H30 UNL A   1      18.465  50.583  -2.294  1.00  0.00    +0.000 H 
ATOM    126  H31 UNL A   1      19.100  53.094  -1.983  1.00  0.00    +0.000 H 
ATOM    127  H32 UNL A   1      16.141  52.150   0.756  1.00  0.00    +0.000 H 
ATOM    128  H33 UNL A   1      12.065  53.973   5.317  1.00  0.00    +0.000 H 
ENDROOT
BRANCH   37   36
ATOM     33  C24 UNL A   1      10.289  47.388   4.859  1.00  0.00    +0.000 C 
ATOM     34  C25 UNL A   1      11.563  47.577   5.404  1.00  0.00    +0.000 C 
ATOM     35  C26 UNL A   1      12.438  48.502   4.828  1.00  0.00    +0.000 C 
ATOM     36  C27 UNL A   1      12.055  49.220   3.683  1.00  0.00    +0.000 C 
ATOM    135  H40 UNL A   1      10.481  49.553   2.311  1.00  0.00    +0.000 H 
ATOM    136  H41 UNL A   1       8.908  48.080   3.420  1.00  0.00    +0.000 H 
ATOM    123  H28 UNL A   1      11.857  47.035   6.232  1.00  0.00    +0.000 H 
ATOM    124  H29 UNL A   1      13.368  48.657   5.244  1.00  0.00    +0.000 H 
ATOM     94  C66 UNL A   1      10.769  49.036   3.157  1.00  0.00    +0.000 C 
ATOM     95  C67 UNL A   1       9.875  48.160   3.770  1.00  0.00    +0.000 C 
BRANCH   33   31
ATOM     31  C23 UNL A   1       9.378  46.406   5.494  1.00  0.00    +0.000 C 
ATOM     32  O3  UNL A   1       8.828  45.556   4.807  1.00  0.00    +0.000 O 
BRANCH   31   30
ATOM    122  H27 UNL A   1       8.513  47.118   7.157  1.00  0.00    +0.000 H 
ATOM     30  N4  UNL A   1       9.159  46.441   6.850  1.00  0.00    +0.000 N 
BRANCH   30   29
ATOM    121  H26 UNL A   1      10.302  44.833   7.426  1.00  0.00    +0.000 H 
ATOM     29  C22 UNL A   1       9.749  45.619   7.895  1.00  0.00    +0.000 C 
ATOM    120  H25 UNL A   1       8.966  45.227   8.510  1.00  0.00    +0.000 H 
BRANCH   29   28
ATOM     28  C21 UNL A   1      10.713  46.416   8.772  1.00  0.00    +0.000 C 
ATOM    118  H23 UNL A   1      11.141  47.194   8.174  1.00  0.00    +0.000 H 
ATOM    119  H24 UNL A   1      10.137  46.781   9.596  1.00  0.00    +0.000 H 
BRANCH   28   27
ATOM     27  C20 UNL A   1      11.861  45.599   9.381  1.00  0.00    +0.000 C 
ATOM    116  H21 UNL A   1      11.741  44.582   9.072  1.00  0.00    +0.000 H 
ATOM    117  H22 UNL A   1      12.763  46.054   9.031  1.00  0.00    +0.000 H 
BRANCH   27   26
ATOM     26  C19 UNL A   1      11.947  45.619  10.912  1.00  0.00    +0.000 C 
ATOM    115  H20 UNL A   1      12.980  45.753  11.158  1.00  0.00    +0.000 H 
ATOM    114  H19 UNL A   1      11.548  44.698  11.282  1.00  0.00    +0.000 H 
BRANCH   26   25
ATOM     25  C18 UNL A   1      11.186  46.772  11.573  1.00  0.00    +0.000 C 
ATOM    113  H18 UNL A   1      10.158  46.476  11.616  1.00  0.00    +0.000 H 
ATOM    112  H17 UNL A   1      11.339  47.654  10.988  1.00  0.00    +0.000 H 
BRANCH   25   24
ATOM    110  H15 UNL A   1      11.533  46.178  13.605  1.00  0.00    +0.000 H 
ATOM    111  H16 UNL A   1      12.640  47.401  13.015  1.00  0.00    +0.000 H 
ATOM     24  C17 UNL A   1      11.623  47.069  13.018  1.00  0.00    +0.000 C 
BRANCH   24   23
ATOM    109  H14 UNL A   1       9.832  47.890  13.689  1.00  0.00    +0.000 H 
ATOM     23  N3  UNL A   1      10.787  48.106  13.589  1.00  0.00    +0.000 N 
BRANCH   23   21
ATOM     21  C16 UNL A   1      11.178  49.359  14.008  1.00  0.00    +0.000 C 
ATOM     22  O2  UNL A   1      10.537  49.915  14.899  1.00  0.00    +0.000 O 
BRANCH   21    2
ATOM      2  C2  UNL A   1      12.233  50.187  13.294  1.00  0.00    +0.000 C 
BRANCH    2    1
ATOM      1  C1  UNL A   1      13.442  50.494  14.146  1.00  0.00    +0.000 C 
ATOM     98  H3  UNL A   1      13.501  49.787  14.947  1.00  0.00    +0.000 H 
ATOM     97  H2  UNL A   1      14.326  50.429  13.547  1.00  0.00    +0.000 H 
ATOM     96  H1  UNL A   1      13.354  51.481  14.548  1.00  0.00    +0.000 H 
ENDBRANCH    2    1
BRANCH    2    3
ATOM      3  N1  UNL A   1      12.258  50.592  12.056  1.00  0.00    +0.000 N 
BRANCH    3    4
ATOM      4  O1  UNL A   1      12.945  49.736  11.202  1.00  0.00    +0.000 O 
BRANCH    4    5
ATOM     99  H4  UNL A   1      13.351  51.491  10.252  1.00  0.00    +0.000 H 
ATOM    100  H5  UNL A   1      13.395  49.987   9.264  1.00  0.00    +0.000 H 
ATOM      5  C3  UNL A   1      13.651  50.466  10.185  1.00  0.00    +0.000 C 
BRANCH    5    6
ATOM    101  H6  UNL A   1      15.278  50.593  12.360  1.00  0.00    +0.000 H 
ATOM      6  C4  UNL A   1      15.169  50.425  10.253  1.00  0.00    +0.000 C 
ATOM      7  C5  UNL A   1      15.827  50.561  11.487  1.00  0.00    +0.000 C 
ATOM      8  C6  UNL A   1      17.218  50.654  11.539  1.00  0.00    +0.000 C 
ATOM    102  H7  UNL A   1      17.697  50.731  12.449  1.00  0.00    +0.000 H 
ATOM     10  C8  UNL A   1      17.314  50.486   9.130  1.00  0.00    +0.000 C 
ATOM     11  C9  UNL A   1      15.929  50.300   9.066  1.00  0.00    +0.000 C 
ATOM    104  H9  UNL A   1      17.867  50.508   8.259  1.00  0.00    +0.000 H 
ATOM      9  C7  UNL A   1      17.958  50.643  10.360  1.00  0.00    +0.000 C 
ATOM    103  H8  UNL A   1      18.983  50.752  10.395  1.00  0.00    +0.000 H 
BRANCH   11   12
ATOM    105  H10 UNL A   1      14.409  50.611   7.735  1.00  0.00    +0.000 H 
ATOM     12  N2  UNL A   1      15.236  50.089   7.847  1.00  0.00    +0.000 N 
BRANCH   12   13
ATOM    106  H11 UNL A   1      16.561  49.466   3.547  1.00  0.00    +0.000 H 
ATOM    107  H12 UNL A   1      16.289  47.058   3.662  1.00  0.00    +0.000 H 
ATOM    108  H13 UNL A   1      15.504  46.031   5.713  1.00  0.00    +0.000 H 
ATOM     13  C10 UNL A   1      15.567  49.233   6.769  1.00  0.00    +0.000 C 
ATOM     14  C11 UNL A   1      15.982  49.810   5.549  1.00  0.00    +0.000 C 
ATOM     15 Cl1  UNL A   1      16.172  51.525   5.385  1.00  0.00    +0.000 Cl
ATOM     16  C12 UNL A   1      16.245  49.023   4.424  1.00  0.00    +0.000 C 
ATOM     17  C13 UNL A   1      16.080  47.643   4.486  1.00  0.00    +0.000 C 
ATOM     18  C14 UNL A   1      15.635  47.054   5.668  1.00  0.00    +0.000 C 
ATOM     19  C15 UNL A   1      15.360  47.841   6.794  1.00  0.00    +0.000 C 
ATOM     20 Cl2  UNL A   1      14.715  47.029   8.178  1.00  0.00    +0.000 Cl
ENDBRANCH   12   13
ENDBRANCH   11   12
ENDBRANCH    5    6
ENDBRANCH    4    5
ENDBRANCH    3    4
ENDBRANCH    2    3
ENDBRANCH   21    2
ENDBRANCH   23   21
ENDBRANCH   24   23
ENDBRANCH   25   24
ENDBRANCH   26   25
ENDBRANCH   27   26
ENDBRANCH   28   27
ENDBRANCH   29   28
ENDBRANCH   30   29
ENDBRANCH   31   30
ENDBRANCH   33   31
ENDBRANCH   37   36
BRANCH   41   42
ATOM     42  C32 UNL A   1      16.928  48.450  -1.218  1.00  0.00    +0.000 C 
ATOM     43  C33 UNL A   1      16.269  48.046  -2.389  1.00  0.00    +0.000 C 
ATOM     44  F1  UNL A   1      15.167  48.692  -2.800  1.00  0.00    +0.000 F 
ATOM     45  C34 UNL A   1      16.718  46.950  -3.122  1.00  0.00    +0.000 C 
ATOM     46  F2  UNL A   1      16.045  46.554  -4.211  1.00  0.00    +0.000 F 
ATOM     47  C35 UNL A   1      17.852  46.261  -2.719  1.00  0.00    +0.000 C 
ATOM     48  F3  UNL A   1      18.286  45.210  -3.431  1.00  0.00    +0.000 F 
ATOM     49  C36 UNL A   1      18.531  46.656  -1.578  1.00  0.00    +0.000 C 
ATOM     50  F4  UNL A   1      19.634  45.998  -1.195  1.00  0.00    +0.000 F 
ATOM     51  C37 UNL A   1      18.069  47.734  -0.826  1.00  0.00    +0.000 C 
ATOM     52  F5  UNL A   1      18.741  48.083   0.281  1.00  0.00    +0.000 F 
ENDBRANCH   41   42
BRANCH   58   59
ATOM     65  F8  UNL A   1      21.019  58.173  -2.418  1.00  0.00    +0.000 F 
ATOM     66  C47 UNL A   1      19.040  56.886  -2.471  1.00  0.00    +0.000 C 
ATOM     67  F9  UNL A   1      18.749  57.358  -3.691  1.00  0.00    +0.000 F 
ATOM     68  C48 UNL A   1      18.177  55.988  -1.850  1.00  0.00    +0.000 C 
ATOM     69  F10 UNL A   1      17.057  55.620  -2.491  1.00  0.00    +0.000 F 
ATOM     59  C43 UNL A   1      18.471  55.464  -0.582  1.00  0.00    +0.000 C 
ATOM     60  C44 UNL A   1      19.656  55.877   0.043  1.00  0.00    +0.000 C 
ATOM     61  F6  UNL A   1      19.973  55.416   1.263  1.00  0.00    +0.000 F 
ATOM     62  C45 UNL A   1      20.504  56.795  -0.570  1.00  0.00    +0.000 C 
ATOM     63  F7  UNL A   1      21.610  57.210   0.064  1.00  0.00    +0.000 F 
ATOM     64  C46 UNL A   1      20.199  57.294  -1.828  1.00  0.00    +0.000 C 
ENDBRANCH   58   59
BRANCH   73   74
ATOM     74  C52 UNL A   1      13.733  55.986   4.495  1.00  0.00    +0.000 C 
ATOM     75  C53 UNL A   1      14.425  56.304   5.672  1.00  0.00    +0.000 C 
ATOM     76  F11 UNL A   1      15.492  55.577   6.037  1.00  0.00    +0.000 F 
ATOM     77  C54 UNL A   1      14.004  57.344   6.497  1.00  0.00    +0.000 C 
ATOM     78  F12 UNL A   1      14.660  57.599   7.637  1.00  0.00    +0.000 F 
ATOM     79  C55 UNL A   1      12.898  58.103   6.149  1.00  0.00    +0.000 C 
ATOM     80  F13 UNL A   1      12.496  59.106   6.940  1.00  0.00    +0.000 F 
ATOM     81  C56 UNL A   1      12.206  57.819   4.981  1.00  0.00    +0.000 C 
ATOM     82  F14 UNL A   1      11.145  58.560   4.633  1.00  0.00    +0.000 F 
ATOM     83  C57 UNL A   1      12.612  56.763   4.167  1.00  0.00    +0.000 C 
ATOM     84  F15 UNL A   1      11.919  56.503   3.049  1.00  0.00    +0.000 F 
ENDBRANCH   73   74
TORSDOF 22
ENDMDL
MODEL 2
REMARK VINA RESULT:      -8.9      3.273      7.994
ROOT
ATOM    129  H34 UNL A   1      14.966  56.560   4.613  1.00  0.00    +0.000 H 
ATOM    130  H35 UNL A   1      15.161  52.774   2.909  1.00  0.00    +0.000 H 
ATOM    131  H36 UNL A   1      18.437  53.132  -0.888  1.00  0.00    +0.000 H 
ATOM    132  H37 UNL A   1      17.934  50.671  -1.383  1.00  0.00    +0.000 H 
ATOM    133  H38 UNL A   1      11.901  50.198   6.636  1.00  0.00    +0.000 H 
ATOM    134  H39 UNL A   1      12.026  52.744   6.876  1.00  0.00    +0.000 H 
ATOM     37  C28 UNL A   1      13.852  53.977   5.067  1.00  0.00    +0.000 C 
ATOM     38  C29 UNL A   1      13.444  52.530   5.118  1.00  0.00    +0.000 C 
ATOM     39  N5  UNL A   1      13.825  51.535   4.358  1.00  0.00    +0.000 N 
ATOM     40  C30 UNL A   1      13.187  50.409   4.862  1.00  0.00    +0.000 C 
ATOM     41  C31 UNL A   1      13.215  49.139   4.389  1.00  0.00    +0.000 C 
ATOM     53  C38 UNL A   1      13.945  48.726   3.220  1.00  0.00    +0.000 C 
ATOM     54  C39 UNL A   1      13.987  47.477   2.624  1.00  0.00    +0.000 C 
ATOM     55  C40 UNL A   1      14.858  47.542   1.532  1.00  0.00    +0.000 C 
ATOM     56  C41 UNL A   1      15.327  48.841   1.421  1.00  0.00    +0.000 C 
ATOM     57  N6  UNL A   1      14.763  49.556   2.466  1.00  0.00    +0.000 N 
ATOM     58  C42 UNL A   1      16.223  49.391   0.437  1.00  0.00    +0.000 C 
ATOM     70  C49 UNL A   1      16.631  50.683   0.392  1.00  0.00    +0.000 C 
ATOM     71  N7  UNL A   1      16.296  51.734   1.234  1.00  0.00    +0.000 N 
ATOM     72  C50 UNL A   1      16.952  52.776   0.788  1.00  0.00    +0.000 C 
ATOM     73  C51 UNL A   1      16.947  54.192   1.299  1.00  0.00    +0.000 C 
ATOM     85  C58 UNL A   1      16.161  54.511   2.345  1.00  0.00    +0.000 C 
ATOM     86  C59 UNL A   1      16.047  55.837   2.944  1.00  0.00    +0.000 C 
ATOM     87  C60 UNL A   1      15.212  55.772   3.995  1.00  0.00    +0.000 C 
ATOM     88  C61 UNL A   1      14.707  54.404   4.121  1.00  0.00    +0.000 C 
ATOM     89  N8  UNL A   1      15.316  53.729   3.092  1.00  0.00    +0.000 N 
ATOM     90  C62 UNL A   1      17.803  52.497  -0.378  1.00  0.00    +0.000 C 
ATOM     91  C63 UNL A   1      17.540  51.217  -0.601  1.00  0.00    +0.000 C 
ATOM     92  C64 UNL A   1      12.430  50.834   6.019  1.00  0.00    +0.000 C 
ATOM     93  C65 UNL A   1      12.503  52.147   6.182  1.00  0.00    +0.000 C 
ATOM    125  H30 UNL A   1      13.465  46.642   2.932  1.00  0.00    +0.000 H 
ATOM    126  H31 UNL A   1      15.110  46.755   0.912  1.00  0.00    +0.000 H 
ATOM    127  H32 UNL A   1      14.919  50.511   2.647  1.00  0.00    +0.000 H 
ATOM    128  H33 UNL A   1      16.529  56.687   2.614  1.00  0.00    +0.000 H 
ENDROOT
BRANCH   37   36
ATOM     33  C24 UNL A   1      12.520  56.751   8.054  1.00  0.00    +0.000 C 
ATOM     34  C25 UNL A   1      11.723  56.510   6.930  1.00  0.00    +0.000 C 
ATOM     35  C26 UNL A   1      12.139  55.588   5.965  1.00  0.00    +0.000 C 
ATOM     36  C27 UNL A   1      13.370  54.925   6.104  1.00  0.00    +0.000 C 
ATOM    135  H40 UNL A   1      15.060  54.684   7.351  1.00  0.00    +0.000 H 
ATOM    136  H41 UNL A   1      14.250  56.150   9.104  1.00  0.00    +0.000 H 
ATOM    123  H28 UNL A   1      10.829  57.012   6.813  1.00  0.00    +0.000 H 
ATOM    124  H29 UNL A   1      11.541  55.394   5.149  1.00  0.00    +0.000 H 
ATOM     94  C66 UNL A   1      14.150  55.160   7.244  1.00  0.00    +0.000 C 
ATOM     95  C67 UNL A   1      13.705  56.033   8.236  1.00  0.00    +0.000 C 
BRANCH   33   31
ATOM     31  C23 UNL A   1      12.052  57.728   9.065  1.00  0.00    +0.000 C 
ATOM     32  O3  UNL A   1      12.428  58.891   9.005  1.00  0.00    +0.000 O 
BRANCH   31   30
ATOM    122  H27 UNL A   1      10.825  58.061  10.616  1.00  0.00    +0.000 H 
ATOM     30  N4  UNL A   1      11.191  57.335  10.062  1.00  0.00    +0.000 N 
BRANCH   30   29
ATOM    121  H26 UNL A   1      10.749  55.402   9.523  1.00  0.00    +0.000 H 
ATOM     29  C22 UNL A   1      10.747  55.995  10.413  1.00  0.00    +0.000 C 
ATOM    120  H25 UNL A   1       9.766  56.055  10.835  1.00  0.00    +0.000 H 
BRANCH   29   28
ATOM     28  C21 UNL A   1      11.681  55.331  11.424  1.00  0.00    +0.000 C 
ATOM    118  H23 UNL A   1      12.464  56.022  11.657  1.00  0.00    +0.000 H 
ATOM    119  H24 UNL A   1      11.074  55.075  12.268  1.00  0.00    +0.000 H 
BRANCH   28   27
ATOM     27  C20 UNL A   1      12.326  54.022  10.949  1.00  0.00    +0.000 C 
ATOM    116  H21 UNL A   1      11.883  53.219  11.497  1.00  0.00    +0.000 H 
ATOM    117  H22 UNL A   1      12.151  53.975   9.894  1.00  0.00    +0.000 H 
BRANCH   27   26
ATOM     26  C19 UNL A   1      13.847  53.932  11.126  1.00  0.00    +0.000 C 
ATOM    115  H20 UNL A   1      14.210  54.938  11.166  1.00  0.00    +0.000 H 
ATOM    114  H19 UNL A   1      14.247  53.377  10.303  1.00  0.00    +0.000 H 
BRANCH   26   25
ATOM     25  C18 UNL A   1      14.292  53.254  12.424  1.00  0.00    +0.000 C 
ATOM    113  H18 UNL A   1      13.460  53.297  13.095  1.00  0.00    +0.000 H 
ATOM    112  H17 UNL A   1      15.152  53.772  12.795  1.00  0.00    +0.000 H 
BRANCH   25   24
ATOM    110  H15 UNL A   1      14.394  51.241  13.159  1.00  0.00    +0.000 H 
ATOM    111  H16 UNL A   1      14.119  51.362  11.433  1.00  0.00    +0.000 H 
ATOM     24  C17 UNL A   1      14.657  51.767  12.265  1.00  0.00    +0.000 C 
BRANCH   24   23
ATOM    109  H14 UNL A   1      16.676  52.101  12.648  1.00  0.00    +0.000 H 
ATOM     23  N3  UNL A   1      16.079  51.625  12.026  1.00  0.00    +0.000 N 
BRANCH   23   21
ATOM     21  C16 UNL A   1      16.691  50.899  11.027  1.00  0.00    +0.000 C 
ATOM     22  O2  UNL A   1      17.915  50.782  11.041  1.00  0.00    +0.000 O 
BRANCH   21    2
ATOM      2  C2  UNL A   1      15.962  50.403   9.788  1.00  0.00    +0.000 C 
BRANCH    2    1
ATOM      1  C1  UNL A   1      15.666  51.491   8.784  1.00  0.00    +0.000 C 
ATOM     98  H3  UNL A   1      16.239  51.322   7.897  1.00  0.00    +0.000 H 
ATOM     97  H2  UNL A   1      14.623  51.480   8.543  1.00  0.00    +0.000 H 
ATOM     96  H1  UNL A   1      15.926  52.442   9.200  1.00  0.00    +0.000 H 
ENDBRANCH    2    1
BRANCH    2    3
ATOM      3  N1  UNL A   1      15.636  49.185   9.462  1.00  0.00    +0.000 N 
BRANCH    3    4
ATOM      4  O1  UNL A   1      15.211  48.414  10.538  1.00  0.00    +0.000 O 
BRANCH    4    5
ATOM     99  H4  UNL A   1      13.752  47.071  11.005  1.00  0.00    +0.000 H 
ATOM    100  H5  UNL A   1      13.899  47.565   9.280  1.00  0.00    +0.000 H 
ATOM      5  C3  UNL A   1      13.902  47.868  10.305  1.00  0.00    +0.000 C 
BRANCH    5    6
ATOM    101  H6  UNL A   1      12.591  49.269   8.378  1.00  0.00    +0.000 H 
ATOM      6  C4  UNL A   1      12.732  48.829  10.444  1.00  0.00    +0.000 C 
ATOM      7  C5  UNL A   1      12.230  49.500   9.316  1.00  0.00    +0.000 C 
ATOM      8  C6  UNL A   1      11.246  50.479   9.458  1.00  0.00    +0.000 C 
ATOM    102  H7  UNL A   1      10.863  50.952   8.624  1.00  0.00    +0.000 H 
ATOM     10  C8  UNL A   1      11.257  50.137  11.850  1.00  0.00    +0.000 C 
ATOM     11  C9  UNL A   1      12.177  49.091  11.718  1.00  0.00    +0.000 C 
ATOM    104  H9  UNL A   1      10.928  50.412  12.789  1.00  0.00    +0.000 H 
ATOM      9  C7  UNL A   1      10.780  50.815  10.726  1.00  0.00    +0.000 C 
ATOM    103  H8  UNL A   1      10.081  51.566  10.835  1.00  0.00    +0.000 H 
BRANCH   11   12
ATOM    105  H10 UNL A   1      13.633  48.342  12.942  1.00  0.00    +0.000 H 
ATOM     12  N2  UNL A   1      12.655  48.343  12.823  1.00  0.00    +0.000 N 
BRANCH   12   13
ATOM    106  H11 UNL A   1      10.754  47.956  16.931  1.00  0.00    +0.000 H 
ATOM    107  H12 UNL A   1      10.139  45.634  16.585  1.00  0.00    +0.000 H 
ATOM    108  H13 UNL A   1      10.705  44.537  14.498  1.00  0.00    +0.000 H 
ATOM     13  C10 UNL A   1      11.925  47.598  13.781  1.00  0.00    +0.000 C 
ATOM     14  C11 UNL A   1      11.624  48.200  15.022  1.00  0.00    +0.000 C 
ATOM     15 Cl1  UNL A   1      12.057  49.846  15.350  1.00  0.00    +0.000 Cl
ATOM     16  C12 UNL A   1      10.977  47.490  16.037  1.00  0.00    +0.000 C 
ATOM     17  C13 UNL A   1      10.632  46.156  15.843  1.00  0.00    +0.000 C 
ATOM     18  C14 UNL A   1      10.953  45.530  14.641  1.00  0.00    +0.000 C 
ATOM     19  C15 UNL A   1      11.611  46.235  13.625  1.00  0.00    +0.000 C 
ATOM     20 Cl2  UNL A   1      12.056  45.341  12.212  1.00  0.00    +0.000 Cl
ENDBRANCH   12   13
ENDBRANCH   11   12
ENDBRANCH    5    6
ENDBRANCH    4    5
ENDBRANCH    3    4
ENDBRANCH    2    3
ENDBRANCH   21    2
ENDBRANCH   23   21
ENDBRANCH   24   23
ENDBRANCH   25   24
ENDBRANCH   26   25
ENDBRANCH   27   26
ENDBRANCH   28   27
ENDBRANCH   29   28
ENDBRANCH   30   29
ENDBRANCH   31   30
ENDBRANCH   33   31
ENDBRANCH   37   36
BRANCH   41   42
ATOM     42  C32 UNL A   1      12.428  48.103   5.138  1.00  0.00    +0.000 C 
ATOM     43  C33 UNL A   1      11.151  47.705   4.714  1.00  0.00    +0.000 C 
ATOM     44  F1  UNL A   1      10.584  48.283   3.644  1.00  0.00    +0.000 F 
ATOM     45  C34 UNL A   1      10.434  46.736   5.412  1.00  0.00    +0.000 C 
ATOM     46  F2  UNL A   1       9.198  46.406   5.016  1.00  0.00    +0.000 F 
ATOM     47  C35 UNL A   1      10.993  46.124   6.524  1.00  0.00    +0.000 C 
ATOM     48  F3  UNL A   1      10.303  45.187   7.191  1.00  0.00    +0.000 F 
ATOM     49  C36 UNL A   1      12.262  46.487   6.948  1.00  0.00    +0.000 C 
ATOM     50  F4  UNL A   1      12.807  45.887   8.015  1.00  0.00    +0.000 F 
ATOM     51  C37 UNL A   1      12.970  47.475   6.268  1.00  0.00    +0.000 C 
ATOM     52  F5  UNL A   1      14.190  47.814   6.712  1.00  0.00    +0.000 F 
ENDBRANCH   41   42
BRANCH   58   59
ATOM     65  F8  UNL A   1      18.058  45.876  -3.585  1.00  0.00    +0.000 F 
ATOM     66  C47 UNL A   1      16.366  47.282  -2.725  1.00  0.00    +0.000 C 
ATOM     67  F9  UNL A   1      15.573  46.986  -3.764  1.00  0.00    +0.000 F 
ATOM     68  C48 UNL A   1      15.925  48.165  -1.743  1.00  0.00    +0.000 C 
ATOM     69  F10 UNL A   1      14.706  48.712  -1.867  1.00  0.00    +0.000 F 
ATOM     59  C43 UNL A   1      16.730  48.474  -0.637  1.00  0.00    +0.000 C 
ATOM     60  C44 UNL A   1      17.993  47.872  -0.552  1.00  0.00    +0.000 C 
ATOM     61  F6  UNL A   1      18.806  48.149   0.480  1.00  0.00    +0.000 F 
ATOM     62  C45 UNL A   1      18.442  47.010  -1.549  1.00  0.00    +0.000 C 
ATOM     63  F7  UNL A   1      19.671  46.479  -1.470  1.00  0.00    +0.000 F 
ATOM     64  C46 UNL A   1      17.626  46.710  -2.630  1.00  0.00    +0.000 C 
ENDBRANCH   58   59
BRANCH   73   74
ATOM     74  C52 UNL A   1      17.768  55.240   0.644  1.00  0.00    +0.000 C 
ATOM     75  C53 UNL A   1      18.996  55.637   1.191  1.00  0.00    +0.000 C 
ATOM     76  F11 UNL A   1      19.428  55.083   2.334  1.00  0.00    +0.000 F 
ATOM     77  C54 UNL A   1      19.766  56.629   0.589  1.00  0.00    +0.000 C 
ATOM     78  F12 UNL A   1      20.916  57.018   1.156  1.00  0.00    +0.000 F 
ATOM     79  C55 UNL A   1      19.337  57.225  -0.587  1.00  0.00    +0.000 C 
ATOM     80  F13 UNL A   1      20.080  58.175  -1.168  1.00  0.00    +0.000 F 
ATOM     81  C56 UNL A   1      18.133  56.838  -1.157  1.00  0.00    +0.000 C 
ATOM     82  F14 UNL A   1      17.721  57.401  -2.300  1.00  0.00    +0.000 F 
ATOM     83  C57 UNL A   1      17.350  55.863  -0.542  1.00  0.00    +0.000 C 
ATOM     84  F15 UNL A   1      16.185  55.514  -1.108  1.00  0.00    +0.000 F 
ENDBRANCH   73   74
TORSDOF 22
ENDMDL
MODEL 3
REMARK VINA RESULT:      -8.8      3.355      8.355
ROOT
ATOM    129  H34 UNL A   1      12.122  52.694   6.688  1.00  0.00    +0.000 H 
ATOM    130  H35 UNL A   1      14.476  51.613   3.437  1.00  0.00    +0.000 H 
ATOM    131  H36 UNL A   1      13.416  46.788   2.505  1.00  0.00    +0.000 H 
ATOM    132  H37 UNL A   1      15.168  46.898   0.641  1.00  0.00    +0.000 H 
ATOM    133  H38 UNL A   1      16.589  56.680   2.432  1.00  0.00    +0.000 H 
ATOM    134  H39 UNL A   1      15.200  56.487   4.573  1.00  0.00    +0.000 H 
ATOM     37  C28 UNL A   1      13.994  53.929   4.929  1.00  0.00    +0.000 C 
ATOM     38  C29 UNL A   1      14.963  54.347   3.858  1.00  0.00    +0.000 C 
ATOM     39  N5  UNL A   1      15.461  53.645   2.871  1.00  0.00    +0.000 N 
ATOM     40  C30 UNL A   1      16.263  54.521   2.152  1.00  0.00    +0.000 C 
ATOM     41  C31 UNL A   1      17.038  54.263   1.071  1.00  0.00    +0.000 C 
ATOM     53  C38 UNL A   1      17.172  52.966   0.460  1.00  0.00    +0.000 C 
ATOM     54  C39 UNL A   1      17.980  52.589  -0.598  1.00  0.00    +0.000 C 
ATOM     55  C40 UNL A   1      17.748  51.236  -0.866  1.00  0.00    +0.000 C 
ATOM     56  C41 UNL A   1      16.826  50.759   0.053  1.00  0.00    +0.000 C 
ATOM     57  N6  UNL A   1      16.478  51.833   0.857  1.00  0.00    +0.000 N 
ATOM     58  C42 UNL A   1      16.302  49.425   0.188  1.00  0.00    +0.000 C 
ATOM     70  C49 UNL A   1      15.403  49.033   1.123  1.00  0.00    +0.000 C 
ATOM     71  N7  UNL A   1      14.807  49.781   2.129  1.00  0.00    +0.000 N 
ATOM     72  C50 UNL A   1      14.006  48.961   2.763  1.00  0.00    +0.000 C 
ATOM     73  C51 UNL A   1      13.128  49.225   3.956  1.00  0.00    +0.000 C 
ATOM     85  C58 UNL A   1      13.135  50.446   4.522  1.00  0.00    +0.000 C 
ATOM     86  C59 UNL A   1      12.345  50.846   5.683  1.00  0.00    +0.000 C 
ATOM     87  C60 UNL A   1      12.567  52.147   5.936  1.00  0.00    +0.000 C 
ATOM     88  C61 UNL A   1      13.542  52.662   4.973  1.00  0.00    +0.000 C 
ATOM     89  N8  UNL A   1      13.831  51.580   4.180  1.00  0.00    +0.000 N 
ATOM     90  C62 UNL A   1      13.983  47.600   2.211  1.00  0.00    +0.000 C 
ATOM     91  C63 UNL A   1      14.880  47.687   1.239  1.00  0.00    +0.000 C 
ATOM     92  C64 UNL A   1      16.150  55.816   2.786  1.00  0.00    +0.000 C 
ATOM     93  C65 UNL A   1      15.409  55.749   3.883  1.00  0.00    +0.000 C 
ATOM    125  H30 UNL A   1      18.641  53.201  -1.103  1.00  0.00    +0.000 H 
ATOM    126  H31 UNL A   1      18.188  50.685  -1.620  1.00  0.00    +0.000 H 
ATOM    127  H32 UNL A   1      15.833  51.796   1.600  1.00  0.00    +0.000 H 
ATOM    128  H33 UNL A   1      11.718  50.230   6.221  1.00  0.00    +0.000 H 
ENDROOT
BRANCH   37   36
ATOM     33  C24 UNL A   1      12.559  56.849   7.723  1.00  0.00    +0.000 C 
ATOM     34  C25 UNL A   1      11.793  56.536   6.595  1.00  0.00    +0.000 C 
ATOM     35  C26 UNL A   1      12.243  55.566   5.694  1.00  0.00    +0.000 C 
ATOM     36  C27 UNL A   1      13.476  54.928   5.899  1.00  0.00    +0.000 C 
ATOM    135  H40 UNL A   1      15.138  54.777   7.198  1.00  0.00    +0.000 H 
ATOM    136  H41 UNL A   1      14.269  56.328   8.846  1.00  0.00    +0.000 H 
ATOM    123  H28 UNL A   1      10.896  57.020   6.429  1.00  0.00    +0.000 H 
ATOM    124  H29 UNL A   1      11.666  55.321   4.875  1.00  0.00    +0.000 H 
ATOM     94  C66 UNL A   1      14.226  55.235   7.043  1.00  0.00    +0.000 C 
ATOM     95  C67 UNL A   1      13.747  56.156   7.973  1.00  0.00    +0.000 C 
BRANCH   33   31
ATOM     31  C23 UNL A   1      12.056  57.875   8.666  1.00  0.00    +0.000 C 
ATOM     32  O3  UNL A   1      12.766  58.825   8.965  1.00  0.00    +0.000 O 
BRANCH   31   30
ATOM    122  H27 UNL A   1      10.095  58.290   8.739  1.00  0.00    +0.000 H 
ATOM     30  N4  UNL A   1      10.792  57.768   9.197  1.00  0.00    +0.000 N 
BRANCH   30   29
ATOM    121  H26 UNL A   1       9.458  56.461  10.055  1.00  0.00    +0.000 H 
ATOM     29  C22 UNL A   1      10.343  56.990  10.341  1.00  0.00    +0.000 C 
ATOM    120  H25 UNL A   1      10.148  57.655  11.156  1.00  0.00    +0.000 H 
BRANCH   29   28
ATOM     28  C21 UNL A   1      11.386  55.964  10.780  1.00  0.00    +0.000 C 
ATOM    118  H23 UNL A   1      12.260  56.102  10.178  1.00  0.00    +0.000 H 
ATOM    119  H24 UNL A   1      11.556  56.137  11.822  1.00  0.00    +0.000 H 
BRANCH   28   27
ATOM     27  C20 UNL A   1      10.947  54.499  10.655  1.00  0.00    +0.000 C 
ATOM    116  H21 UNL A   1      11.434  53.943  11.428  1.00  0.00    +0.000 H 
ATOM    117  H22 UNL A   1       9.880  54.505  10.732  1.00  0.00    +0.000 H 
BRANCH   27   26
ATOM     26  C19 UNL A   1      11.268  53.824   9.315  1.00  0.00    +0.000 C 
ATOM    115  H20 UNL A   1      11.520  54.608   8.632  1.00  0.00    +0.000 H 
ATOM    114  H19 UNL A   1      10.408  53.265   9.008  1.00  0.00    +0.000 H 
BRANCH   26   25
ATOM     25  C18 UNL A   1      12.468  52.875   9.357  1.00  0.00    +0.000 C 
ATOM    113  H18 UNL A   1      13.131  53.183   8.576  1.00  0.00    +0.000 H 
ATOM    112  H17 UNL A   1      12.109  51.875   9.227  1.00  0.00    +0.000 H 
BRANCH   25   24
ATOM    110  H15 UNL A   1      13.132  53.889  11.127  1.00  0.00    +0.000 H 
ATOM    111  H16 UNL A   1      12.924  52.160  11.325  1.00  0.00    +0.000 H 
ATOM     24  C17 UNL A   1      13.270  52.931  10.669  1.00  0.00    +0.000 C 
BRANCH   24   23
ATOM    109  H14 UNL A   1      15.094  53.344   9.754  1.00  0.00    +0.000 H 
ATOM     23  N3  UNL A   1      14.680  52.728  10.400  1.00  0.00    +0.000 N 
BRANCH   23   21
ATOM     21  C16 UNL A   1      15.506  51.770  10.948  1.00  0.00    +0.000 C 
ATOM     22  O2  UNL A   1      15.878  51.901  12.113  1.00  0.00    +0.000 O 
BRANCH   21    2
ATOM      2  C2  UNL A   1      16.154  50.662  10.133  1.00  0.00    +0.000 C 
BRANCH    2    1
ATOM      1  C1  UNL A   1      17.165  49.852  10.910  1.00  0.00    +0.000 C 
ATOM     98  H3  UNL A   1      16.837  48.836  10.968  1.00  0.00    +0.000 H 
ATOM     97  H2  UNL A   1      18.113  49.895  10.414  1.00  0.00    +0.000 H 
ATOM     96  H1  UNL A   1      17.260  50.253  11.898  1.00  0.00    +0.000 H 
ENDBRANCH    2    1
BRANCH    2    3
ATOM      3  N1  UNL A   1      15.903  50.289   8.911  1.00  0.00    +0.000 N 
BRANCH    3    4
ATOM      4  O1  UNL A   1      15.233  49.074   8.824  1.00  0.00    +0.000 O 
BRANCH    4    5
ATOM     99  H4  UNL A   1      13.604  49.388   7.644  1.00  0.00    +0.000 H 
ATOM    100  H5  UNL A   1      13.585  50.119   9.288  1.00  0.00    +0.000 H 
ATOM      5  C3  UNL A   1      13.816  49.266   8.686  1.00  0.00    +0.000 C 
BRANCH    5    6
ATOM    101  H6  UNL A   1      14.519  46.928   9.883  1.00  0.00    +0.000 H 
ATOM      6  C4  UNL A   1      12.926  48.150   9.210  1.00  0.00    +0.000 C 
ATOM      7  C5  UNL A   1      13.497  46.986   9.752  1.00  0.00    +0.000 C 
ATOM      8  C6  UNL A   1      12.690  45.907  10.114  1.00  0.00    +0.000 C 
ATOM    102  H7  UNL A   1      13.111  45.064  10.533  1.00  0.00    +0.000 H 
ATOM     10  C8  UNL A   1      10.736  47.133   9.392  1.00  0.00    +0.000 C 
ATOM     11  C9  UNL A   1      11.520  48.257   9.109  1.00  0.00    +0.000 C 
ATOM    104  H9  UNL A   1       9.720  47.162   9.216  1.00  0.00    +0.000 H 
ATOM      9  C7  UNL A   1      11.314  45.971   9.909  1.00  0.00    +0.000 C 
ATOM    103  H8  UNL A   1      10.721  45.159  10.139  1.00  0.00    +0.000 H 
BRANCH   11   12
ATOM    105  H10 UNL A   1      11.470  49.898   7.890  1.00  0.00    +0.000 H 
ATOM     12  N2  UNL A   1      10.974  49.474   8.627  1.00  0.00    +0.000 N 
BRANCH   12   13
ATOM    106  H11 UNL A   1       6.994  51.476   7.737  1.00  0.00    +0.000 H 
ATOM    107  H12 UNL A   1       6.707  52.243  10.021  1.00  0.00    +0.000 H 
ATOM    108  H13 UNL A   1       8.407  51.754  11.679  1.00  0.00    +0.000 H 
ATOM     13  C10 UNL A   1       9.815  50.165   9.058  1.00  0.00    +0.000 C 
ATOM     14  C11 UNL A   1       8.833  50.503   8.102  1.00  0.00    +0.000 C 
ATOM     15 Cl1  UNL A   1       8.985  50.011   6.447  1.00  0.00    +0.000 Cl
ATOM     16  C12 UNL A   1       7.707  51.254   8.450  1.00  0.00    +0.000 C 
ATOM     17  C13 UNL A   1       7.545  51.702   9.757  1.00  0.00    +0.000 C 
ATOM     18  C14 UNL A   1       8.521  51.415  10.710  1.00  0.00    +0.000 C 
ATOM     19  C15 UNL A   1       9.656  50.671  10.362  1.00  0.00    +0.000 C 
ATOM     20 Cl2  UNL A   1      10.857  50.455  11.589  1.00  0.00    +0.000 Cl
ENDBRANCH   12   13
ENDBRANCH   11   12
ENDBRANCH    5    6
ENDBRANCH    4    5
ENDBRANCH    3    4
ENDBRANCH    2    3
ENDBRANCH   21    2
ENDBRANCH   23   21
ENDBRANCH   24   23
ENDBRANCH   25   24
ENDBRANCH   26   25
ENDBRANCH   27   26
ENDBRANCH   28   27
ENDBRANCH   29   28
ENDBRANCH   30   29
ENDBRANCH   31   30
ENDBRANCH   33   31
ENDBRANCH   37   36
BRANCH   41   42
ATOM     42  C32 UNL A   1      17.807  55.409   0.479  1.00  0.00    +0.000 C 
ATOM     43  C33 UNL A   1      17.309  56.144  -0.607  1.00  0.00    +0.000 C 
ATOM     44  F1  UNL A   1      16.141  55.803  -1.173  1.00  0.00    +0.000 F 
ATOM     45  C34 UNL A   1      18.028  57.209  -1.141  1.00  0.00    +0.000 C 
ATOM     46  F2  UNL A   1      17.555  57.867  -2.208  1.00  0.00    +0.000 F 
ATOM     47  C35 UNL A   1      19.240  57.582  -0.579  1.00  0.00    +0.000 C 
ATOM     48  F3  UNL A   1      19.928  58.613  -1.092  1.00  0.00    +0.000 F 
ATOM     49  C36 UNL A   1      19.742  56.883   0.508  1.00  0.00    +0.000 C 
ATOM     50  F4  UNL A   1      20.907  57.251   1.059  1.00  0.00    +0.000 F 
ATOM     51  C37 UNL A   1      19.038  55.799   1.027  1.00  0.00    +0.000 C 
ATOM     52  F5  UNL A   1      19.557  55.135   2.071  1.00  0.00    +0.000 F 
ENDBRANCH   41   42
BRANCH   58   59
ATOM     65  F8  UNL A   1      18.261  45.541  -3.415  1.00  0.00    +0.000 F 
ATOM     66  C47 UNL A   1      18.550  46.839  -1.462  1.00  0.00    +0.000 C 
ATOM     67  F9  UNL A   1      19.759  46.295  -1.264  1.00  0.00    +0.000 F 
ATOM     68  C48 UNL A   1      18.056  47.780  -0.564  1.00  0.00    +0.000 C 
ATOM     69  F10 UNL A   1      18.806  48.117   0.496  1.00  0.00    +0.000 F 
ATOM     59  C43 UNL A   1      16.802  48.378  -0.763  1.00  0.00    +0.000 C 
ATOM     60  C44 UNL A   1      16.060  47.995  -1.889  1.00  0.00    +0.000 C 
ATOM     61  F6  UNL A   1      14.849  48.526  -2.113  1.00  0.00    +0.000 F 
ATOM     62  C45 UNL A   1      16.547  47.033  -2.771  1.00  0.00    +0.000 C 
ATOM     63  F7  UNL A   1      15.801  46.649  -3.818  1.00  0.00    +0.000 F 
ATOM     64  C46 UNL A   1      17.793  46.462  -2.562  1.00  0.00    +0.000 C 
ENDBRANCH   58   59
BRANCH   73   74
ATOM     74  C52 UNL A   1      12.287  48.147   4.534  1.00  0.00    +0.000 C 
ATOM     75  C53 UNL A   1      10.954  47.983   4.132  1.00  0.00    +0.000 C 
ATOM     76  F11 UNL A   1      10.420  48.822   3.232  1.00  0.00    +0.000 F 
ATOM     77  C54 UNL A   1      10.155  46.982   4.678  1.00  0.00    +0.000 C 
ATOM     78  F12 UNL A   1       8.873  46.874   4.306  1.00  0.00    +0.000 F 
ATOM     79  C55 UNL A   1      10.680  46.109   5.618  1.00  0.00    +0.000 C 
ATOM     80  F13 UNL A   1       9.912  45.143   6.140  1.00  0.00    +0.000 F 
ATOM     81  C56 UNL A   1      12.001  46.240   6.021  1.00  0.00    +0.000 C 
ATOM     82  F14 UNL A   1      12.516  45.389   6.918  1.00  0.00    +0.000 F 
ATOM     83  C57 UNL A   1      12.794  47.257   5.493  1.00  0.00    +0.000 C 
ATOM     84  F15 UNL A   1      14.065  47.369   5.906  1.00  0.00    +0.000 F 
ENDBRANCH   73   74
TORSDOF 22
ENDMDL
MODEL 4
REMARK VINA RESULT:      -8.8     36.719     42.214
ROOT
ATOM    129  H34 UNL A   1      38.948  27.976  30.173  1.00  0.00    +0.000 H 
ATOM    130  H35 UNL A   1      42.676  28.643  28.459  1.00  0.00    +0.000 H 
ATOM    131  H36 UNL A   1      43.912  24.366  26.125  1.00  0.00    +0.000 H 
ATOM    132  H37 UNL A   1      46.123  25.496  25.503  1.00  0.00    +0.000 H 
ATOM    133  H38 UNL A   1      43.055  34.053  29.778  1.00  0.00    +0.000 H 
ATOM    134  H39 UNL A   1      41.056  32.823  30.800  1.00  0.00    +0.000 H 
ATOM     37  C28 UNL A   1      40.814  30.117  29.936  1.00  0.00    +0.000 C 
ATOM     38  C29 UNL A   1      41.927  31.083  29.633  1.00  0.00    +0.000 C 
ATOM     39  N5  UNL A   1      43.012  30.900  28.924  1.00  0.00    +0.000 N 
ATOM     40  C30 UNL A   1      43.673  32.121  28.924  1.00  0.00    +0.000 C 
ATOM     41  C31 UNL A   1      44.870  32.433  28.371  1.00  0.00    +0.000 C 
ATOM     53  C38 UNL A   1      45.703  31.499  27.661  1.00  0.00    +0.000 C 
ATOM     54  C39 UNL A   1      46.961  31.702  27.119  1.00  0.00    +0.000 C 
ATOM     55  C40 UNL A   1      47.365  30.518  26.493  1.00  0.00    +0.000 C 
ATOM     56  C41 UNL A   1      46.377  29.564  26.681  1.00  0.00    +0.000 C 
ATOM     57  N6  UNL A   1      45.361  30.182  27.395  1.00  0.00    +0.000 N 
ATOM     58  C42 UNL A   1      46.359  28.193  26.243  1.00  0.00    +0.000 C 
ATOM     70  C49 UNL A   1      45.352  27.315  26.473  1.00  0.00    +0.000 C 
ATOM     71  N7  UNL A   1      44.162  27.513  27.159  1.00  0.00    +0.000 N 
ATOM     72  C50 UNL A   1      43.518  26.374  27.099  1.00  0.00    +0.000 C 
ATOM     73  C51 UNL A   1      42.185  26.004  27.694  1.00  0.00    +0.000 C 
ATOM     85  C58 UNL A   1      41.514  26.915  28.423  1.00  0.00    +0.000 C 
ATOM     86  C59 UNL A   1      40.221  26.700  29.064  1.00  0.00    +0.000 C 
ATOM     87  C60 UNL A   1      39.834  27.840  29.662  1.00  0.00    +0.000 C 
ATOM     88  C61 UNL A   1      40.870  28.855  29.473  1.00  0.00    +0.000 C 
ATOM     89  N8  UNL A   1      41.835  28.214  28.736  1.00  0.00    +0.000 N 
ATOM     90  C62 UNL A   1      44.218  25.327  26.343  1.00  0.00    +0.000 C 
ATOM     91  C63 UNL A   1      45.347  25.940  26.017  1.00  0.00    +0.000 C 
ATOM     92  C64 UNL A   1      42.847  33.049  29.664  1.00  0.00    +0.000 C 
ATOM     93  C65 UNL A   1      41.788  32.441  30.179  1.00  0.00    +0.000 C 
ATOM    125  H30 UNL A   1      47.508  32.576  27.169  1.00  0.00    +0.000 H 
ATOM    126  H31 UNL A   1      48.248  30.378  25.978  1.00  0.00    +0.000 H 
ATOM    127  H32 UNL A   1      44.522  29.748  27.671  1.00  0.00    +0.000 H 
ATOM    128  H33 UNL A   1      39.689  25.817  29.059  1.00  0.00    +0.000 H 
ENDROOT
BRANCH   37   36
ATOM     33  C24 UNL A   1      37.392  31.459  32.145  1.00  0.00    +0.000 C 
ATOM     34  C25 UNL A   1      37.521  31.801  30.795  1.00  0.00    +0.000 C 
ATOM     35  C26 UNL A   1      38.621  31.346  30.062  1.00  0.00    +0.000 C 
ATOM     36  C27 UNL A   1      39.614  30.572  30.684  1.00  0.00    +0.000 C 
ATOM    135  H40 UNL A   1      40.193  29.657  32.501  1.00  0.00    +0.000 H 
ATOM    136  H41 UNL A   1      38.197  30.301  33.716  1.00  0.00    +0.000 H 
ATOM    123  H28 UNL A   1      36.805  32.389  30.340  1.00  0.00    +0.000 H 
ATOM    124  H29 UNL A   1      38.703  31.580  29.062  1.00  0.00    +0.000 H 
ATOM     94  C66 UNL A   1      39.464  30.219  32.033  1.00  0.00    +0.000 C 
ATOM     95  C67 UNL A   1      38.336  30.621  32.745  1.00  0.00    +0.000 C 
BRANCH   33   31
ATOM     31  C23 UNL A   1      36.212  31.949  32.897  1.00  0.00    +0.000 C 
ATOM     32  O3  UNL A   1      35.090  31.792  32.436  1.00  0.00    +0.000 O 
BRANCH   31   30
ATOM    122  H27 UNL A   1      35.917  32.139  34.872  1.00  0.00    +0.000 H 
ATOM     30  N4  UNL A   1      36.375  32.568  34.113  1.00  0.00    +0.000 N 
BRANCH   30   29
ATOM    121  H26 UNL A   1      38.143  33.484  34.621  1.00  0.00    +0.000 H 
ATOM     29  C22 UNL A   1      37.129  33.770  34.435  1.00  0.00    +0.000 C 
ATOM    120  H25 UNL A   1      36.694  34.231  35.297  1.00  0.00    +0.000 H 
BRANCH   29   28
ATOM     28  C21 UNL A   1      37.124  34.773  33.283  1.00  0.00    +0.000 C 
ATOM    118  H23 UNL A   1      37.521  35.698  33.646  1.00  0.00    +0.000 H 
ATOM    119  H24 UNL A   1      37.711  34.335  32.503  1.00  0.00    +0.000 H 
BRANCH   28   27
ATOM     27  C20 UNL A   1      35.744  35.053  32.674  1.00  0.00    +0.000 C 
ATOM    116  H21 UNL A   1      35.874  35.745  31.869  1.00  0.00    +0.000 H 
ATOM    117  H22 UNL A   1      35.359  34.102  32.369  1.00  0.00    +0.000 H 
BRANCH   27   26
ATOM     26  C19 UNL A   1      34.702  35.637  33.636  1.00  0.00    +0.000 C 
ATOM    115  H20 UNL A   1      35.241  35.999  34.486  1.00  0.00    +0.000 H 
ATOM    114  H19 UNL A   1      34.004  34.865  33.883  1.00  0.00    +0.000 H 
BRANCH   26   25
ATOM     25  C18 UNL A   1      33.921  36.828  33.074  1.00  0.00    +0.000 C 
ATOM    113  H18 UNL A   1      34.389  37.094  32.148  1.00  0.00    +0.000 H 
ATOM    112  H17 UNL A   1      33.950  37.618  33.794  1.00  0.00    +0.000 H 
BRANCH   25   24
ATOM    110  H15 UNL A   1      32.082  35.788  33.444  1.00  0.00    +0.000 H 
ATOM    111  H16 UNL A   1      31.875  37.420  32.841  1.00  0.00    +0.000 H 
ATOM     24  C17 UNL A   1      32.448  36.520  32.754  1.00  0.00    +0.000 C 
BRANCH   24   23
ATOM    109  H14 UNL A   1      31.625  35.335  31.253  1.00  0.00    +0.000 H 
ATOM     23  N3  UNL A   1      32.326  36.010  31.403  1.00  0.00    +0.000 N 
BRANCH   23   21
ATOM     21  C16 UNL A   1      33.081  36.362  30.305  1.00  0.00    +0.000 C 
ATOM     22  O2  UNL A   1      33.334  37.550  30.113  1.00  0.00    +0.000 O 
BRANCH   21    2
ATOM      2  C2  UNL A   1      33.449  35.387  29.198  1.00  0.00    +0.000 C 
BRANCH    2    1
ATOM      1  C1  UNL A   1      34.469  35.931  28.227  1.00  0.00    +0.000 C 
ATOM     98  H3  UNL A   1      34.781  35.151  27.564  1.00  0.00    +0.000 H 
ATOM     97  H2  UNL A   1      34.034  36.728  27.661  1.00  0.00    +0.000 H 
ATOM     96  H1  UNL A   1      35.316  36.299  28.768  1.00  0.00    +0.000 H 
ENDBRANCH    2    1
BRANCH    2    3
ATOM      3  N1  UNL A   1      33.062  34.155  29.028  1.00  0.00    +0.000 N 
BRANCH    3    4
ATOM      4  O1  UNL A   1      33.131  33.724  27.708  1.00  0.00    +0.000 O 
BRANCH    4    5
ATOM     99  H4  UNL A   1      32.175  32.262  26.662  1.00  0.00    +0.000 H 
ATOM    100  H5  UNL A   1      32.136  32.152  28.458  1.00  0.00    +0.000 H 
ATOM      5  C3  UNL A   1      32.714  32.355  27.581  1.00  0.00    +0.000 C 
BRANCH    5    6
ATOM    101  H6  UNL A   1      35.327  32.610  28.292  1.00  0.00    +0.000 H 
ATOM      6  C4  UNL A   1      33.818  31.309  27.576  1.00  0.00    +0.000 C 
ATOM      7  C5  UNL A   1      35.130  31.663  27.933  1.00  0.00    +0.000 C 
ATOM      8  C6  UNL A   1      36.169  30.741  27.805  1.00  0.00    +0.000 C 
ATOM    102  H7  UNL A   1      37.127  30.998  28.090  1.00  0.00    +0.000 H 
ATOM     10  C8  UNL A   1      34.606  29.105  26.955  1.00  0.00    +0.000 C 
ATOM     11  C9  UNL A   1      33.539  29.985  27.163  1.00  0.00    +0.000 C 
ATOM    104  H9  UNL A   1      34.428  28.173  26.548  1.00  0.00    +0.000 H 
ATOM      9  C7  UNL A   1      35.911  29.473  27.292  1.00  0.00    +0.000 C 
ATOM    103  H8  UNL A   1      36.686  28.804  27.159  1.00  0.00    +0.000 H 
BRANCH   11   12
ATOM    105  H10 UNL A   1      31.554  29.798  27.615  1.00  0.00    +0.000 H 
ATOM     12  N2  UNL A   1      32.192  29.642  26.881  1.00  0.00    +0.000 N 
BRANCH   12   13
ATOM    106  H11 UNL A   1      29.670  30.102  23.131  1.00  0.00    +0.000 H 
ATOM    107  H12 UNL A   1      29.865  27.756  22.541  1.00  0.00    +0.000 H 
ATOM    108  H13 UNL A   1      31.123  26.255  23.970  1.00  0.00    +0.000 H 
ATOM     13  C10 UNL A   1      31.637  29.108  25.694  1.00  0.00    +0.000 C 
ATOM     14  C11 UNL A   1      30.861  29.951  24.869  1.00  0.00    +0.000 C 
ATOM     15 Cl1  UNL A   1      30.655  31.631  25.243  1.00  0.00    +0.000 Cl
ATOM     16  C12 UNL A   1      30.220  29.462  23.727  1.00  0.00    +0.000 C 
ATOM     17  C13 UNL A   1      30.323  28.116  23.392  1.00  0.00    +0.000 C 
ATOM     18  C14 UNL A   1      31.052  27.257  24.212  1.00  0.00    +0.000 C 
ATOM     19  C15 UNL A   1      31.687  27.740  25.363  1.00  0.00    +0.000 C 
ATOM     20 Cl2  UNL A   1      32.479  26.576  26.368  1.00  0.00    +0.000 Cl
ENDBRANCH   12   13
ENDBRANCH   11   12
ENDBRANCH    5    6
ENDBRANCH    4    5
ENDBRANCH    3    4
ENDBRANCH    2    3
ENDBRANCH   21    2
ENDBRANCH   23   21
ENDBRANCH   24   23
ENDBRANCH   25   24
ENDBRANCH   26   25
ENDBRANCH   27   26
ENDBRANCH   28   27
ENDBRANCH   29   28
ENDBRANCH   30   29
ENDBRANCH   31   30
ENDBRANCH   33   31
ENDBRANCH   37   36
BRANCH   41   42
ATOM     42  C32 UNL A   1      45.354  33.847  28.518  1.00  0.00    +0.000 C 
ATOM     43  C33 UNL A   1      46.249  34.214  29.533  1.00  0.00    +0.000 C 
ATOM     44  F1  UNL A   1      46.661  33.307  30.432  1.00  0.00    +0.000 F 
ATOM     45  C34 UNL A   1      46.697  35.528  29.653  1.00  0.00    +0.000 C 
ATOM     46  F2  UNL A   1      47.515  35.865  30.659  1.00  0.00    +0.000 F 
ATOM     47  C35 UNL A   1      46.286  36.489  28.741  1.00  0.00    +0.000 C 
ATOM     48  F3  UNL A   1      46.723  37.751  28.855  1.00  0.00    +0.000 F 
ATOM     49  C36 UNL A   1      45.418  36.143  27.718  1.00  0.00    +0.000 C 
ATOM     50  F4  UNL A   1      45.031  37.069  26.829  1.00  0.00    +0.000 F 
ATOM     51  C37 UNL A   1      44.947  34.837  27.611  1.00  0.00    +0.000 C 
ATOM     52  F5  UNL A   1      44.097  34.537  26.617  1.00  0.00    +0.000 F 
ENDBRANCH   41   42
BRANCH   58   59
ATOM     65  F8  UNL A   1      50.797  26.209  23.367  1.00  0.00    +0.000 F 
ATOM     66  C47 UNL A   1      48.661  27.218  23.377  1.00  0.00    +0.000 C 
ATOM     67  F9  UNL A   1      48.656  27.251  22.037  1.00  0.00    +0.000 F 
ATOM     68  C48 UNL A   1      47.578  27.727  24.089  1.00  0.00    +0.000 C 
ATOM     69  F10 UNL A   1      46.548  28.252  23.409  1.00  0.00    +0.000 F 
ATOM     59  C43 UNL A   1      47.553  27.684  25.491  1.00  0.00    +0.000 C 
ATOM     60  C44 UNL A   1      48.652  27.120  26.153  1.00  0.00    +0.000 C 
ATOM     61  F6  UNL A   1      48.681  27.071  27.494  1.00  0.00    +0.000 F 
ATOM     62  C45 UNL A   1      49.745  26.636  25.439  1.00  0.00    +0.000 C 
ATOM     63  F7  UNL A   1      50.806  26.142  26.094  1.00  0.00    +0.000 F 
ATOM     64  C46 UNL A   1      49.746  26.680  24.053  1.00  0.00    +0.000 C 
ENDBRANCH   58   59
BRANCH   73   74
ATOM     74  C52 UNL A   1      41.624  24.642  27.513  1.00  0.00    +0.000 C 
ATOM     75  C53 UNL A   1      42.219  23.533  28.129  1.00  0.00    +0.000 C 
ATOM     76  F11 UNL A   1      43.324  23.694  28.872  1.00  0.00    +0.000 F 
ATOM     77  C54 UNL A   1      41.706  22.250  27.955  1.00  0.00    +0.000 C 
ATOM     78  F12 UNL A   1      42.319  21.203  28.521  1.00  0.00    +0.000 F 
ATOM     79  C55 UNL A   1      40.571  22.055  27.182  1.00  0.00    +0.000 C 
ATOM     80  F13 UNL A   1      40.074  20.822  27.018  1.00  0.00    +0.000 F 
ATOM     81  C56 UNL A   1      39.954  23.139  26.576  1.00  0.00    +0.000 C 
ATOM     82  F14 UNL A   1      38.849  22.956  25.840  1.00  0.00    +0.000 F 
ATOM     83  C57 UNL A   1      40.482  24.419  26.729  1.00  0.00    +0.000 C 
ATOM     84  F15 UNL A   1      39.872  25.449  26.124  1.00  0.00    +0.000 F 
ENDBRANCH   73   74
TORSDOF 22
ENDMDL
MODEL 5
REMARK VINA RESULT:      -8.6      3.219      8.522
ROOT
ATOM    129  H34 UNL A   1      12.229  52.487   6.932  1.00  0.00    +0.000 H 
ATOM    130  H35 UNL A   1      14.520  51.511   3.604  1.00  0.00    +0.000 H 
ATOM    131  H36 UNL A   1      13.531  46.683   2.609  1.00  0.00    +0.000 H 
ATOM    132  H37 UNL A   1      15.233  46.862   0.705  1.00  0.00    +0.000 H 
ATOM    133  H38 UNL A   1      16.509  56.637   2.640  1.00  0.00    +0.000 H 
ATOM    134  H39 UNL A   1      15.178  56.377   4.812  1.00  0.00    +0.000 H 
ATOM     37  C28 UNL A   1      14.031  53.790   5.150  1.00  0.00    +0.000 C 
ATOM     38  C29 UNL A   1      14.964  54.247   4.063  1.00  0.00    +0.000 C 
ATOM     39  N5  UNL A   1      15.451  53.572   3.052  1.00  0.00    +0.000 N 
ATOM     40  C30 UNL A   1      16.217  54.477   2.329  1.00  0.00    +0.000 C 
ATOM     41  C31 UNL A   1      16.970  54.254   1.224  1.00  0.00    +0.000 C 
ATOM     53  C38 UNL A   1      17.114  52.971   0.587  1.00  0.00    +0.000 C 
ATOM     54  C39 UNL A   1      17.902  52.629  -0.498  1.00  0.00    +0.000 C 
ATOM     55  C40 UNL A   1      17.690  51.277  -0.785  1.00  0.00    +0.000 C 
ATOM     56  C41 UNL A   1      16.801  50.765   0.147  1.00  0.00    +0.000 C 
ATOM     57  N6  UNL A   1      16.452  51.817   0.980  1.00  0.00    +0.000 N 
ATOM     58  C42 UNL A   1      16.307  49.419   0.271  1.00  0.00    +0.000 C 
ATOM     70  C49 UNL A   1      15.438  48.992   1.221  1.00  0.00    +0.000 C 
ATOM     71  N7  UNL A   1      14.854  49.710   2.254  1.00  0.00    +0.000 N 
ATOM     72  C50 UNL A   1      14.085  48.863   2.893  1.00  0.00    +0.000 C 
ATOM     73  C51 UNL A   1      13.233  49.087   4.112  1.00  0.00    +0.000 C 
ATOM     85  C58 UNL A   1      13.230  50.299   4.700  1.00  0.00    +0.000 C 
ATOM     86  C59 UNL A   1      12.462  50.662   5.887  1.00  0.00    +0.000 C 
ATOM     87  C60 UNL A   1      12.665  51.962   6.158  1.00  0.00    +0.000 C 
ATOM     88  C61 UNL A   1      13.605  52.514   5.182  1.00  0.00    +0.000 C 
ATOM     89  N8  UNL A   1      13.895  51.452   4.362  1.00  0.00    +0.000 N 
ATOM     90  C62 UNL A   1      14.074  47.511   2.317  1.00  0.00    +0.000 C 
ATOM     91  C63 UNL A   1      14.945  47.634   1.325  1.00  0.00    +0.000 C 
ATOM     92  C64 UNL A   1      16.095  55.758   2.990  1.00  0.00    +0.000 C 
ATOM     93  C65 UNL A   1      15.384  55.656   4.103  1.00  0.00    +0.000 C 
ATOM    125  H30 UNL A   1      18.538  53.263  -1.008  1.00  0.00    +0.000 H 
ATOM    126  H31 UNL A   1      18.122  50.748  -1.560  1.00  0.00    +0.000 H 
ATOM    127  H32 UNL A   1      15.827  51.754   1.738  1.00  0.00    +0.000 H 
ATOM    128  H33 UNL A   1      11.861  50.024   6.430  1.00  0.00    +0.000 H 
ENDROOT
BRANCH   37   36
ATOM     33  C24 UNL A   1      12.614  56.622   8.041  1.00  0.00    +0.000 C 
ATOM     34  C25 UNL A   1      11.932  56.471   6.830  1.00  0.00    +0.000 C 
ATOM     35  C26 UNL A   1      12.373  55.531   5.894  1.00  0.00    +0.000 C 
ATOM     36  C27 UNL A   1      13.518  54.760   6.151  1.00  0.00    +0.000 C 
ATOM    135  H40 UNL A   1      15.030  54.350   7.571  1.00  0.00    +0.000 H 
ATOM    136  H41 UNL A   1      14.157  55.853   9.261  1.00  0.00    +0.000 H 
ATOM    123  H28 UNL A   1      11.104  57.052   6.627  1.00  0.00    +0.000 H 
ATOM    124  H29 UNL A   1      11.856  55.405   5.011  1.00  0.00    +0.000 H 
ATOM     94  C66 UNL A   1      14.183  54.907   7.377  1.00  0.00    +0.000 C 
ATOM     95  C67 UNL A   1      13.705  55.799   8.335  1.00  0.00    +0.000 C 
BRANCH   33   31
ATOM     31  C23 UNL A   1      12.122  57.621   9.019  1.00  0.00    +0.000 C 
ATOM     32  O3  UNL A   1      12.386  58.805   8.863  1.00  0.00    +0.000 O 
BRANCH   31   30
ATOM    122  H27 UNL A   1      11.561  57.674  10.944  1.00  0.00    +0.000 H 
ATOM     30  N4  UNL A   1      11.362  57.221  10.093  1.00  0.00    +0.000 N 
BRANCH   30   29
ATOM    121  H26 UNL A   1       9.856  56.164   9.178  1.00  0.00    +0.000 H 
ATOM     29  C22 UNL A   1      10.306  56.223  10.147  1.00  0.00    +0.000 C 
ATOM    120  H25 UNL A   1       9.591  56.516  10.887  1.00  0.00    +0.000 H 
BRANCH   29   28
ATOM     28  C21 UNL A   1      10.846  54.840  10.504  1.00  0.00    +0.000 C 
ATOM    118  H23 UNL A   1      10.056  54.130  10.371  1.00  0.00    +0.000 H 
ATOM    119  H24 UNL A   1      11.684  54.670   9.859  1.00  0.00    +0.000 H 
BRANCH   28   27
ATOM     27  C20 UNL A   1      11.375  54.700  11.937  1.00  0.00    +0.000 C 
ATOM    116  H21 UNL A   1      11.951  55.573  12.162  1.00  0.00    +0.000 H 
ATOM    117  H22 UNL A   1      10.513  54.579  12.558  1.00  0.00    +0.000 H 
BRANCH   27   26
ATOM     26  C19 UNL A   1      12.257  53.473  12.201  1.00  0.00    +0.000 C 
ATOM    115  H20 UNL A   1      11.595  52.642  12.322  1.00  0.00    +0.000 H 
ATOM    114  H19 UNL A   1      12.848  53.666  13.073  1.00  0.00    +0.000 H 
BRANCH   26   25
ATOM     25  C18 UNL A   1      13.203  53.116  11.051  1.00  0.00    +0.000 C 
ATOM    113  H18 UNL A   1      13.133  53.911  10.337  1.00  0.00    +0.000 H 
ATOM    112  H17 UNL A   1      12.901  52.171  10.650  1.00  0.00    +0.000 H 
BRANCH   25   24
ATOM    110  H15 UNL A   1      15.298  53.320  10.638  1.00  0.00    +0.000 H 
ATOM    111  H16 UNL A   1      14.857  53.655  12.301  1.00  0.00    +0.000 H 
ATOM     24  C17 UNL A   1      14.683  53.016  11.460  1.00  0.00    +0.000 C 
BRANCH   24   23
ATOM    109  H14 UNL A   1      14.447  51.241  12.520  1.00  0.00    +0.000 H 
ATOM     23  N3  UNL A   1      15.009  51.652  11.824  1.00  0.00    +0.000 N 
BRANCH   23   21
ATOM     21  C16 UNL A   1      16.015  50.866  11.306  1.00  0.00    +0.000 C 
ATOM     22  O2  UNL A   1      17.179  51.100  11.628  1.00  0.00    +0.000 O 
BRANCH   21    2
ATOM      2  C2  UNL A   1      15.794  49.850  10.197  1.00  0.00    +0.000 C 
BRANCH    2    1
ATOM      1  C1  UNL A   1      15.584  50.474   8.838  1.00  0.00    +0.000 C 
ATOM     98  H3  UNL A   1      14.536  50.554   8.641  1.00  0.00    +0.000 H 
ATOM     97  H2  UNL A   1      16.026  51.449   8.821  1.00  0.00    +0.000 H 
ATOM     96  H1  UNL A   1      16.042  49.861   8.089  1.00  0.00    +0.000 H 
ENDBRANCH    2    1
BRANCH    2    3
ATOM      3  N1  UNL A   1      15.833  48.550  10.257  1.00  0.00    +0.000 N 
BRANCH    3    4
ATOM      4  O1  UNL A   1      15.009  47.923   9.330  1.00  0.00    +0.000 O 
BRANCH    4    5
ATOM     99  H4  UNL A   1      14.102  47.036  10.923  1.00  0.00    +0.000 H 
ATOM    100  H5  UNL A   1      13.467  46.640   9.286  1.00  0.00    +0.000 H 
ATOM      5  C3  UNL A   1      13.826  47.395   9.953  1.00  0.00    +0.000 C 
BRANCH    5    6
ATOM    101  H6  UNL A   1      12.323  48.643   8.062  1.00  0.00    +0.000 H 
ATOM      6  C4  UNL A   1      12.666  48.360  10.132  1.00  0.00    +0.000 C 
ATOM      7  C5  UNL A   1      12.051  48.943   9.011  1.00  0.00    +0.000 C 
ATOM      8  C6  UNL A   1      11.075  49.927   9.173  1.00  0.00    +0.000 C 
ATOM    102  H7  UNL A   1      10.610  50.335   8.348  1.00  0.00    +0.000 H 
ATOM     10  C8  UNL A   1      11.319  49.766  11.572  1.00  0.00    +0.000 C 
ATOM     11  C9  UNL A   1      12.232  48.716  11.431  1.00  0.00    +0.000 C 
ATOM    104  H9  UNL A   1      11.078  50.110  12.515  1.00  0.00    +0.000 H 
ATOM      9  C7  UNL A   1      10.729  50.356  10.452  1.00  0.00    +0.000 C 
ATOM    103  H8  UNL A   1      10.036  51.111  10.571  1.00  0.00    +0.000 H 
BRANCH   11   12
ATOM    105  H10 UNL A   1      13.804  47.987  12.516  1.00  0.00    +0.000 H 
ATOM     12  N2  UNL A   1      12.822  48.054  12.537  1.00  0.00    +0.000 N 
BRANCH   12   13
ATOM    106  H11 UNL A   1      10.778  44.546  14.576  1.00  0.00    +0.000 H 
ATOM    107  H12 UNL A   1      10.275  45.820  16.579  1.00  0.00    +0.000 H 
ATOM    108  H13 UNL A   1      10.927  48.151  16.720  1.00  0.00    +0.000 H 
ATOM     13  C10 UNL A   1      12.196  47.477  13.669  1.00  0.00    +0.000 C 
ATOM     14  C11 UNL A   1      11.765  46.134  13.595  1.00  0.00    +0.000 C 
ATOM     15 Cl1  UNL A   1      12.066  45.172  12.185  1.00  0.00    +0.000 Cl
ATOM     16  C12 UNL A   1      11.070  45.534  14.648  1.00  0.00    +0.000 C 
ATOM     17  C13 UNL A   1      10.773  46.265  15.793  1.00  0.00    +0.000 C 
ATOM     18  C14 UNL A   1      11.154  47.603  15.874  1.00  0.00    +0.000 C 
ATOM     19  C15 UNL A   1      11.841  48.211  14.816  1.00  0.00    +0.000 C 
ATOM     20 Cl2  UNL A   1      12.180  49.901  14.970  1.00  0.00    +0.000 Cl
ENDBRANCH   12   13
ENDBRANCH   11   12
ENDBRANCH    5    6
ENDBRANCH    4    5
ENDBRANCH    3    4
ENDBRANCH    2    3
ENDBRANCH   21    2
ENDBRANCH   23   21
ENDBRANCH   24   23
ENDBRANCH   25   24
ENDBRANCH   26   25
ENDBRANCH   27   26
ENDBRANCH   28   27
ENDBRANCH   29   28
ENDBRANCH   30   29
ENDBRANCH   31   30
ENDBRANCH   33   31
ENDBRANCH   37   36
BRANCH   41   42
ATOM     42  C32 UNL A   1      17.702  55.425   0.635  1.00  0.00    +0.000 C 
ATOM     43  C33 UNL A   1      17.133  56.211  -0.378  1.00  0.00    +0.000 C 
ATOM     44  F1  UNL A   1      15.927  55.899  -0.877  1.00  0.00    +0.000 F 
ATOM     45  C34 UNL A   1      17.819  57.299  -0.911  1.00  0.00    +0.000 C 
ATOM     46  F2  UNL A   1      17.276  58.007  -1.910  1.00  0.00    +0.000 F 
ATOM     47  C35 UNL A   1      19.068  57.644  -0.417  1.00  0.00    +0.000 C 
ATOM     48  F3  UNL A   1      19.724  58.696  -0.927  1.00  0.00    +0.000 F 
ATOM     49  C36 UNL A   1      19.640  56.894   0.599  1.00  0.00    +0.000 C 
ATOM     50  F4  UNL A   1      20.842  57.233   1.085  1.00  0.00    +0.000 F 
ATOM     51  C37 UNL A   1      18.969  55.787   1.114  1.00  0.00    +0.000 C 
ATOM     52  F5  UNL A   1      19.556  55.074   2.088  1.00  0.00    +0.000 F 
ENDBRANCH   41   42
BRANCH   58   59
ATOM     65  F8  UNL A   1      18.251  45.638  -3.448  1.00  0.00    +0.000 F 
ATOM     66  C47 UNL A   1      18.545  46.876  -1.458  1.00  0.00    +0.000 C 
ATOM     67  F9  UNL A   1      19.752  46.323  -1.276  1.00  0.00    +0.000 F 
ATOM     68  C48 UNL A   1      18.054  47.792  -0.531  1.00  0.00    +0.000 C 
ATOM     69  F10 UNL A   1      18.806  48.094   0.538  1.00  0.00    +0.000 F 
ATOM     59  C43 UNL A   1      16.803  48.399  -0.711  1.00  0.00    +0.000 C 
ATOM     60  C44 UNL A   1      16.059  48.052  -1.849  1.00  0.00    +0.000 C 
ATOM     61  F6  UNL A   1      14.849  48.595  -2.056  1.00  0.00    +0.000 F 
ATOM     62  C45 UNL A   1      16.542  47.116  -2.759  1.00  0.00    +0.000 C 
ATOM     63  F7  UNL A   1      15.795  46.766  -3.816  1.00  0.00    +0.000 F 
ATOM     64  C46 UNL A   1      17.786  46.534  -2.567  1.00  0.00    +0.000 C 
ENDBRANCH   58   59
BRANCH   73   74
ATOM     74  C52 UNL A   1      12.427  47.983   4.691  1.00  0.00    +0.000 C 
ATOM     75  C53 UNL A   1      11.196  47.621   4.127  1.00  0.00    +0.000 C 
ATOM     76  F11 UNL A   1      10.724  48.292   3.066  1.00  0.00    +0.000 F 
ATOM     77  C54 UNL A   1      10.429  46.594   4.671  1.00  0.00    +0.000 C 
ATOM     78  F12 UNL A   1       9.237  46.296   4.137  1.00  0.00    +0.000 F 
ATOM     79  C55 UNL A   1      10.890  45.891   5.774  1.00  0.00    +0.000 C 
ATOM     80  F13 UNL A   1      10.154  44.900   6.294  1.00  0.00    +0.000 F 
ATOM     81  C56 UNL A   1      12.112  46.220   6.340  1.00  0.00    +0.000 C 
ATOM     82  F14 UNL A   1      12.567  45.534   7.397  1.00  0.00    +0.000 F 
ATOM     83  C57 UNL A   1      12.869  47.264   5.811  1.00  0.00    +0.000 C 
ATOM     84  F15 UNL A   1      14.043  47.568   6.384  1.00  0.00    +0.000 F 
ENDBRANCH   73   74
TORSDOF 22
ENDMDL
MODEL 6
REMARK VINA RESULT:      -8.6     29.266     34.830
ROOT
ATOM    129  H34 UNL A   1      19.999  16.489   4.914  1.00  0.00    +0.000 H 
ATOM    130  H35 UNL A   1      16.799  18.547   6.588  1.00  0.00    +0.000 H 
ATOM    131  H36 UNL A   1      15.830  22.373   3.474  1.00  0.00    +0.000 H 
ATOM    132  H37 UNL A   1      14.007  23.085   5.124  1.00  0.00    +0.000 H 
ATOM    133  H38 UNL A   1      15.855  15.000  10.793  1.00  0.00    +0.000 H 
ATOM    134  H39 UNL A   1      17.964  14.525   9.422  1.00  0.00    +0.000 H 
ATOM     37  C28 UNL A   1      18.286  16.253   7.179  1.00  0.00    +0.000 C 
ATOM     38  C29 UNL A   1      17.238  16.328   8.255  1.00  0.00    +0.000 C 
ATOM     39  N5  UNL A   1      16.261  17.188   8.401  1.00  0.00    +0.000 N 
ATOM     40  C30 UNL A   1      15.562  16.778   9.528  1.00  0.00    +0.000 C 
ATOM     41  C31 UNL A   1      14.499  17.368  10.125  1.00  0.00    +0.000 C 
ATOM     53  C38 UNL A   1      13.888  18.589   9.668  1.00  0.00    +0.000 C 
ATOM     54  C39 UNL A   1      12.847  19.300  10.240  1.00  0.00    +0.000 C 
ATOM     55  C40 UNL A   1      12.571  20.403   9.424  1.00  0.00    +0.000 C 
ATOM     56  C41 UNL A   1      13.467  20.402   8.367  1.00  0.00    +0.000 C 
ATOM     57  N6  UNL A   1      14.266  19.281   8.527  1.00  0.00    +0.000 N 
ATOM     58  C42 UNL A   1      13.587  21.352   7.292  1.00  0.00    +0.000 C 
ATOM     70  C49 UNL A   1      14.500  21.285   6.292  1.00  0.00    +0.000 C 
ATOM     71  N7  UNL A   1      15.494  20.340   6.080  1.00  0.00    +0.000 N 
ATOM     72  C50 UNL A   1      16.107  20.702   4.981  1.00  0.00    +0.000 C 
ATOM     73  C51 UNL A   1      17.281  20.059   4.293  1.00  0.00    +0.000 C 
ATOM     85  C58 UNL A   1      17.850  18.969   4.841  1.00  0.00    +0.000 C 
ATOM     86  C59 UNL A   1      18.994  18.245   4.295  1.00  0.00    +0.000 C 
ATOM     87  C60 UNL A   1      19.255  17.185   5.077  1.00  0.00    +0.000 C 
ATOM     88  C61 UNL A   1      18.317  17.176   6.200  1.00  0.00    +0.000 C 
ATOM     89  N8  UNL A   1      17.527  18.278   5.983  1.00  0.00    +0.000 N 
ATOM     90  C62 UNL A   1      15.552  21.909   4.353  1.00  0.00    +0.000 C 
ATOM     91  C63 UNL A   1      14.601  22.246   5.213  1.00  0.00    +0.000 C 
ATOM     92  C64 UNL A   1      16.197  15.567  10.002  1.00  0.00    +0.000 C 
ATOM     93  C65 UNL A   1      17.277  15.282   9.288  1.00  0.00    +0.000 C 
ATOM    125  H30 UNL A   1      12.359  19.060  11.116  1.00  0.00    +0.000 H 
ATOM    126  H31 UNL A   1      11.825  21.100   9.582  1.00  0.00    +0.000 H 
ATOM    127  H32 UNL A   1      14.994  19.015   7.920  1.00  0.00    +0.000 H 
ATOM    128  H33 UNL A   1      19.516  18.505   3.445  1.00  0.00    +0.000 H 
ENDROOT
BRANCH   37   36
ATOM     33  C24 UNL A   1      21.057  12.980   7.167  1.00  0.00    +0.000 C 
ATOM     34  C25 UNL A   1      19.881  12.894   6.414  1.00  0.00    +0.000 C 
ATOM     35  C26 UNL A   1      18.986  13.967   6.393  1.00  0.00    +0.000 C 
ATOM     36  C27 UNL A   1      19.246  15.120   7.150  1.00  0.00    +0.000 C 
ATOM    135  H40 UNL A   1      20.633  16.044   8.452  1.00  0.00    +0.000 H 
ATOM    136  H41 UNL A   1      22.263  14.253   8.343  1.00  0.00    +0.000 H 
ATOM    123  H28 UNL A   1      19.675  12.039   5.874  1.00  0.00    +0.000 H 
ATOM    124  H29 UNL A   1      18.131  13.911   5.819  1.00  0.00    +0.000 H 
ATOM     94  C66 UNL A   1      20.437  15.203   7.886  1.00  0.00    +0.000 C 
ATOM     95  C67 UNL A   1      21.358  14.158   7.856  1.00  0.00    +0.000 C 
BRANCH   33   31
ATOM     31  C23 UNL A   1      21.992  11.831   7.166  1.00  0.00    +0.000 C 
ATOM     32  O3  UNL A   1      22.473  11.439   8.220  1.00  0.00    +0.000 O 
BRANCH   31   30
ATOM    122  H27 UNL A   1      21.810  10.374   5.800  1.00  0.00    +0.000 H 
ATOM     30  N4  UNL A   1      22.312  11.199   5.988  1.00  0.00    +0.000 N 
BRANCH   30   29
ATOM    121  H26 UNL A   1      23.089  11.016   4.094  1.00  0.00    +0.000 H 
ATOM     29  C22 UNL A   1      23.290  11.580   4.981  1.00  0.00    +0.000 C 
ATOM    120  H25 UNL A   1      24.271  11.373   5.355  1.00  0.00    +0.000 H 
BRANCH   29   28
ATOM     28  C21 UNL A   1      23.198  13.063   4.629  1.00  0.00    +0.000 C 
ATOM    118  H23 UNL A   1      23.409  13.171   3.585  1.00  0.00    +0.000 H 
ATOM    119  H24 UNL A   1      22.210  13.374   4.897  1.00  0.00    +0.000 H 
BRANCH   28   27
ATOM     27  C20 UNL A   1      24.159  13.974   5.405  1.00  0.00    +0.000 C 
ATOM    116  H21 UNL A   1      24.072  13.735   6.444  1.00  0.00    +0.000 H 
ATOM    117  H22 UNL A   1      25.131  13.789   4.999  1.00  0.00    +0.000 H 
BRANCH   27   26
ATOM     26  C19 UNL A   1      23.917  15.480   5.246  1.00  0.00    +0.000 C 
ATOM    115  H20 UNL A   1      23.270  15.771   6.047  1.00  0.00    +0.000 H 
ATOM    114  H19 UNL A   1      23.487  15.650   4.281  1.00  0.00    +0.000 H 
BRANCH   26   25
ATOM     25  C18 UNL A   1      25.178  16.339   5.367  1.00  0.00    +0.000 C 
ATOM    113  H18 UNL A   1      24.854  17.330   5.607  1.00  0.00    +0.000 H 
ATOM    112  H17 UNL A   1      25.708  16.290   4.439  1.00  0.00    +0.000 H 
BRANCH   25   24
ATOM    110  H15 UNL A   1      25.951  16.496   7.362  1.00  0.00    +0.000 H 
ATOM    111  H16 UNL A   1      25.963  14.869   6.713  1.00  0.00    +0.000 H 
ATOM     24  C17 UNL A   1      26.134  15.901   6.491  1.00  0.00    +0.000 C 
BRANCH   24   23
ATOM    109  H14 UNL A   1      28.042  15.252   5.971  1.00  0.00    +0.000 H 
ATOM     23  N3  UNL A   1      27.510  16.075   6.072  1.00  0.00    +0.000 N 
BRANCH   23   21
ATOM     21  C16 UNL A   1      28.158  17.259   5.797  1.00  0.00    +0.000 C 
ATOM     22  O2  UNL A   1      28.588  17.452   4.661  1.00  0.00    +0.000 O 
BRANCH   21    2
ATOM      2  C2  UNL A   1      28.555  18.262   6.868  1.00  0.00    +0.000 C 
BRANCH    2    1
ATOM      1  C1  UNL A   1      29.504  17.702   7.900  1.00  0.00    +0.000 C 
ATOM     98  H3  UNL A   1      30.309  18.389   8.054  1.00  0.00    +0.000 H 
ATOM     97  H2  UNL A   1      28.981  17.552   8.821  1.00  0.00    +0.000 H 
ATOM     96  H1  UNL A   1      29.895  16.767   7.555  1.00  0.00    +0.000 H 
ENDBRANCH    2    1
BRANCH    2    3
ATOM      3  N1  UNL A   1      28.247  19.524   6.964  1.00  0.00    +0.000 N 
BRANCH    3    4
ATOM      4  O1  UNL A   1      26.933  19.807   6.609  1.00  0.00    +0.000 O 
BRANCH    4    5
ATOM     99  H4  UNL A   1      25.966  20.661   8.185  1.00  0.00    +0.000 H 
ATOM    100  H5  UNL A   1      26.490  18.949   8.367  1.00  0.00    +0.000 H 
ATOM      5  C3  UNL A   1      26.050  19.693   7.738  1.00  0.00    +0.000 C 
BRANCH    5    6
ATOM    101  H6  UNL A   1      24.516  20.066   5.524  1.00  0.00    +0.000 H 
ATOM      6  C4  UNL A   1      24.643  19.195   7.449  1.00  0.00    +0.000 C 
ATOM      7  C5  UNL A   1      23.999  19.548   6.251  1.00  0.00    +0.000 C 
ATOM      8  C6  UNL A   1      22.663  19.203   6.040  1.00  0.00    +0.000 C 
ATOM    102  H7  UNL A   1      22.202  19.445   5.149  1.00  0.00    +0.000 H 
ATOM     10  C8  UNL A   1      22.594  18.157   8.217  1.00  0.00    +0.000 C 
ATOM     11  C9  UNL A   1      23.956  18.414   8.408  1.00  0.00    +0.000 C 
ATOM    104  H9  UNL A   1      22.054  17.685   8.959  1.00  0.00    +0.000 H 
ATOM      9  C7  UNL A   1      21.955  18.532   7.032  1.00  0.00    +0.000 C 
ATOM    103  H8  UNL A   1      20.957  18.312   6.893  1.00  0.00    +0.000 H 
BRANCH   11   12
ATOM    105  H10 UNL A   1      25.551  17.625   9.414  1.00  0.00    +0.000 H 
ATOM     12  N2  UNL A   1      24.659  18.012   9.571  1.00  0.00    +0.000 N 
BRANCH   12   13
ATOM    106  H11 UNL A   1      22.606  16.220  13.206  1.00  0.00    +0.000 H 
ATOM    107  H12 UNL A   1      22.904  18.225  14.540  1.00  0.00    +0.000 H 
ATOM    108  H13 UNL A   1      23.999  20.162  13.576  1.00  0.00    +0.000 H 
ATOM     13  C10 UNL A   1      24.260  18.090  10.928  1.00  0.00    +0.000 C 
ATOM     14  C11 UNL A   1      23.578  16.993  11.498  1.00  0.00    +0.000 C 
ATOM     15 Cl1  UNL A   1      23.306  15.538  10.596  1.00  0.00    +0.000 Cl
ATOM     16  C12 UNL A   1      23.088  17.041  12.806  1.00  0.00    +0.000 C 
ATOM     17  C13 UNL A   1      23.250  18.193  13.569  1.00  0.00    +0.000 C 
ATOM     18  C14 UNL A   1      23.885  19.302  13.014  1.00  0.00    +0.000 C 
ATOM     19  C15 UNL A   1      24.368  19.262  11.700  1.00  0.00    +0.000 C 
ATOM     20 Cl2  UNL A   1      25.048  20.722  11.070  1.00  0.00    +0.000 Cl
ENDBRANCH   12   13
ENDBRANCH   11   12
ENDBRANCH    5    6
ENDBRANCH    4    5
ENDBRANCH    3    4
ENDBRANCH    2    3
ENDBRANCH   21    2
ENDBRANCH   23   21
ENDBRANCH   24   23
ENDBRANCH   25   24
ENDBRANCH   26   25
ENDBRANCH   27   26
ENDBRANCH   28   27
ENDBRANCH   29   28
ENDBRANCH   30   29
ENDBRANCH   31   30
ENDBRANCH   33   31
ENDBRANCH   37   36
BRANCH   41   42
ATOM     42  C32 UNL A   1      13.928  16.701  11.343  1.00  0.00    +0.000 C 
ATOM     43  C33 UNL A   1      12.948  15.703  11.241  1.00  0.00    +0.000 C 
ATOM     44  F1  UNL A   1      12.463  15.352  10.039  1.00  0.00    +0.000 F 
ATOM     45  C34 UNL A   1      12.432  15.086  12.378  1.00  0.00    +0.000 C 
ATOM     46  F2  UNL A   1      11.463  14.169  12.259  1.00  0.00    +0.000 F 
ATOM     47  C35 UNL A   1      12.910  15.430  13.633  1.00  0.00    +0.000 C 
ATOM     48  F3  UNL A   1      12.417  14.830  14.726  1.00  0.00    +0.000 F 
ATOM     49  C36 UNL A   1      13.894  16.399  13.756  1.00  0.00    +0.000 C 
ATOM     50  F4  UNL A   1      14.365  16.723  14.968  1.00  0.00    +0.000 F 
ATOM     51  C37 UNL A   1      14.392  17.038  12.623  1.00  0.00    +0.000 C 
ATOM     52  F5  UNL A   1      15.333  17.981  12.776  1.00  0.00    +0.000 F 
ENDBRANCH   41   42
BRANCH   58   59
ATOM     65  F8  UNL A   1      10.053  25.755   7.157  1.00  0.00    +0.000 F 
ATOM     66  C47 UNL A   1      10.597  23.558   6.481  1.00  0.00    +0.000 C 
ATOM     67  F9  UNL A   1       9.480  23.494   5.743  1.00  0.00    +0.000 F 
ATOM     68  C48 UNL A   1      11.459  22.467   6.533  1.00  0.00    +0.000 C 
ATOM     69  F10 UNL A   1      11.142  21.360   5.845  1.00  0.00    +0.000 F 
ATOM     59  C43 UNL A   1      12.645  22.519   7.282  1.00  0.00    +0.000 C 
ATOM     60  C44 UNL A   1      12.932  23.701   7.980  1.00  0.00    +0.000 C 
ATOM     61  F6  UNL A   1      14.046  23.793   8.722  1.00  0.00    +0.000 F 
ATOM     62  C45 UNL A   1      12.055  24.781   7.946  1.00  0.00    +0.000 C 
ATOM     63  F7  UNL A   1      12.327  25.886   8.656  1.00  0.00    +0.000 F 
ATOM     64  C46 UNL A   1      10.893  24.712   7.192  1.00  0.00    +0.000 C 
ENDBRANCH   58   59
BRANCH   73   74
ATOM     74  C52 UNL A   1      17.837  20.633   3.042  1.00  0.00    +0.000 C 
ATOM     75  C53 UNL A   1      17.323  20.262   1.792  1.00  0.00    +0.000 C 
ATOM     76  F11 UNL A   1      16.333  19.361   1.717  1.00  0.00    +0.000 F 
ATOM     77  C54 UNL A   1      17.847  20.787   0.613  1.00  0.00    +0.000 C 
ATOM     78  F12 UNL A   1      17.364  20.383  -0.570  1.00  0.00    +0.000 F 
ATOM     79  C55 UNL A   1      18.878  21.712   0.662  1.00  0.00    +0.000 C 
ATOM     80  F13 UNL A   1      19.379  22.220  -0.472  1.00  0.00    +0.000 F 
ATOM     81  C56 UNL A   1      19.393  22.107   1.887  1.00  0.00    +0.000 C 
ATOM     82  F14 UNL A   1      20.380  23.012   1.939  1.00  0.00    +0.000 F 
ATOM     83  C57 UNL A   1      18.886  21.564   3.066  1.00  0.00    +0.000 C 
ATOM     84  F15 UNL A   1      19.409  21.956   4.238  1.00  0.00    +0.000 F 
ENDBRANCH   73   74
TORSDOF 22
ENDMDL
MODEL 7
REMARK VINA RESULT:      -8.6      0.347      2.128
ROOT
ATOM    129  H34 UNL A   1      11.587  51.562   5.018  1.00  0.00    +0.000 H 
ATOM    130  H35 UNL A   1      14.544  52.479   2.244  1.00  0.00    +0.000 H 
ATOM    131  H36 UNL A   1      15.635  57.337   2.938  1.00  0.00    +0.000 H 
ATOM    132  H37 UNL A   1      17.277  57.114   0.986  1.00  0.00    +0.000 H 
ATOM    133  H38 UNL A   1      15.250  47.299   0.288  1.00  0.00    +0.000 H 
ATOM    134  H39 UNL A   1      13.290  47.592   1.909  1.00  0.00    +0.000 H 
ATOM     37  C28 UNL A   1      13.101  50.212   3.017  1.00  0.00    +0.000 C 
ATOM     38  C29 UNL A   1      14.046  49.730   1.951  1.00  0.00    +0.000 C 
ATOM     39  N5  UNL A   1      14.972  50.393   1.304  1.00  0.00    +0.000 N 
ATOM     40  C30 UNL A   1      15.584  49.468   0.468  1.00  0.00    +0.000 C 
ATOM     41  C31 UNL A   1      16.568  49.672  -0.442  1.00  0.00    +0.000 C 
ATOM     53  C38 UNL A   1      17.168  50.951  -0.712  1.00  0.00    +0.000 C 
ATOM     54  C39 UNL A   1      18.126  51.273  -1.659  1.00  0.00    +0.000 C 
ATOM     55  C40 UNL A   1      18.431  52.632  -1.529  1.00  0.00    +0.000 C 
ATOM     56  C41 UNL A   1      17.632  53.167  -0.531  1.00  0.00    +0.000 C 
ATOM     57  N6  UNL A   1      16.866  52.123  -0.035  1.00  0.00    +0.000 N 
ATOM     58  C42 UNL A   1      17.571  54.527  -0.064  1.00  0.00    +0.000 C 
ATOM     70  C49 UNL A   1      16.752  54.977   0.919  1.00  0.00    +0.000 C 
ATOM     71  N7  UNL A   1      15.819  54.273   1.667  1.00  0.00    +0.000 N 
ATOM     72  C50 UNL A   1      15.291  55.141   2.494  1.00  0.00    +0.000 C 
ATOM     73  C51 UNL A   1      14.208  54.939   3.519  1.00  0.00    +0.000 C 
ATOM     85  C58 UNL A   1      13.636  53.726   3.642  1.00  0.00    +0.000 C 
ATOM     86  C59 UNL A   1      12.574  53.383   4.583  1.00  0.00    +0.000 C 
ATOM     87  C60 UNL A   1      12.286  52.077   4.459  1.00  0.00    +0.000 C 
ATOM     88  C61 UNL A   1      13.121  51.500   3.405  1.00  0.00    +0.000 C 
ATOM     89  N8  UNL A   1      13.883  52.555   2.970  1.00  0.00    +0.000 N 
ATOM     90  C62 UNL A   1      15.853  56.494   2.383  1.00  0.00    +0.000 C 
ATOM     91  C63 UNL A   1      16.711  56.348   1.383  1.00  0.00    +0.000 C 
ATOM     92  C64 UNL A   1      14.957  48.189   0.722  1.00  0.00    +0.000 C 
ATOM     93  C65 UNL A   1      13.957  48.309   1.583  1.00  0.00    +0.000 C 
ATOM    125  H30 UNL A   1      18.544  50.622  -2.342  1.00  0.00    +0.000 H 
ATOM    126  H31 UNL A   1      19.132  53.150  -2.083  1.00  0.00    +0.000 H 
ATOM    127  H32 UNL A   1      16.205  52.203   0.690  1.00  0.00    +0.000 H 
ATOM    128  H33 UNL A   1      12.119  54.037   5.237  1.00  0.00    +0.000 H 
ENDROOT
BRANCH   37   36
ATOM     33  C24 UNL A   1      10.462  47.416   4.916  1.00  0.00    +0.000 C 
ATOM     34  C25 UNL A   1      11.775  47.551   5.379  1.00  0.00    +0.000 C 
ATOM     35  C26 UNL A   1      12.632  48.479   4.781  1.00  0.00    +0.000 C 
ATOM     36  C27 UNL A   1      12.192  49.254   3.696  1.00  0.00    +0.000 C 
ATOM    135  H40 UNL A   1      10.537  49.682   2.450  1.00  0.00    +0.000 H 
ATOM    136  H41 UNL A   1       9.004  48.201   3.605  1.00  0.00    +0.000 H 
ATOM    123  H28 UNL A   1      12.110  46.968   6.162  1.00  0.00    +0.000 H 
ATOM    124  H29 UNL A   1      13.593  48.594   5.138  1.00  0.00    +0.000 H 
ATOM     94  C66 UNL A   1      10.868  49.123   3.253  1.00  0.00    +0.000 C 
ATOM     95  C67 UNL A   1       9.995  48.243   3.890  1.00  0.00    +0.000 C 
BRANCH   33   31
ATOM     31  C23 UNL A   1       9.571  46.430   5.572  1.00  0.00    +0.000 C 
ATOM     32  O3  UNL A   1       8.942  45.632   4.890  1.00  0.00    +0.000 O 
BRANCH   31   30
ATOM    122  H27 UNL A   1       8.757  46.982   7.320  1.00  0.00    +0.000 H 
ATOM     30  N4  UNL A   1       9.458  46.403   6.941  1.00  0.00    +0.000 N 
BRANCH   30   29
ATOM    121  H26 UNL A   1      10.790  44.900   7.376  1.00  0.00    +0.000 H 
ATOM     29  C22 UNL A   1      10.228  45.638   7.909  1.00  0.00    +0.000 C 
ATOM    120  H25 UNL A   1       9.555  45.182   8.605  1.00  0.00    +0.000 H 
BRANCH   29   28
ATOM     28  C21 UNL A   1      11.212  46.517   8.678  1.00  0.00    +0.000 C 
ATOM    118  H23 UNL A   1      11.814  47.043   7.967  1.00  0.00    +0.000 H 
ATOM    119  H24 UNL A   1      10.620  47.162   9.293  1.00  0.00    +0.000 H 
BRANCH   28   27
ATOM     27  C20 UNL A   1      12.149  45.762   9.630  1.00  0.00    +0.000 C 
ATOM    116  H21 UNL A   1      12.197  44.744   9.306  1.00  0.00    +0.000 H 
ATOM    117  H22 UNL A   1      13.087  46.274   9.586  1.00  0.00    +0.000 H 
BRANCH   27   26
ATOM     26  C19 UNL A   1      11.737  45.768  11.107  1.00  0.00    +0.000 C 
ATOM    115  H20 UNL A   1      12.643  45.789  11.677  1.00  0.00    +0.000 H 
ATOM    114  H19 UNL A   1      11.149  44.893  11.294  1.00  0.00    +0.000 H 
BRANCH   26   25
ATOM     25  C18 UNL A   1      10.923  46.993  11.532  1.00  0.00    +0.000 C 
ATOM    113  H18 UNL A   1       9.914  46.814  11.222  1.00  0.00    +0.000 H 
ATOM    112  H17 UNL A   1      11.352  47.857  11.069  1.00  0.00    +0.000 H 
BRANCH   25   24
ATOM    110  H15 UNL A   1      10.442  46.379  13.530  1.00  0.00    +0.000 H 
ATOM    111  H16 UNL A   1      11.884  47.366  13.409  1.00  0.00    +0.000 H 
ATOM     24  C17 UNL A   1      10.885  47.228  13.052  1.00  0.00    +0.000 C 
BRANCH   24   23
ATOM    109  H14 UNL A   1       9.140  48.358  13.164  1.00  0.00    +0.000 H 
ATOM     23  N3  UNL A   1      10.105  48.411  13.354  1.00  0.00    +0.000 N 
BRANCH   23   21
ATOM     21  C16 UNL A   1      10.559  49.601  13.879  1.00  0.00    +0.000 C 
ATOM     22  O2  UNL A   1       9.795  50.280  14.563  1.00  0.00    +0.000 O 
BRANCH   21    2
ATOM      2  C2  UNL A   1      11.889  50.231  13.494  1.00  0.00    +0.000 C 
BRANCH    2    1
ATOM      1  C1  UNL A   1      12.898  50.248  14.617  1.00  0.00    +0.000 C 
ATOM     98  H3  UNL A   1      13.843  49.906  14.252  1.00  0.00    +0.000 H 
ATOM     97  H2  UNL A   1      12.998  51.246  14.991  1.00  0.00    +0.000 H 
ATOM     96  H1  UNL A   1      12.567  49.603  15.405  1.00  0.00    +0.000 H 
ENDBRANCH    2    1
BRANCH    2    3
ATOM      3  N1  UNL A   1      12.279  50.676  12.334  1.00  0.00    +0.000 N 
BRANCH    3    4
ATOM      4  O1  UNL A   1      13.043  49.765  11.614  1.00  0.00    +0.000 O 
BRANCH    4    5
ATOM     99  H4  UNL A   1      13.432  51.431  10.510  1.00  0.00    +0.000 H 
ATOM    100  H5  UNL A   1      13.367  49.859   9.637  1.00  0.00    +0.000 H 
ATOM      5  C3  UNL A   1      13.698  50.395  10.501  1.00  0.00    +0.000 C 
BRANCH    5    6
ATOM    101  H6  UNL A   1      15.464  50.451  12.568  1.00  0.00    +0.000 H 
ATOM      6  C4  UNL A   1      15.216  50.308  10.470  1.00  0.00    +0.000 C 
ATOM      7  C5  UNL A   1      15.954  50.412  11.661  1.00  0.00    +0.000 C 
ATOM      8  C6  UNL A   1      17.348  50.464  11.624  1.00  0.00    +0.000 C 
ATOM    102  H7  UNL A   1      17.887  50.517  12.503  1.00  0.00    +0.000 H 
ATOM     10  C8  UNL A   1      17.285  50.318   9.213  1.00  0.00    +0.000 C 
ATOM     11  C9  UNL A   1      15.894  50.173   9.236  1.00  0.00    +0.000 C 
ATOM    104  H9  UNL A   1      17.782  50.332   8.308  1.00  0.00    +0.000 H 
ATOM      9  C7  UNL A   1      18.011  50.444  10.400  1.00  0.00    +0.000 C 
ATOM    103  H8  UNL A   1      19.039  50.522  10.370  1.00  0.00    +0.000 H 
BRANCH   11   12
ATOM    105  H10 UNL A   1      14.157  50.186   8.158  1.00  0.00    +0.000 H 
ATOM     12  N2  UNL A   1      15.119  49.995   8.063  1.00  0.00    +0.000 N 
BRANCH   12   13
ATOM    106  H11 UNL A   1      16.370  46.733   5.159  1.00  0.00    +0.000 H 
ATOM    107  H12 UNL A   1      16.879  48.310   3.386  1.00  0.00    +0.000 H 
ATOM    108  H13 UNL A   1      16.598  50.687   3.770  1.00  0.00    +0.000 H 
ATOM     13  C10 UNL A   1      15.533  49.582   6.773  1.00  0.00    +0.000 C 
ATOM     14  C11 UNL A   1      15.748  48.207   6.538  1.00  0.00    +0.000 C 
ATOM     15 Cl1  UNL A   1      15.432  47.026   7.767  1.00  0.00    +0.000 Cl
ATOM     16  C12 UNL A   1      16.234  47.745   5.312  1.00  0.00    +0.000 C 
ATOM     17  C13 UNL A   1      16.535  48.649   4.297  1.00  0.00    +0.000 C 
ATOM     18  C14 UNL A   1      16.367  50.014   4.519  1.00  0.00    +0.000 C 
ATOM     19  C15 UNL A   1      15.891  50.481   5.750  1.00  0.00    +0.000 C 
ATOM     20 Cl2  UNL A   1      15.815  52.196   5.962  1.00  0.00    +0.000 Cl
ENDBRANCH   12   13
ENDBRANCH   11   12
ENDBRANCH    5    6
ENDBRANCH    4    5
ENDBRANCH    3    4
ENDBRANCH    2    3
ENDBRANCH   21    2
ENDBRANCH   23   21
ENDBRANCH   24   23
ENDBRANCH   25   24
ENDBRANCH   26   25
ENDBRANCH   27   26
ENDBRANCH   28   27
ENDBRANCH   29   28
ENDBRANCH   30   29
ENDBRANCH   31   30
ENDBRANCH   33   31
ENDBRANCH   37   36
BRANCH   41   42
ATOM     42  C32 UNL A   1      17.054  48.481  -1.216  1.00  0.00    +0.000 C 
ATOM     43  C33 UNL A   1      18.143  47.714  -0.774  1.00  0.00    +0.000 C 
ATOM     44  F1  UNL A   1      18.806  48.062   0.339  1.00  0.00    +0.000 F 
ATOM     45  C34 UNL A   1      18.579  46.607  -1.497  1.00  0.00    +0.000 C 
ATOM     46  F2  UNL A   1      19.650  45.917  -1.081  1.00  0.00    +0.000 F 
ATOM     47  C35 UNL A   1      17.915  46.225  -2.654  1.00  0.00    +0.000 C 
ATOM     48  F3  UNL A   1      18.334  45.155  -3.345  1.00  0.00    +0.000 F 
ATOM     49  C36 UNL A   1      16.824  46.956  -3.097  1.00  0.00    +0.000 C 
ATOM     50  F4  UNL A   1      16.175  46.581  -4.207  1.00  0.00    +0.000 F 
ATOM     51  C37 UNL A   1      16.402  48.080  -2.391  1.00  0.00    +0.000 C 
ATOM     52  F5  UNL A   1      15.352  48.775  -2.854  1.00  0.00    +0.000 F 
ENDBRANCH   41   42
BRANCH   58   59
ATOM     65  F8  UNL A   1      20.921  58.381  -2.478  1.00  0.00    +0.000 F 
ATOM     66  C47 UNL A   1      20.463  56.919  -0.680  1.00  0.00    +0.000 C 
ATOM     67  F9  UNL A   1      21.578  57.320  -0.053  1.00  0.00    +0.000 F 
ATOM     68  C48 UNL A   1      19.646  55.954  -0.097  1.00  0.00    +0.000 C 
ATOM     69  F10 UNL A   1      20.005  55.435   1.087  1.00  0.00    +0.000 F 
ATOM     59  C43 UNL A   1      18.464  55.535  -0.725  1.00  0.00    +0.000 C 
ATOM     60  C44 UNL A   1      18.132  56.112  -1.959  1.00  0.00    +0.000 C 
ATOM     61  F6  UNL A   1      17.020  55.732  -2.606  1.00  0.00    +0.000 F 
ATOM     62  C45 UNL A   1      18.965  57.059  -2.551  1.00  0.00    +0.000 C 
ATOM     63  F7  UNL A   1      18.651  57.566  -3.752  1.00  0.00    +0.000 F 
ATOM     64  C46 UNL A   1      20.124  57.466  -1.909  1.00  0.00    +0.000 C 
ENDBRANCH   58   59
BRANCH   73   74
ATOM     74  C52 UNL A   1      13.743  56.065   4.367  1.00  0.00    +0.000 C 
ATOM     75  C53 UNL A   1      12.696  56.896   3.946  1.00  0.00    +0.000 C 
ATOM     76  F11 UNL A   1      12.118  56.690   2.753  1.00  0.00    +0.000 F 
ATOM     77  C54 UNL A   1      12.262  57.962   4.730  1.00  0.00    +0.000 C 
ATOM     78  F12 UNL A   1      11.287  58.765   4.284  1.00  0.00    +0.000 F 
ATOM     79  C55 UNL A   1      12.850  58.203   5.962  1.00  0.00    +0.000 C 
ATOM     80  F13 UNL A   1      12.430  59.226   6.718  1.00  0.00    +0.000 F 
ATOM     81  C56 UNL A   1      13.878  57.386   6.408  1.00  0.00    +0.000 C 
ATOM     82  F14 UNL A   1      14.439  57.607   7.604  1.00  0.00    +0.000 F 
ATOM     83  C57 UNL A   1      14.329  56.334   5.613  1.00  0.00    +0.000 C 
ATOM     84  F15 UNL A   1      15.331  55.564   6.063  1.00  0.00    +0.000 F 
ENDBRANCH   73   74
TORSDOF 22
ENDMDL
MODEL 8
REMARK VINA RESULT:      -8.5     47.082     52.157
ROOT
ATOM    129  H34 UNL A   1      54.255  18.809   9.276  1.00  0.00    +0.000 H 
ATOM    130  H35 UNL A   1      55.653  19.670  13.095  1.00  0.00    +0.000 H 
ATOM    131  H36 UNL A   1      60.444  18.151  13.191  1.00  0.00    +0.000 H 
ATOM    132  H37 UNL A   1      60.491  18.881  15.644  1.00  0.00    +0.000 H 
ATOM    133  H38 UNL A   1      51.083  22.324  14.892  1.00  0.00    +0.000 H 
ATOM    134  H39 UNL A   1      50.858  21.199  12.603  1.00  0.00    +0.000 H 
ATOM     37  C28 UNL A   1      53.278  20.027  11.660  1.00  0.00    +0.000 C 
ATOM     38  C29 UNL A   1      53.023  20.655  13.002  1.00  0.00    +0.000 C 
ATOM     39  N5  UNL A   1      53.837  20.799  14.018  1.00  0.00    +0.000 N 
ATOM     40  C30 UNL A   1      53.116  21.485  14.986  1.00  0.00    +0.000 C 
ATOM     41  C31 UNL A   1      53.499  21.829  16.239  1.00  0.00    +0.000 C 
ATOM     53  C38 UNL A   1      54.784  21.518  16.808  1.00  0.00    +0.000 C 
ATOM     54  C39 UNL A   1      55.244  21.768  18.090  1.00  0.00    +0.000 C 
ATOM     55  C40 UNL A   1      56.567  21.320  18.175  1.00  0.00    +0.000 C 
ATOM     56  C41 UNL A   1      56.917  20.754  16.959  1.00  0.00    +0.000 C 
ATOM     57  N6  UNL A   1      55.815  20.886  16.129  1.00  0.00    +0.000 N 
ATOM     58  C42 UNL A   1      58.162  20.137  16.582  1.00  0.00    +0.000 C 
ATOM     70  C49 UNL A   1      58.427  19.595  15.368  1.00  0.00    +0.000 C 
ATOM     71  N7  UNL A   1      57.601  19.502  14.256  1.00  0.00    +0.000 N 
ATOM     72  C50 UNL A   1      58.312  18.909  13.329  1.00  0.00    +0.000 C 
ATOM     73  C51 UNL A   1      57.915  18.526  11.929  1.00  0.00    +0.000 C 
ATOM     85  C58 UNL A   1      56.660  18.773  11.509  1.00  0.00    +0.000 C 
ATOM     86  C59 UNL A   1      56.131  18.453  10.186  1.00  0.00    +0.000 C 
ATOM     87  C60 UNL A   1      54.862  18.886  10.106  1.00  0.00    +0.000 C 
ATOM     88  C61 UNL A   1      54.479  19.485  11.385  1.00  0.00    +0.000 C 
ATOM     89  N8  UNL A   1      55.605  19.363  12.161  1.00  0.00    +0.000 N 
ATOM     90  C62 UNL A   1      59.684  18.583  13.741  1.00  0.00    +0.000 C 
ATOM     91  C63 UNL A   1      59.689  18.986  15.003  1.00  0.00    +0.000 C 
ATOM     92  C64 UNL A   1      51.815  21.768  14.421  1.00  0.00    +0.000 C 
ATOM     93  C65 UNL A   1      51.684  21.221  13.222  1.00  0.00    +0.000 C 
ATOM    125  H30 UNL A   1      54.705  22.208  18.851  1.00  0.00    +0.000 H 
ATOM    126  H31 UNL A   1      57.179  21.399  19.002  1.00  0.00    +0.000 H 
ATOM    127  H32 UNL A   1      55.771  20.578  15.195  1.00  0.00    +0.000 H 
ATOM    128  H33 UNL A   1      56.648  17.972   9.435  1.00  0.00    +0.000 H 
ENDROOT
BRANCH   37   36
ATOM     33  C24 UNL A   1      50.306  20.147   8.572  1.00  0.00    +0.000 C 
ATOM     34  C25 UNL A   1      50.369  19.043   9.427  1.00  0.00    +0.000 C 
ATOM     35  C26 UNL A   1      51.319  19.009  10.452  1.00  0.00    +0.000 C 
ATOM     36  C27 UNL A   1      52.232  20.065  10.607  1.00  0.00    +0.000 C 
ATOM    135  H40 UNL A   1      52.817  21.953   9.857  1.00  0.00    +0.000 H 
ATOM    136  H41 UNL A   1      51.056  22.085   8.196  1.00  0.00    +0.000 H 
ATOM    123  H28 UNL A   1      49.716  18.254   9.303  1.00  0.00    +0.000 H 
ATOM    124  H29 UNL A   1      51.350  18.204  11.096  1.00  0.00    +0.000 H 
ATOM     94  C66 UNL A   1      52.145  21.175   9.756  1.00  0.00    +0.000 C 
ATOM     95  C67 UNL A   1      51.158  21.236   8.774  1.00  0.00    +0.000 C 
BRANCH   33   31
ATOM     31  C23 UNL A   1      49.285  20.161   7.498  1.00  0.00    +0.000 C 
ATOM     32  O3  UNL A   1      48.122  19.887   7.761  1.00  0.00    +0.000 O 
BRANCH   31   30
ATOM    122  H27 UNL A   1      49.389  21.399   5.923  1.00  0.00    +0.000 H 
ATOM     30  N4  UNL A   1      49.638  20.491   6.211  1.00  0.00    +0.000 N 
BRANCH   30   29
ATOM    121  H26 UNL A   1      49.943  19.948   4.252  1.00  0.00    +0.000 H 
ATOM     29  C22 UNL A   1      50.329  19.686   5.215  1.00  0.00    +0.000 C 
ATOM    120  H25 UNL A   1      50.161  18.652   5.430  1.00  0.00    +0.000 H 
BRANCH   29   28
ATOM     28  C21 UNL A   1      51.833  19.952   5.211  1.00  0.00    +0.000 C 
ATOM    118  H23 UNL A   1      52.087  20.411   4.278  1.00  0.00    +0.000 H 
ATOM    119  H24 UNL A   1      52.030  20.574   6.058  1.00  0.00    +0.000 H 
BRANCH   28   27
ATOM     27  C20 UNL A   1      52.712  18.705   5.383  1.00  0.00    +0.000 C 
ATOM    116  H21 UNL A   1      52.379  17.969   4.682  1.00  0.00    +0.000 H 
ATOM    117  H22 UNL A   1      53.718  19.031   5.223  1.00  0.00    +0.000 H 
BRANCH   27   26
ATOM     26  C19 UNL A   1      52.693  18.070   6.778  1.00  0.00    +0.000 C 
ATOM    115  H20 UNL A   1      51.775  17.527   6.854  1.00  0.00    +0.000 H 
ATOM    114  H19 UNL A   1      52.774  18.853   7.504  1.00  0.00    +0.000 H 
BRANCH   26   25
ATOM     25  C18 UNL A   1      53.820  17.065   7.030  1.00  0.00    +0.000 C 
ATOM    113  H18 UNL A   1      53.746  16.771   8.057  1.00  0.00    +0.000 H 
ATOM    112  H17 UNL A   1      54.750  17.540   6.801  1.00  0.00    +0.000 H 
BRANCH   25   24
ATOM    110  H15 UNL A   1      53.909  16.010   5.165  1.00  0.00    +0.000 H 
ATOM    111  H16 UNL A   1      54.434  15.070   6.547  1.00  0.00    +0.000 H 
ATOM     24  C17 UNL A   1      53.715  15.779   6.192  1.00  0.00    +0.000 C 
BRANCH   24   23
ATOM    109  H14 UNL A   1      52.050  15.083   7.230  1.00  0.00    +0.000 H 
ATOM     23  N3  UNL A   1      52.388  15.210   6.314  1.00  0.00    +0.000 N 
BRANCH   23   21
ATOM     21  C16 UNL A   1      51.545  14.828   5.293  1.00  0.00    +0.000 C 
ATOM     22  O2  UNL A   1      51.997  14.154   4.368  1.00  0.00    +0.000 O 
BRANCH   21    2
ATOM      2  C2  UNL A   1      50.130  15.362   5.134  1.00  0.00    +0.000 C 
BRANCH    2    1
ATOM      1  C1  UNL A   1      49.728  16.339   6.212  1.00  0.00    +0.000 C 
ATOM     98  H3  UNL A   1      49.546  17.298   5.774  1.00  0.00    +0.000 H 
ATOM     97  H2  UNL A   1      48.837  15.992   6.694  1.00  0.00    +0.000 H 
ATOM     96  H1  UNL A   1      50.515  16.420   6.933  1.00  0.00    +0.000 H 
ENDBRANCH    2    1
BRANCH    2    3
ATOM      3  N1  UNL A   1      49.276  15.145   4.176  1.00  0.00    +0.000 N 
BRANCH    3    4
ATOM      4  O1  UNL A   1      48.173  14.395   4.569  1.00  0.00    +0.000 O 
BRANCH    4    5
ATOM     99  H4  UNL A   1      46.783  14.099   3.111  1.00  0.00    +0.000 H 
ATOM    100  H5  UNL A   1      47.191  15.802   3.530  1.00  0.00    +0.000 H 
ATOM      5  C3  UNL A   1      46.982  14.814   3.882  1.00  0.00    +0.000 C 
BRANCH    5    6
ATOM    101  H6  UNL A   1      46.130  13.263   5.947  1.00  0.00    +0.000 H 
ATOM      6  C4  UNL A   1      45.724  14.944   4.726  1.00  0.00    +0.000 C 
ATOM      7  C5  UNL A   1      45.439  13.995   5.722  1.00  0.00    +0.000 C 
ATOM      8  C6  UNL A   1      44.224  14.037   6.408  1.00  0.00    +0.000 C 
ATOM    102  H7  UNL A   1      44.029  13.352   7.155  1.00  0.00    +0.000 H 
ATOM     10  C8  UNL A   1      43.562  15.965   5.111  1.00  0.00    +0.000 C 
ATOM     11  C9  UNL A   1      44.809  15.994   4.478  1.00  0.00    +0.000 C 
ATOM    104  H9  UNL A   1      42.844  16.661   4.857  1.00  0.00    +0.000 H 
ATOM      9  C7  UNL A   1      43.278  15.005   6.084  1.00  0.00    +0.000 C 
ATOM    103  H8  UNL A   1      42.364  15.011   6.564  1.00  0.00    +0.000 H 
BRANCH   11   12
ATOM    105  H10 UNL A   1      45.461  16.629   2.647  1.00  0.00    +0.000 H 
ATOM     12  N2  UNL A   1      45.163  16.976   3.518  1.00  0.00    +0.000 N 
BRANCH   12   13
ATOM    106  H11 UNL A   1      46.944  20.840   5.114  1.00  0.00    +0.000 H 
ATOM    107  H12 UNL A   1      45.129  22.199   4.250  1.00  0.00    +0.000 H 
ATOM    108  H13 UNL A   1      43.298  21.149   3.056  1.00  0.00    +0.000 H 
ATOM     13  C10 UNL A   1      45.146  18.388   3.638  1.00  0.00    +0.000 C 
ATOM     14  C11 UNL A   1      46.176  19.019   4.368  1.00  0.00    +0.000 C 
ATOM     15 Cl1  UNL A   1      47.490  18.107   5.037  1.00  0.00    +0.000 Cl
ATOM     16  C12 UNL A   1      46.171  20.399   4.589  1.00  0.00    +0.000 C 
ATOM     17  C13 UNL A   1      45.127  21.178   4.102  1.00  0.00    +0.000 C 
ATOM     18  C14 UNL A   1      44.079  20.573   3.412  1.00  0.00    +0.000 C 
ATOM     19  C15 UNL A   1      44.075  19.189   3.197  1.00  0.00    +0.000 C 
ATOM     20 Cl2  UNL A   1      42.682  18.520   2.420  1.00  0.00    +0.000 Cl
ENDBRANCH   12   13
ENDBRANCH   11   12
ENDBRANCH    5    6
ENDBRANCH    4    5
ENDBRANCH    3    4
ENDBRANCH    2    3
ENDBRANCH   21    2
ENDBRANCH   23   21
ENDBRANCH   24   23
ENDBRANCH   25   24
ENDBRANCH   26   25
ENDBRANCH   27   26
ENDBRANCH   28   27
ENDBRANCH   29   28
ENDBRANCH   30   29
ENDBRANCH   31   30
ENDBRANCH   33   31
ENDBRANCH   37   36
BRANCH   41   42
ATOM     42  C32 UNL A   1      52.511  22.580  17.084  1.00  0.00    +0.000 C 
ATOM     43  C33 UNL A   1      51.710  21.926  18.033  1.00  0.00    +0.000 C 
ATOM     44  F1  UNL A   1      51.781  20.593  18.172  1.00  0.00    +0.000 F 
ATOM     45  C34 UNL A   1      50.804  22.635  18.817  1.00  0.00    +0.000 C 
ATOM     46  F2  UNL A   1      50.016  21.983  19.682  1.00  0.00    +0.000 F 
ATOM     47  C35 UNL A   1      50.706  24.013  18.692  1.00  0.00    +0.000 C 
ATOM     48  F3  UNL A   1      49.837  24.695  19.453  1.00  0.00    +0.000 F 
ATOM     49  C36 UNL A   1      51.503  24.682  17.777  1.00  0.00    +0.000 C 
ATOM     50  F4  UNL A   1      51.417  26.015  17.665  1.00  0.00    +0.000 F 
ATOM     51  C37 UNL A   1      52.390  23.973  16.972  1.00  0.00    +0.000 C 
ATOM     52  F5  UNL A   1      53.138  24.648  16.085  1.00  0.00    +0.000 F 
ENDBRANCH   41   42
BRANCH   58   59
ATOM     65  F8  UNL A   1      62.316  19.893  20.401  1.00  0.00    +0.000 F 
ATOM     66  C47 UNL A   1      61.069  21.132  18.824  1.00  0.00    +0.000 C 
ATOM     67  F9  UNL A   1      61.817  22.217  19.065  1.00  0.00    +0.000 F 
ATOM     68  C48 UNL A   1      60.031  21.195  17.899  1.00  0.00    +0.000 C 
ATOM     69  F10 UNL A   1      59.795  22.357  17.272  1.00  0.00    +0.000 F 
ATOM     59  C43 UNL A   1      59.248  20.066  17.615  1.00  0.00    +0.000 C 
ATOM     60  C44 UNL A   1      59.539  18.874  18.294  1.00  0.00    +0.000 C 
ATOM     61  F6  UNL A   1      58.807  17.772  18.069  1.00  0.00    +0.000 F 
ATOM     62  C45 UNL A   1      60.561  18.822  19.238  1.00  0.00    +0.000 C 
ATOM     63  F7  UNL A   1      60.794  17.684  19.908  1.00  0.00    +0.000 F 
ATOM     64  C46 UNL A   1      61.329  19.947  19.497  1.00  0.00    +0.000 C 
ENDBRANCH   58   59
BRANCH   73   74
ATOM     74  C52 UNL A   1      58.879  17.850  11.023  1.00  0.00    +0.000 C 
ATOM     75  C53 UNL A   1      58.967  16.452  10.984  1.00  0.00    +0.000 C 
ATOM     76  F11 UNL A   1      58.192  15.711  11.789  1.00  0.00    +0.000 F 
ATOM     77  C54 UNL A   1      59.877  15.811  10.146  1.00  0.00    +0.000 C 
ATOM     78  F12 UNL A   1      59.969  14.475  10.159  1.00  0.00    +0.000 F 
ATOM     79  C55 UNL A   1      60.697  16.555   9.313  1.00  0.00    +0.000 C 
ATOM     80  F13 UNL A   1      61.569  15.939   8.504  1.00  0.00    +0.000 F 
ATOM     81  C56 UNL A   1      60.617  17.940   9.322  1.00  0.00    +0.000 C 
ATOM     82  F14 UNL A   1      61.398  18.662   8.507  1.00  0.00    +0.000 F 
ATOM     83  C57 UNL A   1      59.725  18.583  10.177  1.00  0.00    +0.000 C 
ATOM     84  F15 UNL A   1      59.674  19.923  10.174  1.00  0.00    +0.000 F 
ENDBRANCH   73   74
TORSDOF 22
ENDMDL
MODEL 9
REMARK VINA RESULT:      -8.5     64.338     71.066
ROOT
ATOM    129  H34 UNL A   1      28.087 -12.514  28.854  1.00  0.00    +0.000 H 
ATOM    130  H35 UNL A   1      26.933 -13.073  32.808  1.00  0.00    +0.000 H 
ATOM    131  H36 UNL A   1      30.522 -15.894  34.913  1.00  0.00    +0.000 H 
ATOM    132  H37 UNL A   1      29.125 -15.842  37.057  1.00  0.00    +0.000 H 
ATOM    133  H38 UNL A   1      22.460  -9.736  32.672  1.00  0.00    +0.000 H 
ATOM    134  H39 UNL A   1      23.583 -10.143  30.408  1.00  0.00    +0.000 H 
ATOM     37  C28 UNL A   1      25.966 -11.696  30.573  1.00  0.00    +0.000 C 
ATOM     38  C29 UNL A   1      25.000 -11.374  31.680  1.00  0.00    +0.000 C 
ATOM     39  N5  UNL A   1      25.034 -11.731  32.939  1.00  0.00    +0.000 N 
ATOM     40  C30 UNL A   1      23.934 -11.127  33.533  1.00  0.00    +0.000 C 
ATOM     41  C31 UNL A   1      23.500 -11.232  34.812  1.00  0.00    +0.000 C 
ATOM     53  C38 UNL A   1      24.140 -12.034  35.822  1.00  0.00    +0.000 C 
ATOM     54  C39 UNL A   1      23.743 -12.255  37.129  1.00  0.00    +0.000 C 
ATOM     55  C40 UNL A   1      24.696 -13.075  37.744  1.00  0.00    +0.000 C 
ATOM     56  C41 UNL A   1      25.664 -13.399  36.807  1.00  0.00    +0.000 C 
ATOM     57  N6  UNL A   1      25.313 -12.749  35.634  1.00  0.00    +0.000 N 
ATOM     58  C42 UNL A   1      26.823 -14.237  36.969  1.00  0.00    +0.000 C 
ATOM     70  C49 UNL A   1      27.727 -14.513  35.996  1.00  0.00    +0.000 C 
ATOM     71  N7  UNL A   1      27.746 -14.084  34.676  1.00  0.00    +0.000 N 
ATOM     72  C50 UNL A   1      28.822 -14.608  34.143  1.00  0.00    +0.000 C 
ATOM     73  C51 UNL A   1      29.330 -14.499  32.731  1.00  0.00    +0.000 C 
ATOM     85  C58 UNL A   1      28.618 -13.801  31.826  1.00  0.00    +0.000 C 
ATOM     86  C59 UNL A   1      28.980 -13.615  30.424  1.00  0.00    +0.000 C 
ATOM     87  C60 UNL A   1      28.066 -12.825  29.837  1.00  0.00    +0.000 C 
ATOM     88  C61 UNL A   1      27.035 -12.478  30.816  1.00  0.00    +0.000 C 
ATOM     89  N8  UNL A   1      27.439 -13.111  31.965  1.00  0.00    +0.000 N 
ATOM     90  C62 UNL A   1      29.624 -15.411  35.075  1.00  0.00    +0.000 C 
ATOM     91  C63 UNL A   1      28.893 -15.353  36.179  1.00  0.00    +0.000 C 
ATOM     92  C64 UNL A   1      23.276 -10.346  32.508  1.00  0.00    +0.000 C 
ATOM     93  C65 UNL A   1      23.858 -10.516  31.329  1.00  0.00    +0.000 C 
ATOM    125  H30 UNL A   1      22.890 -11.881  37.574  1.00  0.00    +0.000 H 
ATOM    126  H31 UNL A   1      24.680 -13.386  38.728  1.00  0.00    +0.000 H 
ATOM    127  H32 UNL A   1      25.822 -12.790  34.792  1.00  0.00    +0.000 H 
ATOM    128  H33 UNL A   1      29.805 -14.023  29.959  1.00  0.00    +0.000 H 
ENDROOT
BRANCH   37   36
ATOM     33  C24 UNL A   1      25.517  -9.955  26.680  1.00  0.00    +0.000 C 
ATOM     34  C25 UNL A   1      24.934 -11.196  26.954  1.00  0.00    +0.000 C 
ATOM     35  C26 UNL A   1      25.055 -11.758  28.228  1.00  0.00    +0.000 C 
ATOM     36  C27 UNL A   1      25.787 -11.095  29.227  1.00  0.00    +0.000 C 
ATOM    135  H40 UNL A   1      26.896  -9.351  29.673  1.00  0.00    +0.000 H 
ATOM    136  H41 UNL A   1      26.533  -8.303  27.517  1.00  0.00    +0.000 H 
ATOM    123  H28 UNL A   1      24.415 -11.697  26.216  1.00  0.00    +0.000 H 
ATOM    124  H29 UNL A   1      24.606 -12.662  28.435  1.00  0.00    +0.000 H 
ATOM     94  C66 UNL A   1      26.350  -9.842  28.947  1.00  0.00    +0.000 C 
ATOM     95  C67 UNL A   1      26.175  -9.255  27.695  1.00  0.00    +0.000 C 
BRANCH   33   31
ATOM     31  C23 UNL A   1      25.368  -9.378  25.323  1.00  0.00    +0.000 C 
ATOM     32  O3  UNL A   1      24.685  -8.377  25.161  1.00  0.00    +0.000 O 
BRANCH   31   30
ATOM    122  H27 UNL A   1      25.476 -10.001  23.420  1.00  0.00    +0.000 H 
ATOM     30  N4  UNL A   1      26.002  -9.959  24.251  1.00  0.00    +0.000 N 
BRANCH   30   29
ATOM    121  H26 UNL A   1      27.268 -11.492  23.730  1.00  0.00    +0.000 H 
ATOM     29  C22 UNL A   1      27.341 -10.521  24.173  1.00  0.00    +0.000 C 
ATOM    120  H25 UNL A   1      27.750 -10.578  25.160  1.00  0.00    +0.000 H 
BRANCH   29   28
ATOM     28  C21 UNL A   1      28.267  -9.673  23.303  1.00  0.00    +0.000 C 
ATOM    118  H23 UNL A   1      29.030 -10.311  22.910  1.00  0.00    +0.000 H 
ATOM    119  H24 UNL A   1      27.648  -9.233  22.548  1.00  0.00    +0.000 H 
BRANCH   28   27
ATOM     27  C20 UNL A   1      28.949  -8.506  24.030  1.00  0.00    +0.000 C 
ATOM    116  H21 UNL A   1      29.105  -8.797  25.047  1.00  0.00    +0.000 H 
ATOM    117  H22 UNL A   1      29.853  -8.313  23.491  1.00  0.00    +0.000 H 
BRANCH   27   26
ATOM     26  C19 UNL A   1      28.173  -7.183  24.032  1.00  0.00    +0.000 C 
ATOM    115  H20 UNL A   1      28.442  -6.673  24.933  1.00  0.00    +0.000 H 
ATOM    114  H19 UNL A   1      27.127  -7.408  23.978  1.00  0.00    +0.000 H 
BRANCH   26   25
ATOM     25  C18 UNL A   1      28.521  -6.243  22.875  1.00  0.00    +0.000 C 
ATOM    113  H18 UNL A   1      28.758  -5.295  23.310  1.00  0.00    +0.000 H 
ATOM    112  H17 UNL A   1      27.681  -6.198  22.215  1.00  0.00    +0.000 H 
BRANCH   25   24
ATOM    110  H15 UNL A   1      30.075  -7.642  22.394  1.00  0.00    +0.000 H 
ATOM    111  H16 UNL A   1      29.488  -6.721  21.024  1.00  0.00    +0.000 H 
ATOM     24  C17 UNL A   1      29.752  -6.678  22.060  1.00  0.00    +0.000 C 
BRANCH   24   23
ATOM    109  H14 UNL A   1      30.562  -4.797  22.432  1.00  0.00    +0.000 H 
ATOM     23  N3  UNL A   1      30.829  -5.724  22.236  1.00  0.00    +0.000 N 
BRANCH   23   21
ATOM     21  C16 UNL A   1      32.183  -5.968  22.161  1.00  0.00    +0.000 C 
ATOM     22  O2  UNL A   1      32.935  -5.052  21.833  1.00  0.00    +0.000 O 
BRANCH   21    2
ATOM      2  C2  UNL A   1      32.788  -7.359  22.262  1.00  0.00    +0.000 C 
BRANCH    2    1
ATOM      1  C1  UNL A   1      33.431  -7.834  20.981  1.00  0.00    +0.000 C 
ATOM     98  H3  UNL A   1      33.954  -8.749  21.163  1.00  0.00    +0.000 H 
ATOM     97  H2  UNL A   1      32.676  -7.995  20.241  1.00  0.00    +0.000 H 
ATOM     96  H1  UNL A   1      34.121  -7.093  20.632  1.00  0.00    +0.000 H 
ENDBRANCH    2    1
BRANCH    2    3
ATOM      3  N1  UNL A   1      32.882  -8.139  23.301  1.00  0.00    +0.000 N 
BRANCH    3    4
ATOM      4  O1  UNL A   1      34.190  -8.473  23.632  1.00  0.00    +0.000 O 
BRANCH    4    5
ATOM     99  H4  UNL A   1      33.627  -7.828  25.480  1.00  0.00    +0.000 H 
ATOM    100  H5  UNL A   1      35.387  -8.065  25.189  1.00  0.00    +0.000 H 
ATOM      5  C3  UNL A   1      34.395  -8.440  25.054  1.00  0.00    +0.000 C 
BRANCH    5    6
ATOM    101  H6  UNL A   1      36.190 -10.480  24.951  1.00  0.00    +0.000 H 
ATOM      6  C4  UNL A   1      34.370  -9.779  25.774  1.00  0.00    +0.000 C 
ATOM      7  C5  UNL A   1      35.379 -10.728  25.539  1.00  0.00    +0.000 C 
ATOM      8  C6  UNL A   1      35.290 -12.005  26.095  1.00  0.00    +0.000 C 
ATOM    102  H7  UNL A   1      36.045 -12.690  25.938  1.00  0.00    +0.000 H 
ATOM     10  C8  UNL A   1      33.185 -11.407  27.120  1.00  0.00    +0.000 C 
ATOM     11  C9  UNL A   1      33.302 -10.096  26.646  1.00  0.00    +0.000 C 
ATOM    104  H9  UNL A   1      32.352 -11.680  27.665  1.00  0.00    +0.000 H 
ATOM      9  C7  UNL A   1      34.181 -12.351  26.862  1.00  0.00    +0.000 C 
ATOM    103  H8  UNL A   1      34.096 -13.307  27.241  1.00  0.00    +0.000 H 
BRANCH   11   12
ATOM    105  H10 UNL A   1      32.159  -8.466  26.180  1.00  0.00    +0.000 H 
ATOM     12  N2  UNL A   1      32.341  -9.090  26.920  1.00  0.00    +0.000 N 
BRANCH   12   13
ATOM    106  H11 UNL A   1      31.999  -7.294  31.079  1.00  0.00    +0.000 H 
ATOM    107  H12 UNL A   1      29.836  -8.312  31.495  1.00  0.00    +0.000 H 
ATOM    108  H13 UNL A   1      28.821  -9.720  29.802  1.00  0.00    +0.000 H 
ATOM     13  C10 UNL A   1      31.606  -8.856  28.108  1.00  0.00    +0.000 C 
ATOM     14  C11 UNL A   1      32.196  -8.078  29.127  1.00  0.00    +0.000 C 
ATOM     15 Cl1  UNL A   1      33.750  -7.343  28.911  1.00  0.00    +0.000 Cl
ATOM     16  C12 UNL A   1      31.555  -7.880  30.354  1.00  0.00    +0.000 C 
ATOM     17  C13 UNL A   1      30.319  -8.470  30.597  1.00  0.00    +0.000 C 
ATOM     18  C14 UNL A   1      29.735  -9.274  29.620  1.00  0.00    +0.000 C 
ATOM     19  C15 UNL A   1      30.379  -9.483  28.394  1.00  0.00    +0.000 C 
ATOM     20 Cl2  UNL A   1      29.622 -10.578  27.289  1.00  0.00    +0.000 Cl
ENDBRANCH   12   13
ENDBRANCH   11   12
ENDBRANCH    5    6
ENDBRANCH    4    5
ENDBRANCH    3    4
ENDBRANCH    2    3
ENDBRANCH   21    2
ENDBRANCH   23   21
ENDBRANCH   24   23
ENDBRANCH   25   24
ENDBRANCH   26   25
ENDBRANCH   27   26
ENDBRANCH   28   27
ENDBRANCH   29   28
ENDBRANCH   30   29
ENDBRANCH   31   30
ENDBRANCH   33   31
ENDBRANCH   37   36
BRANCH   41   42
ATOM     42  C32 UNL A   1      22.270 -10.460  35.193  1.00  0.00    +0.000 C 
ATOM     43  C33 UNL A   1      22.334  -9.100  35.532  1.00  0.00    +0.000 C 
ATOM     44  F1  UNL A   1      23.516  -8.467  35.567  1.00  0.00    +0.000 F 
ATOM     45  C34 UNL A   1      21.184  -8.393  35.876  1.00  0.00    +0.000 C 
ATOM     46  F2  UNL A   1      21.275  -7.107  36.242  1.00  0.00    +0.000 F 
ATOM     47  C35 UNL A   1      19.948  -9.021  35.853  1.00  0.00    +0.000 C 
ATOM     48  F3  UNL A   1      18.842  -8.337  36.178  1.00  0.00    +0.000 F 
ATOM     49  C36 UNL A   1      19.859 -10.358  35.500  1.00  0.00    +0.000 C 
ATOM     50  F4  UNL A   1      18.664 -10.963  35.466  1.00  0.00    +0.000 F 
ATOM     51  C37 UNL A   1      21.011 -11.076  35.183  1.00  0.00    +0.000 C 
ATOM     52  F5  UNL A   1      20.893 -12.373  34.859  1.00  0.00    +0.000 F 
ENDBRANCH   41   42
BRANCH   58   59
ATOM     65  F8  UNL A   1      27.749 -16.635  41.998  1.00  0.00    +0.000 F 
ATOM     66  C47 UNL A   1      28.016 -14.799  40.536  1.00  0.00    +0.000 C 
ATOM     67  F9  UNL A   1      28.728 -14.145  41.465  1.00  0.00    +0.000 F 
ATOM     68  C48 UNL A   1      27.768 -14.202  39.303  1.00  0.00    +0.000 C 
ATOM     69  F10 UNL A   1      28.244 -12.968  39.076  1.00  0.00    +0.000 F 
ATOM     59  C43 UNL A   1      27.043 -14.875  38.309  1.00  0.00    +0.000 C 
ATOM     60  C44 UNL A   1      26.572 -16.164  38.594  1.00  0.00    +0.000 C 
ATOM     61  F6  UNL A   1      25.861 -16.842  37.681  1.00  0.00    +0.000 F 
ATOM     62  C45 UNL A   1      26.800 -16.748  39.838  1.00  0.00    +0.000 C 
ATOM     63  F7  UNL A   1      26.303 -17.964  40.106  1.00  0.00    +0.000 F 
ATOM     64  C46 UNL A   1      27.527 -16.069  40.804  1.00  0.00    +0.000 C 
ENDBRANCH   58   59
BRANCH   73   74
ATOM     74  C52 UNL A   1      30.584 -15.179  32.319  1.00  0.00    +0.000 C 
ATOM     75  C53 UNL A   1      31.830 -14.568  32.517  1.00  0.00    +0.000 C 
ATOM     76  F11 UNL A   1      31.895 -13.344  33.061  1.00  0.00    +0.000 F 
ATOM     77  C54 UNL A   1      33.010 -15.193  32.123  1.00  0.00    +0.000 C 
ATOM     78  F12 UNL A   1      34.184 -14.568  32.286  1.00  0.00    +0.000 F 
ATOM     79  C55 UNL A   1      32.970 -16.454  31.547  1.00  0.00    +0.000 C 
ATOM     80  F13 UNL A   1      34.105 -17.058  31.172  1.00  0.00    +0.000 F 
ATOM     81  C56 UNL A   1      31.750 -17.087  31.356  1.00  0.00    +0.000 C 
ATOM     82  F14 UNL A   1      31.708 -18.311  30.813  1.00  0.00    +0.000 F 
ATOM     83  C57 UNL A   1      30.567 -16.451  31.728  1.00  0.00    +0.000 C 
ATOM     84  F15 UNL A   1      29.401 -17.080  31.523  1.00  0.00    +0.000 F 
ENDBRANCH   73   74
TORSDOF 22
ENDMDL
MODEL 10
REMARK VINA RESULT:      -8.5     44.913     50.181
ROOT
ATOM    129  H34 UNL A   1      53.847  19.070   9.182  1.00  0.00    +0.000 H 
ATOM    130  H35 UNL A   1      55.433  19.804  12.954  1.00  0.00    +0.000 H 
ATOM    131  H36 UNL A   1      60.182  18.162  12.802  1.00  0.00    +0.000 H 
ATOM    132  H37 UNL A   1      60.356  18.832  15.267  1.00  0.00    +0.000 H 
ATOM    133  H38 UNL A   1      51.019  22.531  15.011  1.00  0.00    +0.000 H 
ATOM    134  H39 UNL A   1      50.664  21.466  12.711  1.00  0.00    +0.000 H 
ATOM     37  C28 UNL A   1      53.008  20.255  11.634  1.00  0.00    +0.000 C 
ATOM     38  C29 UNL A   1      52.829  20.858  13.000  1.00  0.00    +0.000 C 
ATOM     39  N5  UNL A   1      53.691  20.957  13.982  1.00  0.00    +0.000 N 
ATOM     40  C30 UNL A   1      53.031  21.638  14.996  1.00  0.00    +0.000 C 
ATOM     41  C31 UNL A   1      53.477  21.942  16.239  1.00  0.00    +0.000 C 
ATOM     53  C38 UNL A   1      54.777  21.586  16.743  1.00  0.00    +0.000 C 
ATOM     54  C39 UNL A   1      55.300  21.793  18.008  1.00  0.00    +0.000 C 
ATOM     55  C40 UNL A   1      56.613  21.310  18.023  1.00  0.00    +0.000 C 
ATOM     56  C41 UNL A   1      56.894  20.763  16.781  1.00  0.00    +0.000 C 
ATOM     57  N6  UNL A   1      55.761  20.944  16.004  1.00  0.00    +0.000 N 
ATOM     58  C42 UNL A   1      58.105  20.124  16.336  1.00  0.00    +0.000 C 
ATOM     70  C49 UNL A   1      58.301  19.605  15.099  1.00  0.00    +0.000 C 
ATOM     71  N7  UNL A   1      57.426  19.559  14.023  1.00  0.00    +0.000 N 
ATOM     72  C50 UNL A   1      58.079  18.971  13.051  1.00  0.00    +0.000 C 
ATOM     73  C51 UNL A   1      57.611  18.631  11.662  1.00  0.00    +0.000 C 
ATOM     85  C58 UNL A   1      56.346  18.919  11.304  1.00  0.00    +0.000 C 
ATOM     86  C59 UNL A   1      55.751  18.644  10.000  1.00  0.00    +0.000 C 
ATOM     87  C60 UNL A   1      54.492  19.112   9.986  1.00  0.00    +0.000 C 
ATOM     88  C61 UNL A   1      54.181  19.690  11.294  1.00  0.00    +0.000 C 
ATOM     89  N8  UNL A   1      55.337  19.521  12.016  1.00  0.00    +0.000 N 
ATOM     90  C62 UNL A   1      59.459  18.599  13.395  1.00  0.00    +0.000 C 
ATOM     91  C63 UNL A   1      59.530  18.973  14.665  1.00  0.00    +0.000 C 
ATOM     92  C64 UNL A   1      51.714  21.968  14.497  1.00  0.00    +0.000 C 
ATOM     93  C65 UNL A   1      51.516  21.453  13.292  1.00  0.00    +0.000 C 
ATOM    125  H30 UNL A   1      54.807  22.229  18.802  1.00  0.00    +0.000 H 
ATOM    126  H31 UNL A   1      57.263  21.353  18.824  1.00  0.00    +0.000 H 
ATOM    127  H32 UNL A   1      55.668  20.659  15.066  1.00  0.00    +0.000 H 
ATOM    128  H33 UNL A   1      56.222  18.168   9.216  1.00  0.00    +0.000 H 
ENDROOT
BRANCH   37   36
ATOM     33  C24 UNL A   1      49.907  20.520   8.684  1.00  0.00    +0.000 C 
ATOM     34  C25 UNL A   1      49.940  19.428   9.557  1.00  0.00    +0.000 C 
ATOM     35  C26 UNL A   1      50.933  19.348  10.537  1.00  0.00    +0.000 C 
ATOM     36  C27 UNL A   1      51.918  20.345  10.630  1.00  0.00    +0.000 C 
ATOM    135  H40 UNL A   1      52.588  22.179   9.818  1.00  0.00    +0.000 H 
ATOM    136  H41 UNL A   1      50.762  22.399   8.239  1.00  0.00    +0.000 H 
ATOM    123  H28 UNL A   1      49.232  18.681   9.477  1.00  0.00    +0.000 H 
ATOM    124  H29 UNL A   1      50.943  18.553  11.194  1.00  0.00    +0.000 H 
ATOM     94  C66 UNL A   1      51.863  21.445   9.763  1.00  0.00    +0.000 C 
ATOM     95  C67 UNL A   1      50.837  21.555   8.827  1.00  0.00    +0.000 C 
BRANCH   33   31
ATOM     31  C23 UNL A   1      48.840  20.584   7.658  1.00  0.00    +0.000 C 
ATOM     32  O3  UNL A   1      48.368  21.667   7.340  1.00  0.00    +0.000 O 
BRANCH   31   30
ATOM    122  H27 UNL A   1      47.418  19.275   7.125  1.00  0.00    +0.000 H 
ATOM     30  N4  UNL A   1      48.387  19.434   7.058  1.00  0.00    +0.000 N 
BRANCH   30   29
ATOM    121  H26 UNL A   1      50.035  18.217   6.889  1.00  0.00    +0.000 H 
ATOM     29  C22 UNL A   1      49.140  18.419   6.338  1.00  0.00    +0.000 C 
ATOM    120  H25 UNL A   1      49.365  18.784   5.358  1.00  0.00    +0.000 H 
BRANCH   29   28
ATOM     28  C21 UNL A   1      48.359  17.112   6.211  1.00  0.00    +0.000 C 
ATOM    118  H23 UNL A   1      49.024  16.304   6.434  1.00  0.00    +0.000 H 
ATOM    119  H24 UNL A   1      47.538  17.187   6.893  1.00  0.00    +0.000 H 
BRANCH   28   27
ATOM     27  C20 UNL A   1      47.745  16.856   4.828  1.00  0.00    +0.000 C 
ATOM    116  H21 UNL A   1      48.497  16.412   4.211  1.00  0.00    +0.000 H 
ATOM    117  H22 UNL A   1      46.896  16.227   4.996  1.00  0.00    +0.000 H 
BRANCH   27   26
ATOM     26  C19 UNL A   1      47.210  18.096   4.102  1.00  0.00    +0.000 C 
ATOM    115  H20 UNL A   1      47.298  17.898   3.054  1.00  0.00    +0.000 H 
ATOM    114  H19 UNL A   1      47.787  18.942   4.415  1.00  0.00    +0.000 H 
BRANCH   26   25
ATOM     25  C18 UNL A   1      45.733  18.398   4.369  1.00  0.00    +0.000 C 
ATOM    113  H18 UNL A   1      45.602  19.450   4.220  1.00  0.00    +0.000 H 
ATOM    112  H17 UNL A   1      45.503  18.088   5.366  1.00  0.00    +0.000 H 
BRANCH   25   24
ATOM    110  H15 UNL A   1      45.221  16.796   3.037  1.00  0.00    +0.000 H 
ATOM    111  H16 UNL A   1      43.864  17.446   3.934  1.00  0.00    +0.000 H 
ATOM     24  C17 UNL A   1      44.762  17.690   3.408  1.00  0.00    +0.000 C 
BRANCH   24   23
ATOM    109  H14 UNL A   1      45.005  18.471   1.494  1.00  0.00    +0.000 H 
ATOM     23  N3  UNL A   1      44.439  18.559   2.294  1.00  0.00    +0.000 N 
BRANCH   23   21
ATOM     21  C16 UNL A   1      43.429  19.495   2.229  1.00  0.00    +0.000 C 
ATOM     22  O2  UNL A   1      43.184  20.176   3.223  1.00  0.00    +0.000 O 
BRANCH   21    2
ATOM      2  C2  UNL A   1      42.459  19.596   1.063  1.00  0.00    +0.000 C 
BRANCH    2    1
ATOM      1  C1  UNL A   1      43.137  19.650  -0.286  1.00  0.00    +0.000 C 
ATOM     98  H3  UNL A   1      44.015  20.257  -0.218  1.00  0.00    +0.000 H 
ATOM     97  H2  UNL A   1      43.410  18.660  -0.588  1.00  0.00    +0.000 H 
ATOM     96  H1  UNL A   1      42.466  20.071  -1.005  1.00  0.00    +0.000 H 
ENDBRANCH    2    1
BRANCH    2    3
ATOM      3  N1  UNL A   1      41.157  19.570   1.075  1.00  0.00    +0.000 N 
BRANCH    3    4
ATOM      4  O1  UNL A   1      40.590  20.439   2.001  1.00  0.00    +0.000 O 
BRANCH    4    5
ATOM     99  H4  UNL A   1      39.515  20.995   0.363  1.00  0.00    +0.000 H 
ATOM    100  H5  UNL A   1      39.779  22.237   1.638  1.00  0.00    +0.000 H 
ATOM      5  C3  UNL A   1      39.539  21.221   1.409  1.00  0.00    +0.000 C 
BRANCH    5    6
ATOM    101  H6  UNL A   1      38.769  19.942   3.681  1.00  0.00    +0.000 H 
ATOM      6  C4  UNL A   1      38.140  21.003   1.961  1.00  0.00    +0.000 C 
ATOM      7  C5  UNL A   1      37.951  20.259   3.138  1.00  0.00    +0.000 C 
ATOM      8  C6  UNL A   1      36.664  19.946   3.576  1.00  0.00    +0.000 C 
ATOM    102  H7  UNL A   1      36.530  19.420   4.454  1.00  0.00    +0.000 H 
ATOM     10  C8  UNL A   1      35.738  21.104   1.668  1.00  0.00    +0.000 C 
ATOM     11  C9  UNL A   1      37.016  21.504   1.263  1.00  0.00    +0.000 C 
ATOM    104  H9  UNL A   1      34.916  21.372   1.103  1.00  0.00    +0.000 H 
ATOM      9  C7  UNL A   1      35.560  20.346   2.827  1.00  0.00    +0.000 C 
ATOM    103  H8  UNL A   1      34.610  20.080   3.130  1.00  0.00    +0.000 H 
BRANCH   11   12
ATOM    105  H10 UNL A   1      37.840  23.084   0.261  1.00  0.00    +0.000 H 
ATOM     12  N2  UNL A   1      37.244  22.313   0.121  1.00  0.00    +0.000 N 
BRANCH   12   13
ATOM    106  H11 UNL A   1      37.885  21.623  -4.323  1.00  0.00    +0.000 H 
ATOM    107  H12 UNL A   1      35.543  21.965  -4.859  1.00  0.00    +0.000 H 
ATOM    108  H13 UNL A   1      33.968  22.495  -3.093  1.00  0.00    +0.000 H 
ATOM     13  C10 UNL A   1      36.734  22.167  -1.192  1.00  0.00    +0.000 C 
ATOM     14  C11 UNL A   1      37.638  21.905  -2.244  1.00  0.00    +0.000 C 
ATOM     15 Cl1  UNL A   1      39.329  21.677  -1.940  1.00  0.00    +0.000 Cl
ATOM     16  C12 UNL A   1      37.207  21.831  -3.572  1.00  0.00    +0.000 C 
ATOM     17  C13 UNL A   1      35.866  22.036  -3.881  1.00  0.00    +0.000 C 
ATOM     18  C14 UNL A   1      34.962  22.334  -2.864  1.00  0.00    +0.000 C 
ATOM     19  C15 UNL A   1      35.392  22.420  -1.534  1.00  0.00    +0.000 C 
ATOM     20 Cl2  UNL A   1      34.215  22.896  -0.359  1.00  0.00    +0.000 Cl
ENDBRANCH   12   13
ENDBRANCH   11   12
ENDBRANCH    5    6
ENDBRANCH    4    5
ENDBRANCH    3    4
ENDBRANCH    2    3
ENDBRANCH   21    2
ENDBRANCH   23   21
ENDBRANCH   24   23
ENDBRANCH   25   24
ENDBRANCH   26   25
ENDBRANCH   27   26
ENDBRANCH   28   27
ENDBRANCH   29   28
ENDBRANCH   30   29
ENDBRANCH   31   30
ENDBRANCH   33   31
ENDBRANCH   37   36
BRANCH   41   42
ATOM     42  C32 UNL A   1      52.548  22.698  17.144  1.00  0.00    +0.000 C 
ATOM     43  C33 UNL A   1      52.448  24.097  17.089  1.00  0.00    +0.000 C 
ATOM     44  F1  UNL A   1      53.224  24.797  16.247  1.00  0.00    +0.000 F 
ATOM     45  C34 UNL A   1      51.576  24.786  17.928  1.00  0.00    +0.000 C 
ATOM     46  F2  UNL A   1      51.532  26.124  17.891  1.00  0.00    +0.000 F 
ATOM     47  C35 UNL A   1      50.764  24.090  18.811  1.00  0.00    +0.000 C 
ATOM     48  F3  UNL A   1      49.921  24.755  19.614  1.00  0.00    +0.000 F 
ATOM     49  C36 UNL A   1      50.831  22.707  18.867  1.00  0.00    +0.000 C 
ATOM     50  F4  UNL A   1      50.038  22.032  19.711  1.00  0.00    +0.000 F 
ATOM     51  C37 UNL A   1      51.723  22.016  18.049  1.00  0.00    +0.000 C 
ATOM     52  F5  UNL A   1      51.774  20.678  18.136  1.00  0.00    +0.000 F 
ENDBRANCH   41   42
BRANCH   58   59
ATOM     65  F8  UNL A   1      62.285  19.639  20.102  1.00  0.00    +0.000 F 
ATOM     66  C47 UNL A   1      60.493  18.666  18.911  1.00  0.00    +0.000 C 
ATOM     67  F9  UNL A   1      60.697  17.496  19.533  1.00  0.00    +0.000 F 
ATOM     68  C48 UNL A   1      59.478  18.782  17.966  1.00  0.00    +0.000 C 
ATOM     69  F10 UNL A   1      58.725  17.706  17.691  1.00  0.00    +0.000 F 
ATOM     59  C43 UNL A   1      59.233  20.001  17.317  1.00  0.00    +0.000 C 
ATOM     60  C44 UNL A   1      60.044  21.097  17.644  1.00  0.00    +0.000 C 
ATOM     61  F6  UNL A   1      59.859  22.280  17.038  1.00  0.00    +0.000 F 
ATOM     62  C45 UNL A   1      61.076  20.970  18.570  1.00  0.00    +0.000 C 
ATOM     63  F7  UNL A   1      61.868  22.019  18.835  1.00  0.00    +0.000 F 
ATOM     64  C46 UNL A   1      61.296  19.758  19.207  1.00  0.00    +0.000 C 
ENDBRANCH   58   59
BRANCH   73   74
ATOM     74  C52 UNL A   1      58.515  17.952  10.700  1.00  0.00    +0.000 C 
ATOM     75  C53 UNL A   1      58.609  16.554  10.666  1.00  0.00    +0.000 C 
ATOM     76  F11 UNL A   1      57.893  15.816  11.527  1.00  0.00    +0.000 F 
ATOM     77  C54 UNL A   1      59.464  15.911   9.774  1.00  0.00    +0.000 C 
ATOM     78  F12 UNL A   1      59.564  14.575   9.792  1.00  0.00    +0.000 F 
ATOM     79  C55 UNL A   1      60.223  16.652   8.882  1.00  0.00    +0.000 C 
ATOM     80  F13 UNL A   1      61.042  16.033   8.021  1.00  0.00    +0.000 F 
ATOM     81  C56 UNL A   1      60.136  18.036   8.885  1.00  0.00    +0.000 C 
ATOM     82  F14 UNL A   1      60.858  18.755   8.015  1.00  0.00    +0.000 F 
ATOM     83  C57 UNL A   1      59.299  18.682   9.794  1.00  0.00    +0.000 C 
ATOM     84  F15 UNL A   1      59.241  20.022   9.783  1.00  0.00    +0.000 F 
ENDBRANCH   73   74
TORSDOF 22
ENDMDL
