MODEL 1
REMARK VINA RESULT:     -11.0      0.000      0.000
ROOT
ATOM    129  H39 UNL A   1      41.258  28.833  26.049  1.00  0.00    +0.000 H 
ATOM     29  C23 UNL A   1      40.774  28.058  28.765  1.00  0.00    +0.000 C 
ATOM     30  C24 UNL A   1      41.869  28.902  28.233  1.00  0.00    +0.000 C 
ATOM     31  N4  UNL A   1      42.879  29.377  28.880  1.00  0.00    +0.000 N 
ATOM     32  C25 UNL A   1      43.608  30.119  27.955  1.00  0.00    +0.000 C 
ATOM     33  C26 UNL A   1      44.443  31.115  28.357  1.00  0.00    +0.000 C 
ATOM     45  C33 UNL A   1      44.719  31.018  29.769  1.00  0.00    +0.000 C 
ATOM     46  C34 UNL A   1      45.385  30.112  30.569  1.00  0.00    +0.000 C 
ATOM     47  C35 UNL A   1      44.626  30.052  31.776  1.00  0.00    +0.000 C 
ATOM     48  C36 UNL A   1      43.574  30.966  31.677  1.00  0.00    +0.000 C 
ATOM     49  N5  UNL A   1      43.932  31.758  30.616  1.00  0.00    +0.000 N 
ATOM     50  C37 UNL A   1      42.311  31.077  32.374  1.00  0.00    +0.000 C 
ATOM     62  C44 UNL A   1      41.243  31.818  31.951  1.00  0.00    +0.000 C 
ATOM     63  N6  UNL A   1      39.961  31.545  32.409  1.00  0.00    +0.000 N 
ATOM     64  C45 UNL A   1      39.169  31.962  31.458  1.00  0.00    +0.000 C 
ATOM     65  C46 UNL A   1      37.934  31.246  31.047  1.00  0.00    +0.000 C 
ATOM     77  C53 UNL A   1      38.340  30.061  30.530  1.00  0.00    +0.000 C 
ATOM     78  C54 UNL A   1      37.614  28.829  30.336  1.00  0.00    +0.000 C 
ATOM     79  C55 UNL A   1      38.472  27.913  29.843  1.00  0.00    +0.000 C 
ATOM     80  C56 UNL A   1      39.752  28.551  29.501  1.00  0.00    +0.000 C 
ATOM     81  N7  UNL A   1      39.634  29.814  30.027  1.00  0.00    +0.000 N 
ATOM     82  C57 UNL A   1      39.765  32.880  30.503  1.00  0.00    +0.000 C 
ATOM     83  C58 UNL A   1      41.052  32.705  30.807  1.00  0.00    +0.000 C 
ATOM     84  C59 UNL A   1      43.079  29.783  26.658  1.00  0.00    +0.000 C 
ATOM     85  C60 UNL A   1      41.927  29.119  26.780  1.00  0.00    +0.000 C 
ATOM    120  H30 UNL A   1      46.247  29.591  30.344  1.00  0.00    +0.000 H 
ATOM    121  H31 UNL A   1      44.820  29.439  32.584  1.00  0.00    +0.000 H 
ATOM    122  H32 UNL A   1      43.668  32.698  30.483  1.00  0.00    +0.000 H 
ATOM    123  H33 UNL A   1      36.614  28.675  30.538  1.00  0.00    +0.000 H 
ATOM    124  H34 UNL A   1      38.261  26.909  29.722  1.00  0.00    +0.000 H 
ATOM    125  H35 UNL A   1      40.367  30.470  30.049  1.00  0.00    +0.000 H 
ATOM    126  H36 UNL A   1      39.322  33.488  29.796  1.00  0.00    +0.000 H 
ATOM    127  H37 UNL A   1      41.828  33.147  30.289  1.00  0.00    +0.000 H 
ATOM    128  H38 UNL A   1      43.527  30.023  25.761  1.00  0.00    +0.000 H 
ENDROOT
BRANCH   29   28
ATOM    130  H40 UNL A   1      39.065  27.118  27.056  1.00  0.00    +0.000 H 
ATOM    131  H41 UNL A   1      38.517  24.758  26.862  1.00  0.00    +0.000 H 
ATOM     28  C22 UNL A   1      40.751  26.701  28.250  1.00  0.00    +0.000 C 
ATOM     86  C61 UNL A   1      39.677  26.382  27.441  1.00  0.00    +0.000 C 
ATOM     87  C62 UNL A   1      39.452  25.068  27.169  1.00  0.00    +0.000 C 
ATOM    118  H28 UNL A   1      42.397  23.786  28.136  1.00  0.00    +0.000 H 
ATOM     25  C19 UNL A   1      40.480  24.148  27.304  1.00  0.00    +0.000 C 
ATOM     26  C20 UNL A   1      41.640  24.476  28.011  1.00  0.00    +0.000 C 
ATOM     27  C21 UNL A   1      41.750  25.759  28.543  1.00  0.00    +0.000 C 
ATOM    119  H29 UNL A   1      42.551  26.012  29.142  1.00  0.00    +0.000 H 
BRANCH   25   23
ATOM     23  C18 UNL A   1      40.293  22.836  26.656  1.00  0.00    +0.000 C 
ATOM     24  O3  UNL A   1      41.251  22.176  26.307  1.00  0.00    +0.000 O 
BRANCH   23   22
ATOM    117  H27 UNL A   1      38.308  22.793  27.039  1.00  0.00    +0.000 H 
ATOM     22  N3  UNL A   1      38.995  22.381  26.467  1.00  0.00    +0.000 N 
BRANCH   22   21
ATOM    115  H25 UNL A   1      39.099  21.431  24.627  1.00  0.00    +0.000 H 
ATOM    116  H26 UNL A   1      38.623  20.410  25.993  1.00  0.00    +0.000 H 
ATOM     21  C17 UNL A   1      38.518  21.365  25.523  1.00  0.00    +0.000 C 
BRANCH   21   20
ATOM    113  H23 UNL A   1      36.957  21.500  24.101  1.00  0.00    +0.000 H 
ATOM    114  H24 UNL A   1      36.512  20.759  25.651  1.00  0.00    +0.000 H 
ATOM     20  C16 UNL A   1      37.054  21.543  25.166  1.00  0.00    +0.000 C 
BRANCH   20   19
ATOM     19  C15 UNL A   1      36.467  22.874  25.656  1.00  0.00    +0.000 C 
ATOM    111  H21 UNL A   1      35.780  22.657  26.447  1.00  0.00    +0.000 H 
ATOM    112  H22 UNL A   1      37.310  23.465  25.952  1.00  0.00    +0.000 H 
BRANCH   19   18
ATOM     18  C14 UNL A   1      35.724  23.719  24.607  1.00  0.00    +0.000 C 
ATOM    109  H19 UNL A   1      36.447  24.102  23.918  1.00  0.00    +0.000 H 
ATOM    110  H20 UNL A   1      35.005  23.068  24.156  1.00  0.00    +0.000 H 
BRANCH   18   17
ATOM     17  C13 UNL A   1      34.932  24.903  25.169  1.00  0.00    +0.000 C 
ATOM    107  H17 UNL A   1      34.221  24.531  25.877  1.00  0.00    +0.000 H 
ATOM    108  H18 UNL A   1      35.637  25.570  25.621  1.00  0.00    +0.000 H 
BRANCH   17   16
ATOM    105  H15 UNL A   1      34.873  26.000  23.338  1.00  0.00    +0.000 H 
ATOM    106  H16 UNL A   1      33.423  25.070  23.674  1.00  0.00    +0.000 H 
ATOM     16  C12 UNL A   1      34.183  25.693  24.096  1.00  0.00    +0.000 C 
BRANCH   16   15
ATOM     15  N2  UNL A   1      33.561  26.863  24.671  1.00  0.00    +0.000 N 
ATOM    104  H14 UNL A   1      33.892  27.101  25.567  1.00  0.00    +0.000 H 
BRANCH   15   13
ATOM     13  C11 UNL A   1      32.598  27.688  24.190  1.00  0.00    +0.000 C 
ATOM     14  O2  UNL A   1      32.915  28.451  23.274  1.00  0.00    +0.000 O 
BRANCH   13   12
ATOM     12  C10 UNL A   1      31.216  27.770  24.812  1.00  0.00    +0.000 C 
ATOM    102  H12 UNL A   1      31.339  27.570  25.856  1.00  0.00    +0.000 H 
ATOM    103  H13 UNL A   1      30.882  28.745  24.524  1.00  0.00    +0.000 H 
BRANCH   12   11
ATOM     11  C9  UNL A   1      30.081  26.861  24.323  1.00  0.00    +0.000 C 
ATOM    100  H10 UNL A   1      29.171  27.388  24.520  1.00  0.00    +0.000 H 
ATOM    101  H11 UNL A   1      30.367  26.675  23.309  1.00  0.00    +0.000 H 
BRANCH   11   10
ATOM     10  C8  UNL A   1      29.881  25.437  24.867  1.00  0.00    +0.000 C 
ATOM     99  H9  UNL A   1      29.115  25.048  24.229  1.00  0.00    +0.000 H 
ATOM     98  H8  UNL A   1      29.671  25.538  25.911  1.00  0.00    +0.000 H 
BRANCH   10    9
ATOM      2  C2  UNL A   1      33.012  20.192  24.628  1.00  0.00    +0.000 C 
ATOM      3  C3  UNL A   1      33.390  20.570  25.925  1.00  0.00    +0.000 C 
ATOM      4  C4  UNL A   1      33.013  21.826  26.430  1.00  0.00    +0.000 C 
ATOM      6  C6  UNL A   1      32.225  22.623  25.608  1.00  0.00    +0.000 C 
ATOM      7  C7  UNL A   1      31.533  23.899  25.902  1.00  0.00    +0.000 C 
ATOM      8  O1  UNL A   1      31.433  24.344  27.037  1.00  0.00    +0.000 O 
ATOM      9  N1  UNL A   1      30.934  24.430  24.752  1.00  0.00    +0.000 N 
ATOM     88  S1  UNL A   1      31.152  23.442  23.370  1.00  0.00    +0.000 S 
ATOM     89  C63 UNL A   1      31.964  22.198  24.321  1.00  0.00    +0.000 C 
ATOM     90  N8  UNL A   1      32.312  21.006  23.807  1.00  0.00    +0.000 N 
ATOM     94  H4  UNL A   1      33.945  19.923  26.509  1.00  0.00    +0.000 H 
BRANCH    2    1
ATOM      1  C1  UNL A   1      33.344  18.832  24.091  1.00  0.00    +0.000 C 
ATOM     91  H1  UNL A   1      34.388  18.640  24.225  1.00  0.00    +0.000 H 
ATOM     92  H2  UNL A   1      33.106  18.791  23.049  1.00  0.00    +0.000 H 
ATOM     93  H3  UNL A   1      32.775  18.092  24.615  1.00  0.00    +0.000 H 
ENDBRANCH    2    1
BRANCH    4    5
ATOM     97  H7  UNL A   1      33.898  23.264  27.695  1.00  0.00    +0.000 H 
ATOM      5  C5  UNL A   1      33.479  22.283  27.776  1.00  0.00    +0.000 C 
ATOM     95  H5  UNL A   1      34.223  21.607  28.144  1.00  0.00    +0.000 H 
ATOM     96  H6  UNL A   1      32.650  22.303  28.453  1.00  0.00    +0.000 H 
ENDBRANCH    4    5
ENDBRANCH   10    9
ENDBRANCH   11   10
ENDBRANCH   12   11
ENDBRANCH   13   12
ENDBRANCH   15   13
ENDBRANCH   16   15
ENDBRANCH   17   16
ENDBRANCH   18   17
ENDBRANCH   19   18
ENDBRANCH   20   19
ENDBRANCH   21   20
ENDBRANCH   22   21
ENDBRANCH   23   22
ENDBRANCH   25   23
ENDBRANCH   29   28
BRANCH   33   34
ATOM     34  C27 UNL A   1      44.739  32.362  27.562  1.00  0.00    +0.000 C 
ATOM     35  C28 UNL A   1      45.982  32.486  26.910  1.00  0.00    +0.000 C 
ATOM     36  F1  UNL A   1      46.806  31.434  26.802  1.00  0.00    +0.000 F 
ATOM     37  C29 UNL A   1      46.441  33.713  26.421  1.00  0.00    +0.000 C 
ATOM     38  F2  UNL A   1      47.675  33.804  25.907  1.00  0.00    +0.000 F 
ATOM     39  C30 UNL A   1      45.655  34.847  26.516  1.00  0.00    +0.000 C 
ATOM     40  F3  UNL A   1      46.113  36.031  26.093  1.00  0.00    +0.000 F 
ATOM     41  C31 UNL A   1      44.410  34.755  27.098  1.00  0.00    +0.000 C 
ATOM     42  F4  UNL A   1      43.640  35.845  27.218  1.00  0.00    +0.000 F 
ATOM     43  C32 UNL A   1      43.972  33.545  27.636  1.00  0.00    +0.000 C 
ATOM     44  F5  UNL A   1      42.823  33.609  28.319  1.00  0.00    +0.000 F 
ENDBRANCH   33   34
BRANCH   50   51
ATOM     51  C38 UNL A   1      42.089  30.137  33.534  1.00  0.00    +0.000 C 
ATOM     52  C39 UNL A   1      41.721  28.786  33.396  1.00  0.00    +0.000 C 
ATOM     53  F6  UNL A   1      41.493  28.257  32.188  1.00  0.00    +0.000 F 
ATOM     54  C40 UNL A   1      41.633  27.938  34.501  1.00  0.00    +0.000 C 
ATOM     55  F7  UNL A   1      41.270  26.657  34.340  1.00  0.00    +0.000 F 
ATOM     56  C41 UNL A   1      41.955  28.408  35.763  1.00  0.00    +0.000 C 
ATOM     57  F8  UNL A   1      41.914  27.586  36.820  1.00  0.00    +0.000 F 
ATOM     58  C42 UNL A   1      42.346  29.728  35.922  1.00  0.00    +0.000 C 
ATOM     59  F9  UNL A   1      42.702  30.177  37.133  1.00  0.00    +0.000 F 
ATOM     60  C43 UNL A   1      42.398  30.584  34.824  1.00  0.00    +0.000 C 
ATOM     61  F10 UNL A   1      42.802  31.850  35.015  1.00  0.00    +0.000 F 
ENDBRANCH   50   51
BRANCH   65   66
ATOM     66  C47 UNL A   1      36.647  31.945  30.823  1.00  0.00    +0.000 C 
ATOM     67  C48 UNL A   1      35.785  32.211  31.898  1.00  0.00    +0.000 C 
ATOM     68  F11 UNL A   1      35.984  31.618  33.084  1.00  0.00    +0.000 F 
ATOM     69  C49 UNL A   1      34.757  33.154  31.795  1.00  0.00    +0.000 C 
ATOM     70  F12 UNL A   1      33.999  33.436  32.865  1.00  0.00    +0.000 F 
ATOM     71  C50 UNL A   1      34.558  33.848  30.613  1.00  0.00    +0.000 C 
ATOM     72  F13 UNL A   1      33.622  34.805  30.538  1.00  0.00    +0.000 F 
ATOM     73  C51 UNL A   1      35.364  33.577  29.523  1.00  0.00    +0.000 C 
ATOM     74  F14 UNL A   1      35.205  34.268  28.384  1.00  0.00    +0.000 F 
ATOM     75  C52 UNL A   1      36.393  32.638  29.624  1.00  0.00    +0.000 C 
ATOM     76  F15 UNL A   1      37.197  32.493  28.562  1.00  0.00    +0.000 F 
ENDBRANCH   65   66
TORSDOF 20
ENDMDL
MODEL 2
REMARK VINA RESULT:     -10.9      3.079      8.546
ROOT
ATOM    129  H39 UNL A   1      38.375  27.468  31.119  1.00  0.00    +0.000 H 
ATOM     29  C23 UNL A   1      39.947  28.864  29.171  1.00  0.00    +0.000 C 
ATOM     30  C24 UNL A   1      40.248  28.643  30.604  1.00  0.00    +0.000 C 
ATOM     31  N4  UNL A   1      41.236  29.120  31.282  1.00  0.00    +0.000 N 
ATOM     32  C25 UNL A   1      41.096  28.610  32.569  1.00  0.00    +0.000 C 
ATOM     33  C26 UNL A   1      42.165  28.513  33.405  1.00  0.00    +0.000 C 
ATOM     45  C33 UNL A   1      43.268  29.309  32.927  1.00  0.00    +0.000 C 
ATOM     46  C34 UNL A   1      43.493  30.661  32.767  1.00  0.00    +0.000 C 
ATOM     47  C35 UNL A   1      44.250  30.773  31.562  1.00  0.00    +0.000 C 
ATOM     48  C36 UNL A   1      44.500  29.486  31.082  1.00  0.00    +0.000 C 
ATOM     49  N5  UNL A   1      44.209  28.678  32.152  1.00  0.00    +0.000 N 
ATOM     50  C37 UNL A   1      44.858  28.987  29.772  1.00  0.00    +0.000 C 
ATOM     62  C44 UNL A   1      44.751  27.685  29.371  1.00  0.00    +0.000 C 
ATOM     63  N6  UNL A   1      44.691  27.358  28.023  1.00  0.00    +0.000 N 
ATOM     64  C45 UNL A   1      44.035  26.230  27.979  1.00  0.00    +0.000 C 
ATOM     65  C46 UNL A   1      43.043  25.899  26.924  1.00  0.00    +0.000 C 
ATOM     77  C53 UNL A   1      42.021  26.775  27.078  1.00  0.00    +0.000 C 
ATOM     78  C54 UNL A   1      40.997  27.189  26.148  1.00  0.00    +0.000 C 
ATOM     79  C55 UNL A   1      40.244  28.130  26.751  1.00  0.00    +0.000 C 
ATOM     80  C56 UNL A   1      40.609  28.238  28.171  1.00  0.00    +0.000 C 
ATOM     81  N7  UNL A   1      41.741  27.468  28.274  1.00  0.00    +0.000 N 
ATOM     82  C57 UNL A   1      43.948  25.506  29.235  1.00  0.00    +0.000 C 
ATOM     83  C58 UNL A   1      44.340  26.470  30.070  1.00  0.00    +0.000 C 
ATOM     84  C59 UNL A   1      39.777  28.035  32.636  1.00  0.00    +0.000 C 
ATOM     85  C60 UNL A   1      39.250  27.928  31.415  1.00  0.00    +0.000 C 
ATOM    120  H30 UNL A   1      43.182  31.426  33.386  1.00  0.00    +0.000 H 
ATOM    121  H31 UNL A   1      44.560  31.654  31.121  1.00  0.00    +0.000 H 
ATOM    122  H32 UNL A   1      44.606  27.795  32.333  1.00  0.00    +0.000 H 
ATOM    123  H33 UNL A   1      40.865  26.828  25.191  1.00  0.00    +0.000 H 
ATOM    124  H34 UNL A   1      39.515  28.694  26.284  1.00  0.00    +0.000 H 
ATOM    125  H35 UNL A   1      42.292  27.407  29.087  1.00  0.00    +0.000 H 
ATOM    126  H36 UNL A   1      43.665  24.532  29.426  1.00  0.00    +0.000 H 
ATOM    127  H37 UNL A   1      44.350  26.370  31.097  1.00  0.00    +0.000 H 
ATOM    128  H38 UNL A   1      39.306  27.745  33.507  1.00  0.00    +0.000 H 
ENDROOT
BRANCH   29   28
ATOM    130  H40 UNL A   1      37.723  27.913  28.234  1.00  0.00    +0.000 H 
ATOM    131  H41 UNL A   1      36.077  29.257  27.054  1.00  0.00    +0.000 H 
ATOM     28  C22 UNL A   1      38.739  29.629  28.917  1.00  0.00    +0.000 C 
ATOM     86  C61 UNL A   1      37.710  28.942  28.301  1.00  0.00    +0.000 C 
ATOM     87  C62 UNL A   1      36.680  29.665  27.785  1.00  0.00    +0.000 C 
ATOM    118  H28 UNL A   1      37.248  32.603  29.300  1.00  0.00    +0.000 H 
ATOM     25  C19 UNL A   1      36.441  30.953  28.242  1.00  0.00    +0.000 C 
ATOM     26  C20 UNL A   1      37.412  31.637  28.979  1.00  0.00    +0.000 C 
ATOM     27  C21 UNL A   1      38.606  30.980  29.271  1.00  0.00    +0.000 C 
ATOM    119  H29 UNL A   1      39.379  31.480  29.737  1.00  0.00    +0.000 H 
BRANCH   25   23
ATOM     23  C18 UNL A   1      35.124  31.539  27.932  1.00  0.00    +0.000 C 
ATOM     24  O3  UNL A   1      34.802  32.615  28.392  1.00  0.00    +0.000 O 
BRANCH   23   22
ATOM    117  H27 UNL A   1      34.686  30.454  26.282  1.00  0.00    +0.000 H 
ATOM     22  N3  UNL A   1      34.275  30.829  27.095  1.00  0.00    +0.000 N 
BRANCH   22   21
ATOM    115  H25 UNL A   1      32.721  29.809  28.015  1.00  0.00    +0.000 H 
ATOM    116  H26 UNL A   1      32.375  31.483  27.554  1.00  0.00    +0.000 H 
ATOM     21  C17 UNL A   1      32.843  30.565  27.267  1.00  0.00    +0.000 C 
BRANCH   21   20
ATOM    113  H23 UNL A   1      31.217  30.555  25.912  1.00  0.00    +0.000 H 
ATOM    114  H24 UNL A   1      32.821  30.365  25.176  1.00  0.00    +0.000 H 
ATOM     20  C16 UNL A   1      32.179  30.091  25.987  1.00  0.00    +0.000 C 
BRANCH   20   19
ATOM     19  C15 UNL A   1      31.992  28.568  25.927  1.00  0.00    +0.000 C 
ATOM    111  H21 UNL A   1      31.688  28.238  26.899  1.00  0.00    +0.000 H 
ATOM    112  H22 UNL A   1      31.268  28.400  25.156  1.00  0.00    +0.000 H 
BRANCH   19   18
ATOM     18  C14 UNL A   1      33.225  27.746  25.517  1.00  0.00    +0.000 C 
ATOM    109  H19 UNL A   1      33.950  27.822  26.301  1.00  0.00    +0.000 H 
ATOM    110  H20 UNL A   1      32.877  26.748  25.353  1.00  0.00    +0.000 H 
BRANCH   18   17
ATOM     17  C13 UNL A   1      33.894  28.184  24.211  1.00  0.00    +0.000 C 
ATOM    107  H17 UNL A   1      34.049  29.242  24.248  1.00  0.00    +0.000 H 
ATOM    108  H18 UNL A   1      34.815  27.645  24.130  1.00  0.00    +0.000 H 
BRANCH   17   16
ATOM    105  H15 UNL A   1      32.028  27.844  23.229  1.00  0.00    +0.000 H 
ATOM    106  H16 UNL A   1      33.250  28.601  22.223  1.00  0.00    +0.000 H 
ATOM     16  C12 UNL A   1      33.065  27.856  22.968  1.00  0.00    +0.000 C 
BRANCH   16   15
ATOM     15  N2  UNL A   1      33.437  26.565  22.440  1.00  0.00    +0.000 N 
ATOM    104  H14 UNL A   1      34.135  26.593  21.747  1.00  0.00    +0.000 H 
BRANCH   15   13
ATOM     13  C11 UNL A   1      32.987  25.319  22.735  1.00  0.00    +0.000 C 
ATOM     14  O2  UNL A   1      33.811  24.401  22.711  1.00  0.00    +0.000 O 
BRANCH   13   12
ATOM     12  C10 UNL A   1      31.518  25.023  22.971  1.00  0.00    +0.000 C 
ATOM    102  H12 UNL A   1      30.969  25.834  22.538  1.00  0.00    +0.000 H 
ATOM    103  H13 UNL A   1      31.398  24.050  22.542  1.00  0.00    +0.000 H 
BRANCH   12   11
ATOM     11  C9  UNL A   1      30.975  24.839  24.394  1.00  0.00    +0.000 C 
ATOM    100  H10 UNL A   1      31.521  25.520  25.013  1.00  0.00    +0.000 H 
ATOM    101  H11 UNL A   1      29.925  24.989  24.253  1.00  0.00    +0.000 H 
BRANCH   11   10
ATOM     10  C8  UNL A   1      31.011  23.480  25.114  1.00  0.00    +0.000 C 
ATOM     99  H9  UNL A   1      30.693  22.802  24.350  1.00  0.00    +0.000 H 
ATOM     98  H8  UNL A   1      30.402  23.583  25.988  1.00  0.00    +0.000 H 
BRANCH   10    9
ATOM      2  C2  UNL A   1      36.860  21.772  25.600  1.00  0.00    +0.000 C 
ATOM      3  C3  UNL A   1      36.354  20.552  25.131  1.00  0.00    +0.000 C 
ATOM      4  C4  UNL A   1      34.967  20.379  24.972  1.00  0.00    +0.000 C 
ATOM      6  C6  UNL A   1      34.162  21.477  25.251  1.00  0.00    +0.000 C 
ATOM      7  C7  UNL A   1      32.712  21.673  25.026  1.00  0.00    +0.000 C 
ATOM      8  O1  UNL A   1      32.040  20.893  24.363  1.00  0.00    +0.000 O 
ATOM      9  N1  UNL A   1      32.274  22.893  25.557  1.00  0.00    +0.000 N 
ATOM     88  S1  UNL A   1      33.537  23.799  26.276  1.00  0.00    +0.000 S 
ATOM     89  C63 UNL A   1      34.744  22.613  25.776  1.00  0.00    +0.000 C 
ATOM     90  N8  UNL A   1      36.063  22.809  25.944  1.00  0.00    +0.000 N 
ATOM     94  H4  UNL A   1      37.000  19.780  24.902  1.00  0.00    +0.000 H 
BRANCH    2    1
ATOM      1  C1  UNL A   1      38.338  22.005  25.715  1.00  0.00    +0.000 C 
ATOM     91  H1  UNL A   1      38.612  22.851  25.120  1.00  0.00    +0.000 H 
ATOM     92  H2  UNL A   1      38.863  21.140  25.368  1.00  0.00    +0.000 H 
ATOM     93  H3  UNL A   1      38.591  22.190  26.738  1.00  0.00    +0.000 H 
ENDBRANCH    2    1
BRANCH    4    5
ATOM     97  H7  UNL A   1      33.418  19.200  24.161  1.00  0.00    +0.000 H 
ATOM      5  C5  UNL A   1      34.402  19.058  24.557  1.00  0.00    +0.000 C 
ATOM     95  H5  UNL A   1      34.355  18.408  25.405  1.00  0.00    +0.000 H 
ATOM     96  H6  UNL A   1      35.029  18.622  23.807  1.00  0.00    +0.000 H 
ENDBRANCH    4    5
ENDBRANCH   10    9
ENDBRANCH   11   10
ENDBRANCH   12   11
ENDBRANCH   13   12
ENDBRANCH   15   13
ENDBRANCH   16   15
ENDBRANCH   17   16
ENDBRANCH   18   17
ENDBRANCH   19   18
ENDBRANCH   20   19
ENDBRANCH   21   20
ENDBRANCH   22   21
ENDBRANCH   23   22
ENDBRANCH   25   23
ENDBRANCH   29   28
BRANCH   33   34
ATOM     34  C27 UNL A   1      42.338  27.448  34.460  1.00  0.00    +0.000 C 
ATOM     35  C28 UNL A   1      42.960  26.231  34.117  1.00  0.00    +0.000 C 
ATOM     36  F1  UNL A   1      43.590  26.092  32.941  1.00  0.00    +0.000 F 
ATOM     37  C29 UNL A   1      42.881  25.103  34.939  1.00  0.00    +0.000 C 
ATOM     38  F2  UNL A   1      43.393  23.938  34.521  1.00  0.00    +0.000 F 
ATOM     39  C30 UNL A   1      42.228  25.165  36.157  1.00  0.00    +0.000 C 
ATOM     40  F3  UNL A   1      42.109  24.074  36.923  1.00  0.00    +0.000 F 
ATOM     41  C31 UNL A   1      41.654  26.353  36.553  1.00  0.00    +0.000 C 
ATOM     42  F4  UNL A   1      41.000  26.430  37.720  1.00  0.00    +0.000 F 
ATOM     43  C32 UNL A   1      41.683  27.464  35.710  1.00  0.00    +0.000 C 
ATOM     44  F5  UNL A   1      40.957  28.509  36.123  1.00  0.00    +0.000 F 
ENDBRANCH   33   34
BRANCH   50   51
ATOM     51  C38 UNL A   1      45.167  30.017  28.713  1.00  0.00    +0.000 C 
ATOM     52  C39 UNL A   1      44.189  30.719  27.985  1.00  0.00    +0.000 C 
ATOM     53  F6  UNL A   1      42.887  30.466  28.166  1.00  0.00    +0.000 F 
ATOM     54  C40 UNL A   1      44.533  31.737  27.094  1.00  0.00    +0.000 C 
ATOM     55  F7  UNL A   1      43.579  32.382  26.406  1.00  0.00    +0.000 F 
ATOM     56  C41 UNL A   1      45.859  32.106  26.943  1.00  0.00    +0.000 C 
ATOM     57  F8  UNL A   1      46.190  33.112  26.120  1.00  0.00    +0.000 F 
ATOM     58  C42 UNL A   1      46.839  31.448  27.667  1.00  0.00    +0.000 C 
ATOM     59  F9  UNL A   1      48.119  31.831  27.560  1.00  0.00    +0.000 F 
ATOM     60  C43 UNL A   1      46.499  30.408  28.529  1.00  0.00    +0.000 C 
ATOM     61  F10 UNL A   1      47.475  29.809  29.231  1.00  0.00    +0.000 F 
ENDBRANCH   50   51
BRANCH   65   66
ATOM     66  C47 UNL A   1      43.022  24.586  26.237  1.00  0.00    +0.000 C 
ATOM     67  C48 UNL A   1      43.984  24.277  25.261  1.00  0.00    +0.000 C 
ATOM     68  F11 UNL A   1      44.764  25.244  24.755  1.00  0.00    +0.000 F 
ATOM     69  C49 UNL A   1      44.215  22.960  24.853  1.00  0.00    +0.000 C 
ATOM     70  F12 UNL A   1      45.191  22.694  23.973  1.00  0.00    +0.000 F 
ATOM     71  C50 UNL A   1      43.485  21.918  25.401  1.00  0.00    +0.000 C 
ATOM     72  F13 UNL A   1      43.758  20.649  25.066  1.00  0.00    +0.000 F 
ATOM     73  C51 UNL A   1      42.502  22.194  26.333  1.00  0.00    +0.000 C 
ATOM     74  F14 UNL A   1      41.814  21.191  26.898  1.00  0.00    +0.000 F 
ATOM     75  C52 UNL A   1      42.271  23.508  26.744  1.00  0.00    +0.000 C 
ATOM     76  F15 UNL A   1      41.371  23.697  27.719  1.00  0.00    +0.000 F 
ENDBRANCH   65   66
TORSDOF 20
ENDMDL
MODEL 3
REMARK VINA RESULT:     -10.7      1.154      2.829
ROOT
ATOM    129  H39 UNL A   1      41.564  28.763  25.979  1.00  0.00    +0.000 H 
ATOM     29  C23 UNL A   1      41.021  28.024  28.695  1.00  0.00    +0.000 C 
ATOM     30  C24 UNL A   1      42.082  28.921  28.183  1.00  0.00    +0.000 C 
ATOM     31  N4  UNL A   1      43.036  29.472  28.855  1.00  0.00    +0.000 N 
ATOM     32  C25 UNL A   1      43.754  30.236  27.940  1.00  0.00    +0.000 C 
ATOM     33  C26 UNL A   1      44.511  31.290  28.347  1.00  0.00    +0.000 C 
ATOM     45  C33 UNL A   1      44.737  31.244  29.770  1.00  0.00    +0.000 C 
ATOM     46  C34 UNL A   1      45.424  30.400  30.619  1.00  0.00    +0.000 C 
ATOM     47  C35 UNL A   1      44.623  30.322  31.797  1.00  0.00    +0.000 C 
ATOM     48  C36 UNL A   1      43.523  31.167  31.634  1.00  0.00    +0.000 C 
ATOM     49  N5  UNL A   1      43.873  31.954  30.567  1.00  0.00    +0.000 N 
ATOM     50  C37 UNL A   1      42.228  31.217  32.279  1.00  0.00    +0.000 C 
ATOM     62  C44 UNL A   1      41.135  31.881  31.797  1.00  0.00    +0.000 C 
ATOM     63  N6  UNL A   1      39.855  31.540  32.213  1.00  0.00    +0.000 N 
ATOM     64  C45 UNL A   1      39.077  31.885  31.222  1.00  0.00    +0.000 C 
ATOM     65  C46 UNL A   1      37.905  31.085  30.782  1.00  0.00    +0.000 C 
ATOM     77  C53 UNL A   1      38.402  29.915  30.312  1.00  0.00    +0.000 C 
ATOM     78  C54 UNL A   1      37.760  28.636  30.123  1.00  0.00    +0.000 C 
ATOM     79  C55 UNL A   1      38.691  27.763  29.688  1.00  0.00    +0.000 C 
ATOM     80  C56 UNL A   1      39.942  28.471  29.378  1.00  0.00    +0.000 C 
ATOM     81  N7  UNL A   1      39.728  29.737  29.866  1.00  0.00    +0.000 N 
ATOM     82  C57 UNL A   1      39.653  32.815  30.266  1.00  0.00    +0.000 C 
ATOM     83  C58 UNL A   1      40.936  32.727  30.623  1.00  0.00    +0.000 C 
ATOM     84  C59 UNL A   1      43.298  29.837  26.633  1.00  0.00    +0.000 C 
ATOM     85  C60 UNL A   1      42.186  29.106  26.728  1.00  0.00    +0.000 C 
ATOM    120  H30 UNL A   1      46.324  29.927  30.440  1.00  0.00    +0.000 H 
ATOM    121  H31 UNL A   1      44.821  29.741  32.628  1.00  0.00    +0.000 H 
ATOM    122  H32 UNL A   1      43.559  32.873  30.400  1.00  0.00    +0.000 H 
ATOM    123  H33 UNL A   1      36.764  28.427  30.291  1.00  0.00    +0.000 H 
ATOM    124  H34 UNL A   1      38.546  26.746  29.585  1.00  0.00    +0.000 H 
ATOM    125  H35 UNL A   1      40.418  30.437  29.899  1.00  0.00    +0.000 H 
ATOM    126  H36 UNL A   1      39.204  33.378  29.528  1.00  0.00    +0.000 H 
ATOM    127  H37 UNL A   1      41.704  33.203  30.124  1.00  0.00    +0.000 H 
ATOM    128  H38 UNL A   1      43.767  30.083  25.747  1.00  0.00    +0.000 H 
ENDROOT
BRANCH   29   28
ATOM    130  H40 UNL A   1      42.408  26.119  29.779  1.00  0.00    +0.000 H 
ATOM    131  H41 UNL A   1      43.195  24.168  28.562  1.00  0.00    +0.000 H 
ATOM     28  C22 UNL A   1      41.101  26.657  28.215  1.00  0.00    +0.000 C 
ATOM     86  C61 UNL A   1      41.997  25.837  28.875  1.00  0.00    +0.000 C 
ATOM     87  C62 UNL A   1      42.321  24.649  28.298  1.00  0.00    +0.000 C 
ATOM    118  H28 UNL A   1      39.857  24.443  26.031  1.00  0.00    +0.000 H 
ATOM     25  C19 UNL A   1      41.476  24.086  27.354  1.00  0.00    +0.000 C 
ATOM     26  C20 UNL A   1      40.473  24.851  26.751  1.00  0.00    +0.000 C 
ATOM     27  C21 UNL A   1      40.322  26.177  27.150  1.00  0.00    +0.000 C 
ATOM    119  H29 UNL A   1      39.651  26.797  26.670  1.00  0.00    +0.000 H 
BRANCH   25   23
ATOM     23  C18 UNL A   1      41.678  22.659  27.042  1.00  0.00    +0.000 C 
ATOM     24  O3  UNL A   1      42.520  22.011  27.628  1.00  0.00    +0.000 O 
BRANCH   23   22
ATOM    117  H27 UNL A   1      41.119  22.276  25.136  1.00  0.00    +0.000 H 
ATOM     22  N3  UNL A   1      40.871  22.084  26.069  1.00  0.00    +0.000 N 
BRANCH   22   21
ATOM    115  H25 UNL A   1      39.808  20.354  25.646  1.00  0.00    +0.000 H 
ATOM    116  H26 UNL A   1      39.638  20.977  27.294  1.00  0.00    +0.000 H 
ATOM     21  C17 UNL A   1      39.696  21.226  26.256  1.00  0.00    +0.000 C 
BRANCH   21   20
ATOM    113  H23 UNL A   1      37.826  22.076  26.765  1.00  0.00    +0.000 H 
ATOM    114  H24 UNL A   1      38.663  22.842  25.400  1.00  0.00    +0.000 H 
ATOM     20  C16 UNL A   1      38.401  21.920  25.876  1.00  0.00    +0.000 C 
BRANCH   20   19
ATOM     19  C15 UNL A   1      37.552  21.117  24.880  1.00  0.00    +0.000 C 
ATOM    111  H21 UNL A   1      37.941  21.296  23.900  1.00  0.00    +0.000 H 
ATOM    112  H22 UNL A   1      37.621  20.099  25.204  1.00  0.00    +0.000 H 
BRANCH   19   18
ATOM     18  C14 UNL A   1      36.048  21.437  24.854  1.00  0.00    +0.000 C 
ATOM    109  H19 UNL A   1      35.909  22.330  24.281  1.00  0.00    +0.000 H 
ATOM    110  H20 UNL A   1      35.569  20.579  24.431  1.00  0.00    +0.000 H 
BRANCH   18   17
ATOM     17  C13 UNL A   1      35.404  21.651  26.227  1.00  0.00    +0.000 C 
ATOM    107  H17 UNL A   1      34.521  21.050  26.285  1.00  0.00    +0.000 H 
ATOM    108  H18 UNL A   1      36.129  21.372  26.964  1.00  0.00    +0.000 H 
BRANCH   17   16
ATOM    105  H15 UNL A   1      35.089  23.301  27.545  1.00  0.00    +0.000 H 
ATOM    106  H16 UNL A   1      35.690  23.745  25.957  1.00  0.00    +0.000 H 
ATOM     16  C12 UNL A   1      35.022  23.107  26.495  1.00  0.00    +0.000 C 
BRANCH   16   15
ATOM     15  N2  UNL A   1      33.672  23.364  26.051  1.00  0.00    +0.000 N 
ATOM    104  H14 UNL A   1      33.569  24.181  25.513  1.00  0.00    +0.000 H 
BRANCH   15   13
ATOM     13  C11 UNL A   1      32.521  22.673  26.250  1.00  0.00    +0.000 C 
ATOM     14  O2  UNL A   1      32.059  22.664  27.394  1.00  0.00    +0.000 O 
BRANCH   13   12
ATOM     12  C10 UNL A   1      31.876  21.844  25.156  1.00  0.00    +0.000 C 
ATOM    102  H12 UNL A   1      31.680  20.880  25.578  1.00  0.00    +0.000 H 
ATOM    103  H13 UNL A   1      31.038  22.443  24.865  1.00  0.00    +0.000 H 
BRANCH   12   11
ATOM     11  C9  UNL A   1      32.600  21.601  23.826  1.00  0.00    +0.000 C 
ATOM    100  H10 UNL A   1      33.647  21.650  24.043  1.00  0.00    +0.000 H 
ATOM    101  H11 UNL A   1      32.177  20.671  23.509  1.00  0.00    +0.000 H 
BRANCH   11   10
ATOM     10  C8  UNL A   1      32.372  22.494  22.594  1.00  0.00    +0.000 C 
ATOM     99  H9  UNL A   1      31.357  22.278  22.335  1.00  0.00    +0.000 H 
ATOM     98  H8  UNL A   1      33.140  22.245  21.893  1.00  0.00    +0.000 H 
BRANCH   10    9
ATOM      2  C2  UNL A   1      32.620  28.238  24.669  1.00  0.00    +0.000 C 
ATOM      3  C3  UNL A   1      31.228  28.159  24.522  1.00  0.00    +0.000 C 
ATOM      4  C4  UNL A   1      30.646  27.024  23.931  1.00  0.00    +0.000 C 
ATOM      6  C6  UNL A   1      31.507  25.998  23.560  1.00  0.00    +0.000 C 
ATOM      7  C7  UNL A   1      31.204  24.630  23.079  1.00  0.00    +0.000 C 
ATOM      8  O1  UNL A   1      30.076  24.157  23.118  1.00  0.00    +0.000 O 
ATOM      9  N1  UNL A   1      32.371  23.950  22.708  1.00  0.00    +0.000 N 
ATOM     88  S1  UNL A   1      33.789  24.882  22.944  1.00  0.00    +0.000 S 
ATOM     89  C63 UNL A   1      32.868  26.196  23.677  1.00  0.00    +0.000 C 
ATOM     90  N8  UNL A   1      33.456  27.269  24.233  1.00  0.00    +0.000 N 
ATOM     94  H4  UNL A   1      30.630  28.934  24.850  1.00  0.00    +0.000 H 
BRANCH    2    1
ATOM      1  C1  UNL A   1      33.261  29.407  25.357  1.00  0.00    +0.000 C 
ATOM     91  H1  UNL A   1      32.728  29.626  26.259  1.00  0.00    +0.000 H 
ATOM     92  H2  UNL A   1      33.234  30.260  24.712  1.00  0.00    +0.000 H 
ATOM     93  H3  UNL A   1      34.278  29.169  25.592  1.00  0.00    +0.000 H 
ENDBRANCH    2    1
BRANCH    4    5
ATOM     97  H7  UNL A   1      28.654  27.428  24.496  1.00  0.00    +0.000 H 
ATOM      5  C5  UNL A   1      29.172  26.957  23.686  1.00  0.00    +0.000 C 
ATOM     95  H5  UNL A   1      28.868  25.934  23.615  1.00  0.00    +0.000 H 
ATOM     96  H6  UNL A   1      28.939  27.463  22.772  1.00  0.00    +0.000 H 
ENDBRANCH    4    5
ENDBRANCH   10    9
ENDBRANCH   11   10
ENDBRANCH   12   11
ENDBRANCH   13   12
ENDBRANCH   15   13
ENDBRANCH   16   15
ENDBRANCH   17   16
ENDBRANCH   18   17
ENDBRANCH   19   18
ENDBRANCH   20   19
ENDBRANCH   21   20
ENDBRANCH   22   21
ENDBRANCH   23   22
ENDBRANCH   25   23
ENDBRANCH   29   28
BRANCH   33   34
ATOM     34  C27 UNL A   1      44.763  32.534  27.532  1.00  0.00    +0.000 C 
ATOM     35  C28 UNL A   1      45.963  32.651  26.804  1.00  0.00    +0.000 C 
ATOM     36  F1  UNL A   1      46.775  31.595  26.649  1.00  0.00    +0.000 F 
ATOM     37  C29 UNL A   1      46.397  33.875  26.283  1.00  0.00    +0.000 C 
ATOM     38  F2  UNL A   1      47.597  33.959  25.695  1.00  0.00    +0.000 F 
ATOM     39  C30 UNL A   1      45.622  35.012  26.423  1.00  0.00    +0.000 C 
ATOM     40  F3  UNL A   1      46.058  36.193  25.970  1.00  0.00    +0.000 F 
ATOM     41  C31 UNL A   1      44.414  34.927  27.082  1.00  0.00    +0.000 C 
ATOM     42  F4  UNL A   1      43.658  36.021  27.245  1.00  0.00    +0.000 F 
ATOM     43  C32 UNL A   1      44.006  33.720  27.649  1.00  0.00    +0.000 C 
ATOM     44  F5  UNL A   1      42.902  33.791  28.402  1.00  0.00    +0.000 F 
ENDBRANCH   33   34
BRANCH   50   51
ATOM     51  C38 UNL A   1      42.018  30.293  33.454  1.00  0.00    +0.000 C 
ATOM     52  C39 UNL A   1      41.707  28.925  33.338  1.00  0.00    +0.000 C 
ATOM     53  F6  UNL A   1      41.529  28.363  32.136  1.00  0.00    +0.000 F 
ATOM     54  C40 UNL A   1      41.629  28.097  34.458  1.00  0.00    +0.000 C 
ATOM     55  F7  UNL A   1      41.322  26.799  34.317  1.00  0.00    +0.000 F 
ATOM     56  C41 UNL A   1      41.903  28.607  35.716  1.00  0.00    +0.000 C 
ATOM     57  F8  UNL A   1      41.870  27.805  36.790  1.00  0.00    +0.000 F 
ATOM     58  C42 UNL A   1      42.236  29.944  35.856  1.00  0.00    +0.000 C 
ATOM     59  F9  UNL A   1      42.545  30.433  37.065  1.00  0.00    +0.000 F 
ATOM     60  C43 UNL A   1      42.278  30.779  34.741  1.00  0.00    +0.000 C 
ATOM     61  F10 UNL A   1      42.627  32.064  34.913  1.00  0.00    +0.000 F 
ENDBRANCH   50   51
BRANCH   65   66
ATOM     66  C47 UNL A   1      36.588  31.698  30.491  1.00  0.00    +0.000 C 
ATOM     67  C48 UNL A   1      35.741  32.096  31.538  1.00  0.00    +0.000 C 
ATOM     68  F11 UNL A   1      35.990  31.698  32.794  1.00  0.00    +0.000 F 
ATOM     69  C49 UNL A   1      34.676  32.977  31.322  1.00  0.00    +0.000 C 
ATOM     70  F12 UNL A   1      33.933  33.394  32.358  1.00  0.00    +0.000 F 
ATOM     71  C50 UNL A   1      34.425  33.476  30.054  1.00  0.00    +0.000 C 
ATOM     72  F13 UNL A   1      33.452  34.378  29.861  1.00  0.00    +0.000 F 
ATOM     73  C51 UNL A   1      35.215  33.068  28.995  1.00  0.00    +0.000 C 
ATOM     74  F14 UNL A   1      35.005  33.572  27.770  1.00  0.00    +0.000 F 
ATOM     75  C52 UNL A   1      36.280  32.191  29.209  1.00  0.00    +0.000 C 
ATOM     76  F15 UNL A   1      37.065  31.912  28.159  1.00  0.00    +0.000 F 
ENDBRANCH   65   66
TORSDOF 20
ENDMDL
MODEL 4
REMARK VINA RESULT:     -10.5      1.532      3.622
ROOT
ATOM    129  H39 UNL A   1      41.686  29.203  26.055  1.00  0.00    +0.000 H 
ATOM     29  C23 UNL A   1      40.964  28.401  28.710  1.00  0.00    +0.000 C 
ATOM     30  C24 UNL A   1      42.171  29.138  28.271  1.00  0.00    +0.000 C 
ATOM     31  N4  UNL A   1      43.186  29.482  28.989  1.00  0.00    +0.000 N 
ATOM     32  C25 UNL A   1      44.042  30.169  28.134  1.00  0.00    +0.000 C 
ATOM     33  C26 UNL A   1      44.953  31.057  28.619  1.00  0.00    +0.000 C 
ATOM     45  C33 UNL A   1      45.134  30.888  30.039  1.00  0.00    +0.000 C 
ATOM     46  C34 UNL A   1      45.652  29.891  30.841  1.00  0.00    +0.000 C 
ATOM     47  C35 UNL A   1      44.821  29.876  32.001  1.00  0.00    +0.000 C 
ATOM     48  C36 UNL A   1      43.879  30.900  31.877  1.00  0.00    +0.000 C 
ATOM     49  N5  UNL A   1      44.380  31.681  30.868  1.00  0.00    +0.000 N 
ATOM     50  C37 UNL A   1      42.596  31.124  32.507  1.00  0.00    +0.000 C 
ATOM     62  C44 UNL A   1      41.639  31.989  32.054  1.00  0.00    +0.000 C 
ATOM     63  N6  UNL A   1      40.311  31.841  32.430  1.00  0.00    +0.000 N 
ATOM     64  C45 UNL A   1      39.624  32.370  31.453  1.00  0.00    +0.000 C 
ATOM     65  C46 UNL A   1      38.347  31.803  30.948  1.00  0.00    +0.000 C 
ATOM     77  C53 UNL A   1      38.656  30.597  30.411  1.00  0.00    +0.000 C 
ATOM     78  C54 UNL A   1      37.816  29.457  30.132  1.00  0.00    +0.000 C 
ATOM     79  C55 UNL A   1      38.600  28.470  29.653  1.00  0.00    +0.000 C 
ATOM     80  C56 UNL A   1      39.958  28.978  29.407  1.00  0.00    +0.000 C 
ATOM     81  N7  UNL A   1      39.944  30.230  29.971  1.00  0.00    +0.000 N 
ATOM     82  C57 UNL A   1      40.368  33.247  30.567  1.00  0.00    +0.000 C 
ATOM     83  C58 UNL A   1      41.610  32.926  30.934  1.00  0.00    +0.000 C 
ATOM     84  C59 UNL A   1      43.558  29.933  26.799  1.00  0.00    +0.000 C 
ATOM     85  C60 UNL A   1      42.338  29.392  26.832  1.00  0.00    +0.000 C 
ATOM    120  H30 UNL A   1      46.466  29.288  30.644  1.00  0.00    +0.000 H 
ATOM    121  H31 UNL A   1      44.902  29.221  32.795  1.00  0.00    +0.000 H 
ATOM    122  H32 UNL A   1      44.226  32.648  30.755  1.00  0.00    +0.000 H 
ATOM    123  H33 UNL A   1      36.795  29.406  30.273  1.00  0.00    +0.000 H 
ATOM    124  H34 UNL A   1      38.292  27.499  29.484  1.00  0.00    +0.000 H 
ATOM    125  H35 UNL A   1      40.739  30.802  30.058  1.00  0.00    +0.000 H 
ATOM    126  H36 UNL A   1      40.035  33.921  29.860  1.00  0.00    +0.000 H 
ATOM    127  H37 UNL A   1      42.457  33.297  30.476  1.00  0.00    +0.000 H 
ATOM    128  H38 UNL A   1      44.081  30.150  25.937  1.00  0.00    +0.000 H 
ENDROOT
BRANCH   29   28
ATOM    130  H40 UNL A   1      42.011  26.233  29.676  1.00  0.00    +0.000 H 
ATOM    131  H41 UNL A   1      42.490  24.260  28.340  1.00  0.00    +0.000 H 
ATOM     28  C22 UNL A   1      40.829  27.071  28.145  1.00  0.00    +0.000 C 
ATOM     86  C61 UNL A   1      41.573  26.078  28.755  1.00  0.00    +0.000 C 
ATOM     87  C62 UNL A   1      41.709  24.891  28.104  1.00  0.00    +0.000 C 
ATOM    118  H28 UNL A   1      39.274  25.226  25.821  1.00  0.00    +0.000 H 
ATOM     25  C19 UNL A   1      40.796  24.532  27.124  1.00  0.00    +0.000 C 
ATOM     26  C20 UNL A   1      39.937  25.484  26.568  1.00  0.00    +0.000 C 
ATOM     27  C21 UNL A   1      39.998  26.790  27.050  1.00  0.00    +0.000 C 
ATOM    119  H29 UNL A   1      39.442  27.539  26.608  1.00  0.00    +0.000 H 
BRANCH   25   23
ATOM     23  C18 UNL A   1      40.769  23.112  26.723  1.00  0.00    +0.000 C 
ATOM     24  O3  UNL A   1      41.802  22.490  26.581  1.00  0.00    +0.000 O 
BRANCH   23   22
ATOM    117  H27 UNL A   1      38.750  23.038  26.815  1.00  0.00    +0.000 H 
ATOM     22  N3  UNL A   1      39.532  22.515  26.524  1.00  0.00    +0.000 N 
BRANCH   22   21
ATOM    115  H25 UNL A   1      40.018  20.962  25.239  1.00  0.00    +0.000 H 
ATOM    116  H26 UNL A   1      39.192  20.493  26.733  1.00  0.00    +0.000 H 
ATOM     21  C17 UNL A   1      39.243  21.204  25.935  1.00  0.00    +0.000 C 
BRANCH   21   20
ATOM    113  H23 UNL A   1      38.083  20.854  24.199  1.00  0.00    +0.000 H 
ATOM    114  H24 UNL A   1      37.274  20.498  25.739  1.00  0.00    +0.000 H 
ATOM     20  C16 UNL A   1      37.911  21.173  25.207  1.00  0.00    +0.000 C 
BRANCH   20   19
ATOM     19  C15 UNL A   1      37.206  22.536  25.174  1.00  0.00    +0.000 C 
ATOM    111  H21 UNL A   1      36.330  22.466  25.785  1.00  0.00    +0.000 H 
ATOM    112  H22 UNL A   1      37.933  23.241  25.523  1.00  0.00    +0.000 H 
BRANCH   19   18
ATOM     18  C14 UNL A   1      36.773  23.046  23.789  1.00  0.00    +0.000 C 
ATOM    109  H19 UNL A   1      37.357  23.912  23.558  1.00  0.00    +0.000 H 
ATOM    110  H20 UNL A   1      36.926  22.233  23.111  1.00  0.00    +0.000 H 
BRANCH   18   17
ATOM     17  C13 UNL A   1      35.294  23.427  23.670  1.00  0.00    +0.000 C 
ATOM    107  H17 UNL A   1      35.196  24.473  23.873  1.00  0.00    +0.000 H 
ATOM    108  H18 UNL A   1      34.982  23.180  22.677  1.00  0.00    +0.000 H 
BRANCH   17   16
ATOM    105  H15 UNL A   1      34.995  22.031  25.258  1.00  0.00    +0.000 H 
ATOM    106  H16 UNL A   1      33.847  23.358  25.232  1.00  0.00    +0.000 H 
ATOM     16  C12 UNL A   1      34.392  22.658  24.635  1.00  0.00    +0.000 C 
BRANCH   16   15
ATOM     15  N2  UNL A   1      33.454  21.838  23.904  1.00  0.00    +0.000 N 
ATOM    104  H14 UNL A   1      33.701  20.887  23.850  1.00  0.00    +0.000 H 
BRANCH   15   13
ATOM     13  C11 UNL A   1      32.292  22.154  23.279  1.00  0.00    +0.000 C 
ATOM     14  O2  UNL A   1      32.006  21.515  22.264  1.00  0.00    +0.000 O 
BRANCH   13   12
ATOM     12  C10 UNL A   1      31.424  23.316  23.724  1.00  0.00    +0.000 C 
ATOM    102  H12 UNL A   1      30.421  22.945  23.778  1.00  0.00    +0.000 H 
ATOM    103  H13 UNL A   1      31.892  23.630  24.634  1.00  0.00    +0.000 H 
BRANCH   12   11
ATOM     11  C9  UNL A   1      31.368  24.611  22.904  1.00  0.00    +0.000 C 
ATOM    100  H10 UNL A   1      31.492  24.322  21.881  1.00  0.00    +0.000 H 
ATOM    101  H11 UNL A   1      30.436  25.033  23.217  1.00  0.00    +0.000 H 
BRANCH   11   10
ATOM     10  C8  UNL A   1      32.345  25.775  23.145  1.00  0.00    +0.000 C 
ATOM     99  H9  UNL A   1      32.267  26.337  22.238  1.00  0.00    +0.000 H 
ATOM     98  H8  UNL A   1      33.288  25.334  23.390  1.00  0.00    +0.000 H 
BRANCH   10    9
ATOM      2  C2  UNL A   1      31.784  31.013  26.246  1.00  0.00    +0.000 C 
ATOM      3  C3  UNL A   1      32.957  30.560  26.866  1.00  0.00    +0.000 C 
ATOM      4  C4  UNL A   1      33.456  29.277  26.578  1.00  0.00    +0.000 C 
ATOM      6  C6  UNL A   1      32.763  28.533  25.630  1.00  0.00    +0.000 C 
ATOM      7  C7  UNL A   1      33.116  27.244  24.992  1.00  0.00    +0.000 C 
ATOM      8  O1  UNL A   1      34.223  26.735  25.111  1.00  0.00    +0.000 O 
ATOM      9  N1  UNL A   1      32.080  26.783  24.169  1.00  0.00    +0.000 N 
ATOM     88  S1  UNL A   1      30.740  27.848  24.124  1.00  0.00    +0.000 S 
ATOM     89  C63 UNL A   1      31.580  29.032  25.127  1.00  0.00    +0.000 C 
ATOM     90  N8  UNL A   1      31.073  30.250  25.385  1.00  0.00    +0.000 N 
ATOM     94  H4  UNL A   1      33.455  31.169  27.535  1.00  0.00    +0.000 H 
BRANCH    2    1
ATOM      1  C1  UNL A   1      31.268  32.401  26.485  1.00  0.00    +0.000 C 
ATOM     91  H1  UNL A   1      31.727  33.076  25.792  1.00  0.00    +0.000 H 
ATOM     92  H2  UNL A   1      31.503  32.702  27.484  1.00  0.00    +0.000 H 
ATOM     93  H3  UNL A   1      30.207  32.416  26.348  1.00  0.00    +0.000 H 
ENDBRANCH    2    1
BRANCH    4    5
ATOM     97  H7  UNL A   1      35.470  29.427  27.187  1.00  0.00    +0.000 H 
ATOM      5  C5  UNL A   1      34.655  28.742  27.294  1.00  0.00    +0.000 C 
ATOM     95  H5  UNL A   1      34.927  27.796  26.876  1.00  0.00    +0.000 H 
ATOM     96  H6  UNL A   1      34.426  28.620  28.333  1.00  0.00    +0.000 H 
ENDBRANCH    4    5
ENDBRANCH   10    9
ENDBRANCH   11   10
ENDBRANCH   12   11
ENDBRANCH   13   12
ENDBRANCH   15   13
ENDBRANCH   16   15
ENDBRANCH   17   16
ENDBRANCH   18   17
ENDBRANCH   19   18
ENDBRANCH   20   19
ENDBRANCH   21   20
ENDBRANCH   22   21
ENDBRANCH   23   22
ENDBRANCH   25   23
ENDBRANCH   29   28
BRANCH   33   34
ATOM     34  C27 UNL A   1      45.425  32.289  27.888  1.00  0.00    +0.000 C 
ATOM     35  C28 UNL A   1      44.489  33.279  27.528  1.00  0.00    +0.000 C 
ATOM     36  F1  UNL A   1      43.239  33.248  28.013  1.00  0.00    +0.000 F 
ATOM     37  C29 UNL A   1      44.791  34.281  26.600  1.00  0.00    +0.000 C 
ATOM     38  F2  UNL A   1      43.836  35.133  26.206  1.00  0.00    +0.000 F 
ATOM     39  C30 UNL A   1      46.054  34.362  26.041  1.00  0.00    +0.000 C 
ATOM     40  F3  UNL A   1      46.331  35.289  25.115  1.00  0.00    +0.000 F 
ATOM     41  C31 UNL A   1      47.014  33.445  26.409  1.00  0.00    +0.000 C 
ATOM     42  F4  UNL A   1      48.237  33.495  25.864  1.00  0.00    +0.000 F 
ATOM     43  C32 UNL A   1      46.698  32.413  27.292  1.00  0.00    +0.000 C 
ATOM     44  F5  UNL A   1      47.653  31.490  27.451  1.00  0.00    +0.000 F 
ENDBRANCH   33   34
BRANCH   50   51
ATOM     51  C38 UNL A   1      42.208  30.178  33.618  1.00  0.00    +0.000 C 
ATOM     52  C39 UNL A   1      41.702  28.882  33.410  1.00  0.00    +0.000 C 
ATOM     53  F6  UNL A   1      41.484  28.421  32.172  1.00  0.00    +0.000 F 
ATOM     54  C40 UNL A   1      41.461  28.014  34.476  1.00  0.00    +0.000 C 
ATOM     55  F7  UNL A   1      40.969  26.787  34.248  1.00  0.00    +0.000 F 
ATOM     56  C41 UNL A   1      41.763  28.405  35.770  1.00  0.00    +0.000 C 
ATOM     57  F8  UNL A   1      41.573  27.558  36.791  1.00  0.00    +0.000 F 
ATOM     58  C42 UNL A   1      42.286  29.667  35.999  1.00  0.00    +0.000 C 
ATOM     59  F9  UNL A   1      42.622  30.034  37.243  1.00  0.00    +0.000 F 
ATOM     60  C43 UNL A   1      42.493  30.546  34.939  1.00  0.00    +0.000 C 
ATOM     61  F10 UNL A   1      43.023  31.752  35.198  1.00  0.00    +0.000 F 
ENDBRANCH   50   51
BRANCH   65   66
ATOM     66  C47 UNL A   1      37.157  32.643  30.679  1.00  0.00    +0.000 C 
ATOM     67  C48 UNL A   1      36.868  33.072  29.374  1.00  0.00    +0.000 C 
ATOM     68  F11 UNL A   1      37.788  32.951  28.406  1.00  0.00    +0.000 F 
ATOM     69  C49 UNL A   1      35.601  33.553  29.025  1.00  0.00    +0.000 C 
ATOM     70  F12 UNL A   1      35.339  33.885  27.753  1.00  0.00    +0.000 F 
ATOM     71  C50 UNL A   1      34.594  33.626  29.973  1.00  0.00    +0.000 C 
ATOM     72  F13 UNL A   1      33.360  34.015  29.623  1.00  0.00    +0.000 F 
ATOM     73  C51 UNL A   1      34.860  33.251  31.278  1.00  0.00    +0.000 C 
ATOM     74  F14 UNL A   1      33.883  33.283  32.196  1.00  0.00    +0.000 F 
ATOM     75  C52 UNL A   1      36.123  32.768  31.627  1.00  0.00    +0.000 C 
ATOM     76  F15 UNL A   1      36.286  32.332  32.884  1.00  0.00    +0.000 F 
ENDBRANCH   65   66
TORSDOF 20
ENDMDL
MODEL 5
REMARK VINA RESULT:     -10.4      1.485      3.526
ROOT
ATOM    129  H39 UNL A   1      41.433  29.108  25.910  1.00  0.00    +0.000 H 
ATOM     29  C23 UNL A   1      40.897  28.307  28.609  1.00  0.00    +0.000 C 
ATOM     30  C24 UNL A   1      41.975  29.191  28.112  1.00  0.00    +0.000 C 
ATOM     31  N4  UNL A   1      42.949  29.700  28.790  1.00  0.00    +0.000 N 
ATOM     32  C25 UNL A   1      43.677  30.471  27.889  1.00  0.00    +0.000 C 
ATOM     33  C26 UNL A   1      44.463  31.495  28.319  1.00  0.00    +0.000 C 
ATOM     45  C33 UNL A   1      44.701  31.403  29.738  1.00  0.00    +0.000 C 
ATOM     46  C34 UNL A   1      45.375  30.519  30.555  1.00  0.00    +0.000 C 
ATOM     47  C35 UNL A   1      44.583  30.427  31.739  1.00  0.00    +0.000 C 
ATOM     48  C36 UNL A   1      43.502  31.302  31.610  1.00  0.00    +0.000 C 
ATOM     49  N5  UNL A   1      43.863  32.111  30.563  1.00  0.00    +0.000 N 
ATOM     50  C37 UNL A   1      42.216  31.366  32.269  1.00  0.00    +0.000 C 
ATOM     62  C44 UNL A   1      41.135  32.070  31.817  1.00  0.00    +0.000 C 
ATOM     63  N6  UNL A   1      39.851  31.749  32.236  1.00  0.00    +0.000 N 
ATOM     64  C45 UNL A   1      39.072  32.140  31.263  1.00  0.00    +0.000 C 
ATOM     65  C46 UNL A   1      37.877  31.381  30.813  1.00  0.00    +0.000 C 
ATOM     77  C53 UNL A   1      38.341  30.214  30.306  1.00  0.00    +0.000 C 
ATOM     78  C54 UNL A   1      37.665  28.957  30.087  1.00  0.00    +0.000 C 
ATOM     79  C55 UNL A   1      38.570  28.075  29.618  1.00  0.00    +0.000 C 
ATOM     80  C56 UNL A   1      39.836  28.760  29.316  1.00  0.00    +0.000 C 
ATOM     81  N7  UNL A   1      39.657  30.016  29.841  1.00  0.00    +0.000 N 
ATOM     82  C57 UNL A   1      39.662  33.083  30.329  1.00  0.00    +0.000 C 
ATOM     83  C58 UNL A   1      40.946  32.953  30.670  1.00  0.00    +0.000 C 
ATOM     84  C59 UNL A   1      43.199  30.121  26.576  1.00  0.00    +0.000 C 
ATOM     85  C60 UNL A   1      42.069  29.415  26.662  1.00  0.00    +0.000 C 
ATOM    120  H30 UNL A   1      46.261  30.030  30.354  1.00  0.00    +0.000 H 
ATOM    121  H31 UNL A   1      44.775  29.818  32.551  1.00  0.00    +0.000 H 
ATOM    122  H32 UNL A   1      43.569  33.041  30.424  1.00  0.00    +0.000 H 
ATOM    123  H33 UNL A   1      36.666  28.767  30.259  1.00  0.00    +0.000 H 
ATOM    124  H34 UNL A   1      38.400  27.064  29.488  1.00  0.00    +0.000 H 
ATOM    125  H35 UNL A   1      40.365  30.698  29.887  1.00  0.00    +0.000 H 
ATOM    126  H36 UNL A   1      39.220  33.677  29.611  1.00  0.00    +0.000 H 
ATOM    127  H37 UNL A   1      41.720  33.424  30.176  1.00  0.00    +0.000 H 
ATOM    128  H38 UNL A   1      43.665  30.380  25.693  1.00  0.00    +0.000 H 
ENDROOT
BRANCH   29   28
ATOM    130  H40 UNL A   1      42.223  26.331  29.642  1.00  0.00    +0.000 H 
ATOM    131  H41 UNL A   1      42.958  24.394  28.371  1.00  0.00    +0.000 H 
ATOM     28  C22 UNL A   1      40.938  26.952  28.090  1.00  0.00    +0.000 C 
ATOM     86  C61 UNL A   1      41.808  26.088  28.729  1.00  0.00    +0.000 C 
ATOM     87  C62 UNL A   1      42.099  24.908  28.119  1.00  0.00    +0.000 C 
ATOM    118  H28 UNL A   1      39.639  24.839  25.840  1.00  0.00    +0.000 H 
ATOM     25  C19 UNL A   1      41.241  24.397  27.156  1.00  0.00    +0.000 C 
ATOM     26  C20 UNL A   1      40.263  25.208  26.574  1.00  0.00    +0.000 C 
ATOM     27  C21 UNL A   1      40.150  26.526  27.010  1.00  0.00    +0.000 C 
ATOM    119  H29 UNL A   1      39.499  27.178  26.546  1.00  0.00    +0.000 H 
BRANCH   25   23
ATOM     23  C18 UNL A   1      41.402  22.974  26.804  1.00  0.00    +0.000 C 
ATOM     24  O3  UNL A   1      42.420  22.579  26.273  1.00  0.00    +0.000 O 
BRANCH   23   22
ATOM    117  H27 UNL A   1      40.163  21.991  28.064  1.00  0.00    +0.000 H 
ATOM     22  N3  UNL A   1      40.362  22.106  27.107  1.00  0.00    +0.000 N 
BRANCH   22   21
ATOM    115  H25 UNL A   1      40.130  21.001  25.367  1.00  0.00    +0.000 H 
ATOM    116  H26 UNL A   1      39.103  20.519  26.727  1.00  0.00    +0.000 H 
ATOM     21  C17 UNL A   1      39.523  21.338  26.182  1.00  0.00    +0.000 C 
BRANCH   21   20
ATOM    113  H23 UNL A   1      37.926  22.707  26.424  1.00  0.00    +0.000 H 
ATOM    114  H24 UNL A   1      38.777  22.799  24.870  1.00  0.00    +0.000 H 
ATOM     20  C16 UNL A   1      38.373  22.156  25.623  1.00  0.00    +0.000 C 
BRANCH   20   19
ATOM     19  C15 UNL A   1      37.287  21.299  24.956  1.00  0.00    +0.000 C 
ATOM    111  H21 UNL A   1      37.124  21.685  23.971  1.00  0.00    +0.000 H 
ATOM    112  H22 UNL A   1      37.662  20.296  24.981  1.00  0.00    +0.000 H 
BRANCH   19   18
ATOM     18  C14 UNL A   1      35.926  21.245  25.670  1.00  0.00    +0.000 C 
ATOM    109  H19 UNL A   1      35.980  20.494  26.430  1.00  0.00    +0.000 H 
ATOM    110  H20 UNL A   1      35.752  22.229  26.053  1.00  0.00    +0.000 H 
BRANCH   18   17
ATOM     17  C13 UNL A   1      34.731  20.921  24.769  1.00  0.00    +0.000 C 
ATOM    107  H17 UNL A   1      34.827  21.483  23.863  1.00  0.00    +0.000 H 
ATOM    108  H18 UNL A   1      34.746  19.866  24.590  1.00  0.00    +0.000 H 
BRANCH   17   16
ATOM    105  H15 UNL A   1      32.880  20.346  25.664  1.00  0.00    +0.000 H 
ATOM    106  H16 UNL A   1      33.552  21.843  26.286  1.00  0.00    +0.000 H 
ATOM     16  C12 UNL A   1      33.383  21.255  25.408  1.00  0.00    +0.000 C 
BRANCH   16   15
ATOM     15  N2  UNL A   1      32.562  22.010  24.491  1.00  0.00    +0.000 N 
ATOM    104  H14 UNL A   1      31.675  21.619  24.322  1.00  0.00    +0.000 H 
BRANCH   15   13
ATOM     13  C11 UNL A   1      32.805  23.166  23.822  1.00  0.00    +0.000 C 
ATOM     14  O2  UNL A   1      32.080  23.421  22.858  1.00  0.00    +0.000 O 
BRANCH   13   12
ATOM     12  C10 UNL A   1      33.983  24.062  24.156  1.00  0.00    +0.000 C 
ATOM    102  H12 UNL A   1      34.574  23.535  24.877  1.00  0.00    +0.000 H 
ATOM    103  H13 UNL A   1      34.416  24.253  23.196  1.00  0.00    +0.000 H 
BRANCH   12   11
ATOM     11  C9  UNL A   1      33.760  25.472  24.718  1.00  0.00    +0.000 C 
ATOM    100  H10 UNL A   1      32.963  25.388  25.426  1.00  0.00    +0.000 H 
ATOM    101  H11 UNL A   1      34.740  25.731  25.062  1.00  0.00    +0.000 H 
BRANCH   11   10
ATOM     10  C8  UNL A   1      33.411  26.667  23.815  1.00  0.00    +0.000 C 
ATOM     99  H9  UNL A   1      33.148  26.194  22.892  1.00  0.00    +0.000 H 
ATOM     98  H8  UNL A   1      34.260  27.317  23.829  1.00  0.00    +0.000 H 
BRANCH   10    9
ATOM      2  C2  UNL A   1      29.116  31.015  23.658  1.00  0.00    +0.000 C 
ATOM      3  C3  UNL A   1      29.848  31.521  24.742  1.00  0.00    +0.000 C 
ATOM      4  C4  UNL A   1      30.918  30.783  25.276  1.00  0.00    +0.000 C 
ATOM      6  C6  UNL A   1      31.227  29.582  24.649  1.00  0.00    +0.000 C 
ATOM      7  C7  UNL A   1      32.376  28.670  24.854  1.00  0.00    +0.000 C 
ATOM      8  O1  UNL A   1      33.346  28.982  25.533  1.00  0.00    +0.000 O 
ATOM      9  N1  UNL A   1      32.245  27.505  24.088  1.00  0.00    +0.000 N 
ATOM     88  S1  UNL A   1      30.825  27.492  23.131  1.00  0.00    +0.000 S 
ATOM     89  C63 UNL A   1      30.406  29.130  23.636  1.00  0.00    +0.000 C 
ATOM     90  N8  UNL A   1      29.374  29.808  23.105  1.00  0.00    +0.000 N 
ATOM     94  H4  UNL A   1      29.600  32.438  25.147  1.00  0.00    +0.000 H 
BRANCH    2    1
ATOM      1  C1  UNL A   1      28.014  31.812  23.027  1.00  0.00    +0.000 C 
ATOM     91  H1  UNL A   1      28.415  32.408  22.234  1.00  0.00    +0.000 H 
ATOM     92  H2  UNL A   1      27.569  32.450  23.761  1.00  0.00    +0.000 H 
ATOM     93  H3  UNL A   1      27.272  31.148  22.635  1.00  0.00    +0.000 H 
ENDBRANCH    2    1
BRANCH    4    5
ATOM     97  H7  UNL A   1      32.695  31.358  26.257  1.00  0.00    +0.000 H 
ATOM      5  C5  UNL A   1      31.654  31.265  26.486  1.00  0.00    +0.000 C 
ATOM     95  H5  UNL A   1      31.526  30.564  27.284  1.00  0.00    +0.000 H 
ATOM     96  H6  UNL A   1      31.267  32.218  26.782  1.00  0.00    +0.000 H 
ENDBRANCH    4    5
ENDBRANCH   10    9
ENDBRANCH   11   10
ENDBRANCH   12   11
ENDBRANCH   13   12
ENDBRANCH   15   13
ENDBRANCH   16   15
ENDBRANCH   17   16
ENDBRANCH   18   17
ENDBRANCH   19   18
ENDBRANCH   20   19
ENDBRANCH   21   20
ENDBRANCH   22   21
ENDBRANCH   23   22
ENDBRANCH   25   23
ENDBRANCH   29   28
BRANCH   33   34
ATOM     34  C27 UNL A   1      44.737  32.755  27.536  1.00  0.00    +0.000 C 
ATOM     35  C28 UNL A   1      45.930  32.860  26.793  1.00  0.00    +0.000 C 
ATOM     36  F1  UNL A   1      46.710  31.787  26.595  1.00  0.00    +0.000 F 
ATOM     37  C29 UNL A   1      46.390  34.086  26.302  1.00  0.00    +0.000 C 
ATOM     38  F2  UNL A   1      47.583  34.155  25.698  1.00  0.00    +0.000 F 
ATOM     39  C30 UNL A   1      45.650  35.240  26.487  1.00  0.00    +0.000 C 
ATOM     40  F3  UNL A   1      46.112  36.422  26.062  1.00  0.00    +0.000 F 
ATOM     41  C31 UNL A   1      44.450  35.169  27.161  1.00  0.00    +0.000 C 
ATOM     42  F4  UNL A   1      43.727  36.278  27.368  1.00  0.00    +0.000 F 
ATOM     43  C32 UNL A   1      44.017  33.957  27.699  1.00  0.00    +0.000 C 
ATOM     44  F5  UNL A   1      42.926  34.037  28.470  1.00  0.00    +0.000 F 
ENDBRANCH   33   34
BRANCH   50   51
ATOM     51  C38 UNL A   1      41.993  30.414  33.420  1.00  0.00    +0.000 C 
ATOM     52  C39 UNL A   1      41.670  29.053  33.268  1.00  0.00    +0.000 C 
ATOM     53  F6  UNL A   1      41.490  28.523  32.052  1.00  0.00    +0.000 F 
ATOM     54  C40 UNL A   1      41.581  28.198  34.368  1.00  0.00    +0.000 C 
ATOM     55  F7  UNL A   1      41.262  26.907  34.193  1.00  0.00    +0.000 F 
ATOM     56  C41 UNL A   1      41.857  28.672  35.639  1.00  0.00    +0.000 C 
ATOM     57  F8  UNL A   1      41.814  27.844  36.692  1.00  0.00    +0.000 F 
ATOM     58  C42 UNL A   1      42.202  30.002  35.813  1.00  0.00    +0.000 C 
ATOM     59  F9  UNL A   1      42.514  30.457  37.034  1.00  0.00    +0.000 F 
ATOM     60  C43 UNL A   1      42.255  30.865  34.720  1.00  0.00    +0.000 C 
ATOM     61  F10 UNL A   1      42.616  32.141  34.926  1.00  0.00    +0.000 F 
ENDBRANCH   50   51
BRANCH   65   66
ATOM     66  C47 UNL A   1      36.573  32.035  30.553  1.00  0.00    +0.000 C 
ATOM     67  C48 UNL A   1      35.712  32.355  31.615  1.00  0.00    +0.000 C 
ATOM     68  F11 UNL A   1      35.934  31.849  32.837  1.00  0.00    +0.000 F 
ATOM     69  C49 UNL A   1      34.662  33.265  31.456  1.00  0.00    +0.000 C 
ATOM     70  F12 UNL A   1      33.906  33.604  32.511  1.00  0.00    +0.000 F 
ATOM     71  C50 UNL A   1      34.439  33.872  30.231  1.00  0.00    +0.000 C 
ATOM     72  F13 UNL A   1      33.481  34.800  30.098  1.00  0.00    +0.000 F 
ATOM     73  C51 UNL A   1      35.244  33.544  29.155  1.00  0.00    +0.000 C 
ATOM     74  F14 UNL A   1      35.061  34.152  27.973  1.00  0.00    +0.000 F 
ATOM     75  C52 UNL A   1      36.294  32.638  29.311  1.00  0.00    +0.000 C 
ATOM     76  F15 UNL A   1      37.094  32.438  28.255  1.00  0.00    +0.000 F 
ENDBRANCH   65   66
TORSDOF 20
ENDMDL
MODEL 6
REMARK VINA RESULT:     -10.3      1.524      3.273
ROOT
ATOM    129  H39 UNL A   1      41.493  28.964  25.971  1.00  0.00    +0.000 H 
ATOM     29  C23 UNL A   1      40.977  28.306  28.712  1.00  0.00    +0.000 C 
ATOM     30  C24 UNL A   1      42.138  29.029  28.146  1.00  0.00    +0.000 C 
ATOM     31  N4  UNL A   1      43.198  29.423  28.768  1.00  0.00    +0.000 N 
ATOM     32  C25 UNL A   1      43.980  30.070  27.816  1.00  0.00    +0.000 C 
ATOM     33  C26 UNL A   1      44.910  30.993  28.182  1.00  0.00    +0.000 C 
ATOM     45  C33 UNL A   1      45.196  30.906  29.593  1.00  0.00    +0.000 C 
ATOM     46  C34 UNL A   1      45.785  29.961  30.409  1.00  0.00    +0.000 C 
ATOM     47  C35 UNL A   1      45.040  30.003  31.626  1.00  0.00    +0.000 C 
ATOM     48  C36 UNL A   1      44.078  31.009  31.514  1.00  0.00    +0.000 C 
ATOM     49  N5  UNL A   1      44.493  31.737  30.429  1.00  0.00    +0.000 N 
ATOM     50  C37 UNL A   1      42.840  31.256  32.222  1.00  0.00    +0.000 C 
ATOM     62  C44 UNL A   1      41.841  32.083  31.793  1.00  0.00    +0.000 C 
ATOM     63  N6  UNL A   1      40.545  31.944  32.273  1.00  0.00    +0.000 N 
ATOM     64  C45 UNL A   1      39.783  32.409  31.321  1.00  0.00    +0.000 C 
ATOM     65  C46 UNL A   1      38.480  31.802  30.942  1.00  0.00    +0.000 C 
ATOM     77  C53 UNL A   1      38.766  30.572  30.452  1.00  0.00    +0.000 C 
ATOM     78  C54 UNL A   1      37.925  29.409  30.298  1.00  0.00    +0.000 C 
ATOM     79  C55 UNL A   1      38.687  28.405  29.820  1.00  0.00    +0.000 C 
ATOM     80  C56 UNL A   1      40.016  28.911  29.447  1.00  0.00    +0.000 C 
ATOM     81  N7  UNL A   1      40.024  30.192  29.940  1.00  0.00    +0.000 N 
ATOM     82  C57 UNL A   1      40.448  33.243  30.335  1.00  0.00    +0.000 C 
ATOM     83  C58 UNL A   1      41.718  32.955  30.628  1.00  0.00    +0.000 C 
ATOM     84  C59 UNL A   1      43.403  29.754  26.535  1.00  0.00    +0.000 C 
ATOM     85  C60 UNL A   1      42.197  29.204  26.686  1.00  0.00    +0.000 C 
ATOM    120  H30 UNL A   1      46.591  29.356  30.187  1.00  0.00    +0.000 H 
ATOM    121  H31 UNL A   1      45.187  29.395  32.447  1.00  0.00    +0.000 H 
ATOM    122  H32 UNL A   1      44.317  32.694  30.275  1.00  0.00    +0.000 H 
ATOM    123  H33 UNL A   1      36.918  29.356  30.516  1.00  0.00    +0.000 H 
ATOM    124  H34 UNL A   1      38.381  27.422  29.728  1.00  0.00    +0.000 H 
ATOM    125  H35 UNL A   1      40.816  30.777  29.937  1.00  0.00    +0.000 H 
ATOM    126  H36 UNL A   1      40.055  33.872  29.618  1.00  0.00    +0.000 H 
ATOM    127  H37 UNL A   1      42.524  33.309  30.090  1.00  0.00    +0.000 H 
ATOM    128  H38 UNL A   1      43.860  29.928  25.626  1.00  0.00    +0.000 H 
ENDROOT
BRANCH   29   28
ATOM    130  H40 UNL A   1      42.417  26.273  29.433  1.00  0.00    +0.000 H 
ATOM    131  H41 UNL A   1      42.714  24.283  28.069  1.00  0.00    +0.000 H 
ATOM     28  C22 UNL A   1      40.820  26.945  28.233  1.00  0.00    +0.000 C 
ATOM     86  C61 UNL A   1      41.776  26.042  28.658  1.00  0.00    +0.000 C 
ATOM     87  C62 UNL A   1      41.847  24.841  28.024  1.00  0.00    +0.000 C 
ATOM    118  H28 UNL A   1      38.897  24.881  26.427  1.00  0.00    +0.000 H 
ATOM     25  C19 UNL A   1      40.752  24.367  27.317  1.00  0.00    +0.000 C 
ATOM     26  C20 UNL A   1      39.702  25.223  26.974  1.00  0.00    +0.000 C 
ATOM     27  C21 UNL A   1      39.768  26.551  27.392  1.00  0.00    +0.000 C 
ATOM    119  H29 UNL A   1      39.056  27.233  27.088  1.00  0.00    +0.000 H 
BRANCH   25   23
ATOM     23  C18 UNL A   1      40.749  22.933  26.971  1.00  0.00    +0.000 C 
ATOM     24  O3  UNL A   1      41.788  22.350  26.737  1.00  0.00    +0.000 O 
BRANCH   23   22
ATOM    117  H27 UNL A   1      38.979  22.337  27.747  1.00  0.00    +0.000 H 
ATOM     22  N3  UNL A   1      39.527  22.275  26.932  1.00  0.00    +0.000 N 
BRANCH   22   21
ATOM    115  H25 UNL A   1      39.731  21.241  25.146  1.00  0.00    +0.000 H 
ATOM    116  H26 UNL A   1      38.489  20.630  26.250  1.00  0.00    +0.000 H 
ATOM     21  C17 UNL A   1      38.950  21.499  25.830  1.00  0.00    +0.000 C 
BRANCH   21   20
ATOM    113  H23 UNL A   1      38.285  23.211  24.776  1.00  0.00    +0.000 H 
ATOM    114  H24 UNL A   1      37.593  21.669  24.235  1.00  0.00    +0.000 H 
ATOM     20  C16 UNL A   1      37.879  22.266  25.075  1.00  0.00    +0.000 C 
BRANCH   20   19
ATOM     19  C15 UNL A   1      36.614  22.521  25.907  1.00  0.00    +0.000 C 
ATOM    111  H21 UNL A   1      36.311  21.588  26.334  1.00  0.00    +0.000 H 
ATOM    112  H22 UNL A   1      36.891  23.266  26.624  1.00  0.00    +0.000 H 
BRANCH   19   18
ATOM     18  C14 UNL A   1      35.409  23.107  25.153  1.00  0.00    +0.000 C 
ATOM    109  H19 UNL A   1      35.625  23.074  24.105  1.00  0.00    +0.000 H 
ATOM    110  H20 UNL A   1      34.565  22.512  25.434  1.00  0.00    +0.000 H 
BRANCH   18   17
ATOM     17  C13 UNL A   1      35.053  24.551  25.518  1.00  0.00    +0.000 C 
ATOM    107  H17 UNL A   1      34.571  24.550  26.473  1.00  0.00    +0.000 H 
ATOM    108  H18 UNL A   1      35.966  25.109  25.529  1.00  0.00    +0.000 H 
BRANCH   17   16
ATOM    105  H15 UNL A   1      33.800  26.163  24.892  1.00  0.00    +0.000 H 
ATOM    106  H16 UNL A   1      34.656  25.360  23.587  1.00  0.00    +0.000 H 
ATOM     16  C12 UNL A   1      34.124  25.219  24.504  1.00  0.00    +0.000 C 
BRANCH   16   15
ATOM     15  N2  UNL A   1      32.970  24.389  24.253  1.00  0.00    +0.000 N 
ATOM    104  H14 UNL A   1      32.684  23.845  25.021  1.00  0.00    +0.000 H 
BRANCH   15   13
ATOM     13  C11 UNL A   1      32.212  24.230  23.138  1.00  0.00    +0.000 C 
ATOM     14  O2  UNL A   1      31.247  23.466  23.216  1.00  0.00    +0.000 O 
BRANCH   13   12
ATOM     12  C10 UNL A   1      32.584  24.863  21.810  1.00  0.00    +0.000 C 
ATOM    102  H12 UNL A   1      33.639  25.039  21.840  1.00  0.00    +0.000 H 
ATOM    103  H13 UNL A   1      32.213  24.155  21.097  1.00  0.00    +0.000 H 
BRANCH   12   11
ATOM     11  C9  UNL A   1      31.933  26.176  21.358  1.00  0.00    +0.000 C 
ATOM    100  H10 UNL A   1      32.735  26.822  21.067  1.00  0.00    +0.000 H 
ATOM    101  H11 UNL A   1      31.240  25.838  20.617  1.00  0.00    +0.000 H 
BRANCH   11   10
ATOM     10  C8  UNL A   1      31.029  27.004  22.288  1.00  0.00    +0.000 C 
ATOM     99  H9  UNL A   1      30.505  26.249  22.837  1.00  0.00    +0.000 H 
ATOM     98  H8  UNL A   1      30.465  27.659  21.659  1.00  0.00    +0.000 H 
BRANCH   10    9
ATOM      2  C2  UNL A   1      34.503  29.244  26.792  1.00  0.00    +0.000 C 
ATOM      3  C3  UNL A   1      33.442  28.792  27.589  1.00  0.00    +0.000 C 
ATOM      4  C4  UNL A   1      32.277  28.282  26.989  1.00  0.00    +0.000 C 
ATOM      6  C6  UNL A   1      32.266  28.209  25.601  1.00  0.00    +0.000 C 
ATOM      7  C7  UNL A   1      31.284  27.579  24.690  1.00  0.00    +0.000 C 
ATOM      8  O1  UNL A   1      30.389  26.848  25.096  1.00  0.00    +0.000 O 
ATOM      9  N1  UNL A   1      31.596  27.834  23.349  1.00  0.00    +0.000 N 
ATOM     88  S1  UNL A   1      33.021  28.766  23.161  1.00  0.00    +0.000 S 
ATOM     89  C63 UNL A   1      33.326  28.745  24.899  1.00  0.00    +0.000 C 
ATOM     90  N8  UNL A   1      34.451  29.243  25.441  1.00  0.00    +0.000 N 
ATOM     94  H4  UNL A   1      33.517  28.833  28.619  1.00  0.00    +0.000 H 
BRANCH    2    1
ATOM      1  C1  UNL A   1      35.781  29.729  27.408  1.00  0.00    +0.000 C 
ATOM     91  H1  UNL A   1      35.567  30.217  28.336  1.00  0.00    +0.000 H 
ATOM     92  H2  UNL A   1      36.258  30.420  26.744  1.00  0.00    +0.000 H 
ATOM     93  H3  UNL A   1      36.431  28.897  27.584  1.00  0.00    +0.000 H 
ENDBRANCH    2    1
BRANCH    4    5
ATOM     97  H7  UNL A   1      30.256  28.480  27.562  1.00  0.00    +0.000 H 
ATOM      5  C5  UNL A   1      31.101  27.876  27.819  1.00  0.00    +0.000 C 
ATOM     95  H5  UNL A   1      31.333  28.010  28.855  1.00  0.00    +0.000 H 
ATOM     96  H6  UNL A   1      30.873  26.846  27.635  1.00  0.00    +0.000 H 
ENDBRANCH    4    5
ENDBRANCH   10    9
ENDBRANCH   11   10
ENDBRANCH   12   11
ENDBRANCH   13   12
ENDBRANCH   15   13
ENDBRANCH   16   15
ENDBRANCH   17   16
ENDBRANCH   18   17
ENDBRANCH   19   18
ENDBRANCH   20   19
ENDBRANCH   21   20
ENDBRANCH   22   21
ENDBRANCH   23   22
ENDBRANCH   25   23
ENDBRANCH   29   28
BRANCH   33   34
ATOM     34  C27 UNL A   1      45.311  32.187  27.352  1.00  0.00    +0.000 C 
ATOM     35  C28 UNL A   1      46.625  32.268  26.849  1.00  0.00    +0.000 C 
ATOM     36  F1  UNL A   1      47.448  31.211  26.911  1.00  0.00    +0.000 F 
ATOM     37  C29 UNL A   1      47.150  33.461  26.343  1.00  0.00    +0.000 C 
ATOM     38  F2  UNL A   1      48.438  33.519  25.979  1.00  0.00    +0.000 F 
ATOM     39  C30 UNL A   1      46.367  34.599  26.269  1.00  0.00    +0.000 C 
ATOM     40  F3  UNL A   1      46.882  35.754  25.831  1.00  0.00    +0.000 F 
ATOM     41  C31 UNL A   1      45.059  34.545  26.699  1.00  0.00    +0.000 C 
ATOM     42  F4  UNL A   1      44.289  35.641  26.655  1.00  0.00    +0.000 F 
ATOM     43  C32 UNL A   1      44.550  33.372  27.256  1.00  0.00    +0.000 C 
ATOM     44  F5  UNL A   1      43.327  33.480  27.788  1.00  0.00    +0.000 F 
ENDBRANCH   33   34
BRANCH   50   51
ATOM     51  C38 UNL A   1      42.547  30.370  33.409  1.00  0.00    +0.000 C 
ATOM     52  C39 UNL A   1      42.630  30.791  34.749  1.00  0.00    +0.000 C 
ATOM     53  F6  UNL A   1      43.033  32.031  35.054  1.00  0.00    +0.000 F 
ATOM     54  C40 UNL A   1      42.244  29.959  35.801  1.00  0.00    +0.000 C 
ATOM     55  F7  UNL A   1      42.343  30.385  37.068  1.00  0.00    +0.000 F 
ATOM     56  C41 UNL A   1      41.725  28.703  35.535  1.00  0.00    +0.000 C 
ATOM     57  F8  UNL A   1      41.314  27.917  36.540  1.00  0.00    +0.000 F 
ATOM     58  C42 UNL A   1      41.610  28.273  34.224  1.00  0.00    +0.000 C 
ATOM     59  F9  UNL A   1      41.067  27.077  33.958  1.00  0.00    +0.000 F 
ATOM     60  C43 UNL A   1      42.029  29.090  33.176  1.00  0.00    +0.000 C 
ATOM     61  F10 UNL A   1      41.879  28.648  31.917  1.00  0.00    +0.000 F 
ENDBRANCH   50   51
BRANCH   65   66
ATOM     66  C47 UNL A   1      37.262  32.614  30.715  1.00  0.00    +0.000 C 
ATOM     67  C48 UNL A   1      36.949  33.085  29.429  1.00  0.00    +0.000 C 
ATOM     68  F11 UNL A   1      37.866  33.031  28.452  1.00  0.00    +0.000 F 
ATOM     69  C49 UNL A   1      35.665  33.538  29.109  1.00  0.00    +0.000 C 
ATOM     70  F12 UNL A   1      35.383  33.911  27.852  1.00  0.00    +0.000 F 
ATOM     71  C50 UNL A   1      34.664  33.542  30.065  1.00  0.00    +0.000 C 
ATOM     72  F13 UNL A   1      33.416  33.905  29.739  1.00  0.00    +0.000 F 
ATOM     73  C51 UNL A   1      34.952  33.124  31.352  1.00  0.00    +0.000 C 
ATOM     74  F14 UNL A   1      33.982  33.088  32.277  1.00  0.00    +0.000 F 
ATOM     75  C52 UNL A   1      36.232  32.668  31.674  1.00  0.00    +0.000 C 
ATOM     76  F15 UNL A   1      36.419  32.188  32.911  1.00  0.00    +0.000 F 
ENDBRANCH   65   66
TORSDOF 20
ENDMDL
MODEL 7
REMARK VINA RESULT:     -10.2      1.161      2.216
ROOT
ATOM    129  H39 UNL A   1      41.214  29.084  25.950  1.00  0.00    +0.000 H 
ATOM     29  C23 UNL A   1      40.720  28.409  28.691  1.00  0.00    +0.000 C 
ATOM     30  C24 UNL A   1      41.905  29.081  28.112  1.00  0.00    +0.000 C 
ATOM     31  N4  UNL A   1      42.996  29.410  28.717  1.00  0.00    +0.000 N 
ATOM     32  C25 UNL A   1      43.790  30.032  27.759  1.00  0.00    +0.000 C 
ATOM     33  C26 UNL A   1      44.774  30.900  28.120  1.00  0.00    +0.000 C 
ATOM     45  C33 UNL A   1      45.083  30.775  29.523  1.00  0.00    +0.000 C 
ATOM     46  C34 UNL A   1      45.639  29.789  30.312  1.00  0.00    +0.000 C 
ATOM     47  C35 UNL A   1      44.922  29.849  31.545  1.00  0.00    +0.000 C 
ATOM     48  C36 UNL A   1      44.010  30.904  31.469  1.00  0.00    +0.000 C 
ATOM     49  N5  UNL A   1      44.441  31.628  30.386  1.00  0.00    +0.000 N 
ATOM     50  C37 UNL A   1      42.801  31.202  32.206  1.00  0.00    +0.000 C 
ATOM     62  C44 UNL A   1      41.838  32.087  31.810  1.00  0.00    +0.000 C 
ATOM     63  N6  UNL A   1      40.547  32.006  32.314  1.00  0.00    +0.000 N 
ATOM     64  C45 UNL A   1      39.790  32.525  31.385  1.00  0.00    +0.000 C 
ATOM     65  C46 UNL A   1      38.451  31.991  31.025  1.00  0.00    +0.000 C 
ATOM     77  C53 UNL A   1      38.664  30.756  30.510  1.00  0.00    +0.000 C 
ATOM     78  C54 UNL A   1      37.760  29.640  30.357  1.00  0.00    +0.000 C 
ATOM     79  C55 UNL A   1      38.460  28.606  29.847  1.00  0.00    +0.000 C 
ATOM     80  C56 UNL A   1      39.806  29.050  29.455  1.00  0.00    +0.000 C 
ATOM     81  N7  UNL A   1      39.890  30.321  29.967  1.00  0.00    +0.000 N 
ATOM     82  C57 UNL A   1      40.477  33.339  30.399  1.00  0.00    +0.000 C 
ATOM     83  C58 UNL A   1      41.736  32.983  30.661  1.00  0.00    +0.000 C 
ATOM     84  C59 UNL A   1      43.173  29.765  26.486  1.00  0.00    +0.000 C 
ATOM     85  C60 UNL A   1      41.943  29.276  26.654  1.00  0.00    +0.000 C 
ATOM    120  H30 UNL A   1      46.408  29.147  30.065  1.00  0.00    +0.000 H 
ATOM    121  H31 UNL A   1      45.054  29.221  32.354  1.00  0.00    +0.000 H 
ATOM    122  H32 UNL A   1      44.311  32.595  30.250  1.00  0.00    +0.000 H 
ATOM    123  H33 UNL A   1      36.757  29.635  30.595  1.00  0.00    +0.000 H 
ATOM    124  H34 UNL A   1      38.102  27.642  29.747  1.00  0.00    +0.000 H 
ATOM    125  H35 UNL A   1      40.710  30.864  29.956  1.00  0.00    +0.000 H 
ATOM    126  H36 UNL A   1      40.103  34.000  29.700  1.00  0.00    +0.000 H 
ATOM    127  H37 UNL A   1      42.549  33.303  30.112  1.00  0.00    +0.000 H 
ATOM    128  H38 UNL A   1      43.620  29.931  25.571  1.00  0.00    +0.000 H 
ENDROOT
BRANCH   29   28
ATOM    130  H40 UNL A   1      41.959  26.268  29.472  1.00  0.00    +0.000 H 
ATOM    131  H41 UNL A   1      42.173  24.266  28.110  1.00  0.00    +0.000 H 
ATOM     28  C22 UNL A   1      40.483  27.065  28.195  1.00  0.00    +0.000 C 
ATOM     86  C61 UNL A   1      41.344  26.090  28.663  1.00  0.00    +0.000 C 
ATOM     87  C62 UNL A   1      41.355  24.889  28.024  1.00  0.00    +0.000 C 
ATOM    118  H28 UNL A   1      38.504  25.161  26.277  1.00  0.00    +0.000 H 
ATOM     25  C19 UNL A   1      40.265  24.503  27.258  1.00  0.00    +0.000 C 
ATOM     26  C20 UNL A   1      39.303  25.439  26.868  1.00  0.00    +0.000 C 
ATOM     27  C21 UNL A   1      39.449  26.756  27.298  1.00  0.00    +0.000 C 
ATOM    119  H29 UNL A   1      38.809  27.492  26.961  1.00  0.00    +0.000 H 
BRANCH   25   23
ATOM     23  C18 UNL A   1      40.169  23.075  26.903  1.00  0.00    +0.000 C 
ATOM     24  O3  UNL A   1      41.171  22.414  26.720  1.00  0.00    +0.000 O 
BRANCH   23   22
ATOM    117  H27 UNL A   1      38.394  22.437  27.633  1.00  0.00    +0.000 H 
ATOM     22  N3  UNL A   1      38.904  22.514  26.794  1.00  0.00    +0.000 N 
BRANCH   22   21
ATOM    115  H25 UNL A   1      38.970  21.648  24.910  1.00  0.00    +0.000 H 
ATOM    116  H26 UNL A   1      37.546  21.256  25.887  1.00  0.00    +0.000 H 
ATOM     21  C17 UNL A   1      38.231  22.022  25.588  1.00  0.00    +0.000 C 
BRANCH   21   20
ATOM    113  H23 UNL A   1      37.985  24.018  24.929  1.00  0.00    +0.000 H 
ATOM    114  H24 UNL A   1      37.275  22.777  23.877  1.00  0.00    +0.000 H 
ATOM     20  C16 UNL A   1      37.431  23.103  24.884  1.00  0.00    +0.000 C 
BRANCH   20   19
ATOM     19  C15 UNL A   1      36.048  23.338  25.507  1.00  0.00    +0.000 C 
ATOM    111  H21 UNL A   1      35.474  22.445  25.375  1.00  0.00    +0.000 H 
ATOM    112  H22 UNL A   1      36.237  23.595  26.529  1.00  0.00    +0.000 H 
BRANCH   19   18
ATOM     18  C14 UNL A   1      35.232  24.509  24.935  1.00  0.00    +0.000 C 
ATOM    109  H19 UNL A   1      35.903  25.150  24.401  1.00  0.00    +0.000 H 
ATOM    110  H20 UNL A   1      34.476  24.072  24.317  1.00  0.00    +0.000 H 
BRANCH   18   17
ATOM     17  C13 UNL A   1      34.495  25.357  25.975  1.00  0.00    +0.000 C 
ATOM    107  H17 UNL A   1      33.623  24.823  26.292  1.00  0.00    +0.000 H 
ATOM    108  H18 UNL A   1      35.175  25.530  26.783  1.00  0.00    +0.000 H 
BRANCH   17   16
ATOM    105  H15 UNL A   1      33.207  27.061  25.993  1.00  0.00    +0.000 H 
ATOM    106  H16 UNL A   1      34.871  27.414  25.564  1.00  0.00    +0.000 H 
ATOM     16  C12 UNL A   1      34.062  26.724  25.445  1.00  0.00    +0.000 C 
BRANCH   16   15
ATOM     15  N2  UNL A   1      33.724  26.639  24.044  1.00  0.00    +0.000 N 
ATOM    104  H14 UNL A   1      33.990  25.796  23.611  1.00  0.00    +0.000 H 
BRANCH   15   13
ATOM     13  C11 UNL A   1      33.103  27.521  23.221  1.00  0.00    +0.000 C 
ATOM     14  O2  UNL A   1      33.382  27.466  22.021  1.00  0.00    +0.000 O 
BRANCH   13   12
ATOM     12  C10 UNL A   1      32.191  28.614  23.747  1.00  0.00    +0.000 C 
ATOM    102  H12 UNL A   1      32.492  28.805  24.756  1.00  0.00    +0.000 H 
ATOM    103  H13 UNL A   1      32.318  29.397  23.028  1.00  0.00    +0.000 H 
BRANCH   12   11
ATOM     11  C9  UNL A   1      30.669  28.419  23.773  1.00  0.00    +0.000 C 
ATOM    100  H10 UNL A   1      30.366  28.578  24.787  1.00  0.00    +0.000 H 
ATOM    101  H11 UNL A   1      30.344  29.102  23.017  1.00  0.00    +0.000 H 
BRANCH   11   10
ATOM     10  C8  UNL A   1      30.005  27.105  23.326  1.00  0.00    +0.000 C 
ATOM     99  H9  UNL A   1      30.491  26.903  22.395  1.00  0.00    +0.000 H 
ATOM     98  H8  UNL A   1      28.951  27.286  23.320  1.00  0.00    +0.000 H 
BRANCH   10    9
ATOM      2  C2  UNL A   1      32.311  22.626  26.788  1.00  0.00    +0.000 C 
ATOM      3  C3  UNL A   1      32.524  22.020  25.542  1.00  0.00    +0.000 C 
ATOM      4  C4  UNL A   1      32.031  22.624  24.372  1.00  0.00    +0.000 C 
ATOM      6  C6  UNL A   1      31.386  23.845  24.520  1.00  0.00    +0.000 C 
ATOM      7  C7  UNL A   1      30.912  24.800  23.491  1.00  0.00    +0.000 C 
ATOM      8  O1  UNL A   1      31.211  24.692  22.310  1.00  0.00    +0.000 O 
ATOM      9  N1  UNL A   1      30.208  25.864  24.070  1.00  0.00    +0.000 N 
ATOM     88  S1  UNL A   1      30.129  25.762  25.778  1.00  0.00    +0.000 S 
ATOM     89  C63 UNL A   1      31.159  24.328  25.792  1.00  0.00    +0.000 C 
ATOM     90  N8  UNL A   1      31.612  23.775  26.930  1.00  0.00    +0.000 N 
ATOM     94  H4  UNL A   1      33.045  21.130  25.485  1.00  0.00    +0.000 H 
BRANCH    2    1
ATOM      1  C1  UNL A   1      32.883  22.038  28.044  1.00  0.00    +0.000 C 
ATOM     91  H1  UNL A   1      32.176  22.141  28.840  1.00  0.00    +0.000 H 
ATOM     92  H2  UNL A   1      33.785  22.553  28.300  1.00  0.00    +0.000 H 
ATOM     93  H3  UNL A   1      33.097  21.001  27.887  1.00  0.00    +0.000 H 
ENDBRANCH    2    1
BRANCH    4    5
ATOM     97  H7  UNL A   1      31.202  21.750  22.640  1.00  0.00    +0.000 H 
ATOM      5  C5  UNL A   1      32.173  21.950  23.044  1.00  0.00    +0.000 C 
ATOM     95  H5  UNL A   1      32.704  21.030  23.166  1.00  0.00    +0.000 H 
ATOM     96  H6  UNL A   1      32.713  22.588  22.375  1.00  0.00    +0.000 H 
ENDBRANCH    4    5
ENDBRANCH   10    9
ENDBRANCH   11   10
ENDBRANCH   12   11
ENDBRANCH   13   12
ENDBRANCH   15   13
ENDBRANCH   16   15
ENDBRANCH   17   16
ENDBRANCH   18   17
ENDBRANCH   19   18
ENDBRANCH   20   19
ENDBRANCH   21   20
ENDBRANCH   22   21
ENDBRANCH   23   22
ENDBRANCH   25   23
ENDBRANCH   29   28
BRANCH   33   34
ATOM     34  C27 UNL A   1      45.219  32.084  27.300  1.00  0.00    +0.000 C 
ATOM     35  C28 UNL A   1      46.546  32.140  26.830  1.00  0.00    +0.000 C 
ATOM     36  F1  UNL A   1      47.347  31.067  26.913  1.00  0.00    +0.000 F 
ATOM     37  C29 UNL A   1      47.108  33.322  26.337  1.00  0.00    +0.000 C 
ATOM     38  F2  UNL A   1      48.405  33.354  26.006  1.00  0.00    +0.000 F 
ATOM     39  C30 UNL A   1      46.349  34.475  26.243  1.00  0.00    +0.000 C 
ATOM     40  F3  UNL A   1      46.898  35.619  25.818  1.00  0.00    +0.000 F 
ATOM     41  C31 UNL A   1      45.030  34.447  26.641  1.00  0.00    +0.000 C 
ATOM     42  F4  UNL A   1      44.283  35.557  26.576  1.00  0.00    +0.000 F 
ATOM     43  C32 UNL A   1      44.484  33.284  27.184  1.00  0.00    +0.000 C 
ATOM     44  F5  UNL A   1      43.251  33.417  27.686  1.00  0.00    +0.000 F 
ENDBRANCH   33   34
BRANCH   50   51
ATOM     51  C38 UNL A   1      42.487  30.314  33.385  1.00  0.00    +0.000 C 
ATOM     52  C39 UNL A   1      42.619  30.708  34.729  1.00  0.00    +0.000 C 
ATOM     53  F6  UNL A   1      43.094  31.920  35.044  1.00  0.00    +0.000 F 
ATOM     54  C40 UNL A   1      42.213  29.880  35.776  1.00  0.00    +0.000 C 
ATOM     55  F7  UNL A   1      42.360  30.279  37.048  1.00  0.00    +0.000 F 
ATOM     56  C41 UNL A   1      41.623  28.657  35.503  1.00  0.00    +0.000 C 
ATOM     57  F8  UNL A   1      41.192  27.877  36.504  1.00  0.00    +0.000 F 
ATOM     58  C42 UNL A   1      41.458  28.256  34.187  1.00  0.00    +0.000 C 
ATOM     59  F9  UNL A   1      40.848  27.094  33.915  1.00  0.00    +0.000 F 
ATOM     60  C43 UNL A   1      41.897  29.066  33.143  1.00  0.00    +0.000 C 
ATOM     61  F10 UNL A   1      41.699  28.653  31.881  1.00  0.00    +0.000 F 
ENDBRANCH   50   51
BRANCH   65   66
ATOM     66  C47 UNL A   1      37.271  32.867  30.835  1.00  0.00    +0.000 C 
ATOM     67  C48 UNL A   1      36.936  33.344  29.557  1.00  0.00    +0.000 C 
ATOM     68  F11 UNL A   1      37.810  33.231  28.547  1.00  0.00    +0.000 F 
ATOM     69  C49 UNL A   1      35.668  33.866  29.281  1.00  0.00    +0.000 C 
ATOM     70  F12 UNL A   1      35.359  34.243  28.032  1.00  0.00    +0.000 F 
ATOM     71  C50 UNL A   1      34.705  33.933  30.275  1.00  0.00    +0.000 C 
ATOM     72  F13 UNL A   1      33.468  34.362  29.992  1.00  0.00    +0.000 F 
ATOM     73  C51 UNL A   1      35.020  33.511  31.554  1.00  0.00    +0.000 C 
ATOM     74  F14 UNL A   1      34.085  33.538  32.516  1.00  0.00    +0.000 F 
ATOM     75  C52 UNL A   1      36.284  32.988  31.832  1.00  0.00    +0.000 C 
ATOM     76  F15 UNL A   1      36.491  32.509  33.066  1.00  0.00    +0.000 F 
ENDBRANCH   65   66
TORSDOF 20
ENDMDL
MODEL 8
REMARK VINA RESULT:     -10.2      3.244      8.599
ROOT
ATOM    129  H39 UNL A   1      38.914  27.662  32.320  1.00  0.00    +0.000 H 
ATOM     29  C23 UNL A   1      40.376  28.852  30.161  1.00  0.00    +0.000 C 
ATOM     30  C24 UNL A   1      40.851  28.541  31.528  1.00  0.00    +0.000 C 
ATOM     31  N4  UNL A   1      41.995  28.835  32.049  1.00  0.00    +0.000 N 
ATOM     32  C25 UNL A   1      41.971  28.314  33.339  1.00  0.00    +0.000 C 
ATOM     33  C26 UNL A   1      43.125  28.023  33.999  1.00  0.00    +0.000 C 
ATOM     45  C33 UNL A   1      44.256  28.649  33.361  1.00  0.00    +0.000 C 
ATOM     46  C34 UNL A   1      44.670  29.953  33.176  1.00  0.00    +0.000 C 
ATOM     47  C35 UNL A   1      45.243  29.981  31.869  1.00  0.00    +0.000 C 
ATOM     48  C36 UNL A   1      45.207  28.686  31.349  1.00  0.00    +0.000 C 
ATOM     49  N5  UNL A   1      44.955  27.902  32.446  1.00  0.00    +0.000 N 
ATOM     50  C37 UNL A   1      45.277  28.177  29.996  1.00  0.00    +0.000 C 
ATOM     62  C44 UNL A   1      44.902  26.921  29.608  1.00  0.00    +0.000 C 
ATOM     63  N6  UNL A   1      44.587  26.649  28.283  1.00  0.00    +0.000 N 
ATOM     64  C45 UNL A   1      43.758  25.641  28.335  1.00  0.00    +0.000 C 
ATOM     65  C46 UNL A   1      42.577  25.504  27.444  1.00  0.00    +0.000 C 
ATOM     77  C53 UNL A   1      41.745  26.526  27.759  1.00  0.00    +0.000 C 
ATOM     78  C54 UNL A   1      40.672  27.125  27.001  1.00  0.00    +0.000 C 
ATOM     79  C55 UNL A   1      40.181  28.155  27.720  1.00  0.00    +0.000 C 
ATOM     80  C56 UNL A   1      40.770  28.159  29.067  1.00  0.00    +0.000 C 
ATOM     81  N7  UNL A   1      41.765  27.217  28.988  1.00  0.00    +0.000 N 
ATOM     82  C57 UNL A   1      43.747  24.902  29.585  1.00  0.00    +0.000 C 
ATOM     83  C58 UNL A   1      44.411  25.766  30.355  1.00  0.00    +0.000 C 
ATOM     84  C59 UNL A   1      40.603  27.953  33.605  1.00  0.00    +0.000 C 
ATOM     85  C60 UNL A   1      39.886  27.969  32.480  1.00  0.00    +0.000 C 
ATOM    120  H30 UNL A   1      44.583  30.738  33.840  1.00  0.00    +0.000 H 
ATOM    121  H31 UNL A   1      45.620  30.815  31.391  1.00  0.00    +0.000 H 
ATOM    122  H32 UNL A   1      45.228  26.962  32.558  1.00  0.00    +0.000 H 
ATOM    123  H33 UNL A   1      40.340  26.819  26.074  1.00  0.00    +0.000 H 
ATOM    124  H34 UNL A   1      39.490  28.840  27.374  1.00  0.00    +0.000 H 
ATOM    125  H35 UNL A   1      42.416  27.045  29.706  1.00  0.00    +0.000 H 
ATOM    126  H36 UNL A   1      43.343  23.980  29.812  1.00  0.00    +0.000 H 
ATOM    127  H37 UNL A   1      44.561  25.634  31.368  1.00  0.00    +0.000 H 
ATOM    128  H38 UNL A   1      40.229  27.715  34.537  1.00  0.00    +0.000 H 
ENDROOT
BRANCH   29   28
ATOM    130  H40 UNL A   1      37.856  28.278  30.377  1.00  0.00    +0.000 H 
ATOM    131  H41 UNL A   1      36.079  29.661  29.461  1.00  0.00    +0.000 H 
ATOM     28  C22 UNL A   1      39.284  29.805  30.101  1.00  0.00    +0.000 C 
ATOM     86  C61 UNL A   1      38.011  29.265  30.116  1.00  0.00    +0.000 C 
ATOM     87  C62 UNL A   1      36.971  30.073  29.778  1.00  0.00    +0.000 C 
ATOM    118  H28 UNL A   1      38.486  33.057  30.007  1.00  0.00    +0.000 H 
ATOM     25  C19 UNL A   1      37.110  31.450  29.859  1.00  0.00    +0.000 C 
ATOM     26  C20 UNL A   1      38.376  32.031  29.971  1.00  0.00    +0.000 C 
ATOM     27  C21 UNL A   1      39.486  31.192  30.034  1.00  0.00    +0.000 C 
ATOM    119  H29 UNL A   1      40.441  31.583  30.031  1.00  0.00    +0.000 H 
BRANCH   25   23
ATOM     23  C18 UNL A   1      35.871  32.250  29.842  1.00  0.00    +0.000 C 
ATOM     24  O3  UNL A   1      35.827  33.334  30.386  1.00  0.00    +0.000 O 
BRANCH   23   22
ATOM    117  H27 UNL A   1      34.152  31.190  29.729  1.00  0.00    +0.000 H 
ATOM     22  N3  UNL A   1      34.767  31.728  29.180  1.00  0.00    +0.000 N 
BRANCH   22   21
ATOM    115  H25 UNL A   1      33.903  32.816  27.640  1.00  0.00    +0.000 H 
ATOM    116  H26 UNL A   1      35.303  31.829  27.193  1.00  0.00    +0.000 H 
ATOM     21  C17 UNL A   1      34.403  31.878  27.768  1.00  0.00    +0.000 C 
BRANCH   21   20
ATOM    113  H23 UNL A   1      32.605  30.767  27.890  1.00  0.00    +0.000 H 
ATOM    114  H24 UNL A   1      33.264  30.970  26.255  1.00  0.00    +0.000 H 
ATOM     20  C16 UNL A   1      33.486  30.770  27.282  1.00  0.00    +0.000 C 
BRANCH   20   19
ATOM     19  C15 UNL A   1      34.129  29.378  27.347  1.00  0.00    +0.000 C 
ATOM    111  H21 UNL A   1      35.119  29.456  26.949  1.00  0.00    +0.000 H 
ATOM    112  H22 UNL A   1      34.088  29.094  28.379  1.00  0.00    +0.000 H 
BRANCH   19   18
ATOM     18  C14 UNL A   1      33.404  28.255  26.586  1.00  0.00    +0.000 C 
ATOM    109  H19 UNL A   1      33.866  28.155  25.625  1.00  0.00    +0.000 H 
ATOM    110  H20 UNL A   1      33.489  27.380  27.194  1.00  0.00    +0.000 H 
BRANCH   18   17
ATOM     17  C13 UNL A   1      31.905  28.480  26.369  1.00  0.00    +0.000 C 
ATOM    107  H17 UNL A   1      31.446  28.649  27.321  1.00  0.00    +0.000 H 
ATOM    108  H18 UNL A   1      31.801  29.322  25.718  1.00  0.00    +0.000 H 
BRANCH   17   16
ATOM    105  H15 UNL A   1      31.906  26.494  25.582  1.00  0.00    +0.000 H 
ATOM    106  H16 UNL A   1      30.385  26.987  26.306  1.00  0.00    +0.000 H 
ATOM     16  C12 UNL A   1      31.207  27.297  25.696  1.00  0.00    +0.000 C 
BRANCH   16   15
ATOM     15  N2  UNL A   1      30.707  27.678  24.397  1.00  0.00    +0.000 N 
ATOM    104  H14 UNL A   1      29.770  27.979  24.393  1.00  0.00    +0.000 H 
BRANCH   15   13
ATOM     13  C11 UNL A   1      31.307  27.693  23.180  1.00  0.00    +0.000 C 
ATOM     14  O2  UNL A   1      30.574  27.746  22.190  1.00  0.00    +0.000 O 
BRANCH   13   12
ATOM     12  C10 UNL A   1      32.808  27.535  23.015  1.00  0.00    +0.000 C 
ATOM    102  H12 UNL A   1      33.059  27.974  22.071  1.00  0.00    +0.000 H 
ATOM    103  H13 UNL A   1      33.195  27.994  23.901  1.00  0.00    +0.000 H 
BRANCH   12   11
ATOM     11  C9  UNL A   1      33.456  26.145  23.039  1.00  0.00    +0.000 C 
ATOM    100  H10 UNL A   1      33.272  25.713  22.077  1.00  0.00    +0.000 H 
ATOM    101  H11 UNL A   1      34.462  26.373  23.324  1.00  0.00    +0.000 H 
BRANCH   11   10
ATOM     10  C8  UNL A   1      33.064  25.076  24.074  1.00  0.00    +0.000 C 
ATOM     99  H9  UNL A   1      31.997  25.148  24.091  1.00  0.00    +0.000 H 
ATOM     98  H8  UNL A   1      33.604  25.307  24.967  1.00  0.00    +0.000 H 
BRANCH   10    9
ATOM      2  C2  UNL A   1      33.188  18.975  24.425  1.00  0.00    +0.000 C 
ATOM      3  C3  UNL A   1      34.519  19.205  24.800  1.00  0.00    +0.000 C 
ATOM      4  C4  UNL A   1      35.049  20.506  24.754  1.00  0.00    +0.000 C 
ATOM      6  C6  UNL A   1      34.182  21.524  24.374  1.00  0.00    +0.000 C 
ATOM      7  C7  UNL A   1      34.376  22.992  24.388  1.00  0.00    +0.000 C 
ATOM      8  O1  UNL A   1      35.334  23.521  24.936  1.00  0.00    +0.000 O 
ATOM      9  N1  UNL A   1      33.284  23.656  23.813  1.00  0.00    +0.000 N 
ATOM     88  S1  UNL A   1      32.050  22.586  23.296  1.00  0.00    +0.000 S 
ATOM     89  C63 UNL A   1      32.910  21.192  23.952  1.00  0.00    +0.000 C 
ATOM     90  N8  UNL A   1      32.375  19.960  23.980  1.00  0.00    +0.000 N 
ATOM     94  H4  UNL A   1      35.110  18.418  25.112  1.00  0.00    +0.000 H 
BRANCH    2    1
ATOM      1  C1  UNL A   1      32.579  17.608  24.529  1.00  0.00    +0.000 C 
ATOM     91  H1  UNL A   1      32.550  17.156  23.560  1.00  0.00    +0.000 H 
ATOM     92  H2  UNL A   1      31.584  17.688  24.915  1.00  0.00    +0.000 H 
ATOM     93  H3  UNL A   1      33.169  17.004  25.187  1.00  0.00    +0.000 H 
ENDBRANCH    2    1
BRANCH    4    5
ATOM     97  H7  UNL A   1      36.775  20.185  25.923  1.00  0.00    +0.000 H 
ATOM      5  C5  UNL A   1      36.489  20.759  25.067  1.00  0.00    +0.000 C 
ATOM     95  H5  UNL A   1      36.632  21.799  25.272  1.00  0.00    +0.000 H 
ATOM     96  H6  UNL A   1      37.092  20.474  24.229  1.00  0.00    +0.000 H 
ENDBRANCH    4    5
ENDBRANCH   10    9
ENDBRANCH   11   10
ENDBRANCH   12   11
ENDBRANCH   13   12
ENDBRANCH   15   13
ENDBRANCH   16   15
ENDBRANCH   17   16
ENDBRANCH   18   17
ENDBRANCH   19   18
ENDBRANCH   20   19
ENDBRANCH   21   20
ENDBRANCH   22   21
ENDBRANCH   23   22
ENDBRANCH   25   23
ENDBRANCH   29   28
BRANCH   33   34
ATOM     34  C27 UNL A   1      43.282  26.913  35.007  1.00  0.00    +0.000 C 
ATOM     35  C28 UNL A   1      43.414  27.235  36.373  1.00  0.00    +0.000 C 
ATOM     36  F1  UNL A   1      43.185  28.483  36.807  1.00  0.00    +0.000 F 
ATOM     37  C29 UNL A   1      43.863  26.301  37.313  1.00  0.00    +0.000 C 
ATOM     38  F2  UNL A   1      44.079  26.683  38.578  1.00  0.00    +0.000 F 
ATOM     39  C30 UNL A   1      44.141  25.001  36.934  1.00  0.00    +0.000 C 
ATOM     40  F3  UNL A   1      44.617  24.119  37.821  1.00  0.00    +0.000 F 
ATOM     41  C31 UNL A   1      43.971  24.632  35.617  1.00  0.00    +0.000 C 
ATOM     42  F4  UNL A   1      44.253  23.382  35.225  1.00  0.00    +0.000 F 
ATOM     43  C32 UNL A   1      43.577  25.575  34.668  1.00  0.00    +0.000 C 
ATOM     44  F5  UNL A   1      43.602  25.149  33.400  1.00  0.00    +0.000 F 
ENDBRANCH   33   34
BRANCH   50   51
ATOM     51  C38 UNL A   1      45.583  29.178  28.908  1.00  0.00    +0.000 C 
ATOM     52  C39 UNL A   1      44.635  30.057  28.354  1.00  0.00    +0.000 C 
ATOM     53  F6  UNL A   1      43.355  30.018  28.742  1.00  0.00    +0.000 F 
ATOM     54  C40 UNL A   1      45.001  31.033  27.425  1.00  0.00    +0.000 C 
ATOM     55  F7  UNL A   1      44.073  31.851  26.907  1.00  0.00    +0.000 F 
ATOM     56  C41 UNL A   1      46.329  31.182  27.064  1.00  0.00    +0.000 C 
ATOM     57  F8  UNL A   1      46.690  32.146  26.205  1.00  0.00    +0.000 F 
ATOM     58  C42 UNL A   1      47.286  30.346  27.614  1.00  0.00    +0.000 C 
ATOM     59  F9  UNL A   1      48.579  30.514  27.303  1.00  0.00    +0.000 F 
ATOM     60  C43 UNL A   1      46.916  29.348  28.513  1.00  0.00    +0.000 C 
ATOM     61  F10 UNL A   1      47.875  28.572  29.042  1.00  0.00    +0.000 F 
ENDBRANCH   50   51
BRANCH   65   66
ATOM     66  C47 UNL A   1      42.241  24.233  26.761  1.00  0.00    +0.000 C 
ATOM     67  C48 UNL A   1      43.131  23.666  25.833  1.00  0.00    +0.000 C 
ATOM     68  F11 UNL A   1      44.161  24.384  25.363  1.00  0.00    +0.000 F 
ATOM     69  C49 UNL A   1      43.023  22.328  25.440  1.00  0.00    +0.000 C 
ATOM     70  F12 UNL A   1      43.934  21.800  24.610  1.00  0.00    +0.000 F 
ATOM     71  C50 UNL A   1      42.020  21.524  25.956  1.00  0.00    +0.000 C 
ATOM     72  F13 UNL A   1      41.962  20.224  25.638  1.00  0.00    +0.000 F 
ATOM     73  C51 UNL A   1      41.103  22.066  26.839  1.00  0.00    +0.000 C 
ATOM     74  F14 UNL A   1      40.149  21.288  27.373  1.00  0.00    +0.000 F 
ATOM     75  C52 UNL A   1      41.210  23.400  27.234  1.00  0.00    +0.000 C 
ATOM     76  F15 UNL A   1      40.348  23.835  28.164  1.00  0.00    +0.000 F 
ENDBRANCH   65   66
TORSDOF 20
ENDMDL
MODEL 9
REMARK VINA RESULT:     -10.1      4.251      7.499
ROOT
ATOM    129  H39 UNL A   1      41.029  28.835  26.262  1.00  0.00    +0.000 H 
ATOM     29  C23 UNL A   1      40.614  28.079  28.995  1.00  0.00    +0.000 C 
ATOM     30  C24 UNL A   1      41.725  28.872  28.422  1.00  0.00    +0.000 C 
ATOM     31  N4  UNL A   1      42.780  29.299  29.030  1.00  0.00    +0.000 N 
ATOM     32  C25 UNL A   1      43.507  30.008  28.078  1.00  0.00    +0.000 C 
ATOM     33  C26 UNL A   1      44.402  30.963  28.448  1.00  0.00    +0.000 C 
ATOM     45  C33 UNL A   1      44.727  30.852  29.848  1.00  0.00    +0.000 C 
ATOM     46  C34 UNL A   1      45.380  29.914  30.623  1.00  0.00    +0.000 C 
ATOM     47  C35 UNL A   1      44.665  29.888  31.858  1.00  0.00    +0.000 C 
ATOM     48  C36 UNL A   1      43.654  30.849  31.798  1.00  0.00    +0.000 C 
ATOM     49  N5  UNL A   1      44.007  31.626  30.724  1.00  0.00    +0.000 N 
ATOM     50  C37 UNL A   1      42.424  31.018  32.542  1.00  0.00    +0.000 C 
ATOM     62  C44 UNL A   1      41.377  31.808  32.160  1.00  0.00    +0.000 C 
ATOM     63  N6  UNL A   1      40.102  31.594  32.667  1.00  0.00    +0.000 N 
ATOM     64  C45 UNL A   1      39.294  32.049  31.747  1.00  0.00    +0.000 C 
ATOM     65  C46 UNL A   1      38.013  31.391  31.383  1.00  0.00    +0.000 C 
ATOM     77  C53 UNL A   1      38.344  30.189  30.851  1.00  0.00    +0.000 C 
ATOM     78  C54 UNL A   1      37.554  28.992  30.685  1.00  0.00    +0.000 C 
ATOM     79  C55 UNL A   1      38.350  28.039  30.160  1.00  0.00    +0.000 C 
ATOM     80  C56 UNL A   1      39.644  28.618  29.770  1.00  0.00    +0.000 C 
ATOM     81  N7  UNL A   1      39.605  29.884  30.299  1.00  0.00    +0.000 N 
ATOM     82  C57 UNL A   1      39.895  32.939  30.769  1.00  0.00    +0.000 C 
ATOM     83  C58 UNL A   1      41.184  32.705  31.024  1.00  0.00    +0.000 C 
ATOM     84  C59 UNL A   1      42.914  29.699  26.802  1.00  0.00    +0.000 C 
ATOM     85  C60 UNL A   1      41.738  29.088  26.967  1.00  0.00    +0.000 C 
ATOM    120  H30 UNL A   1      46.207  29.354  30.364  1.00  0.00    +0.000 H 
ATOM    121  H31 UNL A   1      44.861  29.265  32.658  1.00  0.00    +0.000 H 
ATOM    122  H32 UNL A   1      43.783  32.577  30.601  1.00  0.00    +0.000 H 
ATOM    123  H33 UNL A   1      36.557  28.885  30.926  1.00  0.00    +0.000 H 
ATOM    124  H34 UNL A   1      38.088  27.046  30.048  1.00  0.00    +0.000 H 
ATOM    125  H35 UNL A   1      40.368  30.505  30.293  1.00  0.00    +0.000 H 
ATOM    126  H36 UNL A   1      39.455  33.569  30.080  1.00  0.00    +0.000 H 
ATOM    127  H37 UNL A   1      41.959  33.111  30.477  1.00  0.00    +0.000 H 
ATOM    128  H38 UNL A   1      43.338  29.919  25.888  1.00  0.00    +0.000 H 
ENDROOT
BRANCH   29   28
ATOM    130  H40 UNL A   1      38.778  27.212  27.382  1.00  0.00    +0.000 H 
ATOM    131  H41 UNL A   1      38.126  24.876  27.217  1.00  0.00    +0.000 H 
ATOM     28  C22 UNL A   1      40.508  26.725  28.482  1.00  0.00    +0.000 C 
ATOM     86  C61 UNL A   1      39.380  26.451  27.733  1.00  0.00    +0.000 C 
ATOM     87  C62 UNL A   1      39.087  25.148  27.473  1.00  0.00    +0.000 C 
ATOM    118  H28 UNL A   1      42.027  23.747  28.277  1.00  0.00    +0.000 H 
ATOM     25  C19 UNL A   1      40.084  24.187  27.552  1.00  0.00    +0.000 C 
ATOM     26  C20 UNL A   1      41.293  24.467  28.195  1.00  0.00    +0.000 C 
ATOM     27  C21 UNL A   1      41.483  25.743  28.720  1.00  0.00    +0.000 C 
ATOM    119  H29 UNL A   1      42.324  25.963  29.275  1.00  0.00    +0.000 H 
BRANCH   25   23
ATOM     23  C18 UNL A   1      39.810  22.885  26.914  1.00  0.00    +0.000 C 
ATOM     24  O3  UNL A   1      38.898  22.764  26.122  1.00  0.00    +0.000 O 
BRANCH   23   22
ATOM    117  H27 UNL A   1      40.895  21.749  28.187  1.00  0.00    +0.000 H 
ATOM     22  N3  UNL A   1      40.629  21.814  27.241  1.00  0.00    +0.000 N 
BRANCH   22   21
ATOM    115  H25 UNL A   1      40.782  19.819  26.694  1.00  0.00    +0.000 H 
ATOM    116  H26 UNL A   1      40.820  20.986  25.363  1.00  0.00    +0.000 H 
ATOM     21  C17 UNL A   1      41.149  20.766  26.357  1.00  0.00    +0.000 C 
BRANCH   21   20
ATOM    113  H23 UNL A   1      43.018  20.705  27.349  1.00  0.00    +0.000 H 
ATOM    114  H24 UNL A   1      42.949  19.836  25.803  1.00  0.00    +0.000 H 
ATOM     20  C16 UNL A   1      42.666  20.718  26.338  1.00  0.00    +0.000 C 
BRANCH   20   19
ATOM     19  C15 UNL A   1      43.302  21.914  25.615  1.00  0.00    +0.000 C 
ATOM    111  H21 UNL A   1      42.597  22.274  24.895  1.00  0.00    +0.000 H 
ATOM    112  H22 UNL A   1      43.543  22.616  26.386  1.00  0.00    +0.000 H 
BRANCH   19   18
ATOM     18  C14 UNL A   1      44.625  21.642  24.880  1.00  0.00    +0.000 C 
ATOM    109  H19 UNL A   1      44.775  20.583  24.848  1.00  0.00    +0.000 H 
ATOM    110  H20 UNL A   1      44.526  22.089  23.913  1.00  0.00    +0.000 H 
BRANCH   18   17
ATOM     17  C13 UNL A   1      45.865  22.276  25.518  1.00  0.00    +0.000 C 
ATOM    107  H17 UNL A   1      46.548  21.495  25.780  1.00  0.00    +0.000 H 
ATOM    108  H18 UNL A   1      46.282  22.949  24.798  1.00  0.00    +0.000 H 
BRANCH   17   16
ATOM    105  H15 UNL A   1      44.620  23.600  26.638  1.00  0.00    +0.000 H 
ATOM    106  H16 UNL A   1      45.490  22.426  27.610  1.00  0.00    +0.000 H 
ATOM     16  C12 UNL A   1      45.551  23.090  26.773  1.00  0.00    +0.000 C 
BRANCH   16   15
ATOM     15  N2  UNL A   1      46.591  24.059  27.020  1.00  0.00    +0.000 N 
ATOM    104  H14 UNL A   1      46.802  24.198  27.972  1.00  0.00    +0.000 H 
BRANCH   15   13
ATOM     13  C11 UNL A   1      47.329  24.813  26.166  1.00  0.00    +0.000 C 
ATOM     14  O2  UNL A   1      48.529  24.939  26.418  1.00  0.00    +0.000 O 
BRANCH   13   12
ATOM     12  C10 UNL A   1      46.703  25.572  25.010  1.00  0.00    +0.000 C 
ATOM    102  H12 UNL A   1      47.136  25.175  24.115  1.00  0.00    +0.000 H 
ATOM    103  H13 UNL A   1      45.655  25.426  25.168  1.00  0.00    +0.000 H 
BRANCH   12   11
ATOM     11  C9  UNL A   1      46.826  27.098  24.917  1.00  0.00    +0.000 C 
ATOM    100  H10 UNL A   1      47.874  27.315  24.933  1.00  0.00    +0.000 H 
ATOM    101  H11 UNL A   1      46.262  27.313  24.034  1.00  0.00    +0.000 H 
BRANCH   11   10
ATOM     10  C8  UNL A   1      46.176  28.035  25.949  1.00  0.00    +0.000 C 
ATOM     99  H9  UNL A   1      45.146  27.750  25.908  1.00  0.00    +0.000 H 
ATOM     98  H8  UNL A   1      46.440  29.031  25.663  1.00  0.00    +0.000 H 
BRANCH   10    9
ATOM      2  C2  UNL A   1      48.192  26.151  31.404  1.00  0.00    +0.000 C 
ATOM      3  C3  UNL A   1      46.849  25.785  31.571  1.00  0.00    +0.000 C 
ATOM      4  C4  UNL A   1      45.898  26.134  30.596  1.00  0.00    +0.000 C 
ATOM      6  C6  UNL A   1      46.368  26.798  29.469  1.00  0.00    +0.000 C 
ATOM      7  C7  UNL A   1      45.669  27.146  28.211  1.00  0.00    +0.000 C 
ATOM      8  O1  UNL A   1      44.561  26.705  27.934  1.00  0.00    +0.000 O 
ATOM      9  N1  UNL A   1      46.483  27.919  27.373  1.00  0.00    +0.000 N 
ATOM     88  S1  UNL A   1      48.037  28.206  28.033  1.00  0.00    +0.000 S 
ATOM     89  C63 UNL A   1      47.693  27.180  29.427  1.00  0.00    +0.000 C 
ATOM     90  N8  UNL A   1      48.626  26.867  30.342  1.00  0.00    +0.000 N 
ATOM     94  H4  UNL A   1      46.559  25.258  32.410  1.00  0.00    +0.000 H 
BRANCH    2    1
ATOM      1  C1  UNL A   1      49.238  25.734  32.395  1.00  0.00    +0.000 C 
ATOM     91  H1  UNL A   1      50.203  25.780  31.935  1.00  0.00    +0.000 H 
ATOM     92  H2  UNL A   1      49.044  24.733  32.718  1.00  0.00    +0.000 H 
ATOM     93  H3  UNL A   1      49.213  26.392  33.239  1.00  0.00    +0.000 H 
ENDBRANCH    2    1
BRANCH    4    5
ATOM     97  H7  UNL A   1      44.318  24.774  30.921  1.00  0.00    +0.000 H 
ATOM      5  C5  UNL A   1      44.447  25.829  30.797  1.00  0.00    +0.000 C 
ATOM     95  H5  UNL A   1      43.892  26.159  29.944  1.00  0.00    +0.000 H 
ATOM     96  H6  UNL A   1      44.094  26.337  31.671  1.00  0.00    +0.000 H 
ENDBRANCH    4    5
ENDBRANCH   10    9
ENDBRANCH   11   10
ENDBRANCH   12   11
ENDBRANCH   13   12
ENDBRANCH   15   13
ENDBRANCH   16   15
ENDBRANCH   17   16
ENDBRANCH   18   17
ENDBRANCH   19   18
ENDBRANCH   20   19
ENDBRANCH   21   20
ENDBRANCH   22   21
ENDBRANCH   23   22
ENDBRANCH   25   23
ENDBRANCH   29   28
BRANCH   33   34
ATOM     34  C27 UNL A   1      44.725  32.197  27.642  1.00  0.00    +0.000 C 
ATOM     35  C28 UNL A   1      45.962  32.279  26.973  1.00  0.00    +0.000 C 
ATOM     36  F1  UNL A   1      46.753  31.203  26.861  1.00  0.00    +0.000 F 
ATOM     37  C29 UNL A   1      46.452  33.489  26.471  1.00  0.00    +0.000 C 
ATOM     38  F2  UNL A   1      47.681  33.540  25.941  1.00  0.00    +0.000 F 
ATOM     39  C30 UNL A   1      45.701  34.647  26.569  1.00  0.00    +0.000 C 
ATOM     40  F3  UNL A   1      46.189  35.815  26.134  1.00  0.00    +0.000 F 
ATOM     41  C31 UNL A   1      44.461  34.596  27.168  1.00  0.00    +0.000 C 
ATOM     42  F4  UNL A   1      43.726  35.709  27.291  1.00  0.00    +0.000 F 
ATOM     43  C32 UNL A   1      43.995  33.402  27.718  1.00  0.00    +0.000 C 
ATOM     44  F5  UNL A   1      42.857  33.505  28.415  1.00  0.00    +0.000 F 
ENDBRANCH   33   34
BRANCH   50   51
ATOM     51  C38 UNL A   1      42.203  30.087  33.710  1.00  0.00    +0.000 C 
ATOM     52  C39 UNL A   1      41.763  28.757  33.587  1.00  0.00    +0.000 C 
ATOM     53  F6  UNL A   1      41.459  28.243  32.389  1.00  0.00    +0.000 F 
ATOM     54  C40 UNL A   1      41.678  27.911  34.695  1.00  0.00    +0.000 C 
ATOM     55  F7  UNL A   1      41.245  26.651  34.548  1.00  0.00    +0.000 F 
ATOM     56  C41 UNL A   1      42.075  28.362  35.942  1.00  0.00    +0.000 C 
ATOM     57  F8  UNL A   1      42.036  27.540  37.000  1.00  0.00    +0.000 F 
ATOM     58  C42 UNL A   1      42.537  29.660  36.086  1.00  0.00    +0.000 C 
ATOM     59  F9  UNL A   1      42.965  30.088  37.282  1.00  0.00    +0.000 F 
ATOM     60  C43 UNL A   1      42.587  30.515  34.987  1.00  0.00    +0.000 C 
ATOM     61  F10 UNL A   1      43.062  31.759  35.162  1.00  0.00    +0.000 F 
ENDBRANCH   50   51
BRANCH   65   66
ATOM     66  C47 UNL A   1      36.752  32.149  31.208  1.00  0.00    +0.000 C 
ATOM     67  C48 UNL A   1      35.943  32.451  32.315  1.00  0.00    +0.000 C 
ATOM     68  F11 UNL A   1      36.158  31.844  33.491  1.00  0.00    +0.000 F 
ATOM     69  C49 UNL A   1      34.956  33.440  32.251  1.00  0.00    +0.000 C 
ATOM     70  F12 UNL A   1      34.252  33.752  33.349  1.00  0.00    +0.000 F 
ATOM     71  C50 UNL A   1      34.746  34.147  31.079  1.00  0.00    +0.000 C 
ATOM     72  F13 UNL A   1      33.853  35.146  31.040  1.00  0.00    +0.000 F 
ATOM     73  C51 UNL A   1      35.499  33.843  29.959  1.00  0.00    +0.000 C 
ATOM     74  F14 UNL A   1      35.330  34.546  28.829  1.00  0.00    +0.000 F 
ATOM     75  C52 UNL A   1      36.486  32.858  30.020  1.00  0.00    +0.000 C 
ATOM     76  F15 UNL A   1      37.243  32.680  28.929  1.00  0.00    +0.000 F 
ENDBRANCH   65   66
TORSDOF 20
ENDMDL
MODEL 10
REMARK VINA RESULT:     -10.1     34.470     41.466
ROOT
ATOM    129  H39 UNL A   1       6.693  32.682   0.841  1.00  0.00    +0.000 H 
ATOM     29  C23 UNL A   1       8.449  30.437   0.541  1.00  0.00    +0.000 C 
ATOM     30  C24 UNL A   1       7.754  31.205  -0.517  1.00  0.00    +0.000 C 
ATOM     31  N4  UNL A   1       7.727  30.952  -1.782  1.00  0.00    +0.000 N 
ATOM     32  C25 UNL A   1       6.967  31.967  -2.356  1.00  0.00    +0.000 C 
ATOM     33  C26 UNL A   1       7.109  32.290  -3.671  1.00  0.00    +0.000 C 
ATOM     45  C33 UNL A   1       7.811  31.253  -4.384  1.00  0.00    +0.000 C 
ATOM     46  C34 UNL A   1       7.534  29.943  -4.718  1.00  0.00    +0.000 C 
ATOM     47  C35 UNL A   1       8.778  29.255  -4.595  1.00  0.00    +0.000 C 
ATOM     48  C36 UNL A   1       9.760  30.187  -4.253  1.00  0.00    +0.000 C 
ATOM     49  N5  UNL A   1       9.170  31.395  -4.523  1.00  0.00    +0.000 N 
ATOM     50  C37 UNL A   1      11.065  30.049  -3.642  1.00  0.00    +0.000 C 
ATOM     62  C44 UNL A   1      11.776  31.066  -3.070  1.00  0.00    +0.000 C 
ATOM     63  N6  UNL A   1      12.778  30.802  -2.146  1.00  0.00    +0.000 N 
ATOM     64  C45 UNL A   1      12.836  31.871  -1.398  1.00  0.00    +0.000 C 
ATOM     65  C46 UNL A   1      13.059  31.834   0.070  1.00  0.00    +0.000 C 
ATOM     77  C53 UNL A   1      11.975  31.218   0.601  1.00  0.00    +0.000 C 
ATOM     78  C54 UNL A   1      11.803  30.566   1.877  1.00  0.00    +0.000 C 
ATOM     79  C55 UNL A   1      10.557  30.051   1.916  1.00  0.00    +0.000 C 
ATOM     80  C56 UNL A   1       9.783  30.511   0.753  1.00  0.00    +0.000 C 
ATOM     81  N7  UNL A   1      10.721  31.126  -0.038  1.00  0.00    +0.000 N 
ATOM     82  C57 UNL A   1      12.214  33.060  -1.955  1.00  0.00    +0.000 C 
ATOM     83  C58 UNL A   1      11.519  32.498  -2.946  1.00  0.00    +0.000 C 
ATOM     84  C59 UNL A   1       6.322  32.656  -1.269  1.00  0.00    +0.000 C 
ATOM     85  C60 UNL A   1       6.860  32.297  -0.101  1.00  0.00    +0.000 C 
ATOM    120  H30 UNL A   1       6.623  29.546  -4.996  1.00  0.00    +0.000 H 
ATOM    121  H31 UNL A   1       8.927  28.242  -4.733  1.00  0.00    +0.000 H 
ATOM    122  H32 UNL A   1       9.639  32.224  -4.773  1.00  0.00    +0.000 H 
ATOM    123  H33 UNL A   1      12.508  30.504   2.627  1.00  0.00    +0.000 H 
ATOM    124  H34 UNL A   1      10.198  29.426   2.656  1.00  0.00    +0.000 H 
ATOM    125  H35 UNL A   1      10.540  31.462  -0.945  1.00  0.00    +0.000 H 
ATOM    126  H36 UNL A   1      12.287  34.048  -1.668  1.00  0.00    +0.000 H 
ATOM    127  H37 UNL A   1      10.870  33.018  -3.557  1.00  0.00    +0.000 H 
ATOM    128  H38 UNL A   1       5.551  33.333  -1.377  1.00  0.00    +0.000 H 
ENDROOT
BRANCH   29   28
ATOM    130  H40 UNL A   1       7.372  28.099   0.215  1.00  0.00    +0.000 H 
ATOM    131  H41 UNL A   1       5.327  27.394   1.322  1.00  0.00    +0.000 H 
ATOM     28  C22 UNL A   1       7.568  29.771   1.484  1.00  0.00    +0.000 C 
ATOM     86  C61 UNL A   1       7.010  28.582   1.052  1.00  0.00    +0.000 C 
ATOM     87  C62 UNL A   1       5.971  28.069   1.763  1.00  0.00    +0.000 C 
ATOM    118  H28 UNL A   1       6.264  29.887   4.567  1.00  0.00    +0.000 H 
ATOM     25  C19 UNL A   1       5.778  28.454   3.081  1.00  0.00    +0.000 C 
ATOM     26  C20 UNL A   1       6.424  29.583   3.594  1.00  0.00    +0.000 C 
ATOM     27  C21 UNL A   1       7.289  30.286   2.759  1.00  0.00    +0.000 C 
ATOM    119  H29 UNL A   1       7.718  31.171   3.073  1.00  0.00    +0.000 H 
BRANCH   25   23
ATOM     23  C18 UNL A   1       4.888  27.611   3.901  1.00  0.00    +0.000 C 
ATOM     24  O3  UNL A   1       3.864  28.064   4.368  1.00  0.00    +0.000 O 
BRANCH   23   22
ATOM    117  H27 UNL A   1       4.592  25.611   3.849  1.00  0.00    +0.000 H 
ATOM     22  N3  UNL A   1       5.255  26.289   4.112  1.00  0.00    +0.000 N 
BRANCH   22   21
ATOM    115  H25 UNL A   1       7.112  26.602   4.982  1.00  0.00    +0.000 H 
ATOM    116  H26 UNL A   1       6.256  25.142   5.502  1.00  0.00    +0.000 H 
ATOM     21  C17 UNL A   1       6.507  25.774   4.676  1.00  0.00    +0.000 C 
BRANCH   21   20
ATOM    113  H23 UNL A   1       7.690  24.086   4.193  1.00  0.00    +0.000 H 
ATOM    114  H24 UNL A   1       6.624  24.664   2.897  1.00  0.00    +0.000 H 
ATOM     20  C16 UNL A   1       7.296  24.940   3.683  1.00  0.00    +0.000 C 
BRANCH   20   19
ATOM     19  C15 UNL A   1       8.461  25.705   3.039  1.00  0.00    +0.000 C 
ATOM    111  H21 UNL A   1       9.264  25.013   2.892  1.00  0.00    +0.000 H 
ATOM    112  H22 UNL A   1       8.064  26.120   2.135  1.00  0.00    +0.000 H 
BRANCH   19   18
ATOM     18  C14 UNL A   1       9.012  26.901   3.832  1.00  0.00    +0.000 C 
ATOM    109  H19 UNL A   1       8.975  27.764   3.199  1.00  0.00    +0.000 H 
ATOM    110  H20 UNL A   1       8.401  26.986   4.706  1.00  0.00    +0.000 H 
BRANCH   18   17
ATOM     17  C13 UNL A   1      10.451  26.743   4.332  1.00  0.00    +0.000 C 
ATOM    107  H17 UNL A   1      11.106  27.226   3.638  1.00  0.00    +0.000 H 
ATOM    108  H18 UNL A   1      10.499  27.187   5.305  1.00  0.00    +0.000 H 
BRANCH   17   16
ATOM    105  H15 UNL A   1      10.189  24.657   3.958  1.00  0.00    +0.000 H 
ATOM    106  H16 UNL A   1      11.864  25.172   4.061  1.00  0.00    +0.000 H 
ATOM     16  C12 UNL A   1      10.884  25.284   4.476  1.00  0.00    +0.000 C 
BRANCH   16   15
ATOM     15  N2  UNL A   1      10.920  24.903   5.868  1.00  0.00    +0.000 N 
ATOM    104  H14 UNL A   1      11.785  24.545   6.171  1.00  0.00    +0.000 H 
BRANCH   15   13
ATOM     13  C11 UNL A   1       9.964  24.952   6.830  1.00  0.00    +0.000 C 
ATOM     14  O2  UNL A   1       8.975  24.231   6.680  1.00  0.00    +0.000 O 
BRANCH   13   12
ATOM     12  C10 UNL A   1      10.032  25.929   7.990  1.00  0.00    +0.000 C 
ATOM    102  H12 UNL A   1      11.071  26.106   8.179  1.00  0.00    +0.000 H 
ATOM    103  H13 UNL A   1       9.438  26.750   7.645  1.00  0.00    +0.000 H 
BRANCH   12   11
ATOM     11  C9  UNL A   1       9.393  25.587   9.341  1.00  0.00    +0.000 C 
ATOM    100  H10 UNL A   1       9.336  24.519   9.383  1.00  0.00    +0.000 H 
ATOM    101  H11 UNL A   1      10.032  26.103  10.027  1.00  0.00    +0.000 H 
BRANCH   11   10
ATOM     10  C8  UNL A   1       8.003  26.108   9.744  1.00  0.00    +0.000 C 
ATOM     99  H9  UNL A   1       7.504  25.219  10.068  1.00  0.00    +0.000 H 
ATOM     98  H8  UNL A   1       7.615  26.627   8.893  1.00  0.00    +0.000 H 
BRANCH   10    9
ATOM      2  C2  UNL A   1       7.149  28.419  15.339  1.00  0.00    +0.000 C 
ATOM      3  C3  UNL A   1       5.859  28.660  14.844  1.00  0.00    +0.000 C 
ATOM      4  C4  UNL A   1       5.564  28.407  13.493  1.00  0.00    +0.000 C 
ATOM      6  C6  UNL A   1       6.586  27.873  12.717  1.00  0.00    +0.000 C 
ATOM      7  C7  UNL A   1       6.551  27.346  11.333  1.00  0.00    +0.000 C 
ATOM      8  O1  UNL A   1       5.503  27.152  10.732  1.00  0.00    +0.000 O 
ATOM      9  N1  UNL A   1       7.834  27.003  10.886  1.00  0.00    +0.000 N 
ATOM     88  S1  UNL A   1       9.045  27.266  12.069  1.00  0.00    +0.000 S 
ATOM     89  C63 UNL A   1       7.842  27.738  13.272  1.00  0.00    +0.000 C 
ATOM     90  N8  UNL A   1       8.158  27.974  14.556  1.00  0.00    +0.000 N 
ATOM     94  H4  UNL A   1       5.125  29.022  15.474  1.00  0.00    +0.000 H 
BRANCH    2    1
ATOM      1  C1  UNL A   1       7.471  28.616  16.790  1.00  0.00    +0.000 C 
ATOM     91  H1  UNL A   1       6.583  28.487  17.373  1.00  0.00    +0.000 H 
ATOM     92  H2  UNL A   1       7.855  29.603  16.940  1.00  0.00    +0.000 H 
ATOM     93  H3  UNL A   1       8.205  27.898  17.093  1.00  0.00    +0.000 H 
ENDBRANCH    2    1
BRANCH    4    5
ATOM     97  H7  UNL A   1       3.626  29.219  13.676  1.00  0.00    +0.000 H 
ATOM      5  C5  UNL A   1       4.220  28.740  12.926  1.00  0.00    +0.000 C 
ATOM     95  H5  UNL A   1       3.736  27.841  12.608  1.00  0.00    +0.000 H 
ATOM     96  H6  UNL A   1       4.338  29.397  12.089  1.00  0.00    +0.000 H 
ENDBRANCH    4    5
ENDBRANCH   10    9
ENDBRANCH   11   10
ENDBRANCH   12   11
ENDBRANCH   13   12
ENDBRANCH   15   13
ENDBRANCH   16   15
ENDBRANCH   17   16
ENDBRANCH   18   17
ENDBRANCH   19   18
ENDBRANCH   20   19
ENDBRANCH   21   20
ENDBRANCH   22   21
ENDBRANCH   23   22
ENDBRANCH   25   23
ENDBRANCH   29   28
BRANCH   33   34
ATOM     34  C27 UNL A   1       6.918  33.673  -4.241  1.00  0.00    +0.000 C 
ATOM     35  C28 UNL A   1       7.829  34.692  -3.900  1.00  0.00    +0.000 C 
ATOM     36  F1  UNL A   1       8.972  34.403  -3.262  1.00  0.00    +0.000 F 
ATOM     37  C29 UNL A   1       7.551  36.042  -4.136  1.00  0.00    +0.000 C 
ATOM     38  F2  UNL A   1       8.396  36.982  -3.694  1.00  0.00    +0.000 F 
ATOM     39  C30 UNL A   1       6.380  36.419  -4.769  1.00  0.00    +0.000 C 
ATOM     40  F3  UNL A   1       6.089  37.712  -4.951  1.00  0.00    +0.000 F 
ATOM     41  C31 UNL A   1       5.488  35.447  -5.168  1.00  0.00    +0.000 C 
ATOM     42  F4  UNL A   1       4.339  35.791  -5.766  1.00  0.00    +0.000 F 
ATOM     43  C32 UNL A   1       5.738  34.105  -4.885  1.00  0.00    +0.000 C 
ATOM     44  F5  UNL A   1       4.733  33.268  -5.170  1.00  0.00    +0.000 F 
ENDBRANCH   33   34
BRANCH   50   51
ATOM     51  C38 UNL A   1      11.573  28.643  -3.435  1.00  0.00    +0.000 C 
ATOM     52  C39 UNL A   1      11.196  27.817  -2.360  1.00  0.00    +0.000 C 
ATOM     53  F6  UNL A   1      10.374  28.269  -1.404  1.00  0.00    +0.000 F 
ATOM     54  C40 UNL A   1      11.616  26.489  -2.278  1.00  0.00    +0.000 C 
ATOM     55  F7  UNL A   1      11.248  25.728  -1.236  1.00  0.00    +0.000 F 
ATOM     56  C41 UNL A   1      12.386  25.942  -3.291  1.00  0.00    +0.000 C 
ATOM     57  F8  UNL A   1      12.755  24.654  -3.237  1.00  0.00    +0.000 F 
ATOM     58  C42 UNL A   1      12.750  26.726  -4.373  1.00  0.00    +0.000 C 
ATOM     59  F9  UNL A   1      13.456  26.191  -5.378  1.00  0.00    +0.000 F 
ATOM     60  C43 UNL A   1      12.361  28.062  -4.437  1.00  0.00    +0.000 C 
ATOM     61  F10 UNL A   1      12.714  28.784  -5.513  1.00  0.00    +0.000 F 
ENDBRANCH   50   51
BRANCH   65   66
ATOM     66  C47 UNL A   1      14.022  32.731   0.750  1.00  0.00    +0.000 C 
ATOM     67  C48 UNL A   1      13.567  33.742   1.612  1.00  0.00    +0.000 C 
ATOM     68  F11 UNL A   1      12.268  34.076   1.631  1.00  0.00    +0.000 F 
ATOM     69  C49 UNL A   1      14.424  34.365   2.526  1.00  0.00    +0.000 C 
ATOM     70  F12 UNL A   1      13.938  35.275   3.384  1.00  0.00    +0.000 F 
ATOM     71  C50 UNL A   1      15.758  34.001   2.596  1.00  0.00    +0.000 C 
ATOM     72  F13 UNL A   1      16.561  34.544   3.522  1.00  0.00    +0.000 F 
ATOM     73  C51 UNL A   1      16.246  33.039   1.731  1.00  0.00    +0.000 C 
ATOM     74  F14 UNL A   1      17.527  32.652   1.814  1.00  0.00    +0.000 F 
ATOM     75  C52 UNL A   1      15.392  32.413   0.820  1.00  0.00    +0.000 C 
ATOM     76  F15 UNL A   1      15.906  31.423   0.078  1.00  0.00    +0.000 F 
ENDBRANCH   65   66
TORSDOF 20
ENDMDL
