MODEL 1
REMARK VINA RESULT:      -9.1      0.000      0.000
ROOT
ATOM      2  C2  UNL A   1      46.244  42.329  23.439  1.00  0.00    +0.000 C 
ATOM      3  C3  UNL A   1      45.570  42.472  24.843  1.00  0.00    +0.000 C 
ATOM      5  C5  UNL A   1      44.884  43.825  25.089  1.00  0.00    +0.000 C 
ATOM      6  C6  UNL A   1      45.619  45.053  24.597  1.00  0.00    +0.000 C 
ATOM      7  C7  UNL A   1      46.472  44.917  23.322  1.00  0.00    +0.000 C 
ATOM    146  H41 UNL A   1      48.072  45.769  24.496  1.00  0.00    +0.000 H 
ATOM    147  H42 UNL A   1      47.179  46.917  23.422  1.00  0.00    +0.000 H 
ATOM    148  H43 UNL A   1      49.631  46.429  22.968  1.00  0.00    +0.000 H 
ATOM    149  H44 UNL A   1      48.393  46.460  21.653  1.00  0.00    +0.000 H 
ATOM    153  H48 UNL A   1      46.778  42.502  20.713  1.00  0.00    +0.000 H 
ATOM    154  H49 UNL A   1      47.102  43.989  18.773  1.00  0.00    +0.000 H 
ATOM    155  H50 UNL A   1      48.559  42.996  18.894  1.00  0.00    +0.000 H 
ATOM    156  H51 UNL A   1      48.263  45.824  19.925  1.00  0.00    +0.000 H 
ATOM    160  H55 UNL A   1      47.596  47.198  18.556  1.00  0.00    +0.000 H 
ATOM    161  H56 UNL A   1      47.181  45.888  17.418  1.00  0.00    +0.000 H 
ATOM    162  H57 UNL A   1      47.251  48.120  16.387  1.00  0.00    +0.000 H 
ATOM    163  H58 UNL A   1      48.357  46.919  15.686  1.00  0.00    +0.000 H 
ATOM    164  H59 UNL A   1      49.067  49.145  17.521  1.00  0.00    +0.000 H 
ATOM    172  H67 UNL A   1      49.866  47.588  19.072  1.00  0.00    +0.000 H 
ATOM    173  H68 UNL A   1      52.283  47.002  19.205  1.00  0.00    +0.000 H 
ATOM    174  H69 UNL A   1      51.871  45.426  18.585  1.00  0.00    +0.000 H 
ATOM    175  H70 UNL A   1      50.673  46.689  21.042  1.00  0.00    +0.000 H 
ATOM    176  H71 UNL A   1      51.935  45.438  21.019  1.00  0.00    +0.000 H 
ATOM    180  H75 UNL A   1      47.878  43.306  23.958  1.00  0.00    +0.000 H 
ATOM     83  C60 UNL A   1      47.642  45.959  23.534  1.00  0.00    +0.000 C 
ATOM     84  C61 UNL A   1      48.788  45.955  22.509  1.00  0.00    +0.000 C 
ATOM     85  C62 UNL A   1      49.263  44.561  21.973  1.00  0.00    +0.000 C 
ATOM     87  C64 UNL A   1      48.007  43.646  21.883  1.00  0.00    +0.000 C 
ATOM     88  C65 UNL A   1      47.512  43.227  20.700  1.00  0.00    +0.000 C 
ATOM     89  C66 UNL A   1      47.965  43.754  19.362  1.00  0.00    +0.000 C 
ATOM     90  C67 UNL A   1      48.839  45.028  19.500  1.00  0.00    +0.000 C 
ATOM     91  C68 UNL A   1      49.182  45.795  18.152  1.00  0.00    +0.000 C 
ATOM     93  C70 UNL A   1      47.914  46.606  17.723  1.00  0.00    +0.000 C 
ATOM     94  C71 UNL A   1      48.137  47.536  16.532  1.00  0.00    +0.000 C 
ATOM     95  C72 UNL A   1      49.320  48.490  16.714  1.00  0.00    +0.000 C 
ATOM     97  C73 UNL A   1      50.645  47.812  17.182  1.00  0.00    +0.000 C 
ATOM    100  C76 UNL A   1      50.299  46.876  18.402  1.00  0.00    +0.000 C 
ATOM    101  C77 UNL A   1      51.504  46.271  19.129  1.00  0.00    +0.000 C 
ATOM    102  C78 UNL A   1      51.070  45.837  20.531  1.00  0.00    +0.000 C 
ATOM    103  C79 UNL A   1      49.992  44.721  20.525  1.00  0.00    +0.000 C 
ATOM    105  C81 UNL A   1      47.181  43.539  23.181  1.00  0.00    +0.000 C 
ATOM    109  H4  UNL A   1      45.480  42.318  22.689  1.00  0.00    +0.000 H 
ATOM    110  H5  UNL A   1      46.418  42.368  25.488  1.00  0.00    +0.000 H 
ATOM    114  H9  UNL A   1      44.743  43.931  26.145  1.00  0.00    +0.000 H 
ATOM    115  H10 UNL A   1      43.977  43.791  24.522  1.00  0.00    +0.000 H 
ATOM    116  H11 UNL A   1      46.269  45.372  25.384  1.00  0.00    +0.000 H 
ATOM    117  H12 UNL A   1      44.843  45.741  24.330  1.00  0.00    +0.000 H 
ENDROOT
BRANCH    2    1
ATOM      1  C1  UNL A   1      47.016  41.003  23.334  1.00  0.00    +0.000 C 
ATOM    106  H1  UNL A   1      46.517  40.253  23.911  1.00  0.00    +0.000 H 
ATOM    107  H2  UNL A   1      48.009  41.140  23.710  1.00  0.00    +0.000 H 
ATOM    108  H3  UNL A   1      47.061  40.696  22.311  1.00  0.00    +0.000 H 
ENDBRANCH    2    1
BRANCH    3    4
ATOM    113  H8  UNL A   1      43.580  41.682  24.749  1.00  0.00    +0.000 H 
ATOM      4  C4  UNL A   1      44.524  41.395  25.161  1.00  0.00    +0.000 C 
ATOM    111  H6  UNL A   1      44.432  41.289  26.222  1.00  0.00    +0.000 H 
ATOM    112  H7  UNL A   1      44.831  40.463  24.735  1.00  0.00    +0.000 H 
ENDBRANCH    3    4
BRANCH    7    8
ATOM      9  O1  UNL A   1      45.815  46.449  21.521  1.00  0.00    +0.000 O 
ATOM      8  C8  UNL A   1      45.655  45.336  22.039  1.00  0.00    +0.000 C 
BRANCH    8   10
ATOM     10  N1  UNL A   1      44.775  44.526  21.364  1.00  0.00    +0.000 N 
ATOM    118  H13 UNL A   1      45.044  44.249  20.459  1.00  0.00    +0.000 H 
BRANCH   10   11
ATOM     11  C9  UNL A   1      43.494  44.031  21.832  1.00  0.00    +0.000 C 
ATOM    119  H14 UNL A   1      42.795  44.841  21.806  1.00  0.00    +0.000 H 
ATOM    120  H15 UNL A   1      43.658  43.650  22.818  1.00  0.00    +0.000 H 
BRANCH   11   12
ATOM    121  H16 UNL A   1      42.017  42.557  21.497  1.00  0.00    +0.000 H 
ATOM    122  H17 UNL A   1      43.707  42.157  20.970  1.00  0.00    +0.000 H 
ATOM     12  C10 UNL A   1      42.915  42.875  21.009  1.00  0.00    +0.000 C 
BRANCH   12   13
ATOM    123  H18 UNL A   1      42.691  42.205  19.018  1.00  0.00    +0.000 H 
ATOM    124  H19 UNL A   1      43.215  43.935  19.257  1.00  0.00    +0.000 H 
ATOM     13  C11 UNL A   1      42.564  43.133  19.536  1.00  0.00    +0.000 C 
BRANCH   13   14
ATOM    126  H21 UNL A   1      40.738  42.875  18.589  1.00  0.00    +0.000 H 
ATOM    125  H20 UNL A   1      40.671  43.883  20.097  1.00  0.00    +0.000 H 
ATOM     14  C12 UNL A   1      41.171  43.657  19.177  1.00  0.00    +0.000 C 
BRANCH   14   15
ATOM    127  H22 UNL A   1      40.841  45.725  18.931  1.00  0.00    +0.000 H 
ATOM     15  C13 UNL A   1      41.068  44.896  18.292  1.00  0.00    +0.000 C 
ATOM    128  H23 UNL A   1      40.319  44.644  17.570  1.00  0.00    +0.000 H 
BRANCH   15   16
ATOM    129  H24 UNL A   1      42.581  44.438  16.886  1.00  0.00    +0.000 H 
ATOM    130  H25 UNL A   1      43.027  45.621  18.146  1.00  0.00    +0.000 H 
ATOM     16  C14 UNL A   1      42.277  45.289  17.457  1.00  0.00    +0.000 C 
BRANCH   16   17
ATOM     17  N2  UNL A   1      42.046  46.387  16.543  1.00  0.00    +0.000 N 
ATOM    131  H26 UNL A   1      41.957  46.134  15.596  1.00  0.00    +0.000 H 
BRANCH   17   18
ATOM     18  C15 UNL A   1      41.933  47.736  16.805  1.00  0.00    +0.000 C 
ATOM     19  O2  UNL A   1      40.840  48.278  16.732  1.00  0.00    +0.000 O 
BRANCH   18   20
ATOM    132  H27 UNL A   1      44.372  47.653  15.775  1.00  0.00    +0.000 H 
ATOM    133  H28 UNL A   1      46.338  48.940  16.376  1.00  0.00    +0.000 H 
ATOM    144  H39 UNL A   1      44.106  50.954  19.324  1.00  0.00    +0.000 H 
ATOM     81  C58 UNL A   1      44.175  50.235  18.586  1.00  0.00    +0.000 C 
ATOM     82  C59 UNL A   1      43.072  49.430  18.299  1.00  0.00    +0.000 C 
ATOM    145  H40 UNL A   1      42.220  49.497  18.878  1.00  0.00    +0.000 H 
ATOM     20  C16 UNL A   1      43.116  48.533  17.229  1.00  0.00    +0.000 C 
ATOM     21  C17 UNL A   1      44.318  48.348  16.536  1.00  0.00    +0.000 C 
ATOM     22  C18 UNL A   1      45.448  49.103  16.872  1.00  0.00    +0.000 C 
ATOM     23  C19 UNL A   1      45.377  50.077  17.880  1.00  0.00    +0.000 C 
BRANCH   23   24
ATOM    134  H29 UNL A   1      49.999  57.505  16.376  1.00  0.00    +0.000 H 
ATOM    135  H30 UNL A   1      52.031  57.336  18.001  1.00  0.00    +0.000 H 
ATOM    136  H31 UNL A   1      49.728  53.920  18.434  1.00  0.00    +0.000 H 
ATOM    137  H32 UNL A   1      48.544  48.407  21.420  1.00  0.00    +0.000 H 
ATOM    138  H33 UNL A   1      46.594  48.552  19.799  1.00  0.00    +0.000 H 
ATOM    139  H34 UNL A   1      48.925  51.956  19.290  1.00  0.00    +0.000 H 
ATOM    140  H35 UNL A   1      52.815  51.453  22.443  1.00  0.00    +0.000 H 
ATOM    141  H36 UNL A   1      53.569  53.777  21.684  1.00  0.00    +0.000 H 
ATOM    142  H37 UNL A   1      45.966  54.194  15.133  1.00  0.00    +0.000 H 
ATOM    143  H38 UNL A   1      44.916  52.127  16.219  1.00  0.00    +0.000 H 
ATOM     24  C20 UNL A   1      46.555  50.922  18.215  1.00  0.00    +0.000 C 
ATOM     25  C21 UNL A   1      46.801  52.210  17.476  1.00  0.00    +0.000 C 
ATOM     26  N3  UNL A   1      47.798  53.052  17.585  1.00  0.00    +0.000 N 
ATOM     27  C22 UNL A   1      47.559  54.047  16.645  1.00  0.00    +0.000 C 
ATOM     28  C23 UNL A   1      48.267  55.178  16.407  1.00  0.00    +0.000 C 
ATOM     40  C30 UNL A   1      49.449  55.561  17.133  1.00  0.00    +0.000 C 
ATOM     41  C31 UNL A   1      50.201  56.717  17.010  1.00  0.00    +0.000 C 
ATOM     42  C32 UNL A   1      51.282  56.633  17.893  1.00  0.00    +0.000 C 
ATOM     43  C33 UNL A   1      51.179  55.446  18.601  1.00  0.00    +0.000 C 
ATOM     44  N4  UNL A   1      50.052  54.796  18.121  1.00  0.00    +0.000 N 
ATOM     45  C34 UNL A   1      52.042  54.941  19.637  1.00  0.00    +0.000 C 
ATOM     57  C41 UNL A   1      51.867  53.765  20.289  1.00  0.00    +0.000 C 
ATOM     58  N5  UNL A   1      50.864  52.819  20.126  1.00  0.00    +0.000 N 
ATOM     59  C42 UNL A   1      51.138  51.855  20.972  1.00  0.00    +0.000 C 
ATOM     60  C43 UNL A   1      50.373  50.587  21.248  1.00  0.00    +0.000 C 
ATOM     72  C50 UNL A   1      49.228  50.349  20.580  1.00  0.00    +0.000 C 
ATOM     73  C51 UNL A   1      48.376  49.176  20.752  1.00  0.00    +0.000 C 
ATOM     74  C52 UNL A   1      47.339  49.258  19.903  1.00  0.00    +0.000 C 
ATOM     75  C53 UNL A   1      47.435  50.508  19.148  1.00  0.00    +0.000 C 
ATOM     76  N6  UNL A   1      48.588  51.090  19.616  1.00  0.00    +0.000 N 
ATOM     77  C54 UNL A   1      52.366  52.070  21.748  1.00  0.00    +0.000 C 
ATOM     78  C55 UNL A   1      52.749  53.266  21.323  1.00  0.00    +0.000 C 
ATOM     79  C56 UNL A   1      46.352  53.677  15.939  1.00  0.00    +0.000 C 
ATOM     80  C57 UNL A   1      45.806  52.589  16.461  1.00  0.00    +0.000 C 
BRANCH   28   29
ATOM     33  F2  UNL A   1      47.838  56.407  11.682  1.00  0.00    +0.000 F 
ATOM     34  C27 UNL A   1      46.807  57.785  13.298  1.00  0.00    +0.000 C 
ATOM     35  F3  UNL A   1      46.356  58.601  12.335  1.00  0.00    +0.000 F 
ATOM     36  C28 UNL A   1      46.536  58.065  14.628  1.00  0.00    +0.000 C 
ATOM     37  F4  UNL A   1      45.806  59.142  14.951  1.00  0.00    +0.000 F 
ATOM     38  C29 UNL A   1      47.026  57.232  15.631  1.00  0.00    +0.000 C 
ATOM     39  F5  UNL A   1      46.761  57.539  16.910  1.00  0.00    +0.000 F 
ATOM     29  C24 UNL A   1      47.776  56.088  15.319  1.00  0.00    +0.000 C 
ATOM     30  C25 UNL A   1      48.016  55.812  13.964  1.00  0.00    +0.000 C 
ATOM     31  F1  UNL A   1      48.737  54.737  13.612  1.00  0.00    +0.000 F 
ATOM     32  C26 UNL A   1      47.551  56.664  12.965  1.00  0.00    +0.000 C 
ENDBRANCH   28   29
BRANCH   45   46
ATOM     46  C35 UNL A   1      53.210  55.788  20.047  1.00  0.00    +0.000 C 
ATOM     47  C36 UNL A   1      53.067  56.853  20.949  1.00  0.00    +0.000 C 
ATOM     48  F6  UNL A   1      51.855  57.173  21.428  1.00  0.00    +0.000 F 
ATOM     49  C37 UNL A   1      54.166  57.617  21.334  1.00  0.00    +0.000 C 
ATOM     50  F7  UNL A   1      53.999  58.657  22.161  1.00  0.00    +0.000 F 
ATOM     51  C38 UNL A   1      55.430  57.311  20.851  1.00  0.00    +0.000 C 
ATOM     52  F8  UNL A   1      56.487  58.043  21.229  1.00  0.00    +0.000 F 
ATOM     53  C39 UNL A   1      55.597  56.252  19.973  1.00  0.00    +0.000 C 
ATOM     54  F9  UNL A   1      56.820  55.947  19.516  1.00  0.00    +0.000 F 
ATOM     55  C40 UNL A   1      54.497  55.504  19.564  1.00  0.00    +0.000 C 
ATOM     56  F10 UNL A   1      54.688  54.492  18.704  1.00  0.00    +0.000 F 
ENDBRANCH   45   46
BRANCH   60   61
ATOM     65  F12 UNL A   1      53.411  47.040  22.654  1.00  0.00    +0.000 F 
ATOM     66  C47 UNL A   1      51.764  47.766  24.181  1.00  0.00    +0.000 C 
ATOM     67  F13 UNL A   1      52.190  46.878  25.089  1.00  0.00    +0.000 F 
ATOM     68  C48 UNL A   1      50.689  48.594  24.470  1.00  0.00    +0.000 C 
ATOM     69  F14 UNL A   1      50.089  48.520  25.665  1.00  0.00    +0.000 F 
ATOM     70  C49 UNL A   1      50.230  49.502  23.518  1.00  0.00    +0.000 C 
ATOM     71  F15 UNL A   1      49.180  50.280  23.819  1.00  0.00    +0.000 F 
ATOM     61  C44 UNL A   1      50.853  49.618  22.267  1.00  0.00    +0.000 C 
ATOM     62  C45 UNL A   1      51.949  48.783  22.005  1.00  0.00    +0.000 C 
ATOM     63  F11 UNL A   1      52.564  48.842  20.815  1.00  0.00    +0.000 F 
ATOM     64  C46 UNL A   1      52.390  47.856  22.947  1.00  0.00    +0.000 C 
ENDBRANCH   60   61
ENDBRANCH   23   24
ENDBRANCH   18   20
ENDBRANCH   17   18
ENDBRANCH   16   17
ENDBRANCH   15   16
ENDBRANCH   14   15
ENDBRANCH   13   14
ENDBRANCH   12   13
ENDBRANCH   11   12
ENDBRANCH   10   11
ENDBRANCH    8   10
ENDBRANCH    7    8
BRANCH   85   86
ATOM    151  H46 UNL A   1      50.962  44.727  23.295  1.00  0.00    +0.000 H 
ATOM     86  C63 UNL A   1      50.268  43.969  22.997  1.00  0.00    +0.000 C 
ATOM    150  H45 UNL A   1      49.736  43.616  23.856  1.00  0.00    +0.000 H 
ATOM    152  H47 UNL A   1      50.799  43.156  22.548  1.00  0.00    +0.000 H 
ENDBRANCH   85   86
BRANCH   91   92
ATOM     92  C69 UNL A   1      49.513  44.782  17.039  1.00  0.00    +0.000 C 
ATOM    157  H52 UNL A   1      49.637  45.299  16.112  1.00  0.00    +0.000 H 
ATOM    158  H53 UNL A   1      48.714  44.076  16.951  1.00  0.00    +0.000 H 
ATOM    159  H54 UNL A   1      50.420  44.267  17.284  1.00  0.00    +0.000 H 
ENDBRANCH   91   92
BRANCH   95   96
ATOM    165  H60 UNL A   1      48.965  48.842  14.802  1.00  0.00    +0.000 H 
ATOM     96  O3  UNL A   1      49.510  49.228  15.506  1.00  0.00    +0.000 O 
ENDBRANCH   95   96
BRANCH   97   98
ATOM     98  C74 UNL A   1      51.380  47.107  16.022  1.00  0.00    +0.000 C 
ATOM    166  H61 UNL A   1      50.663  46.665  15.362  1.00  0.00    +0.000 H 
ATOM    167  H62 UNL A   1      52.019  46.344  16.416  1.00  0.00    +0.000 H 
ATOM    168  H63 UNL A   1      51.967  47.822  15.484  1.00  0.00    +0.000 H 
ENDBRANCH   97   98
BRANCH   97   99
ATOM    169  H64 UNL A   1      52.431  49.012  16.963  1.00  0.00    +0.000 H 
ATOM    170  H65 UNL A   1      51.959  48.745  18.624  1.00  0.00    +0.000 H 
ATOM     99  C75 UNL A   1      51.602  48.952  17.637  1.00  0.00    +0.000 C 
ATOM    171  H66 UNL A   1      51.074  49.883  17.636  1.00  0.00    +0.000 H 
ENDBRANCH   97   99
BRANCH  103  104
ATOM    177  H72 UNL A   1      50.436  42.615  20.790  1.00  0.00    +0.000 H 
ATOM    178  H73 UNL A   1      51.806  43.562  20.261  1.00  0.00    +0.000 H 
ATOM    179  H74 UNL A   1      50.538  43.153  19.131  1.00  0.00    +0.000 H 
ATOM    104  C80 UNL A   1      50.753  43.410  20.147  1.00  0.00    +0.000 C 
ENDBRANCH  103  104
TORSDOF 23
ENDMDL
MODEL 2
REMARK VINA RESULT:      -9.0     39.124     45.675
ROOT
ATOM      2  C2  UNL A   1      27.391  18.689   4.617  1.00  0.00    +0.000 C 
ATOM      3  C3  UNL A   1      28.634  18.225   3.787  1.00  0.00    +0.000 C 
ATOM      5  C5  UNL A   1      29.185  16.844   4.179  1.00  0.00    +0.000 C 
ATOM      6  C6  UNL A   1      29.245  16.538   5.660  1.00  0.00    +0.000 C 
ATOM      7  C7  UNL A   1      28.157  17.145   6.565  1.00  0.00    +0.000 C 
ATOM    146  H41 UNL A   1      29.791  17.889   7.761  1.00  0.00    +0.000 H 
ATOM    147  H42 UNL A   1      29.012  16.365   8.344  1.00  0.00    +0.000 H 
ATOM    148  H43 UNL A   1      28.841  18.474   9.750  1.00  0.00    +0.000 H 
ATOM    149  H44 UNL A   1      27.420  17.406   9.436  1.00  0.00    +0.000 H 
ATOM    153  H48 UNL A   1      24.997  18.717   6.035  1.00  0.00    +0.000 H 
ATOM    154  H49 UNL A   1      23.724  17.797   7.935  1.00  0.00    +0.000 H 
ATOM    155  H50 UNL A   1      23.759  19.550   8.156  1.00  0.00    +0.000 H 
ATOM    156  H51 UNL A   1      25.583  17.564   9.526  1.00  0.00    +0.000 H 
ATOM    160  H55 UNL A   1      24.639  16.033  10.511  1.00  0.00    +0.000 H 
ATOM    161  H56 UNL A   1      23.088  16.477   9.753  1.00  0.00    +0.000 H 
ATOM    162  H57 UNL A   1      22.860  14.963  11.677  1.00  0.00    +0.000 H 
ATOM    163  H58 UNL A   1      22.003  16.514  11.819  1.00  0.00    +0.000 H 
ATOM    164  H59 UNL A   1      24.549  15.751  13.146  1.00  0.00    +0.000 H 
ATOM    172  H67 UNL A   1      25.625  17.519  12.057  1.00  0.00    +0.000 H 
ATOM    173  H68 UNL A   1      25.963  19.722  13.168  1.00  0.00    +0.000 H 
ATOM    174  H69 UNL A   1      24.808  20.394  12.049  1.00  0.00    +0.000 H 
ATOM    175  H70 UNL A   1      27.305  18.900  11.274  1.00  0.00    +0.000 H 
ATOM    176  H71 UNL A   1      27.091  20.663  11.244  1.00  0.00    +0.000 H 
ATOM    180  H75 UNL A   1      28.463  19.316   6.152  1.00  0.00    +0.000 H 
ATOM     83  C60 UNL A   1      28.885  17.353   7.951  1.00  0.00    +0.000 C 
ATOM     84  C61 UNL A   1      28.121  18.114   9.046  1.00  0.00    +0.000 C 
ATOM     85  C62 UNL A   1      27.250  19.336   8.593  1.00  0.00    +0.000 C 
ATOM     87  C64 UNL A   1      26.662  18.992   7.194  1.00  0.00    +0.000 C 
ATOM     88  C65 UNL A   1      25.342  18.787   7.005  1.00  0.00    +0.000 C 
ATOM     89  C66 UNL A   1      24.340  18.652   8.124  1.00  0.00    +0.000 C 
ATOM     90  C67 UNL A   1      25.026  18.478   9.505  1.00  0.00    +0.000 C 
ATOM     91  C68 UNL A   1      24.076  18.102  10.720  1.00  0.00    +0.000 C 
ATOM     93  C70 UNL A   1      23.725  16.581  10.606  1.00  0.00    +0.000 C 
ATOM     94  C71 UNL A   1      22.953  16.023  11.800  1.00  0.00    +0.000 C 
ATOM     95  C72 UNL A   1      23.629  16.296  13.146  1.00  0.00    +0.000 C 
ATOM     97  C73 UNL A   1      24.066  17.775  13.375  1.00  0.00    +0.000 C 
ATOM    100  C76 UNL A   1      24.843  18.248  12.087  1.00  0.00    +0.000 C 
ATOM    101  C77 UNL A   1      25.527  19.615  12.197  1.00  0.00    +0.000 C 
ATOM    102  C78 UNL A   1      26.620  19.709  11.130  1.00  0.00    +0.000 C 
ATOM    103  C79 UNL A   1      26.074  19.639   9.679  1.00  0.00    +0.000 C 
ATOM    105  C81 UNL A   1      27.698  18.569   6.134  1.00  0.00    +0.000 C 
ATOM    109  H4  UNL A   1      26.562  18.056   4.380  1.00  0.00    +0.000 H 
ATOM    110  H5  UNL A   1      29.342  18.987   4.037  1.00  0.00    +0.000 H 
ATOM    114  H9  UNL A   1      30.179  16.769   3.790  1.00  0.00    +0.000 H 
ATOM    115  H10 UNL A   1      28.494  16.137   3.771  1.00  0.00    +0.000 H 
ATOM    116  H11 UNL A   1      30.190  16.888   6.019  1.00  0.00    +0.000 H 
ATOM    117  H12 UNL A   1      29.089  15.481   5.722  1.00  0.00    +0.000 H 
ENDROOT
BRANCH    2    1
ATOM      1  C1  UNL A   1      26.995  20.129   4.249  1.00  0.00    +0.000 C 
ATOM    106  H1  UNL A   1      25.944  20.259   4.398  1.00  0.00    +0.000 H 
ATOM    107  H2  UNL A   1      27.236  20.313   3.223  1.00  0.00    +0.000 H 
ATOM    108  H3  UNL A   1      27.531  20.816   4.870  1.00  0.00    +0.000 H 
ENDBRANCH    2    1
BRANCH    3    4
ATOM    113  H8  UNL A   1      29.283  17.801   1.789  1.00  0.00    +0.000 H 
ATOM      4  C4  UNL A   1      28.407  18.183   2.270  1.00  0.00    +0.000 C 
ATOM    111  H6  UNL A   1      28.208  19.172   1.912  1.00  0.00    +0.000 H 
ATOM    112  H7  UNL A   1      27.574  17.549   2.051  1.00  0.00    +0.000 H 
ENDBRANCH    3    4
BRANCH    7    8
ATOM      9  O1  UNL A   1      26.569  15.844   7.911  1.00  0.00    +0.000 O 
ATOM      8  C8  UNL A   1      26.960  16.138   6.774  1.00  0.00    +0.000 C 
BRANCH    8   10
ATOM     10  N1  UNL A   1      26.227  15.562   5.764  1.00  0.00    +0.000 N 
ATOM    118  H13 UNL A   1      26.464  14.637   5.527  1.00  0.00    +0.000 H 
BRANCH   10   11
ATOM     11  C9  UNL A   1      25.145  16.161   5.006  1.00  0.00    +0.000 C 
ATOM    119  H14 UNL A   1      25.299  15.938   3.971  1.00  0.00    +0.000 H 
ATOM    120  H15 UNL A   1      25.171  17.210   5.218  1.00  0.00    +0.000 H 
BRANCH   11   12
ATOM    121  H16 UNL A   1      23.090  16.519   5.343  1.00  0.00    +0.000 H 
ATOM    122  H17 UNL A   1      23.877  15.242   6.366  1.00  0.00    +0.000 H 
ATOM     12  C10 UNL A   1      23.745  15.674   5.396  1.00  0.00    +0.000 C 
BRANCH   12   13
ATOM    123  H18 UNL A   1      23.164  14.851   3.539  1.00  0.00    +0.000 H 
ATOM    124  H19 UNL A   1      22.127  14.452   4.984  1.00  0.00    +0.000 H 
ATOM     13  C11 UNL A   1      23.106  14.551   4.565  1.00  0.00    +0.000 C 
BRANCH   13   14
ATOM    126  H21 UNL A   1      24.022  12.929   3.656  1.00  0.00    +0.000 H 
ATOM    125  H20 UNL A   1      24.433  13.143   5.411  1.00  0.00    +0.000 H 
ATOM     14  C12 UNL A   1      23.681  13.135   4.649  1.00  0.00    +0.000 C 
BRANCH   14   15
ATOM    127  H22 UNL A   1      22.812  11.276   4.168  1.00  0.00    +0.000 H 
ATOM     15  C13 UNL A   1      22.730  11.984   4.967  1.00  0.00    +0.000 C 
ATOM    128  H23 UNL A   1      21.775  12.454   5.080  1.00  0.00    +0.000 H 
BRANCH   15   16
ATOM    129  H24 UNL A   1      23.978  11.172   6.470  1.00  0.00    +0.000 H 
ATOM    130  H25 UNL A   1      22.484  10.258   6.126  1.00  0.00    +0.000 H 
ATOM     16  C14 UNL A   1      22.929  11.221   6.268  1.00  0.00    +0.000 C 
BRANCH   16   17
ATOM     17  N2  UNL A   1      22.274  11.809   7.417  1.00  0.00    +0.000 N 
ATOM    131  H26 UNL A   1      21.581  11.250   7.837  1.00  0.00    +0.000 H 
BRANCH   17   18
ATOM     18  C15 UNL A   1      22.479  13.038   8.008  1.00  0.00    +0.000 C 
ATOM     19  O2  UNL A   1      23.500  13.239   8.649  1.00  0.00    +0.000 O 
BRANCH   18   20
ATOM    132  H27 UNL A   1      20.231  12.974   6.607  1.00  0.00    +0.000 H 
ATOM    133  H28 UNL A   1      18.563  14.708   6.301  1.00  0.00    +0.000 H 
ATOM    144  H39 UNL A   1      20.801  17.284   8.767  1.00  0.00    +0.000 H 
ATOM     81  C58 UNL A   1      20.688  16.378   8.284  1.00  0.00    +0.000 C 
ATOM     82  C59 UNL A   1      21.689  15.411   8.384  1.00  0.00    +0.000 C 
ATOM    145  H40 UNL A   1      22.574  15.633   8.869  1.00  0.00    +0.000 H 
ATOM     20  C16 UNL A   1      21.498  14.142   7.831  1.00  0.00    +0.000 C 
ATOM     21  C17 UNL A   1      20.358  13.894   7.058  1.00  0.00    +0.000 C 
ATOM     22  C18 UNL A   1      19.387  14.889   6.896  1.00  0.00    +0.000 C 
ATOM     23  C19 UNL A   1      19.528  16.130   7.535  1.00  0.00    +0.000 C 
BRANCH   23   24
ATOM    134  H29 UNL A   1      11.812  19.453  10.400  1.00  0.00    +0.000 H 
ATOM    135  H30 UNL A   1      11.397  21.523   8.869  1.00  0.00    +0.000 H 
ATOM    136  H31 UNL A   1      14.927  19.710   7.682  1.00  0.00    +0.000 H 
ATOM    137  H32 UNL A   1      20.139  19.667   4.003  1.00  0.00    +0.000 H 
ATOM    138  H33 UNL A   1      20.514  17.622   5.462  1.00  0.00    +0.000 H 
ATOM    139  H34 UNL A   1      16.931  19.376   6.627  1.00  0.00    +0.000 H 
ATOM    140  H35 UNL A   1      16.250  23.305   3.557  1.00  0.00    +0.000 H 
ATOM    141  H36 UNL A   1      14.148  23.841   4.913  1.00  0.00    +0.000 H 
ATOM    142  H37 UNL A   1      15.559  15.616  10.505  1.00  0.00    +0.000 H 
ATOM    143  H38 UNL A   1      17.903  15.344   9.513  1.00  0.00    +0.000 H 
ATOM     24  C20 UNL A   1      18.481  17.181   7.412  1.00  0.00    +0.000 C 
ATOM     25  C21 UNL A   1      17.262  17.145   8.293  1.00  0.00    +0.000 C 
ATOM     26  N3  UNL A   1      16.218  17.935   8.300  1.00  0.00    +0.000 N 
ATOM     27  C22 UNL A   1      15.368  17.434   9.278  1.00  0.00    +0.000 C 
ATOM     28  C23 UNL A   1      14.185  17.934   9.712  1.00  0.00    +0.000 C 
ATOM     40  C30 UNL A   1      13.581  19.139   9.206  1.00  0.00    +0.000 C 
ATOM     41  C31 UNL A   1      12.417  19.761   9.624  1.00  0.00    +0.000 C 
ATOM     42  C32 UNL A   1      12.204  20.880   8.813  1.00  0.00    +0.000 C 
ATOM     43  C33 UNL A   1      13.258  20.983   7.921  1.00  0.00    +0.000 C 
ATOM     44  N4  UNL A   1      14.093  19.904   8.169  1.00  0.00    +0.000 N 
ATOM     45  C34 UNL A   1      13.489  21.988   6.915  1.00  0.00    +0.000 C 
ATOM     57  C41 UNL A   1      14.556  22.019   6.079  1.00  0.00    +0.000 C 
ATOM     58  N5  UNL A   1      15.629  21.142   6.001  1.00  0.00    +0.000 N 
ATOM     59  C42 UNL A   1      16.389  21.588   5.031  1.00  0.00    +0.000 C 
ATOM     60  C43 UNL A   1      17.700  21.047   4.525  1.00  0.00    +0.000 C 
ATOM     72  C50 UNL A   1      18.237  19.961   5.114  1.00  0.00    +0.000 C 
ATOM     73  C51 UNL A   1      19.503  19.335   4.744  1.00  0.00    +0.000 C 
ATOM     74  C52 UNL A   1      19.706  18.261   5.523  1.00  0.00    +0.000 C 
ATOM     75  C53 UNL A   1      18.599  18.140   6.472  1.00  0.00    +0.000 C 
ATOM     76  N6  UNL A   1      17.774  19.191   6.155  1.00  0.00    +0.000 N 
ATOM     77  C54 UNL A   1      15.866  22.787   4.363  1.00  0.00    +0.000 C 
ATOM     78  C55 UNL A   1      14.769  23.032   5.067  1.00  0.00    +0.000 C 
ATOM     79  C56 UNL A   1      15.994  16.242   9.808  1.00  0.00    +0.000 C 
ATOM     80  C57 UNL A   1      17.197  16.060   9.285  1.00  0.00    +0.000 C 
BRANCH   28   29
ATOM     33  F2  UNL A   1      10.965  14.556  11.209  1.00  0.00    +0.000 F 
ATOM     34  C27 UNL A   1      12.176  15.755  12.843  1.00  0.00    +0.000 C 
ATOM     35  F3  UNL A   1      11.549  15.084  13.820  1.00  0.00    +0.000 F 
ATOM     36  C28 UNL A   1      13.108  16.731  13.160  1.00  0.00    +0.000 C 
ATOM     37  F4  UNL A   1      13.398  16.990  14.443  1.00  0.00    +0.000 F 
ATOM     38  C29 UNL A   1      13.741  17.447  12.146  1.00  0.00    +0.000 C 
ATOM     39  F5  UNL A   1      14.626  18.396  12.485  1.00  0.00    +0.000 F 
ATOM     29  C24 UNL A   1      13.469  17.181  10.796  1.00  0.00    +0.000 C 
ATOM     30  C25 UNL A   1      12.540  16.172  10.500  1.00  0.00    +0.000 C 
ATOM     31  F1  UNL A   1      12.237  15.886   9.225  1.00  0.00    +0.000 F 
ATOM     32  C26 UNL A   1      11.886  15.479  11.516  1.00  0.00    +0.000 C 
ENDBRANCH   28   29
BRANCH   45   46
ATOM     46  C35 UNL A   1      12.487  23.098   6.794  1.00  0.00    +0.000 C 
ATOM     47  C36 UNL A   1      12.553  24.239   7.608  1.00  0.00    +0.000 C 
ATOM     48  F6  UNL A   1      13.493  24.337   8.559  1.00  0.00    +0.000 F 
ATOM     49  C37 UNL A   1      11.626  25.270   7.470  1.00  0.00    +0.000 C 
ATOM     50  F7  UNL A   1      11.680  26.330   8.287  1.00  0.00    +0.000 F 
ATOM     51  C38 UNL A   1      10.639  25.193   6.498  1.00  0.00    +0.000 C 
ATOM     52  F8  UNL A   1       9.753  26.190   6.362  1.00  0.00    +0.000 F 
ATOM     53  C39 UNL A   1      10.567  24.082   5.672  1.00  0.00    +0.000 C 
ATOM     54  F9  UNL A   1       9.622  24.014   4.723  1.00  0.00    +0.000 F 
ATOM     55  C40 UNL A   1      11.474  23.038   5.826  1.00  0.00    +0.000 C 
ATOM     56  F10 UNL A   1      11.372  21.971   5.019  1.00  0.00    +0.000 F 
ENDBRANCH   45   46
BRANCH   60   61
ATOM     65  F12 UNL A   1      20.680  24.527   2.851  1.00  0.00    +0.000 F 
ATOM     66  C47 UNL A   1      19.766  23.001   1.299  1.00  0.00    +0.000 C 
ATOM     67  F13 UNL A   1      20.400  23.619   0.294  1.00  0.00    +0.000 F 
ATOM     68  C48 UNL A   1      18.951  21.909   1.040  1.00  0.00    +0.000 C 
ATOM     69  F14 UNL A   1      18.814  21.458  -0.214  1.00  0.00    +0.000 F 
ATOM     70  C49 UNL A   1      18.273  21.279   2.082  1.00  0.00    +0.000 C 
ATOM     71  F15 UNL A   1      17.481  20.234   1.801  1.00  0.00    +0.000 F 
ATOM     61  C44 UNL A   1      18.416  21.715   3.408  1.00  0.00    +0.000 C 
ATOM     62  C45 UNL A   1      19.259  22.810   3.647  1.00  0.00    +0.000 C 
ATOM     63  F11 UNL A   1      19.411  23.277   4.894  1.00  0.00    +0.000 F 
ATOM     64  C46 UNL A   1      19.916  23.456   2.600  1.00  0.00    +0.000 C 
ENDBRANCH   60   61
ENDBRANCH   23   24
ENDBRANCH   18   20
ENDBRANCH   17   18
ENDBRANCH   16   17
ENDBRANCH   15   16
ENDBRANCH   14   15
ENDBRANCH   13   14
ENDBRANCH   12   13
ENDBRANCH   11   12
ENDBRANCH   10   11
ENDBRANCH    8   10
ENDBRANCH    7    8
BRANCH   85   86
ATOM    151  H46 UNL A   1      27.651  21.376   8.008  1.00  0.00    +0.000 H 
ATOM     86  C63 UNL A   1      28.181  20.573   8.478  1.00  0.00    +0.000 C 
ATOM    150  H45 UNL A   1      28.493  20.877   9.456  1.00  0.00    +0.000 H 
ATOM    152  H47 UNL A   1      29.040  20.320   7.891  1.00  0.00    +0.000 H 
ENDBRANCH   85   86
BRANCH   91   92
ATOM     92  C69 UNL A   1      22.767  18.912  10.635  1.00  0.00    +0.000 C 
ATOM    157  H52 UNL A   1      22.516  19.287  11.605  1.00  0.00    +0.000 H 
ATOM    158  H53 UNL A   1      21.980  18.279  10.282  1.00  0.00    +0.000 H 
ATOM    159  H54 UNL A   1      22.898  19.731   9.959  1.00  0.00    +0.000 H 
ENDBRANCH   91   92
BRANCH   95   96
ATOM    165  H60 UNL A   1      21.919  15.570  13.821  1.00  0.00    +0.000 H 
ATOM     96  O3  UNL A   1      22.773  15.837  14.194  1.00  0.00    +0.000 O 
ENDBRANCH   95   96
BRANCH   97   98
ATOM     98  C74 UNL A   1      22.881  18.679  13.775  1.00  0.00    +0.000 C 
ATOM    166  H61 UNL A   1      21.965  18.227  13.457  1.00  0.00    +0.000 H 
ATOM    167  H62 UNL A   1      22.988  19.635  13.308  1.00  0.00    +0.000 H 
ATOM    168  H63 UNL A   1      22.869  18.800  14.838  1.00  0.00    +0.000 H 
ENDBRANCH   97   98
BRANCH   97   99
ATOM    169  H64 UNL A   1      24.759  18.594  15.252  1.00  0.00    +0.000 H 
ATOM    170  H65 UNL A   1      26.028  17.899  14.275  1.00  0.00    +0.000 H 
ATOM     99  C75 UNL A   1      25.018  17.782  14.606  1.00  0.00    +0.000 C 
ATOM    171  H66 UNL A   1      24.921  16.858  15.137  1.00  0.00    +0.000 H 
ENDBRANCH   97   99
BRANCH  103  104
ATOM    177  H72 UNL A   1      25.622  21.330   8.400  1.00  0.00    +0.000 H 
ATOM    178  H73 UNL A   1      25.842  21.756  10.080  1.00  0.00    +0.000 H 
ATOM    179  H74 UNL A   1      24.369  20.972   9.564  1.00  0.00    +0.000 H 
ATOM    104  C80 UNL A   1      25.426  21.035   9.410  1.00  0.00    +0.000 C 
ENDBRANCH  103  104
TORSDOF 23
ENDMDL
MODEL 3
REMARK VINA RESULT:      -8.9     39.013     45.295
ROOT
ATOM      2  C2  UNL A   1      27.285  18.931   4.635  1.00  0.00    +0.000 C 
ATOM      3  C3  UNL A   1      28.506  18.472   3.772  1.00  0.00    +0.000 C 
ATOM      5  C5  UNL A   1      29.044  17.073   4.116  1.00  0.00    +0.000 C 
ATOM      6  C6  UNL A   1      29.125  16.726   5.587  1.00  0.00    +0.000 C 
ATOM      7  C7  UNL A   1      28.061  17.323   6.527  1.00  0.00    +0.000 C 
ATOM    146  H41 UNL A   1      29.726  18.011   7.715  1.00  0.00    +0.000 H 
ATOM    147  H42 UNL A   1      28.935  16.483   8.269  1.00  0.00    +0.000 H 
ATOM    148  H43 UNL A   1      28.818  18.554   9.735  1.00  0.00    +0.000 H 
ATOM    149  H44 UNL A   1      27.377  17.515   9.417  1.00  0.00    +0.000 H 
ATOM    153  H48 UNL A   1      24.915  18.953   6.095  1.00  0.00    +0.000 H 
ATOM    154  H49 UNL A   1      23.662  17.999   7.991  1.00  0.00    +0.000 H 
ATOM    155  H50 UNL A   1      23.726  19.744   8.259  1.00  0.00    +0.000 H 
ATOM    156  H51 UNL A   1      25.544  17.696   9.543  1.00  0.00    +0.000 H 
ATOM    160  H55 UNL A   1      24.595  16.151  10.502  1.00  0.00    +0.000 H 
ATOM    161  H56 UNL A   1      23.037  16.639   9.783  1.00  0.00    +0.000 H 
ATOM    162  H57 UNL A   1      22.820  15.076  11.669  1.00  0.00    +0.000 H 
ATOM    163  H58 UNL A   1      21.989  16.633  11.868  1.00  0.00    +0.000 H 
ATOM    164  H59 UNL A   1      24.546  15.799  13.129  1.00  0.00    +0.000 H 
ATOM    172  H67 UNL A   1      25.629  17.581  12.071  1.00  0.00    +0.000 H 
ATOM    173  H68 UNL A   1      26.018  19.748  13.235  1.00  0.00    +0.000 H 
ATOM    174  H69 UNL A   1      24.853  20.466  12.155  1.00  0.00    +0.000 H 
ATOM    175  H70 UNL A   1      27.315  18.959  11.297  1.00  0.00    +0.000 H 
ATOM    176  H71 UNL A   1      27.125  20.726  11.319  1.00  0.00    +0.000 H 
ATOM    180  H75 UNL A   1      28.392  19.499   6.168  1.00  0.00    +0.000 H 
ATOM     83  C60 UNL A   1      28.816  17.482   7.906  1.00  0.00    +0.000 C 
ATOM     84  C61 UNL A   1      28.081  18.223   9.034  1.00  0.00    +0.000 C 
ATOM     85  C62 UNL A   1      27.221  19.469   8.629  1.00  0.00    +0.000 C 
ATOM     87  C64 UNL A   1      26.604  19.172   7.232  1.00  0.00    +0.000 C 
ATOM     88  C65 UNL A   1      25.278  18.991   7.061  1.00  0.00    +0.000 C 
ATOM     89  C66 UNL A   1      24.293  18.839   8.193  1.00  0.00    +0.000 C 
ATOM     90  C67 UNL A   1      25.000  18.618   9.556  1.00  0.00    +0.000 C 
ATOM     91  C68 UNL A   1      24.065  18.222  10.777  1.00  0.00    +0.000 C 
ATOM     93  C70 UNL A   1      23.691  16.710  10.628  1.00  0.00    +0.000 C 
ATOM     94  C71 UNL A   1      22.931  16.130  11.819  1.00  0.00    +0.000 C 
ATOM     95  C72 UNL A   1      23.633  16.356  13.160  1.00  0.00    +0.000 C 
ATOM     97  C73 UNL A   1      24.096  17.822  13.421  1.00  0.00    +0.000 C 
ATOM    100  C76 UNL A   1      24.858  18.319  12.134  1.00  0.00    +0.000 C 
ATOM    101  C77 UNL A   1      25.563  19.674  12.269  1.00  0.00    +0.000 C 
ATOM    102  C78 UNL A   1      26.639  19.781  11.186  1.00  0.00    +0.000 C 
ATOM    103  C79 UNL A   1      26.068  19.759   9.744  1.00  0.00    +0.000 C 
ATOM    105  C81 UNL A   1      27.616  18.764   6.143  1.00  0.00    +0.000 C 
ATOM    109  H4  UNL A   1      26.442  18.315   4.396  1.00  0.00    +0.000 H 
ATOM    110  H5  UNL A   1      29.229  19.217   4.030  1.00  0.00    +0.000 H 
ATOM    114  H9  UNL A   1      30.030  16.995   3.708  1.00  0.00    +0.000 H 
ATOM    115  H10 UNL A   1      28.336  16.387   3.701  1.00  0.00    +0.000 H 
ATOM    116  H11 UNL A   1      30.080  17.052   5.939  1.00  0.00    +0.000 H 
ATOM    117  H12 UNL A   1      28.954  15.670   5.623  1.00  0.00    +0.000 H 
ENDROOT
BRANCH    2    1
ATOM      1  C1  UNL A   1      26.903  20.385   4.314  1.00  0.00    +0.000 C 
ATOM    106  H1  UNL A   1      27.345  21.038   5.037  1.00  0.00    +0.000 H 
ATOM    107  H2  UNL A   1      25.838  20.489   4.344  1.00  0.00    +0.000 H 
ATOM    108  H3  UNL A   1      27.258  20.641   3.338  1.00  0.00    +0.000 H 
ENDBRANCH    2    1
BRANCH    3    4
ATOM    113  H8  UNL A   1      28.970  19.108   1.779  1.00  0.00    +0.000 H 
ATOM      4  C4  UNL A   1      28.253  18.475   2.259  1.00  0.00    +0.000 C 
ATOM    111  H6  UNL A   1      27.267  18.841   2.062  1.00  0.00    +0.000 H 
ATOM    112  H7  UNL A   1      28.346  17.479   1.879  1.00  0.00    +0.000 H 
ENDBRANCH    3    4
BRANCH    7    8
ATOM      9  O1  UNL A   1      26.478  16.008   7.865  1.00  0.00    +0.000 O 
ATOM      8  C8  UNL A   1      26.853  16.327   6.729  1.00  0.00    +0.000 C 
BRANCH    8   10
ATOM     10  N1  UNL A   1      26.095  15.789   5.717  1.00  0.00    +0.000 N 
ATOM    118  H13 UNL A   1      26.238  14.834   5.526  1.00  0.00    +0.000 H 
BRANCH   10   11
ATOM     11  C9  UNL A   1      25.109  16.467   4.896  1.00  0.00    +0.000 C 
ATOM    119  H14 UNL A   1      25.319  16.243   3.871  1.00  0.00    +0.000 H 
ATOM    120  H15 UNL A   1      25.191  17.510   5.123  1.00  0.00    +0.000 H 
BRANCH   11   12
ATOM    121  H16 UNL A   1      23.078  16.973   5.181  1.00  0.00    +0.000 H 
ATOM    122  H17 UNL A   1      23.706  15.550   6.117  1.00  0.00    +0.000 H 
ATOM     12  C10 UNL A   1      23.657  16.072   5.185  1.00  0.00    +0.000 C 
BRANCH   12   13
ATOM    123  H18 UNL A   1      22.832  15.594   3.300  1.00  0.00    +0.000 H 
ATOM    124  H19 UNL A   1      22.081  14.801   4.760  1.00  0.00    +0.000 H 
ATOM     13  C11 UNL A   1      22.967  15.085   4.231  1.00  0.00    +0.000 C 
BRANCH   13   14
ATOM    126  H21 UNL A   1      23.772  13.761   2.854  1.00  0.00    +0.000 H 
ATOM    125  H20 UNL A   1      24.544  13.705   4.495  1.00  0.00    +0.000 H 
ATOM     14  C12 UNL A   1      23.645  13.748   3.916  1.00  0.00    +0.000 C 
BRANCH   14   15
ATOM    127  H22 UNL A   1      22.934  11.861   3.304  1.00  0.00    +0.000 H 
ATOM     15  C13 UNL A   1      22.871  12.461   4.188  1.00  0.00    +0.000 C 
ATOM    128  H23 UNL A   1      21.890  12.795   4.458  1.00  0.00    +0.000 H 
BRANCH   15   16
ATOM    129  H24 UNL A   1      24.359  11.715   5.493  1.00  0.00    +0.000 H 
ATOM    130  H25 UNL A   1      23.032  10.586   5.105  1.00  0.00    +0.000 H 
ATOM     16  C14 UNL A   1      23.306  11.590   5.356  1.00  0.00    +0.000 C 
BRANCH   16   17
ATOM     17  N2  UNL A   1      22.648  11.891   6.610  1.00  0.00    +0.000 N 
ATOM    131  H26 UNL A   1      22.076  11.174   6.967  1.00  0.00    +0.000 H 
BRANCH   17   18
ATOM     18  C15 UNL A   1      22.706  13.036   7.376  1.00  0.00    +0.000 C 
ATOM     19  O2  UNL A   1      23.716  13.284   8.019  1.00  0.00    +0.000 O 
BRANCH   18   20
ATOM    132  H27 UNL A   1      22.551  15.300   8.744  1.00  0.00    +0.000 H 
ATOM    133  H28 UNL A   1      20.770  16.945   8.792  1.00  0.00    +0.000 H 
ATOM    144  H39 UNL A   1      18.581  14.643   6.030  1.00  0.00    +0.000 H 
ATOM     81  C58 UNL A   1      19.412  14.775   6.629  1.00  0.00    +0.000 C 
ATOM     82  C59 UNL A   1      20.396  13.787   6.673  1.00  0.00    +0.000 C 
ATOM    145  H40 UNL A   1      20.253  12.894   6.174  1.00  0.00    +0.000 H 
ATOM     20  C16 UNL A   1      21.576  14.003   7.390  1.00  0.00    +0.000 C 
ATOM     21  C17 UNL A   1      21.702  15.155   8.174  1.00  0.00    +0.000 C 
ATOM     22  C18 UNL A   1      20.682  16.112   8.188  1.00  0.00    +0.000 C 
ATOM     23  C19 UNL A   1      19.540  15.946   7.390  1.00  0.00    +0.000 C 
BRANCH   23   24
ATOM    134  H29 UNL A   1      16.283  23.309   3.650  1.00  0.00    +0.000 H 
ATOM    135  H30 UNL A   1      14.120  23.818   5.015  1.00  0.00    +0.000 H 
ATOM    136  H31 UNL A   1      15.909  20.445   6.619  1.00  0.00    +0.000 H 
ATOM    137  H32 UNL A   1      15.809  15.583  10.751  1.00  0.00    +0.000 H 
ATOM    138  H33 UNL A   1      17.943  15.121   9.453  1.00  0.00    +0.000 H 
ATOM    139  H34 UNL A   1      16.209  18.550   7.868  1.00  0.00    +0.000 H 
ATOM    140  H35 UNL A   1      12.095  19.424  10.631  1.00  0.00    +0.000 H 
ATOM    141  H36 UNL A   1      11.610  21.386   9.061  1.00  0.00    +0.000 H 
ATOM    142  H37 UNL A   1      20.173  19.644   4.108  1.00  0.00    +0.000 H 
ATOM    143  H38 UNL A   1      20.420  17.403   5.322  1.00  0.00    +0.000 H 
ATOM     24  C20 UNL A   1      18.470  16.979   7.356  1.00  0.00    +0.000 C 
ATOM     25  C21 UNL A   1      18.540  18.115   6.372  1.00  0.00    +0.000 C 
ATOM     26  N3  UNL A   1      17.737  19.139   6.225  1.00  0.00    +0.000 N 
ATOM     27  C22 UNL A   1      18.283  19.907   5.205  1.00  0.00    +0.000 C 
ATOM     28  C23 UNL A   1      17.792  21.036   4.638  1.00  0.00    +0.000 C 
ATOM     40  C30 UNL A   1      16.551  21.660   5.015  1.00  0.00    +0.000 C 
ATOM     41  C31 UNL A   1      15.938  22.769   4.458  1.00  0.00    +0.000 C 
ATOM     42  C32 UNL A   1      14.770  23.032   5.181  1.00  0.00    +0.000 C 
ATOM     43  C33 UNL A   1      14.630  22.060   6.157  1.00  0.00    +0.000 C 
ATOM     44  N4  UNL A   1      15.733  21.227   6.048  1.00  0.00    +0.000 N 
ATOM     45  C34 UNL A   1      13.570  21.900   7.120  1.00  0.00    +0.000 C 
ATOM     57  C41 UNL A   1      13.504  20.911   8.045  1.00  0.00    +0.000 C 
ATOM     58  N5  UNL A   1      14.390  19.867   8.270  1.00  0.00    +0.000 N 
ATOM     59  C42 UNL A   1      13.898  19.188   9.278  1.00  0.00    +0.000 C 
ATOM     60  C43 UNL A   1      14.427  17.938   9.931  1.00  0.00    +0.000 C 
ATOM     72  C50 UNL A   1      15.554  17.372   9.457  1.00  0.00    +0.000 C 
ATOM     73  C51 UNL A   1      16.175  16.158   9.976  1.00  0.00    +0.000 C 
ATOM     74  C52 UNL A   1      17.297  15.907   9.282  1.00  0.00    +0.000 C 
ATOM     75  C53 UNL A   1      17.458  16.927   8.246  1.00  0.00    +0.000 C 
ATOM     76  N6  UNL A   1      16.378  17.756   8.425  1.00  0.00    +0.000 N 
ATOM     77  C54 UNL A   1      12.654  19.745   9.825  1.00  0.00    +0.000 C 
ATOM     78  C55 UNL A   1      12.436  20.769   9.012  1.00  0.00    +0.000 C 
ATOM     79  C56 UNL A   1      19.513  19.261   4.803  1.00  0.00    +0.000 C 
ATOM     80  C57 UNL A   1      19.682  18.113   5.443  1.00  0.00    +0.000 C 
BRANCH   28   29
ATOM     33  F2  UNL A   1      19.319  21.244  -0.016  1.00  0.00    +0.000 F 
ATOM     34  C27 UNL A   1      20.081  22.894   1.490  1.00  0.00    +0.000 C 
ATOM     35  F3  UNL A   1      20.799  23.471   0.516  1.00  0.00    +0.000 F 
ATOM     36  C28 UNL A   1      20.106  23.418   2.774  1.00  0.00    +0.000 C 
ATOM     37  F4  UNL A   1      20.831  24.514   3.036  1.00  0.00    +0.000 F 
ATOM     38  C29 UNL A   1      19.380  22.804   3.793  1.00  0.00    +0.000 C 
ATOM     39  F5  UNL A   1      19.438  23.325   5.027  1.00  0.00    +0.000 F 
ATOM     29  C24 UNL A   1      18.598  21.667   3.539  1.00  0.00    +0.000 C 
ATOM     30  C25 UNL A   1      18.570  21.170   2.227  1.00  0.00    +0.000 C 
ATOM     31  F1  UNL A   1      17.847  20.079   1.934  1.00  0.00    +0.000 F 
ATOM     32  C26 UNL A   1      19.321  21.768   1.217  1.00  0.00    +0.000 C 
ENDBRANCH   28   29
BRANCH   45   46
ATOM     46  C35 UNL A   1      12.440  22.886   7.084  1.00  0.00    +0.000 C 
ATOM     47  C36 UNL A   1      11.295  22.664   6.306  1.00  0.00    +0.000 C 
ATOM     48  F6  UNL A   1      11.209  21.577   5.525  1.00  0.00    +0.000 F 
ATOM     49  C37 UNL A   1      10.245  23.581   6.299  1.00  0.00    +0.000 C 
ATOM     50  F7  UNL A   1       9.180  23.371   5.514  1.00  0.00    +0.000 F 
ATOM     51  C38 UNL A   1      10.309  24.717   7.093  1.00  0.00    +0.000 C 
ATOM     52  F8  UNL A   1       9.295  25.594   7.091  1.00  0.00    +0.000 F 
ATOM     53  C39 UNL A   1      11.425  24.947   7.883  1.00  0.00    +0.000 C 
ATOM     54  F9  UNL A   1      11.481  26.037   8.661  1.00  0.00    +0.000 F 
ATOM     55  C40 UNL A   1      12.486  24.047   7.871  1.00  0.00    +0.000 C 
ATOM     56  F10 UNL A   1      13.557  24.302   8.637  1.00  0.00    +0.000 F 
ENDBRANCH   45   46
BRANCH   60   61
ATOM     65  F12 UNL A   1      13.774  17.280  14.719  1.00  0.00    +0.000 F 
ATOM     66  C47 UNL A   1      12.355  16.120  13.231  1.00  0.00    +0.000 C 
ATOM     67  F13 UNL A   1      11.719  15.544  14.261  1.00  0.00    +0.000 F 
ATOM     68  C48 UNL A   1      11.982  15.821  11.929  1.00  0.00    +0.000 C 
ATOM     69  F14 UNL A   1      10.972  14.972  11.700  1.00  0.00    +0.000 F 
ATOM     70  C49 UNL A   1      12.658  16.401  10.858  1.00  0.00    +0.000 C 
ATOM     71  F15 UNL A   1      12.286  16.084   9.609  1.00  0.00    +0.000 F 
ATOM     61  C44 UNL A   1      13.704  17.312  11.068  1.00  0.00    +0.000 C 
ATOM     62  C45 UNL A   1      14.051  17.611  12.393  1.00  0.00    +0.000 C 
ATOM     63  F11 UNL A   1      15.059  18.458  12.645  1.00  0.00    +0.000 F 
ATOM     64  C46 UNL A   1      13.393  17.009  13.464  1.00  0.00    +0.000 C 
ENDBRANCH   60   61
ENDBRANCH   23   24
ENDBRANCH   18   20
ENDBRANCH   17   18
ENDBRANCH   16   17
ENDBRANCH   15   16
ENDBRANCH   14   15
ENDBRANCH   13   14
ENDBRANCH   12   13
ENDBRANCH   11   12
ENDBRANCH   10   11
ENDBRANCH    8   10
ENDBRANCH    7    8
BRANCH   85   86
ATOM    151  H46 UNL A   1      28.179  21.213   9.469  1.00  0.00    +0.000 H 
ATOM     86  C63 UNL A   1      28.167  20.696   8.532  1.00  0.00    +0.000 C 
ATOM    150  H45 UNL A   1      29.157  20.364   8.296  1.00  0.00    +0.000 H 
ATOM    152  H47 UNL A   1      27.819  21.356   7.765  1.00  0.00    +0.000 H 
ENDBRANCH   85   86
BRANCH   91   92
ATOM     92  C69 UNL A   1      22.767  19.052  10.737  1.00  0.00    +0.000 C 
ATOM    157  H52 UNL A   1      22.479  19.214   9.720  1.00  0.00    +0.000 H 
ATOM    158  H53 UNL A   1      22.932  19.994  11.217  1.00  0.00    +0.000 H 
ATOM    159  H54 UNL A   1      21.989  18.521  11.247  1.00  0.00    +0.000 H 
ENDBRANCH   91   92
BRANCH   95   96
ATOM    165  H60 UNL A   1      22.135  15.264  13.846  1.00  0.00    +0.000 H 
ATOM     96  O3  UNL A   1      22.789  15.881  14.210  1.00  0.00    +0.000 O 
ENDBRANCH   95   96
BRANCH   97   98
ATOM     98  C74 UNL A   1      22.931  18.732  13.867  1.00  0.00    +0.000 C 
ATOM    166  H61 UNL A   1      22.952  19.640  13.301  1.00  0.00    +0.000 H 
ATOM    167  H62 UNL A   1      23.033  18.958  14.907  1.00  0.00    +0.000 H 
ATOM    168  H63 UNL A   1      22.002  18.228  13.700  1.00  0.00    +0.000 H 
ENDBRANCH   97   98
BRANCH   97   99
ATOM    169  H64 UNL A   1      24.768  17.006  15.307  1.00  0.00    +0.000 H 
ATOM    170  H65 UNL A   1      25.043  18.723  15.144  1.00  0.00    +0.000 H 
ATOM     99  C75 UNL A   1      25.069  17.782  14.636  1.00  0.00    +0.000 C 
ATOM    171  H66 UNL A   1      26.063  17.590  14.291  1.00  0.00    +0.000 H 
ENDBRANCH   97   99
BRANCH  103  104
ATOM    177  H72 UNL A   1      24.478  21.063   9.059  1.00  0.00    +0.000 H 
ATOM    178  H73 UNL A   1      26.075  21.754   8.896  1.00  0.00    +0.000 H 
ATOM    179  H74 UNL A   1      25.319  21.659  10.469  1.00  0.00    +0.000 H 
ATOM    104  C80 UNL A   1      25.435  21.170   9.524  1.00  0.00    +0.000 C 
ENDBRANCH  103  104
TORSDOF 23
ENDMDL
MODEL 4
REMARK VINA RESULT:      -8.7     21.130     27.745
ROOT
ATOM      2  C2  UNL A   1      38.833  32.300  31.202  1.00  0.00    +0.000 C 
ATOM      3  C3  UNL A   1      37.814  32.784  32.286  1.00  0.00    +0.000 C 
ATOM      5  C5  UNL A   1      37.815  31.955  33.581  1.00  0.00    +0.000 C 
ATOM      6  C6  UNL A   1      37.924  30.455  33.421  1.00  0.00    +0.000 C 
ATOM      7  C7  UNL A   1      38.751  29.916  32.239  1.00  0.00    +0.000 C 
ATOM    146  H41 UNL A   1      37.002  28.746  31.757  1.00  0.00    +0.000 H 
ATOM    147  H42 UNL A   1      38.302  27.888  32.676  1.00  0.00    +0.000 H 
ATOM    148  H43 UNL A   1      37.748  27.149  30.309  1.00  0.00    +0.000 H 
ATOM    149  H44 UNL A   1      39.447  27.360  30.881  1.00  0.00    +0.000 H 
ATOM    153  H48 UNL A   1      41.104  31.301  29.942  1.00  0.00    +0.000 H 
ATOM    154  H49 UNL A   1      42.692  29.425  29.754  1.00  0.00    +0.000 H 
ATOM    155  H50 UNL A   1      42.032  29.688  28.136  1.00  0.00    +0.000 H 
ATOM    156  H51 UNL A   1      41.104  27.582  30.097  1.00  0.00    +0.000 H 
ATOM    160  H55 UNL A   1      42.574  26.362  30.845  1.00  0.00    +0.000 H 
ATOM    161  H56 UNL A   1      43.830  27.427  30.161  1.00  0.00    +0.000 H 
ATOM    162  H57 UNL A   1      44.661  25.216  30.845  1.00  0.00    +0.000 H 
ATOM    163  H58 UNL A   1      44.902  25.627  29.133  1.00  0.00    +0.000 H 
ATOM    164  H59 UNL A   1      42.856  23.792  30.259  1.00  0.00    +0.000 H 
ATOM    172  H67 UNL A   1      41.173  25.155  29.378  1.00  0.00    +0.000 H 
ATOM    173  H68 UNL A   1      40.100  24.650  27.187  1.00  0.00    +0.000 H 
ATOM    174  H69 UNL A   1      40.891  26.064  26.545  1.00  0.00    +0.000 H 
ATOM    175  H70 UNL A   1      39.079  26.036  28.949  1.00  0.00    +0.000 H 
ATOM    176  H71 UNL A   1      38.638  26.576  27.315  1.00  0.00    +0.000 H 
ATOM    180  H75 UNL A   1      37.663  30.856  30.534  1.00  0.00    +0.000 H 
ATOM     83  C60 UNL A   1      38.048  28.548  31.874  1.00  0.00    +0.000 C 
ATOM     84  C61 UNL A   1      38.524  27.824  30.605  1.00  0.00    +0.000 C 
ATOM     85  C62 UNL A   1      38.875  28.713  29.363  1.00  0.00    +0.000 C 
ATOM     87  C64 UNL A   1      39.496  30.035  29.900  1.00  0.00    +0.000 C 
ATOM     88  C65 UNL A   1      40.793  30.348  29.698  1.00  0.00    +0.000 C 
ATOM     89  C66 UNL A   1      41.816  29.390  29.141  1.00  0.00    +0.000 C 
ATOM     90  C67 UNL A   1      41.290  27.930  29.103  1.00  0.00    +0.000 C 
ATOM     91  C68 UNL A   1      42.356  26.808  28.748  1.00  0.00    +0.000 C 
ATOM     93  C70 UNL A   1      43.229  26.552  30.021  1.00  0.00    +0.000 C 
ATOM     94  C71 UNL A   1      44.194  25.375  29.895  1.00  0.00    +0.000 C 
ATOM     95  C72 UNL A   1      43.516  24.072  29.466  1.00  0.00    +0.000 C 
ATOM     97  C73 UNL A   1      42.580  24.195  28.224  1.00  0.00    +0.000 C 
ATOM    100  C76 UNL A   1      41.638  25.438  28.457  1.00  0.00    +0.000 C 
ATOM    101  C77 UNL A   1      40.509  25.608  27.434  1.00  0.00    +0.000 C 
ATOM    102  C78 UNL A   1      39.419  26.492  28.043  1.00  0.00    +0.000 C 
ATOM    103  C79 UNL A   1      39.900  27.931  28.366  1.00  0.00    +0.000 C 
ATOM    105  C81 UNL A   1      38.646  30.779  30.949  1.00  0.00    +0.000 C 
ATOM    109  H4  UNL A   1      39.826  32.471  31.562  1.00  0.00    +0.000 H 
ATOM    110  H5  UNL A   1      36.887  32.653  31.768  1.00  0.00    +0.000 H 
ATOM    114  H9  UNL A   1      36.903  32.163  34.100  1.00  0.00    +0.000 H 
ATOM    115  H10 UNL A   1      38.701  32.250  34.105  1.00  0.00    +0.000 H 
ATOM    116  H11 UNL A   1      36.931  30.073  33.316  1.00  0.00    +0.000 H 
ATOM    117  H12 UNL A   1      38.455  30.130  34.292  1.00  0.00    +0.000 H 
ENDROOT
BRANCH    2    1
ATOM      1  C1  UNL A   1      38.666  33.099  29.899  1.00  0.00    +0.000 C 
ATOM    106  H1  UNL A   1      38.308  32.451  29.127  1.00  0.00    +0.000 H 
ATOM    107  H2  UNL A   1      39.612  33.509  29.610  1.00  0.00    +0.000 H 
ATOM    108  H3  UNL A   1      37.965  33.892  30.053  1.00  0.00    +0.000 H 
ENDBRANCH    2    1
BRANCH    3    4
ATOM    113  H8  UNL A   1      38.545  34.773  31.967  1.00  0.00    +0.000 H 
ATOM      4  C4  UNL A   1      37.985  34.248  32.712  1.00  0.00    +0.000 C 
ATOM    111  H6  UNL A   1      38.507  34.290  33.645  1.00  0.00    +0.000 H 
ATOM    112  H7  UNL A   1      37.022  34.703  32.820  1.00  0.00    +0.000 H 
ENDBRANCH    3    4
BRANCH    7    8
ATOM      9  O1  UNL A   1      40.641  28.449  32.788  1.00  0.00    +0.000 O 
ATOM      8  C8  UNL A   1      40.238  29.614  32.672  1.00  0.00    +0.000 C 
BRANCH    8   10
ATOM     10  N1  UNL A   1      41.205  30.565  32.891  1.00  0.00    +0.000 N 
ATOM    118  H13 UNL A   1      41.796  30.768  32.131  1.00  0.00    +0.000 H 
BRANCH   10   11
ATOM     11  C9  UNL A   1      41.456  31.303  34.114  1.00  0.00    +0.000 C 
ATOM    119  H14 UNL A   1      42.023  30.677  34.771  1.00  0.00    +0.000 H 
ATOM    120  H15 UNL A   1      40.498  31.568  34.510  1.00  0.00    +0.000 H 
BRANCH   11   12
ATOM    121  H16 UNL A   1      42.939  32.452  33.142  1.00  0.00    +0.000 H 
ATOM    122  H17 UNL A   1      42.629  32.828  34.891  1.00  0.00    +0.000 H 
ATOM     12  C10 UNL A   1      42.225  32.615  33.923  1.00  0.00    +0.000 C 
BRANCH   12   13
ATOM    123  H18 UNL A   1      41.626  34.602  34.321  1.00  0.00    +0.000 H 
ATOM    124  H19 UNL A   1      40.425  33.528  33.467  1.00  0.00    +0.000 H 
ATOM     13  C11 UNL A   1      41.432  33.879  33.556  1.00  0.00    +0.000 C 
BRANCH   13   14
ATOM    126  H21 UNL A   1      40.730  34.897  31.893  1.00  0.00    +0.000 H 
ATOM    125  H20 UNL A   1      42.419  35.335  32.389  1.00  0.00    +0.000 H 
ATOM     14  C12 UNL A   1      41.696  34.566  32.214  1.00  0.00    +0.000 C 
BRANCH   14   15
ATOM    127  H22 UNL A   1      41.622  32.823  31.032  1.00  0.00    +0.000 H 
ATOM     15  C13 UNL A   1      42.209  33.718  31.053  1.00  0.00    +0.000 C 
ATOM    128  H23 UNL A   1      43.251  33.590  31.261  1.00  0.00    +0.000 H 
BRANCH   15   16
ATOM    129  H24 UNL A   1      41.815  35.318  29.725  1.00  0.00    +0.000 H 
ATOM    130  H25 UNL A   1      41.537  33.680  29.071  1.00  0.00    +0.000 H 
ATOM     16  C14 UNL A   1      42.174  34.313  29.654  1.00  0.00    +0.000 C 
BRANCH   16   17
ATOM     17  N2  UNL A   1      43.455  34.338  28.979  1.00  0.00    +0.000 N 
ATOM    131  H26 UNL A   1      43.974  35.167  29.096  1.00  0.00    +0.000 H 
BRANCH   17   18
ATOM     18  C15 UNL A   1      44.052  33.372  28.197  1.00  0.00    +0.000 C 
ATOM     19  O2  UNL A   1      44.042  33.486  26.981  1.00  0.00    +0.000 O 
BRANCH   18   20
ATOM    132  H27 UNL A   1      45.430  33.366  30.460  1.00  0.00    +0.000 H 
ATOM    133  H28 UNL A   1      46.572  31.529  31.557  1.00  0.00    +0.000 H 
ATOM    144  H39 UNL A   1      45.335  28.935  28.481  1.00  0.00    +0.000 H 
ATOM     81  C58 UNL A   1      45.381  29.881  28.893  1.00  0.00    +0.000 C 
ATOM     82  C59 UNL A   1      44.803  30.958  28.218  1.00  0.00    +0.000 C 
ATOM    145  H40 UNL A   1      44.406  30.822  27.275  1.00  0.00    +0.000 H 
ATOM     20  C16 UNL A   1      44.758  32.219  28.817  1.00  0.00    +0.000 C 
ATOM     21  C17 UNL A   1      45.419  32.426  30.034  1.00  0.00    +0.000 C 
ATOM     22  C18 UNL A   1      46.063  31.362  30.675  1.00  0.00    +0.000 C 
ATOM     23  C19 UNL A   1      46.022  30.072  30.126  1.00  0.00    +0.000 C 
BRANCH   23   24
ATOM    134  H29 UNL A   1      53.049  24.708  30.933  1.00  0.00    +0.000 H 
ATOM    135  H30 UNL A   1      52.372  23.045  32.824  1.00  0.00    +0.000 H 
ATOM    136  H31 UNL A   1      49.207  25.635  32.173  1.00  0.00    +0.000 H 
ATOM    137  H32 UNL A   1      43.414  27.779  33.772  1.00  0.00    +0.000 H 
ATOM    138  H33 UNL A   1      44.056  29.364  31.894  1.00  0.00    +0.000 H 
ATOM    139  H34 UNL A   1      47.221  26.733  32.475  1.00  0.00    +0.000 H 
ATOM    140  H35 UNL A   1      45.744  23.571  36.101  1.00  0.00    +0.000 H 
ATOM    141  H36 UNL A   1      48.069  22.514  35.954  1.00  0.00    +0.000 H 
ATOM    142  H37 UNL A   1      50.472  28.661  28.381  1.00  0.00    +0.000 H 
ATOM    143  H38 UNL A   1      48.372  30.050  28.843  1.00  0.00    +0.000 H 
ATOM     24  C20 UNL A   1      46.660  28.921  30.821  1.00  0.00    +0.000 C 
ATOM     25  C21 UNL A   1      48.024  28.442  30.402  1.00  0.00    +0.000 C 
ATOM     26  N3  UNL A   1      48.720  27.425  30.846  1.00  0.00    +0.000 N 
ATOM     27  C22 UNL A   1      49.886  27.404  30.091  1.00  0.00    +0.000 C 
ATOM     28  C23 UNL A   1      50.956  26.581  30.206  1.00  0.00    +0.000 C 
ATOM     40  C30 UNL A   1      51.073  25.536  31.189  1.00  0.00    +0.000 C 
ATOM     41  C31 UNL A   1      52.144  24.691  31.427  1.00  0.00    +0.000 C 
ATOM     42  C32 UNL A   1      51.786  23.810  32.452  1.00  0.00    +0.000 C 
ATOM     43  C33 UNL A   1      50.511  24.135  32.886  1.00  0.00    +0.000 C 
ATOM     44  N4  UNL A   1      50.083  25.193  32.098  1.00  0.00    +0.000 N 
ATOM     45  C34 UNL A   1      49.738  23.528  33.939  1.00  0.00    +0.000 C 
ATOM     57  C41 UNL A   1      48.491  23.912  34.307  1.00  0.00    +0.000 C 
ATOM     58  N5  UNL A   1      47.704  24.932  33.790  1.00  0.00    +0.000 N 
ATOM     59  C42 UNL A   1      46.581  24.899  34.466  1.00  0.00    +0.000 C 
ATOM     60  C43 UNL A   1      45.376  25.794  34.352  1.00  0.00    +0.000 C 
ATOM     72  C50 UNL A   1      45.387  26.804  33.460  1.00  0.00    +0.000 C 
ATOM     73  C51 UNL A   1      44.302  27.757  33.247  1.00  0.00    +0.000 C 
ATOM     74  C52 UNL A   1      44.647  28.603  32.263  1.00  0.00    +0.000 C 
ATOM     75  C53 UNL A   1      45.992  28.270  31.794  1.00  0.00    +0.000 C 
ATOM     76  N6  UNL A   1      46.353  27.189  32.561  1.00  0.00    +0.000 N 
ATOM     77  C54 UNL A   1      46.520  23.830  35.473  1.00  0.00    +0.000 C 
ATOM     78  C55 UNL A   1      47.724  23.285  35.363  1.00  0.00    +0.000 C 
ATOM     79  C56 UNL A   1      49.781  28.477  29.126  1.00  0.00    +0.000 C 
ATOM     80  C57 UNL A   1      48.684  29.192  29.322  1.00  0.00    +0.000 C 
BRANCH   28   29
ATOM     33  F2  UNL A   1      55.219  28.651  28.950  1.00  0.00    +0.000 F 
ATOM     34  C27 UNL A   1      54.234  27.113  27.454  1.00  0.00    +0.000 C 
ATOM     35  F3  UNL A   1      55.247  27.281  26.593  1.00  0.00    +0.000 F 
ATOM     36  C28 UNL A   1      53.189  26.258  27.139  1.00  0.00    +0.000 C 
ATOM     37  F4  UNL A   1      53.203  25.582  25.981  1.00  0.00    +0.000 F 
ATOM     38  C29 UNL A   1      52.122  26.103  28.021  1.00  0.00    +0.000 C 
ATOM     39  F5  UNL A   1      51.119  25.281  27.680  1.00  0.00    +0.000 F 
ATOM     29  C24 UNL A   1      52.094  26.785  29.247  1.00  0.00    +0.000 C 
ATOM     30  C25 UNL A   1      53.174  27.626  29.555  1.00  0.00    +0.000 C 
ATOM     31  F1  UNL A   1      53.191  28.308  30.709  1.00  0.00    +0.000 F 
ATOM     32  C26 UNL A   1      54.224  27.802  28.657  1.00  0.00    +0.000 C 
ENDBRANCH   28   29
BRANCH   45   46
ATOM     46  C35 UNL A   1      50.366  22.401  34.704  1.00  0.00    +0.000 C 
ATOM     47  C36 UNL A   1      50.170  21.062  34.333  1.00  0.00    +0.000 C 
ATOM     48  F6  UNL A   1      49.363  20.757  33.306  1.00  0.00    +0.000 F 
ATOM     49  C37 UNL A   1      50.775  20.027  35.043  1.00  0.00    +0.000 C 
ATOM     50  F7  UNL A   1      50.538  18.754  34.699  1.00  0.00    +0.000 F 
ATOM     51  C38 UNL A   1      51.611  20.313  36.112  1.00  0.00    +0.000 C 
ATOM     52  F8  UNL A   1      52.199  19.316  36.789  1.00  0.00    +0.000 F 
ATOM     53  C39 UNL A   1      51.833  21.630  36.484  1.00  0.00    +0.000 C 
ATOM     54  F9  UNL A   1      52.651  21.907  37.509  1.00  0.00    +0.000 F 
ATOM     55  C40 UNL A   1      51.207  22.665  35.795  1.00  0.00    +0.000 C 
ATOM     56  F10 UNL A   1      51.431  23.928  36.186  1.00  0.00    +0.000 F 
ENDBRANCH   45   46
BRANCH   60   61
ATOM     65  F12 UNL A   1      42.969  26.629  38.511  1.00  0.00    +0.000 F 
ATOM     66  C47 UNL A   1      41.971  25.207  36.913  1.00  0.00    +0.000 C 
ATOM     67  F13 UNL A   1      40.918  25.015  37.717  1.00  0.00    +0.000 F 
ATOM     68  C48 UNL A   1      42.031  24.571  35.681  1.00  0.00    +0.000 C 
ATOM     69  F14 UNL A   1      41.024  23.781  35.286  1.00  0.00    +0.000 F 
ATOM     70  C49 UNL A   1      43.137  24.752  34.853  1.00  0.00    +0.000 C 
ATOM     71  F15 UNL A   1      43.175  24.114  33.674  1.00  0.00    +0.000 F 
ATOM     61  C44 UNL A   1      44.195  25.593  35.230  1.00  0.00    +0.000 C 
ATOM     62  C45 UNL A   1      44.104  26.238  36.472  1.00  0.00    +0.000 C 
ATOM     63  F11 UNL A   1      45.100  27.034  36.887  1.00  0.00    +0.000 F 
ATOM     64  C46 UNL A   1      43.010  26.035  37.311  1.00  0.00    +0.000 C 
ENDBRANCH   60   61
ENDBRANCH   23   24
ENDBRANCH   18   20
ENDBRANCH   17   18
ENDBRANCH   16   17
ENDBRANCH   15   16
ENDBRANCH   14   15
ENDBRANCH   13   14
ENDBRANCH   12   13
ENDBRANCH   11   12
ENDBRANCH   10   11
ENDBRANCH    8   10
ENDBRANCH    7    8
BRANCH   85   86
ATOM    151  H46 UNL A   1      37.359  30.078  28.651  1.00  0.00    +0.000 H 
ATOM     86  C63 UNL A   1      37.555  29.026  28.607  1.00  0.00    +0.000 C 
ATOM    150  H45 UNL A   1      37.649  28.725  27.585  1.00  0.00    +0.000 H 
ATOM    152  H47 UNL A   1      36.747  28.494  29.064  1.00  0.00    +0.000 H 
ENDBRANCH   85   86
BRANCH   91   92
ATOM     92  C69 UNL A   1      43.278  27.297  27.614  1.00  0.00    +0.000 C 
ATOM    157  H52 UNL A   1      42.747  27.269  26.685  1.00  0.00    +0.000 H 
ATOM    158  H53 UNL A   1      44.137  26.663  27.555  1.00  0.00    +0.000 H 
ATOM    159  H54 UNL A   1      43.589  28.302  27.816  1.00  0.00    +0.000 H 
ENDBRANCH   91   92
BRANCH   95   96
ATOM    165  H60 UNL A   1      44.524  22.803  28.335  1.00  0.00    +0.000 H 
ATOM     96  O3  UNL A   1      44.517  23.073  29.267  1.00  0.00    +0.000 O 
ENDBRANCH   95   96
BRANCH   97   98
ATOM     98  C74 UNL A   1      43.370  24.230  26.899  1.00  0.00    +0.000 C 
ATOM    166  H61 UNL A   1      44.322  24.691  27.064  1.00  0.00    +0.000 H 
ATOM    167  H62 UNL A   1      42.824  24.793  26.172  1.00  0.00    +0.000 H 
ATOM    168  H63 UNL A   1      43.515  23.232  26.543  1.00  0.00    +0.000 H 
ENDBRANCH   97   98
BRANCH   97   99
ATOM    169  H64 UNL A   1      42.382  22.055  27.985  1.00  0.00    +0.000 H 
ATOM    170  H65 UNL A   1      41.025  22.963  27.364  1.00  0.00    +0.000 H 
ATOM     99  C75 UNL A   1      41.736  22.889  28.160  1.00  0.00    +0.000 C 
ATOM    171  H66 UNL A   1      41.220  22.752  29.087  1.00  0.00    +0.000 H 
ENDBRANCH   97   99
BRANCH  103  104
ATOM    177  H72 UNL A   1      39.834  27.953  26.200  1.00  0.00    +0.000 H 
ATOM    178  H73 UNL A   1      40.952  29.109  26.882  1.00  0.00    +0.000 H 
ATOM    179  H74 UNL A   1      39.233  29.418  26.937  1.00  0.00    +0.000 H 
ATOM    104  C80 UNL A   1      39.987  28.661  26.988  1.00  0.00    +0.000 C 
ENDBRANCH  103  104
TORSDOF 23
ENDMDL
MODEL 5
REMARK VINA RESULT:      -8.7      4.706      9.134
ROOT
ATOM      2  C2  UNL A   1      47.725  41.987  22.557  1.00  0.00    +0.000 C 
ATOM      3  C3  UNL A   1      47.679  41.332  23.977  1.00  0.00    +0.000 C 
ATOM      5  C5  UNL A   1      46.280  41.279  24.613  1.00  0.00    +0.000 C 
ATOM      6  C6  UNL A   1      45.415  42.508  24.440  1.00  0.00    +0.000 C 
ATOM      7  C7  UNL A   1      45.567  43.319  23.140  1.00  0.00    +0.000 C 
ATOM    146  H41 UNL A   1      45.843  45.030  24.427  1.00  0.00    +0.000 H 
ATOM    147  H42 UNL A   1      44.182  44.808  23.748  1.00  0.00    +0.000 H 
ATOM    148  H43 UNL A   1      45.552  46.837  23.067  1.00  0.00    +0.000 H 
ATOM    149  H44 UNL A   1      44.638  45.844  21.868  1.00  0.00    +0.000 H 
ATOM    153  H48 UNL A   1      47.088  42.760  19.960  1.00  0.00    +0.000 H 
ATOM    154  H49 UNL A   1      45.438  43.847  18.486  1.00  0.00    +0.000 H 
ATOM    155  H50 UNL A   1      46.960  44.718  18.266  1.00  0.00    +0.000 H 
ATOM    156  H51 UNL A   1      44.671  45.590  20.040  1.00  0.00    +0.000 H 
ATOM    160  H55 UNL A   1      42.837  45.693  19.129  1.00  0.00    +0.000 H 
ATOM    161  H56 UNL A   1      43.481  44.845  17.697  1.00  0.00    +0.000 H 
ATOM    162  H57 UNL A   1      41.320  45.954  17.311  1.00  0.00    +0.000 H 
ATOM    163  H58 UNL A   1      42.650  46.486  16.260  1.00  0.00    +0.000 H 
ATOM    164  H59 UNL A   1      41.530  47.938  18.597  1.00  0.00    +0.000 H 
ATOM    172  H67 UNL A   1      43.627  47.860  19.628  1.00  0.00    +0.000 H 
ATOM    173  H68 UNL A   1      45.221  49.768  19.487  1.00  0.00    +0.000 H 
ATOM    174  H69 UNL A   1      46.233  48.768  18.480  1.00  0.00    +0.000 H 
ATOM    175  H70 UNL A   1      45.274  48.040  21.240  1.00  0.00    +0.000 H 
ATOM    176  H71 UNL A   1      46.894  48.636  20.820  1.00  0.00    +0.000 H 
ATOM    180  H75 UNL A   1      47.735  43.837  23.248  1.00  0.00    +0.000 H 
ATOM     83  C60 UNL A   1      45.238  44.802  23.574  1.00  0.00    +0.000 C 
ATOM     84  C61 UNL A   1      45.470  45.912  22.536  1.00  0.00    +0.000 C 
ATOM     85  C62 UNL A   1      46.735  45.780  21.619  1.00  0.00    +0.000 C 
ATOM     87  C64 UNL A   1      46.950  44.265  21.341  1.00  0.00    +0.000 C 
ATOM     88  C65 UNL A   1      46.782  43.733  20.112  1.00  0.00    +0.000 C 
ATOM     89  C66 UNL A   1      46.173  44.474  18.949  1.00  0.00    +0.000 C 
ATOM     90  C67 UNL A   1      45.494  45.798  19.389  1.00  0.00    +0.000 C 
ATOM     91  C68 UNL A   1      44.628  46.545  18.287  1.00  0.00    +0.000 C 
ATOM     93  C70 UNL A   1      43.264  45.790  18.152  1.00  0.00    +0.000 C 
ATOM     94  C71 UNL A   1      42.246  46.487  17.251  1.00  0.00    +0.000 C 
ATOM     95  C72 UNL A   1      41.991  47.946  17.632  1.00  0.00    +0.000 C 
ATOM     97  C73 UNL A   1      43.275  48.808  17.837  1.00  0.00    +0.000 C 
ATOM    100  C76 UNL A   1      44.252  47.995  18.770  1.00  0.00    +0.000 C 
ATOM    101  C77 UNL A   1      45.490  48.760  19.250  1.00  0.00    +0.000 C 
ATOM    102  C78 UNL A   1      46.045  48.070  20.499  1.00  0.00    +0.000 C 
ATOM    103  C79 UNL A   1      46.533  46.620  20.238  1.00  0.00    +0.000 C 
ATOM    105  C81 UNL A   1      47.025  43.373  22.596  1.00  0.00    +0.000 C 
ATOM    109  H4  UNL A   1      47.203  41.356  21.868  1.00  0.00    +0.000 H 
ATOM    110  H5  UNL A   1      48.309  41.998  24.529  1.00  0.00    +0.000 H 
ATOM    114  H9  UNL A   1      46.407  41.114  25.663  1.00  0.00    +0.000 H 
ATOM    115  H10 UNL A   1      45.765  40.495  24.099  1.00  0.00    +0.000 H 
ATOM    116  H11 UNL A   1      45.632  43.168  25.254  1.00  0.00    +0.000 H 
ATOM    117  H12 UNL A   1      44.414  42.130  24.406  1.00  0.00    +0.000 H 
ENDROOT
BRANCH    2    1
ATOM      1  C1  UNL A   1      49.174  42.118  22.061  1.00  0.00    +0.000 C 
ATOM    106  H1  UNL A   1      49.354  43.124  21.745  1.00  0.00    +0.000 H 
ATOM    107  H2  UNL A   1      49.330  41.452  21.237  1.00  0.00    +0.000 H 
ATOM    108  H3  UNL A   1      49.847  41.867  22.854  1.00  0.00    +0.000 H 
ENDBRANCH    2    1
BRANCH    3    4
ATOM    113  H8  UNL A   1      47.422  39.208  24.119  1.00  0.00    +0.000 H 
ATOM      4  C4  UNL A   1      48.233  39.902  24.036  1.00  0.00    +0.000 C 
ATOM    111  H6  UNL A   1      48.874  39.803  24.887  1.00  0.00    +0.000 H 
ATOM    112  H7  UNL A   1      48.788  39.697  23.145  1.00  0.00    +0.000 H 
ENDBRANCH    3    4
BRANCH    7    8
ATOM      9  O1  UNL A   1      44.653  41.806  21.438  1.00  0.00    +0.000 O 
ATOM      8  C8  UNL A   1      44.511  42.868  22.058  1.00  0.00    +0.000 C 
BRANCH    8   10
ATOM     10  N1  UNL A   1      43.354  43.543  21.754  1.00  0.00    +0.000 N 
ATOM    118  H13 UNL A   1      43.455  44.353  21.204  1.00  0.00    +0.000 H 
BRANCH   10   11
ATOM     11  C9  UNL A   1      42.002  43.202  22.151  1.00  0.00    +0.000 C 
ATOM    119  H14 UNL A   1      41.695  42.345  21.587  1.00  0.00    +0.000 H 
ATOM    120  H15 UNL A   1      41.402  44.067  21.959  1.00  0.00    +0.000 H 
BRANCH   11   12
ATOM    121  H16 UNL A   1      40.960  43.395  23.979  1.00  0.00    +0.000 H 
ATOM    122  H17 UNL A   1      42.760  43.182  24.081  1.00  0.00    +0.000 H 
ATOM     12  C10 UNL A   1      41.834  42.879  23.640  1.00  0.00    +0.000 C 
BRANCH   12   13
ATOM    123  H18 UNL A   1      42.448  40.859  23.547  1.00  0.00    +0.000 H 
ATOM    124  H19 UNL A   1      40.669  41.176  23.794  1.00  0.00    +0.000 H 
ATOM     13  C11 UNL A   1      41.681  41.407  24.054  1.00  0.00    +0.000 C 
BRANCH   13   14
ATOM    126  H21 UNL A   1      40.996  41.609  26.000  1.00  0.00    +0.000 H 
ATOM    125  H20 UNL A   1      41.662  39.969  25.601  1.00  0.00    +0.000 H 
ATOM     14  C12 UNL A   1      41.769  41.032  25.536  1.00  0.00    +0.000 C 
BRANCH   14   15
ATOM    127  H22 UNL A   1      42.964  42.450  26.538  1.00  0.00    +0.000 H 
ATOM     15  C13 UNL A   1      43.033  41.407  26.305  1.00  0.00    +0.000 C 
ATOM    128  H23 UNL A   1      43.833  41.125  25.651  1.00  0.00    +0.000 H 
BRANCH   15   16
ATOM    129  H24 UNL A   1      43.527  39.648  27.372  1.00  0.00    +0.000 H 
ATOM    130  H25 UNL A   1      42.476  40.807  28.231  1.00  0.00    +0.000 H 
ATOM     16  C14 UNL A   1      43.332  40.674  27.603  1.00  0.00    +0.000 C 
BRANCH   16   17
ATOM     17  N2  UNL A   1      44.464  41.193  28.340  1.00  0.00    +0.000 N 
ATOM    131  H26 UNL A   1      45.245  40.595  28.389  1.00  0.00    +0.000 H 
BRANCH   17   18
ATOM     18  C15 UNL A   1      44.610  42.404  28.984  1.00  0.00    +0.000 C 
ATOM     19  O2  UNL A   1      43.993  42.620  30.017  1.00  0.00    +0.000 O 
BRANCH   18   20
ATOM    132  H27 UNL A   1      47.137  42.764  29.692  1.00  0.00    +0.000 H 
ATOM    133  H28 UNL A   1      48.746  44.384  28.875  1.00  0.00    +0.000 H 
ATOM    144  H39 UNL A   1      45.843  45.922  26.242  1.00  0.00    +0.000 H 
ATOM     81  C58 UNL A   1      46.116  45.270  26.994  1.00  0.00    +0.000 C 
ATOM     82  C59 UNL A   1      45.168  44.397  27.531  1.00  0.00    +0.000 C 
ATOM    145  H40 UNL A   1      44.181  44.463  27.234  1.00  0.00    +0.000 H 
ATOM     20  C16 UNL A   1      45.551  43.434  28.468  1.00  0.00    +0.000 C 
ATOM     21  C17 UNL A   1      46.859  43.442  28.966  1.00  0.00    +0.000 C 
ATOM     22  C18 UNL A   1      47.791  44.366  28.481  1.00  0.00    +0.000 C 
ATOM     23  C19 UNL A   1      47.437  45.268  27.467  1.00  0.00    +0.000 C 
BRANCH   23   24
ATOM    134  H29 UNL A   1      53.967  46.808  21.654  1.00  0.00    +0.000 H 
ATOM    135  H30 UNL A   1      54.677  49.273  22.126  1.00  0.00    +0.000 H 
ATOM    136  H31 UNL A   1      51.670  48.251  24.785  1.00  0.00    +0.000 H 
ATOM    137  H32 UNL A   1      47.619  49.901  29.431  1.00  0.00    +0.000 H 
ATOM    138  H33 UNL A   1      46.966  47.484  29.004  1.00  0.00    +0.000 H 
ATOM    139  H34 UNL A   1      50.032  48.457  26.371  1.00  0.00    +0.000 H 
ATOM    140  H35 UNL A   1      51.320  53.203  27.440  1.00  0.00    +0.000 H 
ATOM    141  H36 UNL A   1      52.965  53.065  25.484  1.00  0.00    +0.000 H 
ATOM    142  H37 UNL A   1      50.502  43.442  23.986  1.00  0.00    +0.000 H 
ATOM    143  H38 UNL A   1      48.516  43.702  25.582  1.00  0.00    +0.000 H 
ATOM     24  C20 UNL A   1      48.430  46.224  26.907  1.00  0.00    +0.000 C 
ATOM     25  C21 UNL A   1      49.374  45.788  25.819  1.00  0.00    +0.000 C 
ATOM     26  N3  UNL A   1      50.343  46.454  25.243  1.00  0.00    +0.000 N 
ATOM     27  C22 UNL A   1      50.927  45.573  24.341  1.00  0.00    +0.000 C 
ATOM     28  C23 UNL A   1      51.929  45.803  23.458  1.00  0.00    +0.000 C 
ATOM     40  C30 UNL A   1      52.591  47.071  23.295  1.00  0.00    +0.000 C 
ATOM     41  C31 UNL A   1      53.574  47.421  22.386  1.00  0.00    +0.000 C 
ATOM     42  C32 UNL A   1      53.943  48.747  22.629  1.00  0.00    +0.000 C 
ATOM     43  C33 UNL A   1      53.158  49.240  23.658  1.00  0.00    +0.000 C 
ATOM     44  N4  UNL A   1      52.336  48.198  24.062  1.00  0.00    +0.000 N 
ATOM     45  C34 UNL A   1      53.155  50.560  24.233  1.00  0.00    +0.000 C 
ATOM     57  C41 UNL A   1      52.346  50.967  25.242  1.00  0.00    +0.000 C 
ATOM     58  N5  UNL A   1      51.372  50.248  25.922  1.00  0.00    +0.000 N 
ATOM     59  C42 UNL A   1      50.875  51.070  26.815  1.00  0.00    +0.000 C 
ATOM     60  C43 UNL A   1      49.770  50.837  27.810  1.00  0.00    +0.000 C 
ATOM     72  C50 UNL A   1      49.146  49.643  27.836  1.00  0.00    +0.000 C 
ATOM     73  C51 UNL A   1      48.053  49.278  28.731  1.00  0.00    +0.000 C 
ATOM     74  C52 UNL A   1      47.699  48.004  28.497  1.00  0.00    +0.000 C 
ATOM     75  C53 UNL A   1      48.522  47.470  27.411  1.00  0.00    +0.000 C 
ATOM     76  N6  UNL A   1      49.352  48.513  27.081  1.00  0.00    +0.000 N 
ATOM     77  C54 UNL A   1      51.501  52.399  26.819  1.00  0.00    +0.000 C 
ATOM     78  C55 UNL A   1      52.362  52.296  25.815  1.00  0.00    +0.000 C 
ATOM     79  C56 UNL A   1      50.238  44.309  24.482  1.00  0.00    +0.000 C 
ATOM     80  C57 UNL A   1      49.225  44.408  25.330  1.00  0.00    +0.000 C 
BRANCH   28   29
ATOM     33  F2  UNL A   1      51.568  43.087  19.394  1.00  0.00    +0.000 F 
ATOM     34  C27 UNL A   1      53.236  42.532  20.969  1.00  0.00    +0.000 C 
ATOM     35  F3  UNL A   1      53.641  41.511  20.202  1.00  0.00    +0.000 F 
ATOM     36  C28 UNL A   1      53.858  42.777  22.184  1.00  0.00    +0.000 C 
ATOM     37  F4  UNL A   1      54.880  42.005  22.581  1.00  0.00    +0.000 F 
ATOM     38  C29 UNL A   1      53.421  43.823  22.995  1.00  0.00    +0.000 C 
ATOM     39  F5  UNL A   1      54.033  44.024  24.171  1.00  0.00    +0.000 F 
ATOM     29  C24 UNL A   1      52.367  44.657  22.592  1.00  0.00    +0.000 C 
ATOM     30  C25 UNL A   1      51.769  44.405  21.348  1.00  0.00    +0.000 C 
ATOM     31  F1  UNL A   1      50.751  45.166  20.922  1.00  0.00    +0.000 F 
ATOM     32  C26 UNL A   1      52.189  43.339  20.554  1.00  0.00    +0.000 C 
ENDBRANCH   28   29
BRANCH   45   46
ATOM     46  C35 UNL A   1      54.102  51.573  23.660  1.00  0.00    +0.000 C 
ATOM     47  C36 UNL A   1      55.418  51.697  24.129  1.00  0.00    +0.000 C 
ATOM     48  F6  UNL A   1      55.846  50.939  25.150  1.00  0.00    +0.000 F 
ATOM     49  C37 UNL A   1      56.291  52.629  23.573  1.00  0.00    +0.000 C 
ATOM     50  F7  UNL A   1      57.530  52.762  24.067  1.00  0.00    +0.000 F 
ATOM     51  C38 UNL A   1      55.876  53.429  22.519  1.00  0.00    +0.000 C 
ATOM     52  F8  UNL A   1      56.720  54.321  21.981  1.00  0.00    +0.000 F 
ATOM     53  C39 UNL A   1      54.584  53.311  22.029  1.00  0.00    +0.000 C 
ATOM     54  F9  UNL A   1      54.186  54.075  21.002  1.00  0.00    +0.000 F 
ATOM     55  C40 UNL A   1      53.701  52.400  22.601  1.00  0.00    +0.000 C 
ATOM     56  F10 UNL A   1      52.455  52.317  22.112  1.00  0.00    +0.000 F 
ENDBRANCH   45   46
BRANCH   60   61
ATOM     65  F12 UNL A   1      47.270  54.923  28.730  1.00  0.00    +0.000 F 
ATOM     66  C47 UNL A   1      48.542  53.978  30.479  1.00  0.00    +0.000 C 
ATOM     67  F13 UNL A   1      48.169  54.964  31.305  1.00  0.00    +0.000 F 
ATOM     68  C48 UNL A   1      49.401  52.984  30.925  1.00  0.00    +0.000 C 
ATOM     69  F14 UNL A   1      49.843  52.999  32.190  1.00  0.00    +0.000 F 
ATOM     70  C49 UNL A   1      49.809  51.971  30.060  1.00  0.00    +0.000 C 
ATOM     71  F15 UNL A   1      50.651  51.031  30.514  1.00  0.00    +0.000 F 
ATOM     61  C44 UNL A   1      49.344  51.916  28.738  1.00  0.00    +0.000 C 
ATOM     62  C45 UNL A   1      48.463  52.922  28.315  1.00  0.00    +0.000 C 
ATOM     63  F11 UNL A   1      48.009  52.926  27.054  1.00  0.00    +0.000 F 
ATOM     64  C46 UNL A   1      48.078  53.951  29.173  1.00  0.00    +0.000 C 
ENDBRANCH   60   61
ENDBRANCH   23   24
ENDBRANCH   18   20
ENDBRANCH   17   18
ENDBRANCH   16   17
ENDBRANCH   15   16
ENDBRANCH   14   15
ENDBRANCH   13   14
ENDBRANCH   12   13
ENDBRANCH   11   12
ENDBRANCH   10   11
ENDBRANCH    8   10
ENDBRANCH    7    8
BRANCH   85   86
ATOM    151  H46 UNL A   1      48.443  45.552  22.921  1.00  0.00    +0.000 H 
ATOM     86  C63 UNL A   1      47.953  46.346  22.397  1.00  0.00    +0.000 C 
ATOM    150  H45 UNL A   1      48.639  46.795  21.708  1.00  0.00    +0.000 H 
ATOM    152  H47 UNL A   1      47.619  47.083  23.098  1.00  0.00    +0.000 H 
ENDBRANCH   85   86
BRANCH   91   92
ATOM     92  C69 UNL A   1      45.350  46.494  16.926  1.00  0.00    +0.000 C 
ATOM    157  H52 UNL A   1      46.072  47.282  16.876  1.00  0.00    +0.000 H 
ATOM    158  H53 UNL A   1      44.635  46.614  16.139  1.00  0.00    +0.000 H 
ATOM    159  H54 UNL A   1      45.845  45.551  16.820  1.00  0.00    +0.000 H 
ENDBRANCH   91   92
BRANCH   95   96
ATOM    165  H60 UNL A   1      40.238  48.136  16.740  1.00  0.00    +0.000 H 
ATOM     96  O3  UNL A   1      41.120  48.532  16.664  1.00  0.00    +0.000 O 
ENDBRANCH   95   96
BRANCH   97   98
ATOM     98  C74 UNL A   1      43.897  49.257  16.497  1.00  0.00    +0.000 C 
ATOM    166  H61 UNL A   1      44.186  50.285  16.565  1.00  0.00    +0.000 H 
ATOM    167  H62 UNL A   1      43.178  49.140  15.714  1.00  0.00    +0.000 H 
ATOM    168  H63 UNL A   1      44.757  48.658  16.285  1.00  0.00    +0.000 H 
ENDBRANCH   97   98
BRANCH   97   99
ATOM    169  H64 UNL A   1      43.281  50.176  19.511  1.00  0.00    +0.000 H 
ATOM    170  H65 UNL A   1      41.768  50.133  18.639  1.00  0.00    +0.000 H 
ATOM     99  C75 UNL A   1      42.833  50.123  18.541  1.00  0.00    +0.000 C 
ATOM    171  H66 UNL A   1      43.146  50.963  17.957  1.00  0.00    +0.000 H 
ENDBRANCH   97   99
BRANCH  103  104
ATOM    177  H72 UNL A   1      47.708  47.044  18.466  1.00  0.00    +0.000 H 
ATOM    178  H73 UNL A   1      48.420  45.839  19.511  1.00  0.00    +0.000 H 
ATOM    179  H74 UNL A   1      48.481  47.527  19.955  1.00  0.00    +0.000 H 
ATOM    104  C80 UNL A   1      47.893  46.769  19.483  1.00  0.00    +0.000 C 
ENDBRANCH  103  104
TORSDOF 23
ENDMDL
MODEL 6
REMARK VINA RESULT:      -8.6     44.728     49.823
ROOT
ATOM      2  C2  UNL A   1       4.350  31.098   0.357  1.00  0.00    +0.000 C 
ATOM      3  C3  UNL A   1       3.256  30.005   0.592  1.00  0.00    +0.000 C 
ATOM      5  C5  UNL A   1       3.703  28.830   1.477  1.00  0.00    +0.000 C 
ATOM      6  C6  UNL A   1       5.102  28.304   1.242  1.00  0.00    +0.000 C 
ATOM      7  C7  UNL A   1       6.184  29.309   0.805  1.00  0.00    +0.000 C 
ATOM    146  H41 UNL A   1       6.572  27.940  -0.819  1.00  0.00    +0.000 H 
ATOM    147  H42 UNL A   1       7.679  27.815   0.605  1.00  0.00    +0.000 H 
ATOM    148  H43 UNL A   1       8.605  28.566  -1.639  1.00  0.00    +0.000 H 
ATOM    149  H44 UNL A   1       9.020  29.404  -0.095  1.00  0.00    +0.000 H 
ATOM    153  H48 UNL A   1       6.468  32.865   0.725  1.00  0.00    +0.000 H 
ATOM    154  H49 UNL A   1       8.833  33.132   1.367  1.00  0.00    +0.000 H 
ATOM    155  H50 UNL A   1       8.672  33.819  -0.253  1.00  0.00    +0.000 H 
ATOM    156  H51 UNL A   1       9.701  31.050   0.392  1.00  0.00    +0.000 H 
ATOM    160  H55 UNL A   1      11.236  30.972   1.749  1.00  0.00    +0.000 H 
ATOM    161  H56 UNL A   1      10.984  32.689   2.159  1.00  0.00    +0.000 H 
ATOM    162  H57 UNL A   1      13.132  31.782   2.941  1.00  0.00    +0.000 H 
ATOM    163  H58 UNL A   1      13.245  33.174   1.842  1.00  0.00    +0.000 H 
ATOM    164  H59 UNL A   1      13.741  30.323   1.172  1.00  0.00    +0.000 H 
ATOM    172  H67 UNL A   1      12.018  30.412  -0.406  1.00  0.00    +0.000 H 
ATOM    173  H68 UNL A   1      12.479  30.829  -2.818  1.00  0.00    +0.000 H 
ATOM    174  H69 UNL A   1      11.714  32.384  -2.631  1.00  0.00    +0.000 H 
ATOM    175  H70 UNL A   1      10.446  29.738  -1.960  1.00  0.00    +0.000 H 
ATOM    176  H71 UNL A   1      10.138  30.704  -3.419  1.00  0.00    +0.000 H 
ATOM    180  H75 UNL A   1       5.264  30.088  -1.072  1.00  0.00    +0.000 H 
ATOM     83  C60 UNL A   1       7.165  28.448  -0.088  1.00  0.00    +0.000 C 
ATOM     84  C61 UNL A   1       8.279  29.195  -0.838  1.00  0.00    +0.000 C 
ATOM     85  C62 UNL A   1       7.917  30.591  -1.451  1.00  0.00    +0.000 C 
ATOM     87  C64 UNL A   1       6.904  31.273  -0.486  1.00  0.00    +0.000 C 
ATOM     88  C65 UNL A   1       7.226  32.373   0.226  1.00  0.00    +0.000 C 
ATOM     89  C66 UNL A   1       8.624  32.928   0.337  1.00  0.00    +0.000 C 
ATOM     90  C67 UNL A   1       9.690  31.939  -0.204  1.00  0.00    +0.000 C 
ATOM     91  C68 UNL A   1      11.207  32.321   0.069  1.00  0.00    +0.000 C 
ATOM     93  C70 UNL A   1      11.527  31.985   1.564  1.00  0.00    +0.000 C 
ATOM     94  C71 UNL A   1      13.000  32.137   1.940  1.00  0.00    +0.000 C 
ATOM     95  C72 UNL A   1      13.948  31.361   1.023  1.00  0.00    +0.000 C 
ATOM     97  C73 UNL A   1      13.711  31.577  -0.504  1.00  0.00    +0.000 C 
ATOM    100  C76 UNL A   1      12.168  31.405  -0.776  1.00  0.00    +0.000 C 
ATOM    101  C77 UNL A   1      11.759  31.384  -2.253  1.00  0.00    +0.000 C 
ATOM    102  C78 UNL A   1      10.386  30.721  -2.378  1.00  0.00    +0.000 C 
ATOM    103  C79 UNL A   1       9.257  31.497  -1.651  1.00  0.00    +0.000 C 
ATOM    105  C81 UNL A   1       5.661  30.430  -0.139  1.00  0.00    +0.000 C 
ATOM    109  H4  UNL A   1       4.545  31.595   1.285  1.00  0.00    +0.000 H 
ATOM    110  H5  UNL A   1       3.088  29.666  -0.410  1.00  0.00    +0.000 H 
ATOM    114  H9  UNL A   1       3.020  28.023   1.315  1.00  0.00    +0.000 H 
ATOM    115  H10 UNL A   1       3.708  29.214   2.476  1.00  0.00    +0.000 H 
ATOM    116  H11 UNL A   1       5.037  27.554   0.483  1.00  0.00    +0.000 H 
ATOM    117  H12 UNL A   1       5.425  27.962   2.204  1.00  0.00    +0.000 H 
ENDROOT
BRANCH    2    1
ATOM      1  C1  UNL A   1       3.860  32.157  -0.643  1.00  0.00    +0.000 C 
ATOM    106  H1  UNL A   1       4.621  32.337  -1.374  1.00  0.00    +0.000 H 
ATOM    107  H2  UNL A   1       3.645  33.067  -0.122  1.00  0.00    +0.000 H 
ATOM    108  H3  UNL A   1       2.974  31.807  -1.129  1.00  0.00    +0.000 H 
ENDBRANCH    2    1
BRANCH    3    4
ATOM    113  H8  UNL A   1       1.967  30.385   2.261  1.00  0.00    +0.000 H 
ATOM      4  C4  UNL A   1       1.950  30.531   1.202  1.00  0.00    +0.000 C 
ATOM    111  H6  UNL A   1       1.121  29.999   0.783  1.00  0.00    +0.000 H 
ATOM    112  H7  UNL A   1       1.851  31.574   0.987  1.00  0.00    +0.000 H 
ENDBRANCH    3    4
BRANCH    7    8
ATOM      9  O1  UNL A   1       6.424  30.520   2.926  1.00  0.00    +0.000 O 
ATOM      8  C8  UNL A   1       6.989  29.859   2.045  1.00  0.00    +0.000 C 
BRANCH    8   10
ATOM     10  N1  UNL A   1       8.319  29.619   2.293  1.00  0.00    +0.000 N 
ATOM    118  H13 UNL A   1       8.950  29.896   1.589  1.00  0.00    +0.000 H 
BRANCH   10   11
ATOM     11  C9  UNL A   1       8.902  29.006   3.471  1.00  0.00    +0.000 C 
ATOM    119  H14 UNL A   1       8.424  28.061   3.625  1.00  0.00    +0.000 H 
ATOM    120  H15 UNL A   1       8.747  29.691   4.278  1.00  0.00    +0.000 H 
BRANCH   11   12
ATOM    121  H16 UNL A   1      10.724  28.370   4.331  1.00  0.00    +0.000 H 
ATOM    122  H17 UNL A   1      10.817  29.724   3.125  1.00  0.00    +0.000 H 
ATOM     12  C10 UNL A   1      10.413  28.768   3.387  1.00  0.00    +0.000 C 
BRANCH   12   13
ATOM    123  H18 UNL A   1      10.096  27.316   1.886  1.00  0.00    +0.000 H 
ATOM    124  H19 UNL A   1      11.661  27.219   2.816  1.00  0.00    +0.000 H 
ATOM     13  C11 UNL A   1      10.944  27.821   2.299  1.00  0.00    +0.000 C 
BRANCH   13   14
ATOM    126  H21 UNL A   1      11.231  29.313   0.888  1.00  0.00    +0.000 H 
ATOM    125  H20 UNL A   1      12.753  28.496   1.444  1.00  0.00    +0.000 H 
ATOM     14  C12 UNL A   1      11.737  28.399   1.124  1.00  0.00    +0.000 C 
BRANCH   14   15
ATOM    127  H22 UNL A   1      12.736  27.231  -0.318  1.00  0.00    +0.000 H 
ATOM     15  C13 UNL A   1      11.749  27.625  -0.192  1.00  0.00    +0.000 C 
ATOM    128  H23 UNL A   1      11.434  28.342  -0.923  1.00  0.00    +0.000 H 
BRANCH   15   16
ATOM    129  H24 UNL A   1       9.786  26.867  -0.413  1.00  0.00    +0.000 H 
ATOM    130  H25 UNL A   1      10.924  25.824   0.485  1.00  0.00    +0.000 H 
ATOM     16  C14 UNL A   1      10.777  26.468  -0.358  1.00  0.00    +0.000 C 
BRANCH   16   17
ATOM     17  N2  UNL A   1      11.002  25.657  -1.536  1.00  0.00    +0.000 N 
ATOM    131  H26 UNL A   1      11.754  25.024  -1.473  1.00  0.00    +0.000 H 
BRANCH   17   18
ATOM     18  C15 UNL A   1      10.318  25.642  -2.733  1.00  0.00    +0.000 C 
ATOM     19  O2  UNL A   1       9.428  24.824  -2.912  1.00  0.00    +0.000 O 
BRANCH   18   20
ATOM    132  H27 UNL A   1       8.930  26.089  -4.945  1.00  0.00    +0.000 H 
ATOM    133  H28 UNL A   1       9.315  27.724  -6.695  1.00  0.00    +0.000 H 
ATOM    144  H39 UNL A   1      12.692  29.139  -4.617  1.00  0.00    +0.000 H 
ATOM     81  C58 UNL A   1      11.905  28.476  -4.704  1.00  0.00    +0.000 C 
ATOM     82  C59 UNL A   1      11.734  27.476  -3.747  1.00  0.00    +0.000 C 
ATOM    145  H40 UNL A   1      12.438  27.349  -3.002  1.00  0.00    +0.000 H 
ATOM     20  C16 UNL A   1      10.612  26.645  -3.792  1.00  0.00    +0.000 C 
ATOM     21  C17 UNL A   1       9.736  26.731  -4.880  1.00  0.00    +0.000 C 
ATOM     22  C18 UNL A   1       9.949  27.686  -5.881  1.00  0.00    +0.000 C 
ATOM     23  C19 UNL A   1      11.018  28.589  -5.785  1.00  0.00    +0.000 C 
BRANCH   23   24
ATOM    134  H29 UNL A   1       8.745  36.540  -9.013  1.00  0.00    +0.000 H 
ATOM    135  H30 UNL A   1      10.265  36.839 -11.111  1.00  0.00    +0.000 H 
ATOM    136  H31 UNL A   1      11.063  33.134  -9.441  1.00  0.00    +0.000 H 
ATOM    137  H32 UNL A   1      14.491  27.753  -9.333  1.00  0.00    +0.000 H 
ATOM    138  H33 UNL A   1      12.972  27.444  -7.322  1.00  0.00    +0.000 H 
ATOM    139  H34 UNL A   1      12.098  31.136  -9.018  1.00  0.00    +0.000 H 
ATOM    140  H35 UNL A   1      15.064  31.537 -13.065  1.00  0.00    +0.000 H 
ATOM    141  H36 UNL A   1      14.103  33.887 -13.381  1.00  0.00    +0.000 H 
ATOM    142  H37 UNL A   1       7.959  32.517  -5.553  1.00  0.00    +0.000 H 
ATOM    143  H38 UNL A   1       9.244  30.397  -4.915  1.00  0.00    +0.000 H 
ATOM     24  C20 UNL A   1      11.228  29.642  -6.816  1.00  0.00    +0.000 C 
ATOM     25  C21 UNL A   1      10.388  30.890  -6.809  1.00  0.00    +0.000 C 
ATOM     26  N3  UNL A   1      10.383  31.893  -7.652  1.00  0.00    +0.000 N 
ATOM     27  C22 UNL A   1       9.389  32.756  -7.209  1.00  0.00    +0.000 C 
ATOM     28  C23 UNL A   1       9.034  33.967  -7.705  1.00  0.00    +0.000 C 
ATOM     40  C30 UNL A   1       9.666  34.598  -8.834  1.00  0.00    +0.000 C 
ATOM     41  C31 UNL A   1       9.421  35.849  -9.373  1.00  0.00    +0.000 C 
ATOM     42  C32 UNL A   1      10.248  36.015 -10.488  1.00  0.00    +0.000 C 
ATOM     43  C33 UNL A   1      11.043  34.887 -10.616  1.00  0.00    +0.000 C 
ATOM     44  N4  UNL A   1      10.672  34.023  -9.598  1.00  0.00    +0.000 N 
ATOM     45  C34 UNL A   1      12.064  34.616 -11.595  1.00  0.00    +0.000 C 
ATOM     57  C41 UNL A   1      12.806  33.482 -11.649  1.00  0.00    +0.000 C 
ATOM     58  N5  UNL A   1      12.765  32.373 -10.815  1.00  0.00    +0.000 N 
ATOM     59  C42 UNL A   1      13.661  31.537 -11.284  1.00  0.00    +0.000 C 
ATOM     60  C43 UNL A   1      14.067  30.186 -10.757  1.00  0.00    +0.000 C 
ATOM     72  C50 UNL A   1      13.481  29.709  -9.643  1.00  0.00    +0.000 C 
ATOM     73  C51 UNL A   1      13.780  28.428  -9.010  1.00  0.00    +0.000 C 
ATOM     74  C52 UNL A   1      12.986  28.270  -7.940  1.00  0.00    +0.000 C 
ATOM     75  C53 UNL A   1      12.139  29.454  -7.791  1.00  0.00    +0.000 C 
ATOM     76  N6  UNL A   1      12.502  30.255  -8.847  1.00  0.00    +0.000 N 
ATOM     77  C54 UNL A   1      14.352  32.015 -12.489  1.00  0.00    +0.000 C 
ATOM     78  C55 UNL A   1      13.824  33.220 -12.645  1.00  0.00    +0.000 C 
ATOM     79  C56 UNL A   1       8.777  32.137  -6.054  1.00  0.00    +0.000 C 
ATOM     80  C57 UNL A   1       9.404  31.017  -5.723  1.00  0.00    +0.000 C 
BRANCH   28   29
ATOM     33  F2  UNL A   1       7.362  37.257  -4.479  1.00  0.00    +0.000 F 
ATOM     34  C27 UNL A   1       5.795  36.074  -5.790  1.00  0.00    +0.000 C 
ATOM     35  F3  UNL A   1       4.785  36.722  -5.192  1.00  0.00    +0.000 F 
ATOM     36  C28 UNL A   1       5.530  35.117  -6.757  1.00  0.00    +0.000 C 
ATOM     37  F4  UNL A   1       4.264  34.854  -7.111  1.00  0.00    +0.000 F 
ATOM     38  C29 UNL A   1       6.578  34.424  -7.360  1.00  0.00    +0.000 C 
ATOM     39  F5  UNL A   1       6.288  33.492  -8.281  1.00  0.00    +0.000 F 
ATOM     29  C24 UNL A   1       7.912  34.694  -7.022  1.00  0.00    +0.000 C 
ATOM     30  C25 UNL A   1       8.156  35.684  -6.058  1.00  0.00    +0.000 C 
ATOM     31  F1  UNL A   1       9.413  35.974  -5.690  1.00  0.00    +0.000 F 
ATOM     32  C26 UNL A   1       7.105  36.353  -5.435  1.00  0.00    +0.000 C 
ENDBRANCH   28   29
BRANCH   45   46
ATOM     46  C35 UNL A   1      12.349  35.675 -12.619  1.00  0.00    +0.000 C 
ATOM     47  C36 UNL A   1      11.740  35.659 -13.882  1.00  0.00    +0.000 C 
ATOM     48  F6  UNL A   1      10.919  34.653 -14.223  1.00  0.00    +0.000 F 
ATOM     49  C37 UNL A   1      12.000  36.660 -14.815  1.00  0.00    +0.000 C 
ATOM     50  F7  UNL A   1      11.441  36.601 -16.031  1.00  0.00    +0.000 F 
ATOM     51  C38 UNL A   1      12.847  37.709 -14.491  1.00  0.00    +0.000 C 
ATOM     52  F8  UNL A   1      13.090  38.676 -15.388  1.00  0.00    +0.000 F 
ATOM     53  C39 UNL A   1      13.447  37.754 -13.242  1.00  0.00    +0.000 C 
ATOM     54  F9  UNL A   1      14.255  38.774 -12.923  1.00  0.00    +0.000 F 
ATOM     55  C40 UNL A   1      13.211  36.740 -12.318  1.00  0.00    +0.000 C 
ATOM     56  F10 UNL A   1      13.814  36.805 -11.122  1.00  0.00    +0.000 F 
ENDBRANCH   45   46
BRANCH   60   61
ATOM     65  F12 UNL A   1      15.430  26.591 -13.758  1.00  0.00    +0.000 F 
ATOM     66  C47 UNL A   1      17.117  27.874 -12.718  1.00  0.00    +0.000 C 
ATOM     67  F13 UNL A   1      18.066  27.144 -13.320  1.00  0.00    +0.000 F 
ATOM     68  C48 UNL A   1      17.472  28.902 -11.857  1.00  0.00    +0.000 C 
ATOM     69  F14 UNL A   1      18.765  29.178 -11.642  1.00  0.00    +0.000 F 
ATOM     70  C49 UNL A   1      16.486  29.646 -11.213  1.00  0.00    +0.000 C 
ATOM     71  F15 UNL A   1      16.858  30.625 -10.374  1.00  0.00    +0.000 F 
ATOM     61  C44 UNL A   1      15.125  29.394 -11.437  1.00  0.00    +0.000 C 
ATOM     62  C45 UNL A   1      14.790  28.362 -12.325  1.00  0.00    +0.000 C 
ATOM     63  F11 UNL A   1      13.503  28.068 -12.555  1.00  0.00    +0.000 F 
ATOM     64  C46 UNL A   1      15.777  27.600 -12.948  1.00  0.00    +0.000 C 
ENDBRANCH   60   61
ENDBRANCH   23   24
ENDBRANCH   18   20
ENDBRANCH   17   18
ENDBRANCH   16   17
ENDBRANCH   15   16
ENDBRANCH   14   15
ENDBRANCH   13   14
ENDBRANCH   12   13
ENDBRANCH   11   12
ENDBRANCH   10   11
ENDBRANCH    8   10
ENDBRANCH    7    8
BRANCH   85   86
ATOM    151  H46 UNL A   1       6.440  31.046  -2.960  1.00  0.00    +0.000 H 
ATOM     86  C63 UNL A   1       7.243  30.351  -2.829  1.00  0.00    +0.000 C 
ATOM    150  H45 UNL A   1       7.964  30.490  -3.607  1.00  0.00    +0.000 H 
ATOM    152  H47 UNL A   1       6.861  29.352  -2.870  1.00  0.00    +0.000 H 
ENDBRANCH   85   86
BRANCH   91   92
ATOM     92  C69 UNL A   1      11.416  33.833  -0.146  1.00  0.00    +0.000 C 
ATOM    157  H52 UNL A   1      12.407  34.102   0.153  1.00  0.00    +0.000 H 
ATOM    158  H53 UNL A   1      10.705  34.377   0.439  1.00  0.00    +0.000 H 
ATOM    159  H54 UNL A   1      11.280  34.067  -1.182  1.00  0.00    +0.000 H 
ENDBRANCH   91   92
BRANCH   95   96
ATOM    165  H60 UNL A   1      15.872  30.922   1.142  1.00  0.00    +0.000 H 
ATOM     96  O3  UNL A   1      15.296  31.663   1.388  1.00  0.00    +0.000 O 
ENDBRANCH   95   96
BRANCH   97   98
ATOM     98  C74 UNL A   1      14.304  32.911  -1.004  1.00  0.00    +0.000 C 
ATOM    166  H61 UNL A   1      14.768  32.760  -1.957  1.00  0.00    +0.000 H 
ATOM    167  H62 UNL A   1      15.032  33.262  -0.304  1.00  0.00    +0.000 H 
ATOM    168  H63 UNL A   1      13.522  33.635  -1.100  1.00  0.00    +0.000 H 
ENDBRANCH   97   98
BRANCH   97   99
ATOM    169  H64 UNL A   1      13.970  30.162  -2.118  1.00  0.00    +0.000 H 
ATOM    170  H65 UNL A   1      14.651  29.632  -0.599  1.00  0.00    +0.000 H 
ATOM     99  C75 UNL A   1      14.512  30.471  -1.249  1.00  0.00    +0.000 C 
ATOM    171  H66 UNL A   1      15.466  30.857  -1.542  1.00  0.00    +0.000 H 
ENDBRANCH   97   99
BRANCH  103  104
ATOM    177  H72 UNL A   1       8.646  32.399  -3.525  1.00  0.00    +0.000 H 
ATOM    178  H73 UNL A   1       9.832  33.334  -2.646  1.00  0.00    +0.000 H 
ATOM    179  H74 UNL A   1       8.168  33.313  -2.115  1.00  0.00    +0.000 H 
ATOM    104  C80 UNL A   1       8.952  32.734  -2.555  1.00  0.00    +0.000 C 
ENDBRANCH  103  104
TORSDOF 23
ENDMDL
MODEL 7
REMARK VINA RESULT:      -8.6     41.902     50.148
ROOT
ATOM      2  C2  UNL A   1      41.900  14.636  52.068  1.00  0.00    +0.000 C 
ATOM      3  C3  UNL A   1      41.997  15.170  50.600  1.00  0.00    +0.000 C 
ATOM      5  C5  UNL A   1      42.056  14.074  49.523  1.00  0.00    +0.000 C 
ATOM      6  C6  UNL A   1      42.919  12.871  49.833  1.00  0.00    +0.000 C 
ATOM      7  C7  UNL A   1      43.027  12.421  51.302  1.00  0.00    +0.000 C 
ATOM    146  H41 UNL A   1      45.163  12.513  51.005  1.00  0.00    +0.000 H 
ATOM    147  H42 UNL A   1      44.413  10.874  50.865  1.00  0.00    +0.000 H 
ATOM    148  H43 UNL A   1      46.047  11.345  52.754  1.00  0.00    +0.000 H 
ATOM    149  H44 UNL A   1      44.486  10.480  53.022  1.00  0.00    +0.000 H 
ATOM    153  H48 UNL A   1      41.248  13.127  54.313  1.00  0.00    +0.000 H 
ATOM    154  H49 UNL A   1      41.259  10.897  55.364  1.00  0.00    +0.000 H 
ATOM    155  H50 UNL A   1      42.127  11.974  56.463  1.00  0.00    +0.000 H 
ATOM    156  H51 UNL A   1      43.402  10.095  54.466  1.00  0.00    +0.000 H 
ATOM    160  H55 UNL A   1      42.798   8.138  54.585  1.00  0.00    +0.000 H 
ATOM    161  H56 UNL A   1      41.474   8.595  55.690  1.00  0.00    +0.000 H 
ATOM    162  H57 UNL A   1      41.948   6.182  55.645  1.00  0.00    +0.000 H 
ATOM    163  H58 UNL A   1      42.099   6.962  57.235  1.00  0.00    +0.000 H 
ATOM    164  H59 UNL A   1      44.311   6.133  55.434  1.00  0.00    +0.000 H 
ATOM    172  H67 UNL A   1      45.030   8.355  55.323  1.00  0.00    +0.000 H 
ATOM    173  H68 UNL A   1      46.847   9.213  56.795  1.00  0.00    +0.000 H 
ATOM    174  H69 UNL A   1      45.643  10.167  57.620  1.00  0.00    +0.000 H 
ATOM    175  H70 UNL A   1      46.185  10.244  54.659  1.00  0.00    +0.000 H 
ATOM    176  H71 UNL A   1      46.734  11.440  55.853  1.00  0.00    +0.000 H 
ATOM    180  H75 UNL A   1      43.836  14.283  52.226  1.00  0.00    +0.000 H 
ATOM     83  C60 UNL A   1      44.475  11.797  51.404  1.00  0.00    +0.000 C 
ATOM     84  C61 UNL A   1      44.980  11.402  52.801  1.00  0.00    +0.000 C 
ATOM     85  C62 UNL A   1      44.609  12.354  53.990  1.00  0.00    +0.000 C 
ATOM     87  C64 UNL A   1      43.191  12.925  53.702  1.00  0.00    +0.000 C 
ATOM     88  C65 UNL A   1      42.122  12.599  54.458  1.00  0.00    +0.000 C 
ATOM     89  C66 UNL A   1      42.127  11.509  55.500  1.00  0.00    +0.000 C 
ATOM     90  C67 UNL A   1      43.390  10.613  55.403  1.00  0.00    +0.000 C 
ATOM     91  C68 UNL A   1      43.393   9.302  56.299  1.00  0.00    +0.000 C 
ATOM     93  C70 UNL A   1      42.480   8.239  55.602  1.00  0.00    +0.000 C 
ATOM     94  C71 UNL A   1      42.513   6.858  56.254  1.00  0.00    +0.000 C 
ATOM     95  C72 UNL A   1      43.926   6.294  56.418  1.00  0.00    +0.000 C 
ATOM     97  C73 UNL A   1      44.953   7.271  57.069  1.00  0.00    +0.000 C 
ATOM    100  C76 UNL A   1      44.829   8.657  56.329  1.00  0.00    +0.000 C 
ATOM    101  C77 UNL A   1      45.896   9.695  56.693  1.00  0.00    +0.000 C 
ATOM    102  C78 UNL A   1      45.968  10.742  55.580  1.00  0.00    +0.000 C 
ATOM    103  C79 UNL A   1      44.655  11.549  55.406  1.00  0.00    +0.000 C 
ATOM    105  C81 UNL A   1      43.023  13.595  52.323  1.00  0.00    +0.000 C 
ATOM    109  H4  UNL A   1      40.950  14.160  52.199  1.00  0.00    +0.000 H 
ATOM    110  H5  UNL A   1      42.928  15.698  50.637  1.00  0.00    +0.000 H 
ATOM    114  H9  UNL A   1      42.429  14.521  48.625  1.00  0.00    +0.000 H 
ATOM    115  H10 UNL A   1      41.057  13.696  49.450  1.00  0.00    +0.000 H 
ATOM    116  H11 UNL A   1      43.909  13.093  49.493  1.00  0.00    +0.000 H 
ATOM    117  H12 UNL A   1      42.432  12.057  49.337  1.00  0.00    +0.000 H 
ENDROOT
BRANCH    2    1
ATOM      1  C1  UNL A   1      41.983  15.793  53.077  1.00  0.00    +0.000 C 
ATOM    106  H1  UNL A   1      41.242  16.528  52.840  1.00  0.00    +0.000 H 
ATOM    107  H2  UNL A   1      42.955  16.239  53.029  1.00  0.00    +0.000 H 
ATOM    108  H3  UNL A   1      41.811  15.418  54.065  1.00  0.00    +0.000 H 
ENDBRANCH    2    1
BRANCH    3    4
ATOM    113  H8  UNL A   1      40.822  16.184  49.123  1.00  0.00    +0.000 H 
ATOM      4  C4  UNL A   1      40.862  16.117  50.190  1.00  0.00    +0.000 C 
ATOM    111  H6  UNL A   1      41.042  17.088  50.601  1.00  0.00    +0.000 H 
ATOM    112  H7  UNL A   1      39.932  15.740  50.559  1.00  0.00    +0.000 H 
ENDBRANCH    3    4
BRANCH    7    8
ATOM      9  O1  UNL A   1      40.758  11.521  51.552  1.00  0.00    +0.000 O 
ATOM      8  C8  UNL A   1      41.972  11.296  51.635  1.00  0.00    +0.000 C 
BRANCH    8   10
ATOM     10  N1  UNL A   1      42.280  10.001  51.973  1.00  0.00    +0.000 N 
ATOM    118  H13 UNL A   1      43.203   9.711  51.794  1.00  0.00    +0.000 H 
BRANCH   10   11
ATOM     11  C9  UNL A   1      41.400   9.009  52.563  1.00  0.00    +0.000 C 
ATOM    119  H14 UNL A   1      40.402   9.210  52.231  1.00  0.00    +0.000 H 
ATOM    120  H15 UNL A   1      41.515   9.095  53.623  1.00  0.00    +0.000 H 
BRANCH   11   12
ATOM    121  H16 UNL A   1      40.819   7.067  51.968  1.00  0.00    +0.000 H 
ATOM    122  H17 UNL A   1      42.261   7.190  53.063  1.00  0.00    +0.000 H 
ATOM     12  C10 UNL A   1      41.740   7.559  52.204  1.00  0.00    +0.000 C 
BRANCH   12   13
ATOM    123  H18 UNL A   1      43.682   7.578  51.373  1.00  0.00    +0.000 H 
ATOM    124  H19 UNL A   1      42.289   7.878  50.235  1.00  0.00    +0.000 H 
ATOM     13  C11 UNL A   1      42.704   7.303  51.036  1.00  0.00    +0.000 C 
BRANCH   13   14
ATOM    126  H21 UNL A   1      41.904   5.763  49.901  1.00  0.00    +0.000 H 
ATOM    125  H20 UNL A   1      43.716   5.858  49.874  1.00  0.00    +0.000 H 
ATOM     14  C12 UNL A   1      42.814   5.892  50.449  1.00  0.00    +0.000 C 
BRANCH   14   15
ATOM    127  H22 UNL A   1      41.875   4.258  51.392  1.00  0.00    +0.000 H 
ATOM     15  C13 UNL A   1      42.846   4.708  51.411  1.00  0.00    +0.000 C 
ATOM    128  H23 UNL A   1      43.146   5.135  52.346  1.00  0.00    +0.000 H 
BRANCH   15   16
ATOM    129  H24 UNL A   1      44.344   3.796  50.227  1.00  0.00    +0.000 H 
ATOM    130  H25 UNL A   1      43.314   2.682  51.167  1.00  0.00    +0.000 H 
ATOM     16  C14 UNL A   1      43.860   3.602  51.161  1.00  0.00    +0.000 C 
BRANCH   16   17
ATOM     17  N2  UNL A   1      44.880   3.479  52.181  1.00  0.00    +0.000 N 
ATOM    131  H26 UNL A   1      45.268   2.579  52.280  1.00  0.00    +0.000 H 
BRANCH   17   18
ATOM     18  C15 UNL A   1      45.387   4.437  53.033  1.00  0.00    +0.000 C 
ATOM     19  O2  UNL A   1      45.436   4.214  54.234  1.00  0.00    +0.000 O 
BRANCH   18   20
ATOM    132  H27 UNL A   1      47.093   4.754  51.031  1.00  0.00    +0.000 H 
ATOM    133  H28 UNL A   1      47.987   6.800  50.085  1.00  0.00    +0.000 H 
ATOM    144  H39 UNL A   1      45.728   9.048  52.836  1.00  0.00    +0.000 H 
ATOM     81  C58 UNL A   1      46.041   8.136  52.465  1.00  0.00    +0.000 C 
ATOM     82  C59 UNL A   1      45.600   6.956  53.066  1.00  0.00    +0.000 C 
ATOM    145  H40 UNL A   1      45.031   6.998  53.926  1.00  0.00    +0.000 H 
ATOM     20  C16 UNL A   1      45.926   5.719  52.505  1.00  0.00    +0.000 C 
ATOM     21  C17 UNL A   1      46.810   5.666  51.422  1.00  0.00    +0.000 C 
ATOM     22  C18 UNL A   1      47.313   6.848  50.865  1.00  0.00    +0.000 C 
ATOM     23  C19 UNL A   1      46.907   8.096  51.362  1.00  0.00    +0.000 C 
BRANCH   23   24
ATOM    134  H29 UNL A   1      46.063  14.179  44.953  1.00  0.00    +0.000 H 
ATOM    135  H30 UNL A   1      47.983  15.879  45.425  1.00  0.00    +0.000 H 
ATOM    136  H31 UNL A   1      48.198  12.853  48.245  1.00  0.00    +0.000 H 
ATOM    137  H32 UNL A   1      50.845  10.390  53.502  1.00  0.00    +0.000 H 
ATOM    138  H33 UNL A   1      49.006   8.709  53.008  1.00  0.00    +0.000 H 
ATOM    139  H34 UNL A   1      48.811  11.693  50.121  1.00  0.00    +0.000 H 
ATOM    140  H35 UNL A   1      52.597  14.850  51.135  1.00  0.00    +0.000 H 
ATOM    141  H36 UNL A   1      51.744  16.295  49.203  1.00  0.00    +0.000 H 
ATOM    142  H37 UNL A   1      44.632   9.503  47.156  1.00  0.00    +0.000 H 
ATOM    143  H38 UNL A   1      45.136   8.309  49.365  1.00  0.00    +0.000 H 
ATOM     24  C20 UNL A   1      47.394   9.361  50.749  1.00  0.00    +0.000 C 
ATOM     25  C21 UNL A   1      46.746   9.900  49.502  1.00  0.00    +0.000 C 
ATOM     26  N3  UNL A   1      47.062  10.953  48.790  1.00  0.00    +0.000 N 
ATOM     27  C22 UNL A   1      46.174  10.969  47.721  1.00  0.00    +0.000 C 
ATOM     28  C23 UNL A   1      46.048  11.892  46.736  1.00  0.00    +0.000 C 
ATOM     40  C30 UNL A   1      46.855  13.078  46.630  1.00  0.00    +0.000 C 
ATOM     41  C31 UNL A   1      46.763  14.105  45.706  1.00  0.00    +0.000 C 
ATOM     42  C32 UNL A   1      47.784  15.024  45.970  1.00  0.00    +0.000 C 
ATOM     43  C33 UNL A   1      48.482  14.596  47.087  1.00  0.00    +0.000 C 
ATOM     44  N4  UNL A   1      47.906  13.397  47.479  1.00  0.00    +0.000 N 
ATOM     45  C34 UNL A   1      49.593  15.230  47.748  1.00  0.00    +0.000 C 
ATOM     57  C41 UNL A   1      50.222  14.745  48.847  1.00  0.00    +0.000 C 
ATOM     58  N5  UNL A   1      49.956  13.586  49.564  1.00  0.00    +0.000 N 
ATOM     59  C42 UNL A   1      50.842  13.548  50.529  1.00  0.00    +0.000 C 
ATOM     60  C43 UNL A   1      51.008  12.532  51.628  1.00  0.00    +0.000 C 
ATOM     72  C50 UNL A   1      50.152  11.494  51.702  1.00  0.00    +0.000 C 
ATOM     73  C51 UNL A   1      50.180  10.444  52.715  1.00  0.00    +0.000 C 
ATOM     74  C52 UNL A   1      49.200   9.562  52.461  1.00  0.00    +0.000 C 
ATOM     75  C53 UNL A   1      48.453  10.002  51.282  1.00  0.00    +0.000 C 
ATOM     76  N6  UNL A   1      49.089  11.157  50.898  1.00  0.00    +0.000 N 
ATOM     77  C54 UNL A   1      51.792  14.669  50.515  1.00  0.00    +0.000 C 
ATOM     78  C55 UNL A   1      51.345  15.390  49.496  1.00  0.00    +0.000 C 
ATOM     79  C56 UNL A   1      45.341   9.793  47.848  1.00  0.00    +0.000 C 
ATOM     80  C57 UNL A   1      45.605   9.138  48.969  1.00  0.00    +0.000 C 
BRANCH   28   29
ATOM     33  F2  UNL A   1      41.717  12.921  44.684  1.00  0.00    +0.000 F 
ATOM     34  C27 UNL A   1      43.045  11.228  43.713  1.00  0.00    +0.000 C 
ATOM     35  F3  UNL A   1      42.111  11.015  42.775  1.00  0.00    +0.000 F 
ATOM     36  C28 UNL A   1      44.204  10.467  43.725  1.00  0.00    +0.000 C 
ATOM     37  F4  UNL A   1      44.400   9.531  42.786  1.00  0.00    +0.000 F 
ATOM     38  C29 UNL A   1      45.163  10.671  44.715  1.00  0.00    +0.000 C 
ATOM     39  F5  UNL A   1      46.266   9.907  44.709  1.00  0.00    +0.000 F 
ATOM     29  C24 UNL A   1      44.990  11.657  45.697  1.00  0.00    +0.000 C 
ATOM     30  C25 UNL A   1      43.821  12.431  45.650  1.00  0.00    +0.000 C 
ATOM     31  F1  UNL A   1      43.601  13.380  46.572  1.00  0.00    +0.000 F 
ATOM     32  C26 UNL A   1      42.849  12.204  44.677  1.00  0.00    +0.000 C 
ENDBRANCH   28   29
BRANCH   45   46
ATOM     46  C35 UNL A   1      50.080  16.537  47.197  1.00  0.00    +0.000 C 
ATOM     47  C36 UNL A   1      51.148  16.601  46.290  1.00  0.00    +0.000 C 
ATOM     48  F6  UNL A   1      51.799  15.483  45.933  1.00  0.00    +0.000 F 
ATOM     49  C37 UNL A   1      51.576  17.821  45.773  1.00  0.00    +0.000 C 
ATOM     50  F7  UNL A   1      52.626  17.864  44.942  1.00  0.00    +0.000 F 
ATOM     51  C38 UNL A   1      50.925  18.994  46.127  1.00  0.00    +0.000 C 
ATOM     52  F8  UNL A   1      51.333  20.166  45.622  1.00  0.00    +0.000 F 
ATOM     53  C39 UNL A   1      49.856  18.952  47.009  1.00  0.00    +0.000 C 
ATOM     54  F9  UNL A   1      49.218  20.082  47.342  1.00  0.00    +0.000 F 
ATOM     55  C40 UNL A   1      49.444  17.737  47.549  1.00  0.00    +0.000 C 
ATOM     56  F10 UNL A   1      48.415  17.730  48.409  1.00  0.00    +0.000 F 
ENDBRANCH   45   46
BRANCH   60   61
ATOM     65  F12 UNL A   1      55.475  11.486  53.285  1.00  0.00    +0.000 F 
ATOM     66  C47 UNL A   1      54.123  12.938  54.565  1.00  0.00    +0.000 C 
ATOM     67  F13 UNL A   1      55.090  13.053  55.485  1.00  0.00    +0.000 F 
ATOM     68  C48 UNL A   1      52.917  13.601  54.737  1.00  0.00    +0.000 C 
ATOM     69  F14 UNL A   1      52.726  14.374  55.814  1.00  0.00    +0.000 F 
ATOM     70  C49 UNL A   1      51.902  13.464  53.792  1.00  0.00    +0.000 C 
ATOM     71  F15 UNL A   1      50.741  14.105  53.991  1.00  0.00    +0.000 F 
ATOM     61  C44 UNL A   1      52.083  12.680  52.643  1.00  0.00    +0.000 C 
ATOM     62  C45 UNL A   1      53.318  12.033  52.482  1.00  0.00    +0.000 C 
ATOM     63  F11 UNL A   1      53.530  11.255  51.412  1.00  0.00    +0.000 F 
ATOM     64  C46 UNL A   1      54.322  12.149  53.442  1.00  0.00    +0.000 C 
ENDBRANCH   60   61
ENDBRANCH   23   24
ENDBRANCH   18   20
ENDBRANCH   17   18
ENDBRANCH   16   17
ENDBRANCH   15   16
ENDBRANCH   14   15
ENDBRANCH   13   14
ENDBRANCH   12   13
ENDBRANCH   11   12
ENDBRANCH   10   11
ENDBRANCH    8   10
ENDBRANCH    7    8
BRANCH   85   86
ATOM    151  H46 UNL A   1      46.449  13.255  54.674  1.00  0.00    +0.000 H 
ATOM     86  C63 UNL A   1      45.643  13.512  54.018  1.00  0.00    +0.000 C 
ATOM    150  H45 UNL A   1      46.024  13.674  53.031  1.00  0.00    +0.000 H 
ATOM    152  H47 UNL A   1      45.169  14.405  54.369  1.00  0.00    +0.000 H 
ENDBRANCH   85   86
BRANCH   91   92
ATOM     92  C69 UNL A   1      42.806   9.613  57.689  1.00  0.00    +0.000 C 
ATOM    157  H52 UNL A   1      41.738   9.641  57.627  1.00  0.00    +0.000 H 
ATOM    158  H53 UNL A   1      43.169  10.562  58.025  1.00  0.00    +0.000 H 
ATOM    159  H54 UNL A   1      43.103   8.851  58.381  1.00  0.00    +0.000 H 
ENDBRANCH   91   92
BRANCH   95   96
ATOM    165  H60 UNL A   1      44.285   5.163  57.999  1.00  0.00    +0.000 H 
ATOM     96  O3  UNL A   1      43.852   5.062  57.137  1.00  0.00    +0.000 O 
ENDBRANCH   95   96
BRANCH   97   98
ATOM     98  C74 UNL A   1      44.795   7.347  58.603  1.00  0.00    +0.000 C 
ATOM    166  H61 UNL A   1      45.521   8.026  59.002  1.00  0.00    +0.000 H 
ATOM    167  H62 UNL A   1      44.945   6.377  59.026  1.00  0.00    +0.000 H 
ATOM    168  H63 UNL A   1      43.812   7.695  58.843  1.00  0.00    +0.000 H 
ENDBRANCH   97   98
BRANCH   97   99
ATOM    169  H64 UNL A   1      47.008   6.930  57.650  1.00  0.00    +0.000 H 
ATOM    170  H65 UNL A   1      46.773   7.048  55.923  1.00  0.00    +0.000 H 
ATOM     99  C75 UNL A   1      46.367   6.665  56.836  1.00  0.00    +0.000 C 
ATOM    171  H66 UNL A   1      46.293   5.599  56.773  1.00  0.00    +0.000 H 
ENDBRANCH   97   99
BRANCH  103  104
ATOM    177  H72 UNL A   1      44.653  13.552  56.235  1.00  0.00    +0.000 H 
ATOM    178  H73 UNL A   1      45.459  12.374  57.242  1.00  0.00    +0.000 H 
ATOM    179  H74 UNL A   1      43.714  12.407  57.160  1.00  0.00    +0.000 H 
ATOM    104  C80 UNL A   1      44.618  12.549  56.606  1.00  0.00    +0.000 C 
ENDBRANCH  103  104
TORSDOF 23
ENDMDL
MODEL 8
REMARK VINA RESULT:      -8.5      2.486      5.754
ROOT
ATOM      2  C2  UNL A   1      47.509  45.809  21.309  1.00  0.00    +0.000 C 
ATOM      3  C3  UNL A   1      47.839  45.947  19.785  1.00  0.00    +0.000 C 
ATOM      5  C5  UNL A   1      46.903  45.160  18.854  1.00  0.00    +0.000 C 
ATOM      6  C6  UNL A   1      46.513  43.770  19.308  1.00  0.00    +0.000 C 
ATOM      7  C7  UNL A   1      46.375  43.520  20.821  1.00  0.00    +0.000 C 
ATOM    146  H41 UNL A   1      47.717  41.859  20.507  1.00  0.00    +0.000 H 
ATOM    147  H42 UNL A   1      45.957  41.453  20.576  1.00  0.00    +0.000 H 
ATOM    148  H43 UNL A   1      47.515  40.580  22.384  1.00  0.00    +0.000 H 
ATOM    149  H44 UNL A   1      45.911  41.315  22.765  1.00  0.00    +0.000 H 
ATOM    153  H48 UNL A   1      46.154  45.578  23.728  1.00  0.00    +0.000 H 
ATOM    154  H49 UNL A   1      44.513  44.298  25.049  1.00  0.00    +0.000 H 
ATOM    155  H50 UNL A   1      46.001  44.341  26.001  1.00  0.00    +0.000 H 
ATOM    156  H51 UNL A   1      45.095  42.047  24.251  1.00  0.00    +0.000 H 
ATOM    160  H55 UNL A   1      43.200  41.352  24.616  1.00  0.00    +0.000 H 
ATOM    161  H56 UNL A   1      42.867  42.760  25.660  1.00  0.00    +0.000 H 
ATOM    162  H57 UNL A   1      41.252  40.922  25.916  1.00  0.00    +0.000 H 
ATOM    163  H58 UNL A   1      42.119  41.389  27.395  1.00  0.00    +0.000 H 
ATOM    164  H59 UNL A   1      42.630  39.002  25.703  1.00  0.00    +0.000 H 
ATOM    172  H67 UNL A   1      44.805  39.767  25.311  1.00  0.00    +0.000 H 
ATOM    173  H68 UNL A   1      46.736  38.951  26.657  1.00  0.00    +0.000 H 
ATOM    174  H69 UNL A   1      46.837  40.543  27.361  1.00  0.00    +0.000 H 
ATOM    175  H70 UNL A   1      46.926  39.943  24.412  1.00  0.00    +0.000 H 
ATOM    176  H71 UNL A   1      48.323  40.318  25.444  1.00  0.00    +0.000 H 
ATOM    180  H75 UNL A   1      48.426  44.072  21.502  1.00  0.00    +0.000 H 
ATOM     83  C60 UNL A   1      46.776  42.001  20.994  1.00  0.00    +0.000 C 
ATOM     84  C61 UNL A   1      46.914  41.464  22.428  1.00  0.00    +0.000 C 
ATOM     85  C62 UNL A   1      47.559  42.420  23.490  1.00  0.00    +0.000 C 
ATOM     87  C64 UNL A   1      47.116  43.870  23.138  1.00  0.00    +0.000 C 
ATOM     88  C65 UNL A   1      46.285  44.575  23.934  1.00  0.00    +0.000 C 
ATOM     89  C66 UNL A   1      45.537  43.989  25.104  1.00  0.00    +0.000 C 
ATOM     90  C67 UNL A   1      45.591  42.438  25.115  1.00  0.00    +0.000 C 
ATOM     91  C68 UNL A   1      44.653  41.709  26.168  1.00  0.00    +0.000 C 
ATOM     93  C70 UNL A   1      43.189  41.740  25.614  1.00  0.00    +0.000 C 
ATOM     94  C71 UNL A   1      42.189  40.926  26.433  1.00  0.00    +0.000 C 
ATOM     95  C72 UNL A   1      42.622  39.476  26.661  1.00  0.00    +0.000 C 
ATOM     97  C73 UNL A   1      44.083  39.300  27.180  1.00  0.00    +0.000 C 
ATOM    100  C76 UNL A   1      45.022  40.182  26.273  1.00  0.00    +0.000 C 
ATOM    101  C77 UNL A   1      46.526  39.989  26.500  1.00  0.00    +0.000 C 
ATOM    102  C78 UNL A   1      47.280  40.484  25.264  1.00  0.00    +0.000 C 
ATOM    103  C79 UNL A   1      47.098  42.001  24.995  1.00  0.00    +0.000 C 
ATOM    105  C81 UNL A   1      47.400  44.308  21.688  1.00  0.00    +0.000 C 
ATOM    109  H4  UNL A   1      46.570  46.284  21.502  1.00  0.00    +0.000 H 
ATOM    110  H5  UNL A   1      48.825  45.531  19.752  1.00  0.00    +0.000 H 
ATOM    114  H9  UNL A   1      47.390  45.069  17.905  1.00  0.00    +0.000 H 
ATOM    115  H10 UNL A   1      45.990  45.718  18.832  1.00  0.00    +0.000 H 
ATOM    116  H11 UNL A   1      47.256  43.095  18.939  1.00  0.00    +0.000 H 
ATOM    117  H12 UNL A   1      45.526  43.628  18.920  1.00  0.00    +0.000 H 
ENDROOT
BRANCH    2    1
ATOM      1  C1  UNL A   1      48.573  46.516  22.165  1.00  0.00    +0.000 C 
ATOM    106  H1  UNL A   1      49.492  45.970  22.116  1.00  0.00    +0.000 H 
ATOM    107  H2  UNL A   1      48.239  46.562  23.181  1.00  0.00    +0.000 H 
ATOM    108  H3  UNL A   1      48.727  47.509  21.796  1.00  0.00    +0.000 H 
ENDBRANCH    2    1
BRANCH    3    4
ATOM    113  H8  UNL A   1      48.842  47.649  18.955  1.00  0.00    +0.000 H 
ATOM      4  C4  UNL A   1      47.852  47.390  19.265  1.00  0.00    +0.000 C 
ATOM    111  H6  UNL A   1      47.538  48.053  20.044  1.00  0.00    +0.000 H 
ATOM    112  H7  UNL A   1      47.184  47.475  18.433  1.00  0.00    +0.000 H 
ENDBRANCH    3    4
BRANCH    7    8
ATOM      9  O1  UNL A   1      44.344  44.816  21.288  1.00  0.00    +0.000 O 
ATOM      8  C8  UNL A   1      44.882  43.701  21.297  1.00  0.00    +0.000 C 
BRANCH    8   10
ATOM     10  N1  UNL A   1      44.049  42.682  21.690  1.00  0.00    +0.000 N 
ATOM    118  H13 UNL A   1      44.256  42.259  22.554  1.00  0.00    +0.000 H 
BRANCH   10   11
ATOM     11  C9  UNL A   1      42.899  42.156  20.978  1.00  0.00    +0.000 C 
ATOM    119  H14 UNL A   1      42.610  41.237  21.445  1.00  0.00    +0.000 H 
ATOM    120  H15 UNL A   1      43.204  42.031  19.960  1.00  0.00    +0.000 H 
BRANCH   11   12
ATOM    121  H16 UNL A   1      41.926  43.942  21.549  1.00  0.00    +0.000 H 
ATOM    122  H17 UNL A   1      40.879  42.477  21.319  1.00  0.00    +0.000 H 
ATOM     12  C10 UNL A   1      41.681  43.085  20.956  1.00  0.00    +0.000 C 
BRANCH   12   13
ATOM    123  H18 UNL A   1      40.289  44.161  19.785  1.00  0.00    +0.000 H 
ATOM    124  H19 UNL A   1      41.079  42.711  19.012  1.00  0.00    +0.000 H 
ATOM     13  C11 UNL A   1      41.181  43.600  19.597  1.00  0.00    +0.000 C 
BRANCH   13   14
ATOM    126  H21 UNL A   1      41.423  45.098  18.184  1.00  0.00    +0.000 H 
ATOM    125  H20 UNL A   1      42.746  45.008  19.422  1.00  0.00    +0.000 H 
ATOM     14  C12 UNL A   1      42.097  44.488  18.749  1.00  0.00    +0.000 C 
BRANCH   14   15
ATOM    127  H22 UNL A   1      42.411  43.019  17.271  1.00  0.00    +0.000 H 
ATOM     15  C13 UNL A   1      42.977  43.823  17.695  1.00  0.00    +0.000 C 
ATOM    128  H23 UNL A   1      43.862  43.542  18.228  1.00  0.00    +0.000 H 
BRANCH   15   16
ATOM    129  H24 UNL A   1      42.678  44.839  15.863  1.00  0.00    +0.000 H 
ATOM    130  H25 UNL A   1      44.299  44.129  16.100  1.00  0.00    +0.000 H 
ATOM     16  C14 UNL A   1      43.488  44.672  16.541  1.00  0.00    +0.000 C 
BRANCH   16   17
ATOM     17  N2  UNL A   1      44.023  45.959  16.932  1.00  0.00    +0.000 N 
ATOM    131  H26 UNL A   1      44.867  45.928  17.437  1.00  0.00    +0.000 H 
BRANCH   17   18
ATOM     18  C15 UNL A   1      43.521  47.223  16.700  1.00  0.00    +0.000 C 
ATOM     19  O2  UNL A   1      42.326  47.372  16.493  1.00  0.00    +0.000 O 
BRANCH   18   20
ATOM    132  H27 UNL A   1      42.864  49.675  17.457  1.00  0.00    +0.000 H 
ATOM    133  H28 UNL A   1      44.251  51.659  17.609  1.00  0.00    +0.000 H 
ATOM    144  H39 UNL A   1      47.571  49.426  16.298  1.00  0.00    +0.000 H 
ATOM     81  C58 UNL A   1      46.565  49.491  16.521  1.00  0.00    +0.000 C 
ATOM     82  C59 UNL A   1      45.745  48.375  16.348  1.00  0.00    +0.000 C 
ATOM    145  H40 UNL A   1      46.127  47.516  15.921  1.00  0.00    +0.000 H 
ATOM     20  C16 UNL A   1      44.408  48.416  16.752  1.00  0.00    +0.000 C 
ATOM     21  C17 UNL A   1      43.863  49.624  17.201  1.00  0.00    +0.000 C 
ATOM     22  C18 UNL A   1      44.667  50.764  17.305  1.00  0.00    +0.000 C 
ATOM     23  C19 UNL A   1      46.035  50.700  16.996  1.00  0.00    +0.000 C 
BRANCH   23   24
ATOM    134  H29 UNL A   1      49.065  58.317  13.592  1.00  0.00    +0.000 H 
ATOM    135  H30 UNL A   1      50.759  59.186  15.374  1.00  0.00    +0.000 H 
ATOM    136  H31 UNL A   1      49.242  55.561  16.679  1.00  0.00    +0.000 H 
ATOM    137  H32 UNL A   1      48.808  51.062  21.183  1.00  0.00    +0.000 H 
ATOM    138  H33 UNL A   1      47.198  50.193  19.422  1.00  0.00    +0.000 H 
ATOM    139  H34 UNL A   1      48.759  53.793  18.052  1.00  0.00    +0.000 H 
ATOM    140  H35 UNL A   1      52.033  55.307  21.561  1.00  0.00    +0.000 H 
ATOM    141  H36 UNL A   1      52.370  57.419  20.157  1.00  0.00    +0.000 H 
ATOM    142  H37 UNL A   1      46.168  53.828  13.118  1.00  0.00    +0.000 H 
ATOM    143  H38 UNL A   1      45.431  51.968  14.716  1.00  0.00    +0.000 H 
ATOM     24  C20 UNL A   1      46.914  51.891  17.149  1.00  0.00    +0.000 C 
ATOM     25  C21 UNL A   1      46.993  52.921  16.055  1.00  0.00    +0.000 C 
ATOM     26  N3  UNL A   1      47.739  53.995  15.978  1.00  0.00    +0.000 N 
ATOM     27  C22 UNL A   1      47.456  54.566  14.744  1.00  0.00    +0.000 C 
ATOM     28  C23 UNL A   1      47.923  55.725  14.218  1.00  0.00    +0.000 C 
ATOM     40  C30 UNL A   1      48.839  56.608  14.890  1.00  0.00    +0.000 C 
ATOM     41  C31 UNL A   1      49.322  57.835  14.467  1.00  0.00    +0.000 C 
ATOM     42  C32 UNL A   1      50.218  58.308  15.431  1.00  0.00    +0.000 C 
ATOM     43  C33 UNL A   1      50.258  57.400  16.476  1.00  0.00    +0.000 C 
ATOM     44  N4  UNL A   1      49.411  56.359  16.129  1.00  0.00    +0.000 N 
ATOM     45  C34 UNL A   1      51.012  57.474  17.701  1.00  0.00    +0.000 C 
ATOM     57  C41 UNL A   1      50.992  56.539  18.683  1.00  0.00    +0.000 C 
ATOM     58  N5  UNL A   1      50.273  55.353  18.743  1.00  0.00    +0.000 N 
ATOM     59  C42 UNL A   1      50.600  54.791  19.882  1.00  0.00    +0.000 C 
ATOM     60  C43 UNL A   1      50.102  53.504  20.484  1.00  0.00    +0.000 C 
ATOM     72  C50 UNL A   1      49.178  52.780  19.823  1.00  0.00    +0.000 C 
ATOM     73  C51 UNL A   1      48.595  51.525  20.286  1.00  0.00    +0.000 C 
ATOM     74  C52 UNL A   1      47.735  51.072  19.360  1.00  0.00    +0.000 C 
ATOM     75  C53 UNL A   1      47.682  52.022  18.248  1.00  0.00    +0.000 C 
ATOM     76  N6  UNL A   1      48.572  53.004  18.609  1.00  0.00    +0.000 N 
ATOM     77  C54 UNL A   1      51.589  55.548  20.661  1.00  0.00    +0.000 C 
ATOM     78  C55 UNL A   1      51.763  56.624  19.905  1.00  0.00    +0.000 C 
ATOM     79  C56 UNL A   1      46.509  53.694  14.084  1.00  0.00    +0.000 C 
ATOM     80  C57 UNL A   1      46.137  52.702  14.879  1.00  0.00    +0.000 C 
BRANCH   28   29
ATOM     33  F2  UNL A   1      45.088  58.380  11.228  1.00  0.00    +0.000 F 
ATOM     34  C27 UNL A   1      46.595  56.838  10.269  1.00  0.00    +0.000 C 
ATOM     35  F3  UNL A   1      46.181  57.176   9.040  1.00  0.00    +0.000 F 
ATOM     36  C28 UNL A   1      47.567  55.861  10.429  1.00  0.00    +0.000 C 
ATOM     37  F4  UNL A   1      48.107  55.271   9.354  1.00  0.00    +0.000 F 
ATOM     38  C29 UNL A   1      47.979  55.490  11.707  1.00  0.00    +0.000 C 
ATOM     39  F5  UNL A   1      48.909  54.531  11.830  1.00  0.00    +0.000 F 
ATOM     29  C24 UNL A   1      47.444  56.108  12.847  1.00  0.00    +0.000 C 
ATOM     30  C25 UNL A   1      46.480  57.110  12.659  1.00  0.00    +0.000 C 
ATOM     31  F1  UNL A   1      45.928  57.723  13.715  1.00  0.00    +0.000 F 
ATOM     32  C26 UNL A   1      46.047  57.457  11.381  1.00  0.00    +0.000 C 
ENDBRANCH   28   29
BRANCH   45   46
ATOM     46  C35 UNL A   1      51.869  58.686  17.922  1.00  0.00    +0.000 C 
ATOM     47  C36 UNL A   1      51.348  59.862  18.482  1.00  0.00    +0.000 C 
ATOM     48  F6  UNL A   1      50.044  59.945  18.786  1.00  0.00    +0.000 F 
ATOM     49  C37 UNL A   1      52.162  60.972  18.699  1.00  0.00    +0.000 C 
ATOM     50  F7  UNL A   1      51.634  62.099  19.193  1.00  0.00    +0.000 F 
ATOM     51  C38 UNL A   1      53.512  60.915  18.390  1.00  0.00    +0.000 C 
ATOM     52  F8  UNL A   1      54.295  61.983  18.606  1.00  0.00    +0.000 F 
ATOM     53  C39 UNL A   1      54.051  59.757  17.851  1.00  0.00    +0.000 C 
ATOM     54  F9  UNL A   1      55.359  59.697  17.565  1.00  0.00    +0.000 F 
ATOM     55  C40 UNL A   1      53.236  58.656  17.608  1.00  0.00    +0.000 C 
ATOM     56  F10 UNL A   1      53.783  57.553  17.075  1.00  0.00    +0.000 F 
ENDBRANCH   45   46
BRANCH   60   61
ATOM     65  F12 UNL A   1      53.497  51.358  23.251  1.00  0.00    +0.000 F 
ATOM     66  C47 UNL A   1      51.540  52.153  24.305  1.00  0.00    +0.000 C 
ATOM     67  F13 UNL A   1      51.984  51.719  25.492  1.00  0.00    +0.000 F 
ATOM     68  C48 UNL A   1      50.302  52.770  24.209  1.00  0.00    +0.000 C 
ATOM     69  F14 UNL A   1      49.557  52.953  25.307  1.00  0.00    +0.000 F 
ATOM     70  C49 UNL A   1      49.829  53.201  22.971  1.00  0.00    +0.000 C 
ATOM     71  F15 UNL A   1      48.622  53.782  22.905  1.00  0.00    +0.000 F 
ATOM     61  C44 UNL A   1      50.597  53.044  21.807  1.00  0.00    +0.000 C 
ATOM     62  C45 UNL A   1      51.853  52.432  21.932  1.00  0.00    +0.000 C 
ATOM     63  F11 UNL A   1      52.614  52.241  20.846  1.00  0.00    +0.000 F 
ATOM     64  C46 UNL A   1      52.313  51.978  23.167  1.00  0.00    +0.000 C 
ENDBRANCH   60   61
ENDBRANCH   23   24
ENDBRANCH   18   20
ENDBRANCH   17   18
ENDBRANCH   16   17
ENDBRANCH   15   16
ENDBRANCH   14   15
ENDBRANCH   13   14
ENDBRANCH   12   13
ENDBRANCH   11   12
ENDBRANCH   10   11
ENDBRANCH    8   10
ENDBRANCH    7    8
BRANCH   85   86
ATOM    151  H46 UNL A   1      49.351  41.798  22.458  1.00  0.00    +0.000 H 
ATOM     86  C63 UNL A   1      49.102  42.302  23.369  1.00  0.00    +0.000 C 
ATOM    150  H45 UNL A   1      49.535  43.281  23.364  1.00  0.00    +0.000 H 
ATOM    152  H47 UNL A   1      49.484  41.747  24.200  1.00  0.00    +0.000 H 
ENDBRANCH   85   86
BRANCH   91   92
ATOM     92  C69 UNL A   1      44.681  42.464  27.511  1.00  0.00    +0.000 C 
ATOM    157  H52 UNL A   1      43.680  42.632  27.847  1.00  0.00    +0.000 H 
ATOM    158  H53 UNL A   1      45.176  43.404  27.380  1.00  0.00    +0.000 H 
ATOM    159  H54 UNL A   1      45.208  41.880  28.237  1.00  0.00    +0.000 H 
ENDBRANCH   91   92
BRANCH   95   96
ATOM    165  H60 UNL A   1      40.782  38.998  27.199  1.00  0.00    +0.000 H 
ATOM     96  O3  UNL A   1      41.681  38.843  27.529  1.00  0.00    +0.000 O 
ENDBRANCH   95   96
BRANCH   97   98
ATOM     98  C74 UNL A   1      44.203  39.583  28.692  1.00  0.00    +0.000 C 
ATOM    166  H61 UNL A   1      44.241  38.656  29.227  1.00  0.00    +0.000 H 
ATOM    167  H62 UNL A   1      43.355  40.147  29.018  1.00  0.00    +0.000 H 
ATOM    168  H63 UNL A   1      45.097  40.140  28.881  1.00  0.00    +0.000 H 
ENDBRANCH   97   98
BRANCH   97   99
ATOM    169  H64 UNL A   1      43.714  37.197  27.524  1.00  0.00    +0.000 H 
ATOM    170  H65 UNL A   1      45.409  37.612  27.440  1.00  0.00    +0.000 H 
ATOM     99  C75 UNL A   1      44.443  37.795  27.018  1.00  0.00    +0.000 C 
ATOM    171  H66 UNL A   1      44.454  37.540  25.979  1.00  0.00    +0.000 H 
ENDBRANCH   97   99
BRANCH  103  104
ATOM    177  H72 UNL A   1      47.664  43.738  26.162  1.00  0.00    +0.000 H 
ATOM    178  H73 UNL A   1      49.007  42.700  25.748  1.00  0.00    +0.000 H 
ATOM    179  H74 UNL A   1      47.887  42.223  27.002  1.00  0.00    +0.000 H 
ATOM    104  C80 UNL A   1      47.984  42.722  26.061  1.00  0.00    +0.000 C 
ENDBRANCH  103  104
TORSDOF 23
ENDMDL
MODEL 9
REMARK VINA RESULT:      -8.4     27.891     33.893
ROOT
ATOM      2  C2  UNL A   1      56.477  15.849   2.667  1.00  0.00    +0.000 C 
ATOM      3  C3  UNL A   1      56.678  14.319   2.409  1.00  0.00    +0.000 C 
ATOM      5  C5  UNL A   1      56.848  13.472   3.681  1.00  0.00    +0.000 C 
ATOM      6  C6  UNL A   1      57.713  14.063   4.773  1.00  0.00    +0.000 C 
ATOM      7  C7  UNL A   1      57.716  15.594   4.940  1.00  0.00    +0.000 C 
ATOM    146  H41 UNL A   1      59.866  15.443   4.822  1.00  0.00    +0.000 H 
ATOM    147  H42 UNL A   1      59.169  15.557   6.486  1.00  0.00    +0.000 H 
ATOM    148  H43 UNL A   1      60.636  17.439   5.613  1.00  0.00    +0.000 H 
ATOM    149  H44 UNL A   1      59.079  17.749   6.474  1.00  0.00    +0.000 H 
ATOM    153  H48 UNL A   1      55.686  18.282   3.761  1.00  0.00    +0.000 H 
ATOM    154  H49 UNL A   1      55.668  19.728   5.757  1.00  0.00    +0.000 H 
ATOM    155  H50 UNL A   1      56.420  20.668   4.463  1.00  0.00    +0.000 H 
ATOM    156  H51 UNL A   1      57.894  19.156   6.628  1.00  0.00    +0.000 H 
ATOM    160  H55 UNL A   1      57.331  19.593   8.551  1.00  0.00    +0.000 H 
ATOM    161  H56 UNL A   1      55.913  20.492   7.950  1.00  0.00    +0.000 H 
ATOM    162  H57 UNL A   1      56.447  20.934  10.310  1.00  0.00    +0.000 H 
ATOM    163  H58 UNL A   1      56.452  22.357   9.245  1.00  0.00    +0.000 H 
ATOM    164  H59 UNL A   1      58.820  20.909  10.306  1.00  0.00    +0.000 H 
ATOM    172  H67 UNL A   1      59.491  20.439   8.116  1.00  0.00    +0.000 H 
ATOM    173  H68 UNL A   1      61.164  21.855   6.932  1.00  0.00    +0.000 H 
ATOM    174  H69 UNL A   1      59.876  22.397   5.891  1.00  0.00    +0.000 H 
ATOM    175  H70 UNL A   1      60.649  19.522   6.339  1.00  0.00    +0.000 H 
ATOM    176  H71 UNL A   1      61.072  20.509   4.923  1.00  0.00    +0.000 H 
ATOM    180  H75 UNL A   1      58.402  16.212   2.910  1.00  0.00    +0.000 H 
ATOM     83  C60 UNL A   1      59.166  15.917   5.479  1.00  0.00    +0.000 C 
ATOM     84  C61 UNL A   1      59.567  17.396   5.590  1.00  0.00    +0.000 C 
ATOM     85  C62 UNL A   1      59.080  18.357   4.450  1.00  0.00    +0.000 C 
ATOM     87  C64 UNL A   1      57.676  17.864   3.997  1.00  0.00    +0.000 C 
ATOM     88  C65 UNL A   1      56.559  18.587   4.219  1.00  0.00    +0.000 C 
ATOM     89  C66 UNL A   1      56.508  19.811   5.098  1.00  0.00    +0.000 C 
ATOM     90  C67 UNL A   1      57.796  19.976   5.947  1.00  0.00    +0.000 C 
ATOM     91  C68 UNL A   1      57.760  21.099   7.070  1.00  0.00    +0.000 C 
ATOM     93  C70 UNL A   1      56.930  20.547   8.277  1.00  0.00    +0.000 C 
ATOM     94  C71 UNL A   1      56.945  21.446   9.513  1.00  0.00    +0.000 C 
ATOM     95  C72 UNL A   1      58.354  21.816   9.982  1.00  0.00    +0.000 C 
ATOM     97  C73 UNL A   1      59.302  22.347   8.863  1.00  0.00    +0.000 C 
ATOM    100  C76 UNL A   1      59.203  21.354   7.642  1.00  0.00    +0.000 C 
ATOM    101  C77 UNL A   1      60.213  21.595   6.515  1.00  0.00    +0.000 C 
ATOM    102  C78 UNL A   1      60.348  20.315   5.688  1.00  0.00    +0.000 C 
ATOM    103  C79 UNL A   1      59.033  19.897   4.978  1.00  0.00    +0.000 C 
ATOM    105  C81 UNL A   1      57.601  16.376   3.599  1.00  0.00    +0.000 C 
ATOM    109  H4  UNL A   1      55.532  15.997   3.147  1.00  0.00    +0.000 H 
ATOM    110  H5  UNL A   1      57.589  14.325   1.847  1.00  0.00    +0.000 H 
ATOM    114  H9  UNL A   1      57.280  12.536   3.393  1.00  0.00    +0.000 H 
ATOM    115  H10 UNL A   1      55.868  13.398   4.105  1.00  0.00    +0.000 H 
ATOM    116  H11 UNL A   1      58.721  13.762   4.579  1.00  0.00    +0.000 H 
ATOM    117  H12 UNL A   1      57.287  13.694   5.682  1.00  0.00    +0.000 H 
ENDROOT
BRANCH    2    1
ATOM      1  C1  UNL A   1      56.452  16.628   1.341  1.00  0.00    +0.000 C 
ATOM    106  H1  UNL A   1      55.550  16.404   0.812  1.00  0.00    +0.000 H 
ATOM    107  H2  UNL A   1      57.295  16.345   0.746  1.00  0.00    +0.000 H 
ATOM    108  H3  UNL A   1      56.495  17.678   1.544  1.00  0.00    +0.000 H 
ENDBRANCH    2    1
BRANCH    3    4
ATOM    113  H8  UNL A   1      55.075  14.393   0.988  1.00  0.00    +0.000 H 
ATOM      4  C4  UNL A   1      55.556  13.657   1.598  1.00  0.00    +0.000 C 
ATOM    111  H6  UNL A   1      54.840  13.225   2.266  1.00  0.00    +0.000 H 
ATOM    112  H7  UNL A   1      55.970  12.892   0.975  1.00  0.00    +0.000 H 
ENDBRANCH    3    4
BRANCH    7    8
ATOM      9  O1  UNL A   1      57.030  16.629   7.057  1.00  0.00    +0.000 O 
ATOM      8  C8  UNL A   1      56.665  16.053   6.024  1.00  0.00    +0.000 C 
BRANCH    8   10
ATOM     10  N1  UNL A   1      55.302  15.921   5.908  1.00  0.00    +0.000 N 
ATOM    118  H13 UNL A   1      54.970  15.567   5.052  1.00  0.00    +0.000 H 
BRANCH   10   11
ATOM     11  C9  UNL A   1      54.296  16.246   6.901  1.00  0.00    +0.000 C 
ATOM    119  H14 UNL A   1      54.778  16.312   7.855  1.00  0.00    +0.000 H 
ATOM    120  H15 UNL A   1      53.563  15.468   6.855  1.00  0.00    +0.000 H 
BRANCH   11   12
ATOM    121  H16 UNL A   1      54.224  18.214   6.136  1.00  0.00    +0.000 H 
ATOM    122  H17 UNL A   1      53.241  17.878   7.625  1.00  0.00    +0.000 H 
ATOM     12  C10 UNL A   1      53.550  17.561   6.651  1.00  0.00    +0.000 C 
BRANCH   12   13
ATOM    123  H18 UNL A   1      52.529  17.504   4.802  1.00  0.00    +0.000 H 
ATOM    124  H19 UNL A   1      51.707  18.373   6.178  1.00  0.00    +0.000 H 
ATOM     13  C11 UNL A   1      52.249  17.517   5.835  1.00  0.00    +0.000 C 
BRANCH   13   14
ATOM    126  H21 UNL A   1      51.784  15.505   5.657  1.00  0.00    +0.000 H 
ATOM    125  H20 UNL A   1      51.035  16.329   7.090  1.00  0.00    +0.000 H 
ATOM     14  C12 UNL A   1      51.270  16.359   6.046  1.00  0.00    +0.000 C 
BRANCH   14   15
ATOM    127  H22 UNL A   1      49.357  15.567   5.653  1.00  0.00    +0.000 H 
ATOM     15  C13 UNL A   1      49.946  16.381   5.286  1.00  0.00    +0.000 C 
ATOM    128  H23 UNL A   1      50.232  16.325   4.256  1.00  0.00    +0.000 H 
BRANCH   15   16
ATOM    129  H24 UNL A   1      48.156  17.434   4.882  1.00  0.00    +0.000 H 
ATOM    130  H25 UNL A   1      49.645  18.417   4.902  1.00  0.00    +0.000 H 
ATOM     16  C14 UNL A   1      49.086  17.633   5.370  1.00  0.00    +0.000 C 
BRANCH   16   17
ATOM     17  N2  UNL A   1      48.803  18.080   6.717  1.00  0.00    +0.000 N 
ATOM    131  H26 UNL A   1      48.296  17.444   7.273  1.00  0.00    +0.000 H 
BRANCH   17   18
ATOM     18  C15 UNL A   1      49.140  19.265   7.336  1.00  0.00    +0.000 C 
ATOM     19  O2  UNL A   1      48.518  20.284   7.074  1.00  0.00    +0.000 O 
BRANCH   18   20
ATOM    132  H27 UNL A   1      50.834  21.250   7.792  1.00  0.00    +0.000 H 
ATOM    133  H28 UNL A   1      52.585  21.422   9.462  1.00  0.00    +0.000 H 
ATOM    144  H39 UNL A   1      51.565  17.602  10.910  1.00  0.00    +0.000 H 
ATOM     81  C58 UNL A   1      51.431  18.370  10.232  1.00  0.00    +0.000 C 
ATOM     82  C59 UNL A   1      50.487  18.237   9.213  1.00  0.00    +0.000 C 
ATOM    145  H40 UNL A   1      49.985  17.343   9.089  1.00  0.00    +0.000 H 
ATOM     20  C16 UNL A   1      50.217  19.311   8.361  1.00  0.00    +0.000 C 
ATOM     21  C17 UNL A   1      50.996  20.470   8.448  1.00  0.00    +0.000 C 
ATOM     22  C18 UNL A   1      51.995  20.575   9.423  1.00  0.00    +0.000 C 
ATOM     23  C19 UNL A   1      52.200  19.538  10.346  1.00  0.00    +0.000 C 
BRANCH   23   24
ATOM    134  H29 UNL A   1      60.385  17.622  13.196  1.00  0.00    +0.000 H 
ATOM    135  H30 UNL A   1      60.507  18.699  15.568  1.00  0.00    +0.000 H 
ATOM    136  H31 UNL A   1      56.723  19.373  14.023  1.00  0.00    +0.000 H 
ATOM    137  H32 UNL A   1      50.964  22.075  14.516  1.00  0.00    +0.000 H 
ATOM    138  H33 UNL A   1      50.832  20.979  12.229  1.00  0.00    +0.000 H 
ATOM    139  H34 UNL A   1      54.612  20.225  13.783  1.00  0.00    +0.000 H 
ATOM    140  H35 UNL A   1      54.668  22.313  18.361  1.00  0.00    +0.000 H 
ATOM    141  H36 UNL A   1      57.120  21.598  18.521  1.00  0.00    +0.000 H 
ATOM    142  H37 UNL A   1      56.471  17.090   9.567  1.00  0.00    +0.000 H 
ATOM    143  H38 UNL A   1      54.206  18.215   9.165  1.00  0.00    +0.000 H 
ATOM     24  C20 UNL A   1      53.224  19.656  11.419  1.00  0.00    +0.000 C 
ATOM     25  C21 UNL A   1      54.566  18.993  11.264  1.00  0.00    +0.000 C 
ATOM     26  N3  UNL A   1      55.565  18.934  12.108  1.00  0.00    +0.000 N 
ATOM     27  C22 UNL A   1      56.542  18.165  11.487  1.00  0.00    +0.000 C 
ATOM     28  C23 UNL A   1      57.789  17.863  11.924  1.00  0.00    +0.000 C 
ATOM     40  C30 UNL A   1      58.344  18.319  13.171  1.00  0.00    +0.000 C 
ATOM     41  C31 UNL A   1      59.619  18.120  13.673  1.00  0.00    +0.000 C 
ATOM     42  C32 UNL A   1      59.688  18.713  14.938  1.00  0.00    +0.000 C 
ATOM     43  C33 UNL A   1      58.472  19.321  15.205  1.00  0.00    +0.000 C 
ATOM     44  N4  UNL A   1      57.655  19.068  14.114  1.00  0.00    +0.000 N 
ATOM     45  C34 UNL A   1      58.083  20.077  16.367  1.00  0.00    +0.000 C 
ATOM     57  C41 UNL A   1      56.868  20.649  16.551  1.00  0.00    +0.000 C 
ATOM     58  N5  UNL A   1      55.767  20.649  15.704  1.00  0.00    +0.000 N 
ATOM     59  C42 UNL A   1      54.831  21.320  16.330  1.00  0.00    +0.000 C 
ATOM     60  C43 UNL A   1      53.438  21.661  15.871  1.00  0.00    +0.000 C 
ATOM     72  C50 UNL A   1      53.030  21.265  14.650  1.00  0.00    +0.000 C 
ATOM     73  C51 UNL A   1      51.719  21.533  14.067  1.00  0.00    +0.000 C 
ATOM     74  C52 UNL A   1      51.653  20.964  12.853  1.00  0.00    +0.000 C 
ATOM     75  C53 UNL A   1      52.931  20.316  12.557  1.00  0.00    +0.000 C 
ATOM     76  N6  UNL A   1      53.687  20.546  13.680  1.00  0.00    +0.000 N 
ATOM     77  C54 UNL A   1      55.226  21.800  17.661  1.00  0.00    +0.000 C 
ATOM     78  C55 UNL A   1      56.488  21.399  17.729  1.00  0.00    +0.000 C 
ATOM     79  C56 UNL A   1      55.995  17.735  10.218  1.00  0.00    +0.000 C 
ATOM     80  C57 UNL A   1      54.807  18.277  10.001  1.00  0.00    +0.000 C 
BRANCH   28   29
ATOM     33  F2  UNL A   1      59.369  13.483  10.392  1.00  0.00    +0.000 F 
ATOM     34  C27 UNL A   1      60.224  15.415   9.339  1.00  0.00    +0.000 C 
ATOM     35  F3  UNL A   1      60.987  14.658   8.538  1.00  0.00    +0.000 F 
ATOM     36  C28 UNL A   1      60.270  16.797   9.239  1.00  0.00    +0.000 C 
ATOM     37  F4  UNL A   1      61.063  17.376   8.327  1.00  0.00    +0.000 F 
ATOM     38  C29 UNL A   1      59.497  17.586  10.089  1.00  0.00    +0.000 C 
ATOM     39  F5  UNL A   1      59.577  18.920   9.978  1.00  0.00    +0.000 F 
ATOM     29  C24 UNL A   1      58.645  17.003  11.038  1.00  0.00    +0.000 C 
ATOM     30  C25 UNL A   1      58.596  15.603  11.105  1.00  0.00    +0.000 C 
ATOM     31  F1  UNL A   1      57.806  14.996  12.002  1.00  0.00    +0.000 F 
ATOM     32  C26 UNL A   1      59.394  14.818  10.275  1.00  0.00    +0.000 C 
ENDBRANCH   28   29
BRANCH   45   46
ATOM     46  C35 UNL A   1      59.104  20.270  17.449  1.00  0.00    +0.000 C 
ATOM     47  C36 UNL A   1      59.875  21.438  17.534  1.00  0.00    +0.000 C 
ATOM     48  F6  UNL A   1      59.751  22.398  16.605  1.00  0.00    +0.000 F 
ATOM     49  C37 UNL A   1      60.805  21.610  18.557  1.00  0.00    +0.000 C 
ATOM     50  F7  UNL A   1      61.562  22.714  18.593  1.00  0.00    +0.000 F 
ATOM     51  C38 UNL A   1      60.958  20.632  19.529  1.00  0.00    +0.000 C 
ATOM     52  F8  UNL A   1      61.849  20.802  20.516  1.00  0.00    +0.000 F 
ATOM     53  C39 UNL A   1      60.194  19.476  19.474  1.00  0.00    +0.000 C 
ATOM     54  F9  UNL A   1      60.332  18.537  20.420  1.00  0.00    +0.000 F 
ATOM     55  C40 UNL A   1      59.284  19.290  18.438  1.00  0.00    +0.000 C 
ATOM     56  F10 UNL A   1      58.567  18.157  18.405  1.00  0.00    +0.000 F 
ENDBRANCH   45   46
BRANCH   60   61
ATOM     65  F12 UNL A   1      51.431  25.906  17.190  1.00  0.00    +0.000 F 
ATOM     66  C47 UNL A   1      50.815  23.964  18.383  1.00  0.00    +0.000 C 
ATOM     67  F13 UNL A   1      50.008  24.686  19.173  1.00  0.00    +0.000 F 
ATOM     68  C48 UNL A   1      50.943  22.598  18.582  1.00  0.00    +0.000 C 
ATOM     69  F14 UNL A   1      50.243  21.994  19.552  1.00  0.00    +0.000 F 
ATOM     70  C49 UNL A   1      51.799  21.850  17.777  1.00  0.00    +0.000 C 
ATOM     71  F15 UNL A   1      51.914  20.533  18.001  1.00  0.00    +0.000 F 
ATOM     61  C44 UNL A   1      52.526  22.451  16.738  1.00  0.00    +0.000 C 
ATOM     62  C45 UNL A   1      52.367  23.832  16.545  1.00  0.00    +0.000 C 
ATOM     63  F11 UNL A   1      53.056  24.455  15.580  1.00  0.00    +0.000 F 
ATOM     64  C46 UNL A   1      51.531  24.583  17.369  1.00  0.00    +0.000 C 
ENDBRANCH   60   61
ENDBRANCH   23   24
ENDBRANCH   18   20
ENDBRANCH   17   18
ENDBRANCH   16   17
ENDBRANCH   15   16
ENDBRANCH   14   15
ENDBRANCH   13   14
ENDBRANCH   12   13
ENDBRANCH   11   12
ENDBRANCH   10   11
ENDBRANCH    8   10
ENDBRANCH    7    8
BRANCH   85   86
ATOM    151  H46 UNL A   1      61.078  18.176   3.649  1.00  0.00    +0.000 H 
ATOM     86  C63 UNL A   1      60.080  18.244   3.268  1.00  0.00    +0.000 C 
ATOM    150  H45 UNL A   1      59.858  17.368   2.694  1.00  0.00    +0.000 H 
ATOM    152  H47 UNL A   1      59.995  19.110   2.645  1.00  0.00    +0.000 H 
ENDBRANCH   85   86
BRANCH   91   92
ATOM     92  C69 UNL A   1      57.056  22.360   6.531  1.00  0.00    +0.000 C 
ATOM    157  H52 UNL A   1      56.017  22.323   6.783  1.00  0.00    +0.000 H 
ATOM    158  H53 UNL A   1      57.165  22.401   5.467  1.00  0.00    +0.000 H 
ATOM    159  H54 UNL A   1      57.499  23.230   6.970  1.00  0.00    +0.000 H 
ENDBRANCH   91   92
BRANCH   95   96
ATOM    165  H60 UNL A   1      58.159  23.643  10.709  1.00  0.00    +0.000 H 
ATOM     96  O3  UNL A   1      58.253  22.744  11.062  1.00  0.00    +0.000 O 
ENDBRANCH   95   96
BRANCH   97   98
ATOM     98  C74 UNL A   1      59.021  23.823   8.511  1.00  0.00    +0.000 C 
ATOM    166  H61 UNL A   1      59.318  24.011   7.500  1.00  0.00    +0.000 H 
ATOM    167  H62 UNL A   1      59.576  24.458   9.169  1.00  0.00    +0.000 H 
ATOM    168  H63 UNL A   1      57.976  24.022   8.619  1.00  0.00    +0.000 H 
ENDBRANCH   97   98
BRANCH   97   99
ATOM    169  H64 UNL A   1      61.227  23.264   9.226  1.00  0.00    +0.000 H 
ATOM    170  H65 UNL A   1      61.300  21.532   9.008  1.00  0.00    +0.000 H 
ATOM     99  C75 UNL A   1      60.745  22.334   9.446  1.00  0.00    +0.000 C 
ATOM    171  H66 UNL A   1      60.700  22.199  10.507  1.00  0.00    +0.000 H 
ENDBRANCH   97   99
BRANCH  103  104
ATOM    177  H72 UNL A   1      59.797  20.929   3.231  1.00  0.00    +0.000 H 
ATOM    178  H73 UNL A   1      58.631  21.857   4.144  1.00  0.00    +0.000 H 
ATOM    179  H74 UNL A   1      58.098  20.538   3.131  1.00  0.00    +0.000 H 
ATOM    104  C80 UNL A   1      58.877  20.884   3.777  1.00  0.00    +0.000 C 
ENDBRANCH  103  104
TORSDOF 23
ENDMDL
MODEL 10
REMARK VINA RESULT:      -8.4     48.925     56.468
ROOT
ATOM      2  C2  UNL A   1      12.461   2.080  27.014  1.00  0.00    +0.000 C 
ATOM      3  C3  UNL A   1      13.833   2.329  27.723  1.00  0.00    +0.000 C 
ATOM      5  C5  UNL A   1      15.023   1.584  27.097  1.00  0.00    +0.000 C 
ATOM      6  C6  UNL A   1      14.770   0.157  26.661  1.00  0.00    +0.000 C 
ATOM      7  C7  UNL A   1      13.364  -0.199  26.144  1.00  0.00    +0.000 C 
ATOM    146  H41 UNL A   1      13.412  -1.800  27.591  1.00  0.00    +0.000 H 
ATOM    147  H42 UNL A   1      13.831  -2.254  25.892  1.00  0.00    +0.000 H 
ATOM    148  H43 UNL A   1      11.732  -3.209  26.960  1.00  0.00    +0.000 H 
ATOM    149  H44 UNL A   1      11.744  -2.542  25.282  1.00  0.00    +0.000 H 
ATOM    153  H48 UNL A   1      10.501   1.651  25.086  1.00  0.00    +0.000 H 
ATOM    154  H49 UNL A   1       9.736   0.243  23.213  1.00  0.00    +0.000 H 
ATOM    155  H50 UNL A   1       8.425   0.259  24.398  1.00  0.00    +0.000 H 
ATOM    156  H51 UNL A   1      10.484  -1.933  24.077  1.00  0.00    +0.000 H 
ATOM    160  H55 UNL A   1      10.671  -2.699  22.184  1.00  0.00    +0.000 H 
ATOM    161  H56 UNL A   1       9.671  -1.375  21.530  1.00  0.00    +0.000 H 
ATOM    162  H57 UNL A   1       9.957  -3.265  19.984  1.00  0.00    +0.000 H 
ATOM    163  H58 UNL A   1       8.277  -2.878  20.415  1.00  0.00    +0.000 H 
ATOM    164  H59 UNL A   1       9.913  -5.131  21.450  1.00  0.00    +0.000 H 
ATOM    172  H67 UNL A   1       9.674  -4.287  23.617  1.00  0.00    +0.000 H 
ATOM    173  H68 UNL A   1       7.918  -5.142  25.163  1.00  0.00    +0.000 H 
ATOM    174  H69 UNL A   1       7.120  -3.600  25.010  1.00  0.00    +0.000 H 
ATOM    175  H70 UNL A   1       9.972  -3.996  25.890  1.00  0.00    +0.000 H 
ATOM    176  H71 UNL A   1       8.588  -3.657  26.952  1.00  0.00    +0.000 H 
ATOM    180  H75 UNL A   1      12.136   0.357  27.921  1.00  0.00    +0.000 H 
ATOM     83  C60 UNL A   1      13.181  -1.715  26.549  1.00  0.00    +0.000 C 
ATOM     84  C61 UNL A   1      11.796  -2.344  26.332  1.00  0.00    +0.000 C 
ATOM     85  C62 UNL A   1      10.547  -1.447  26.636  1.00  0.00    +0.000 C 
ATOM     87  C64 UNL A   1      10.917   0.012  26.239  1.00  0.00    +0.000 C 
ATOM     88  C65 UNL A   1      10.328   0.640  25.201  1.00  0.00    +0.000 C 
ATOM     89  C66 UNL A   1       9.432  -0.043  24.199  1.00  0.00    +0.000 C 
ATOM     90  C67 UNL A   1       9.499  -1.589  24.313  1.00  0.00    +0.000 C 
ATOM     91  C68 UNL A   1       8.774  -2.412  23.165  1.00  0.00    +0.000 C 
ATOM     93  C70 UNL A   1       9.691  -2.380  21.897  1.00  0.00    +0.000 C 
ATOM     94  C71 UNL A   1       9.212  -3.273  20.753  1.00  0.00    +0.000 C 
ATOM     95  C72 UNL A   1       8.964  -4.723  21.172  1.00  0.00    +0.000 C 
ATOM     97  C73 UNL A   1       8.091  -4.898  22.453  1.00  0.00    +0.000 C 
ATOM    100  C76 UNL A   1       8.666  -3.932  23.558  1.00  0.00    +0.000 C 
ATOM    101  C77 UNL A   1       8.063  -4.102  24.958  1.00  0.00    +0.000 C 
ATOM    102  C78 UNL A   1       9.026  -3.506  25.987  1.00  0.00    +0.000 C 
ATOM    103  C79 UNL A   1       9.243  -1.979  25.816  1.00  0.00    +0.000 C 
ATOM    105  C81 UNL A   1      12.213   0.554  26.873  1.00  0.00    +0.000 C 
ATOM    109  H4  UNL A   1      12.494   2.517  26.038  1.00  0.00    +0.000 H 
ATOM    110  H5  UNL A   1      13.631   1.942  28.701  1.00  0.00    +0.000 H 
ATOM    114  H9  UNL A   1      15.814   1.570  27.818  1.00  0.00    +0.000 H 
ATOM    115  H10 UNL A   1      15.251   2.119  26.198  1.00  0.00    +0.000 H 
ATOM    116  H11 UNL A   1      14.970  -0.473  27.502  1.00  0.00    +0.000 H 
ATOM    117  H12 UNL A   1      15.412   0.017  25.816  1.00  0.00    +0.000 H 
ENDROOT
BRANCH    2    1
ATOM      1  C1  UNL A   1      11.315   2.754  27.787  1.00  0.00    +0.000 C 
ATOM    106  H1  UNL A   1      11.171   3.747  27.417  1.00  0.00    +0.000 H 
ATOM    107  H2  UNL A   1      11.563   2.793  28.828  1.00  0.00    +0.000 H 
ATOM    108  H3  UNL A   1      10.416   2.189  27.655  1.00  0.00    +0.000 H 
ENDBRANCH    2    1
BRANCH    3    4
ATOM    113  H8  UNL A   1      13.507   4.351  28.356  1.00  0.00    +0.000 H 
ATOM      4  C4  UNL A   1      14.247   3.804  27.810  1.00  0.00    +0.000 C 
ATOM    111  H6  UNL A   1      14.332   4.209  26.823  1.00  0.00    +0.000 H 
ATOM    112  H7  UNL A   1      15.189   3.882  28.311  1.00  0.00    +0.000 H 
ENDBRANCH    3    4
BRANCH    7    8
ATOM      9  O1  UNL A   1      13.158  -1.100  23.870  1.00  0.00    +0.000 O 
ATOM      8  C8  UNL A   1      13.288  -0.088  24.572  1.00  0.00    +0.000 C 
BRANCH    8   10
ATOM     10  N1  UNL A   1      13.294   1.088  23.862  1.00  0.00    +0.000 N 
ATOM    118  H13 UNL A   1      13.330   1.917  24.392  1.00  0.00    +0.000 H 
BRANCH   10   11
ATOM     11  C9  UNL A   1      13.252   1.251  22.421  1.00  0.00    +0.000 C 
ATOM    119  H14 UNL A   1      13.669   0.371  21.975  1.00  0.00    +0.000 H 
ATOM    120  H15 UNL A   1      13.809   2.137  22.200  1.00  0.00    +0.000 H 
BRANCH   11   12
ATOM    121  H16 UNL A   1      11.734   2.513  21.668  1.00  0.00    +0.000 H 
ATOM    122  H17 UNL A   1      11.195   1.032  22.570  1.00  0.00    +0.000 H 
ATOM     12  C10 UNL A   1      11.850   1.463  21.841  1.00  0.00    +0.000 C 
BRANCH   12   13
ATOM    123  H18 UNL A   1      10.417   0.710  20.484  1.00  0.00    +0.000 H 
ATOM    124  H19 UNL A   1      11.997  -0.192  20.608  1.00  0.00    +0.000 H 
ATOM     13  C11 UNL A   1      11.485   0.744  20.533  1.00  0.00    +0.000 C 
BRANCH   13   14
ATOM    126  H21 UNL A   1      12.862   0.758  18.983  1.00  0.00    +0.000 H 
ATOM    125  H20 UNL A   1      11.175   1.217  18.498  1.00  0.00    +0.000 H 
ATOM     14  C12 UNL A   1      11.976   1.318  19.200  1.00  0.00    +0.000 C 
BRANCH   14   15
ATOM    127  H22 UNL A   1      13.406   2.790  18.720  1.00  0.00    +0.000 H 
ATOM     15  C13 UNL A   1      12.431   2.774  19.162  1.00  0.00    +0.000 C 
ATOM    128  H23 UNL A   1      12.374   3.096  20.182  1.00  0.00    +0.000 H 
BRANCH   15   16
ATOM    129  H24 UNL A   1      11.087   4.408  19.116  1.00  0.00    +0.000 H 
ATOM    130  H25 UNL A   1      10.893   3.207  17.809  1.00  0.00    +0.000 H 
ATOM     16  C14 UNL A   1      11.576   3.778  18.403  1.00  0.00    +0.000 C 
BRANCH   16   17
ATOM     17  N2  UNL A   1      12.311   4.621  17.485  1.00  0.00    +0.000 N 
ATOM    131  H26 UNL A   1      12.107   4.482  16.532  1.00  0.00    +0.000 H 
BRANCH   17   18
ATOM     18  C15 UNL A   1      13.255   5.591  17.750  1.00  0.00    +0.000 C 
ATOM     19  O2  UNL A   1      14.420   5.407  17.429  1.00  0.00    +0.000 O 
BRANCH   18   20
ATOM    132  H27 UNL A   1      14.839   7.311  18.995  1.00  0.00    +0.000 H 
ATOM    133  H28 UNL A   1      14.295   9.450  20.000  1.00  0.00    +0.000 H 
ATOM    144  H39 UNL A   1      10.277   8.961  18.841  1.00  0.00    +0.000 H 
ATOM     81  C58 UNL A   1      11.244   8.603  18.900  1.00  0.00    +0.000 C 
ATOM     82  C59 UNL A   1      11.543   7.333  18.403  1.00  0.00    +0.000 C 
ATOM    145  H40 UNL A   1      10.785   6.724  18.056  1.00  0.00    +0.000 H 
ATOM     20  C16 UNL A   1      12.865   6.884  18.374  1.00  0.00    +0.000 C 
ATOM     21  C17 UNL A   1      13.868   7.657  18.971  1.00  0.00    +0.000 C 
ATOM     22  C18 UNL A   1      13.556   8.899  19.536  1.00  0.00    +0.000 C 
ATOM     23  C19 UNL A   1      12.246   9.398  19.476  1.00  0.00    +0.000 C 
BRANCH   23   24
ATOM    134  H29 UNL A   1      11.008  18.064  18.002  1.00  0.00    +0.000 H 
ATOM    135  H30 UNL A   1      10.448  19.040  20.355  1.00  0.00    +0.000 H 
ATOM    136  H31 UNL A   1      11.166  14.982  20.766  1.00  0.00    +0.000 H 
ATOM    137  H32 UNL A   1      11.309   9.747  24.411  1.00  0.00    +0.000 H 
ATOM    138  H33 UNL A   1      11.905   8.809  22.128  1.00  0.00    +0.000 H 
ATOM    139  H34 UNL A   1      11.262  12.893  21.696  1.00  0.00    +0.000 H 
ATOM    140  H35 UNL A   1      10.250  14.630  26.309  1.00  0.00    +0.000 H 
ATOM    141  H36 UNL A   1       9.873  16.919  25.229  1.00  0.00    +0.000 H 
ATOM    142  H37 UNL A   1      12.456  13.201  16.261  1.00  0.00    +0.000 H 
ATOM    143  H38 UNL A   1      12.345  10.827  17.214  1.00  0.00    +0.000 H 
ATOM     24  C20 UNL A   1      11.909  10.738  20.028  1.00  0.00    +0.000 C 
ATOM     25  C21 UNL A   1      11.899  11.948  19.134  1.00  0.00    +0.000 C 
ATOM     26  N3  UNL A   1      11.685  13.204  19.436  1.00  0.00    +0.000 N 
ATOM     27  C22 UNL A   1      11.836  13.912  18.250  1.00  0.00    +0.000 C 
ATOM     28  C23 UNL A   1      11.655  15.236  18.024  1.00  0.00    +0.000 C 
ATOM     40  C30 UNL A   1      11.251  16.183  19.030  1.00  0.00    +0.000 C 
ATOM     41  C31 UNL A   1      10.981  17.533  18.886  1.00  0.00    +0.000 C 
ATOM     42  C32 UNL A   1      10.665  18.053  20.145  1.00  0.00    +0.000 C 
ATOM     43  C33 UNL A   1      10.692  17.018  21.066  1.00  0.00    +0.000 C 
ATOM     44  N4  UNL A   1      11.058  15.877  20.370  1.00  0.00    +0.000 N 
ATOM     45  C34 UNL A   1      10.406  17.065  22.477  1.00  0.00    +0.000 C 
ATOM     57  C41 UNL A   1      10.450  15.999  23.314  1.00  0.00    +0.000 C 
ATOM     58  N5  UNL A   1      10.757  14.676  23.026  1.00  0.00    +0.000 N 
ATOM     59  C42 UNL A   1      10.678  14.031  24.165  1.00  0.00    +0.000 C 
ATOM     60  C43 UNL A   1      10.881  12.566  24.444  1.00  0.00    +0.000 C 
ATOM     72  C50 UNL A   1      11.175  11.735  23.425  1.00  0.00    +0.000 C 
ATOM     73  C51 UNL A   1      11.384  10.295  23.540  1.00  0.00    +0.000 C 
ATOM     74  C52 UNL A   1      11.688   9.797  22.330  1.00  0.00    +0.000 C 
ATOM     75  C53 UNL A   1      11.663  10.880  21.346  1.00  0.00    +0.000 C 
ATOM     76  N6  UNL A   1      11.351  11.993  22.086  1.00  0.00    +0.000 N 
ATOM     77  C54 UNL A   1      10.336  14.883  25.312  1.00  0.00    +0.000 C 
ATOM     78  C55 UNL A   1      10.168  16.063  24.733  1.00  0.00    +0.000 C 
ATOM     79  C56 UNL A   1      12.209  12.954  17.233  1.00  0.00    +0.000 C 
ATOM     80  C57 UNL A   1      12.192  11.718  17.710  1.00  0.00    +0.000 C 
BRANCH   28   29
ATOM     33  F2  UNL A   1      10.035  16.530  13.583  1.00  0.00    +0.000 F 
ATOM     34  C27 UNL A   1      12.343  16.725  14.036  1.00  0.00    +0.000 C 
ATOM     35  F3  UNL A   1      12.562  17.182  12.795  1.00  0.00    +0.000 F 
ATOM     36  C28 UNL A   1      13.404  16.565  14.914  1.00  0.00    +0.000 C 
ATOM     37  F4  UNL A   1      14.647  16.888  14.529  1.00  0.00    +0.000 F 
ATOM     38  C29 UNL A   1      13.181  16.065  16.195  1.00  0.00    +0.000 C 
ATOM     39  F5  UNL A   1      14.230  15.907  17.016  1.00  0.00    +0.000 F 
ATOM     29  C24 UNL A   1      11.887  15.739  16.628  1.00  0.00    +0.000 C 
ATOM     30  C25 UNL A   1      10.827  15.932  15.730  1.00  0.00    +0.000 C 
ATOM     31  F1  UNL A   1       9.572  15.626  16.091  1.00  0.00    +0.000 F 
ATOM     32  C26 UNL A   1      11.057  16.403  14.439  1.00  0.00    +0.000 C 
ENDBRANCH   28   29
BRANCH   45   46
ATOM     46  C35 UNL A   1      10.006  18.385  23.065  1.00  0.00    +0.000 C 
ATOM     47  C36 UNL A   1       8.660  18.721  23.272  1.00  0.00    +0.000 C 
ATOM     48  F6  UNL A   1       7.688  17.878  22.893  1.00  0.00    +0.000 F 
ATOM     49  C37 UNL A   1       8.306  19.944  23.838  1.00  0.00    +0.000 C 
ATOM     50  F7  UNL A   1       7.014  20.263  23.985  1.00  0.00    +0.000 F 
ATOM     51  C38 UNL A   1       9.290  20.837  24.235  1.00  0.00    +0.000 C 
ATOM     52  F8  UNL A   1       8.948  22.011  24.786  1.00  0.00    +0.000 F 
ATOM     53  C39 UNL A   1      10.628  20.518  24.056  1.00  0.00    +0.000 C 
ATOM     54  F9  UNL A   1      11.579  21.375  24.452  1.00  0.00    +0.000 F 
ATOM     55  C40 UNL A   1      10.983  19.309  23.466  1.00  0.00    +0.000 C 
ATOM     56  F10 UNL A   1      12.285  19.033  23.295  1.00  0.00    +0.000 F 
ENDBRANCH   45   46
BRANCH   60   61
ATOM     65  F12 UNL A   1      12.806  11.130  28.689  1.00  0.00    +0.000 F 
ATOM     66  C47 UNL A   1      10.464  10.992  28.425  1.00  0.00    +0.000 C 
ATOM     67  F13 UNL A   1      10.338  10.490  29.660  1.00  0.00    +0.000 F 
ATOM     68  C48 UNL A   1       9.342  11.172  27.629  1.00  0.00    +0.000 C 
ATOM     69  F14 UNL A   1       8.128  10.862  28.103  1.00  0.00    +0.000 F 
ATOM     70  C49 UNL A   1       9.475  11.672  26.335  1.00  0.00    +0.000 C 
ATOM     71  F15 UNL A   1       8.375  11.822  25.582  1.00  0.00    +0.000 F 
ATOM     61  C44 UNL A   1      10.731  12.027  25.820  1.00  0.00    +0.000 C 
ATOM     62  C45 UNL A   1      11.848  11.853  26.650  1.00  0.00    +0.000 C 
ATOM     63  F11 UNL A   1      13.072  12.157  26.195  1.00  0.00    +0.000 F 
ATOM     64  C46 UNL A   1      11.717  11.327  27.934  1.00  0.00    +0.000 C 
ENDBRANCH   60   61
ENDBRANCH   23   24
ENDBRANCH   18   20
ENDBRANCH   17   18
ENDBRANCH   16   17
ENDBRANCH   15   16
ENDBRANCH   14   15
ENDBRANCH   13   14
ENDBRANCH   12   13
ENDBRANCH   11   12
ENDBRANCH   10   11
ENDBRANCH    8   10
ENDBRANCH    7    8
BRANCH   85   86
ATOM    151  H46 UNL A   1      11.182  -1.686  28.686  1.00  0.00    +0.000 H 
ATOM     86  C63 UNL A   1      10.265  -1.517  28.161  1.00  0.00    +0.000 C 
ATOM    150  H45 UNL A   1       9.833  -0.593  28.487  1.00  0.00    +0.000 H 
ATOM    152  H47 UNL A   1       9.586  -2.319  28.362  1.00  0.00    +0.000 H 
ENDBRANCH   85   86
BRANCH   91   92
ATOM     92  C69 UNL A   1       7.429  -1.749  22.811  1.00  0.00    +0.000 C 
ATOM    157  H52 UNL A   1       7.610  -0.830  22.294  1.00  0.00    +0.000 H 
ATOM    158  H53 UNL A   1       6.881  -1.552  23.708  1.00  0.00    +0.000 H 
ATOM    159  H54 UNL A   1       6.862  -2.405  22.183  1.00  0.00    +0.000 H 
ENDBRANCH   91   92
BRANCH   95   96
ATOM    165  H60 UNL A   1       8.345  -6.379  20.289  1.00  0.00    +0.000 H 
ATOM     96  O3  UNL A   1       8.414  -5.437  20.065  1.00  0.00    +0.000 O 
ENDBRANCH   95   96
BRANCH   97   98
ATOM     98  C74 UNL A   1       6.586  -4.715  22.163  1.00  0.00    +0.000 C 
ATOM    166  H61 UNL A   1       6.031  -5.478  22.668  1.00  0.00    +0.000 H 
ATOM    167  H62 UNL A   1       6.415  -4.787  21.110  1.00  0.00    +0.000 H 
ATOM    168  H63 UNL A   1       6.270  -3.754  22.512  1.00  0.00    +0.000 H 
ENDBRANCH   97   98
BRANCH   97   99
ATOM    169  H64 UNL A   1       7.385  -6.937  22.591  1.00  0.00    +0.000 H 
ATOM    170  H65 UNL A   1       8.319  -6.419  23.972  1.00  0.00    +0.000 H 
ATOM     99  C75 UNL A   1       8.241  -6.379  22.906  1.00  0.00    +0.000 C 
ATOM    171  H66 UNL A   1       9.122  -6.799  22.468  1.00  0.00    +0.000 H 
ENDBRANCH   97   99
BRANCH  103  104
ATOM    177  H72 UNL A   1       7.873  -1.474  27.419  1.00  0.00    +0.000 H 
ATOM    178  H73 UNL A   1       7.090  -1.737  25.879  1.00  0.00    +0.000 H 
ATOM    179  H74 UNL A   1       7.973  -0.258  26.169  1.00  0.00    +0.000 H 
ATOM    104  C80 UNL A   1       7.942  -1.309  26.363  1.00  0.00    +0.000 C 
ENDBRANCH  103  104
TORSDOF 23
ENDMDL
