MODEL 1
REMARK VINA RESULT:     -10.5      0.000      0.000
ROOT
ATOM     21  C16 UNL A   1      41.857  26.145  27.371  1.00  0.00    +0.000 C 
ATOM     22  C17 UNL A   1      41.152  27.194  28.185  1.00  0.00    +0.000 C 
ATOM     23  N4  UNL A   1      41.549  28.400  28.505  1.00  0.00    +0.000 N 
ATOM     24  C18 UNL A   1      40.503  28.962  29.226  1.00  0.00    +0.000 C 
ATOM     25  C19 UNL A   1      40.446  30.175  29.825  1.00  0.00    +0.000 C 
ATOM     37  C26 UNL A   1      41.519  31.134  29.819  1.00  0.00    +0.000 C 
ATOM     38  C27 UNL A   1      41.582  32.365  30.448  1.00  0.00    +0.000 C 
ATOM     39  C28 UNL A   1      42.806  32.960  30.126  1.00  0.00    +0.000 C 
ATOM     40  C29 UNL A   1      43.525  32.080  29.332  1.00  0.00    +0.000 C 
ATOM     41  N5  UNL A   1      42.721  30.966  29.148  1.00  0.00    +0.000 N 
ATOM     42  C30 UNL A   1      44.845  32.244  28.780  1.00  0.00    +0.000 C 
ATOM     54  C37 UNL A   1      45.488  31.326  28.017  1.00  0.00    +0.000 C 
ATOM     55  N6  UNL A   1      45.055  30.072  27.610  1.00  0.00    +0.000 N 
ATOM     56  C38 UNL A   1      46.025  29.575  26.881  1.00  0.00    +0.000 C 
ATOM     57  C39 UNL A   1      46.112  28.234  26.204  1.00  0.00    +0.000 C 
ATOM     69  C46 UNL A   1      45.095  27.362  26.336  1.00  0.00    +0.000 C 
ATOM     70  C47 UNL A   1      45.040  26.029  25.745  1.00  0.00    +0.000 C 
ATOM     71  C48 UNL A   1      43.860  25.464  26.047  1.00  0.00    +0.000 C 
ATOM     72  C49 UNL A   1      43.089  26.385  26.884  1.00  0.00    +0.000 C 
ATOM     73  N7  UNL A   1      43.905  27.480  27.011  1.00  0.00    +0.000 N 
ATOM     74  C50 UNL A   1      47.176  30.474  26.720  1.00  0.00    +0.000 C 
ATOM     75  C51 UNL A   1      46.814  31.510  27.462  1.00  0.00    +0.000 C 
ATOM     76  C52 UNL A   1      39.435  27.984  29.256  1.00  0.00    +0.000 C 
ATOM     77  C53 UNL A   1      39.811  26.850  28.683  1.00  0.00    +0.000 C 
ATOM    113  H21 UNL A   1      40.851  32.774  31.051  1.00  0.00    +0.000 H 
ATOM    114  H22 UNL A   1      43.122  33.895  30.428  1.00  0.00    +0.000 H 
ATOM    115  H23 UNL A   1      42.967  30.173  28.619  1.00  0.00    +0.000 H 
ATOM    116  H24 UNL A   1      45.789  25.590  25.185  1.00  0.00    +0.000 H 
ATOM    117  H25 UNL A   1      43.546  24.530  25.739  1.00  0.00    +0.000 H 
ATOM    118  H26 UNL A   1      43.661  28.276  27.536  1.00  0.00    +0.000 H 
ATOM    119  H27 UNL A   1      48.039  30.335  26.171  1.00  0.00    +0.000 H 
ATOM    120  H28 UNL A   1      47.402  32.342  27.626  1.00  0.00    +0.000 H 
ATOM    121  H29 UNL A   1      38.504  28.150  29.669  1.00  0.00    +0.000 H 
ATOM    122  H30 UNL A   1      39.297  25.958  28.607  1.00  0.00    +0.000 H 
ENDROOT
BRANCH   21   20
ATOM     78  C54 UNL A   1      41.716  23.657  27.481  1.00  0.00    +0.000 C 
ATOM    111  H19 UNL A   1      38.445  23.652  25.493  1.00  0.00    +0.000 H 
ATOM     79  C55 UNL A   1      41.093  22.451  27.168  1.00  0.00    +0.000 C 
ATOM     17  C12 UNL A   1      39.869  22.454  26.493  1.00  0.00    +0.000 C 
ATOM     18  C13 UNL A   1      39.328  23.655  26.028  1.00  0.00    +0.000 C 
ATOM     19  C14 UNL A   1      39.987  24.859  26.286  1.00  0.00    +0.000 C 
ATOM    112  H20 UNL A   1      39.600  25.744  25.921  1.00  0.00    +0.000 H 
ATOM     20  C15 UNL A   1      41.171  24.872  27.040  1.00  0.00    +0.000 C 
ATOM    123  H31 UNL A   1      42.583  23.657  28.041  1.00  0.00    +0.000 H 
ATOM    124  H32 UNL A   1      41.535  21.557  27.434  1.00  0.00    +0.000 H 
BRANCH   17   15
ATOM     15  C11 UNL A   1      39.141  21.193  26.229  1.00  0.00    +0.000 C 
ATOM     16  O2  UNL A   1      39.738  20.122  26.286  1.00  0.00    +0.000 O 
BRANCH   15   14
ATOM    110  H18 UNL A   1      37.195  21.341  26.672  1.00  0.00    +0.000 H 
ATOM     14  N3  UNL A   1      37.807  21.220  25.911  1.00  0.00    +0.000 N 
BRANCH   14   13
ATOM    109  H17 UNL A   1      36.210  20.637  24.757  1.00  0.00    +0.000 H 
ATOM    108  H16 UNL A   1      37.787  20.503  23.973  1.00  0.00    +0.000 H 
ATOM     13  C10 UNL A   1      37.165  21.097  24.611  1.00  0.00    +0.000 C 
BRANCH   13   12
ATOM    106  H14 UNL A   1      37.743  23.101  24.239  1.00  0.00    +0.000 H 
ATOM    107  H15 UNL A   1      36.898  22.277  22.898  1.00  0.00    +0.000 H 
ATOM     12  C9  UNL A   1      36.939  22.455  23.953  1.00  0.00    +0.000 C 
BRANCH   12   11
ATOM    105  H13 UNL A   1      34.886  22.359  24.375  1.00  0.00    +0.000 H 
ATOM     11  C8  UNL A   1      35.621  23.136  24.331  1.00  0.00    +0.000 C 
ATOM    104  H12 UNL A   1      35.410  23.881  23.591  1.00  0.00    +0.000 H 
BRANCH   11   10
ATOM     10  C7  UNL A   1      35.607  23.814  25.706  1.00  0.00    +0.000 C 
ATOM    102  H10 UNL A   1      36.528  23.582  26.199  1.00  0.00    +0.000 H 
ATOM    103  H11 UNL A   1      35.475  24.859  25.522  1.00  0.00    +0.000 H 
BRANCH   10    9
ATOM      9  C6  UNL A   1      34.455  23.392  26.628  1.00  0.00    +0.000 C 
ATOM    100  H8  UNL A   1      34.454  24.033  27.485  1.00  0.00    +0.000 H 
ATOM    101  H9  UNL A   1      33.552  23.473  26.059  1.00  0.00    +0.000 H 
BRANCH    9    8
ATOM     98  H6  UNL A   1      35.451  21.508  26.713  1.00  0.00    +0.000 H 
ATOM     99  H7  UNL A   1      34.573  21.945  28.178  1.00  0.00    +0.000 H 
ATOM      8  C5  UNL A   1      34.556  21.943  27.108  1.00  0.00    +0.000 C 
BRANCH    8    7
ATOM     97  H5  UNL A   1      32.746  20.967  27.365  1.00  0.00    +0.000 H 
ATOM      7  N2  UNL A   1      33.420  21.157  26.673  1.00  0.00    +0.000 N 
BRANCH    7    5
ATOM      5  C4  UNL A   1      33.156  20.643  25.436  1.00  0.00    +0.000 C 
ATOM      6  O1  UNL A   1      33.974  19.862  24.946  1.00  0.00    +0.000 O 
BRANCH    5    4
ATOM      4  C3  UNL A   1      31.931  21.091  24.654  1.00  0.00    +0.000 C 
ATOM     95  H3  UNL A   1      31.737  20.362  23.895  1.00  0.00    +0.000 H 
ATOM     96  H4  UNL A   1      31.138  21.185  25.365  1.00  0.00    +0.000 H 
BRANCH    4    3
ATOM      2  C1  UNL A   1      31.545  23.655  24.530  1.00  0.00    +0.000 C 
ATOM      3  C2  UNL A   1      32.062  22.448  23.981  1.00  0.00    +0.000 C 
ATOM     80  C56 UNL A   1      32.708  22.466  22.729  1.00  0.00    +0.000 C 
ATOM     81  C57 UNL A   1      32.842  23.646  22.011  1.00  0.00    +0.000 C 
ATOM     82  C58 UNL A   1      32.336  24.828  22.536  1.00  0.00    +0.000 C 
ATOM     83  C59 UNL A   1      31.694  24.861  23.791  1.00  0.00    +0.000 C 
ATOM    125  H33 UNL A   1      33.086  21.589  22.340  1.00  0.00    +0.000 H 
ATOM    126  H34 UNL A   1      33.313  23.644  21.093  1.00  0.00    +0.000 H 
ATOM    127  H35 UNL A   1      32.432  25.703  21.996  1.00  0.00    +0.000 H 
BRANCH    2    1
ATOM      1  N1  UNL A   1      30.971  23.639  25.809  1.00  0.00    +0.000 N 
ATOM     93  H1  UNL A   1      30.059  23.288  25.935  1.00  0.00    +0.000 H 
ATOM     94  H2  UNL A   1      31.479  23.979  26.581  1.00  0.00    +0.000 H 
ENDBRANCH    2    1
BRANCH   83   84
ATOM     84  C60 UNL A   1      31.163  26.214  24.178  1.00  0.00    +0.000 C 
ATOM     85  O3  UNL A   1      29.980  26.494  23.980  1.00  0.00    +0.000 O 
BRANCH   84   86
ATOM    129  H37 UNL A   1      31.749  30.486  25.693  1.00  0.00    +0.000 H 
ATOM    130  H38 UNL A   1      34.677  27.669  26.792  1.00  0.00    +0.000 H 
ATOM    131  H39 UNL A   1      33.547  25.967  25.465  1.00  0.00    +0.000 H 
ATOM     86  C61 UNL A   1      31.955  27.234  24.888  1.00  0.00    +0.000 C 
ATOM     87  C62 UNL A   1      31.455  28.543  24.918  1.00  0.00    +0.000 C 
ATOM     88  C63 UNL A   1      32.117  29.523  25.659  1.00  0.00    +0.000 C 
ATOM     89  C64 UNL A   1      33.281  29.190  26.354  1.00  0.00    +0.000 C 
ATOM     90 Br1  UNL A   1      34.140  30.501  27.411  1.00  0.00    +0.000 Br
ATOM     91  C65 UNL A   1      33.806  27.898  26.288  1.00  0.00    +0.000 C 
ATOM     92  C66 UNL A   1      33.151  26.918  25.538  1.00  0.00    +0.000 C 
ATOM    128  H36 UNL A   1      30.601  28.783  24.391  1.00  0.00    +0.000 H 
ENDBRANCH   84   86
ENDBRANCH   83   84
ENDBRANCH    4    3
ENDBRANCH    5    4
ENDBRANCH    7    5
ENDBRANCH    8    7
ENDBRANCH    9    8
ENDBRANCH   10    9
ENDBRANCH   11   10
ENDBRANCH   12   11
ENDBRANCH   13   12
ENDBRANCH   14   13
ENDBRANCH   15   14
ENDBRANCH   17   15
ENDBRANCH   21   20
BRANCH   25   26
ATOM     33  C24 UNL A   1      36.951  31.509  30.528  1.00  0.00    +0.000 C 
ATOM     34  F4  UNL A   1      35.958  32.110  29.857  1.00  0.00    +0.000 F 
ATOM     35  C25 UNL A   1      38.118  31.143  29.861  1.00  0.00    +0.000 C 
ATOM     36  F5  UNL A   1      38.215  31.393  28.547  1.00  0.00    +0.000 F 
ATOM     26  C20 UNL A   1      39.179  30.533  30.546  1.00  0.00    +0.000 C 
ATOM     27  C21 UNL A   1      39.026  30.302  31.921  1.00  0.00    +0.000 C 
ATOM     28  F1  UNL A   1      40.007  29.710  32.620  1.00  0.00    +0.000 F 
ATOM     29  C22 UNL A   1      37.847  30.643  32.579  1.00  0.00    +0.000 C 
ATOM     30  F2  UNL A   1      37.706  30.369  33.883  1.00  0.00    +0.000 F 
ATOM     31  C23 UNL A   1      36.813  31.252  31.883  1.00  0.00    +0.000 C 
ATOM     32  F3  UNL A   1      35.681  31.584  32.518  1.00  0.00    +0.000 F 
ENDBRANCH   25   26
BRANCH   42   43
ATOM     43  C31 UNL A   1      45.579  33.515  29.088  1.00  0.00    +0.000 C 
ATOM     44  C32 UNL A   1      45.438  34.657  28.288  1.00  0.00    +0.000 C 
ATOM     45  F6  UNL A   1      44.675  34.618  27.185  1.00  0.00    +0.000 F 
ATOM     46  C33 UNL A   1      46.113  35.835  28.598  1.00  0.00    +0.000 C 
ATOM     47  F7  UNL A   1      45.999  36.902  27.795  1.00  0.00    +0.000 F 
ATOM     48  C34 UNL A   1      46.915  35.902  29.728  1.00  0.00    +0.000 C 
ATOM     49  F8  UNL A   1      47.558  37.038  30.028  1.00  0.00    +0.000 F 
ATOM     50  C35 UNL A   1      47.055  34.788  30.543  1.00  0.00    +0.000 C 
ATOM     51  F9  UNL A   1      47.819  34.854  31.642  1.00  0.00    +0.000 F 
ATOM     52  C36 UNL A   1      46.403  33.601  30.221  1.00  0.00    +0.000 C 
ATOM     53  F10 UNL A   1      46.567  32.537  31.021  1.00  0.00    +0.000 F 
ENDBRANCH   42   43
BRANCH   57   58
ATOM     65  C44 UNL A   1      49.624  27.091  25.312  1.00  0.00    +0.000 C 
ATOM     66  F14 UNL A   1      50.747  26.716  25.939  1.00  0.00    +0.000 F 
ATOM     67  C45 UNL A   1      48.496  27.436  26.053  1.00  0.00    +0.000 C 
ATOM     68  F15 UNL A   1      48.557  27.376  27.391  1.00  0.00    +0.000 F 
ATOM     58  C40 UNL A   1      47.316  27.855  25.421  1.00  0.00    +0.000 C 
ATOM     59  C41 UNL A   1      47.307  27.907  24.021  1.00  0.00    +0.000 C 
ATOM     60  F11 UNL A   1      46.195  28.282  23.373  1.00  0.00    +0.000 F 
ATOM     61  C42 UNL A   1      48.427  27.537  23.280  1.00  0.00    +0.000 C 
ATOM     62  F12 UNL A   1      48.378  27.556  21.941  1.00  0.00    +0.000 F 
ATOM     63  C43 UNL A   1      49.586  27.133  23.926  1.00  0.00    +0.000 C 
ATOM     64  F13 UNL A   1      50.665  26.782  23.213  1.00  0.00    +0.000 F 
ENDBRANCH   57   58
TORSDOF 19
ENDMDL
MODEL 2
REMARK VINA RESULT:     -10.4     37.944     43.171
ROOT
ATOM     21  C16 UNL A   1      14.042  53.903   5.111  1.00  0.00    +0.000 C 
ATOM     22  C17 UNL A   1      14.986  54.340   4.027  1.00  0.00    +0.000 C 
ATOM     23  N4  UNL A   1      15.469  53.654   3.022  1.00  0.00    +0.000 N 
ATOM     24  C18 UNL A   1      16.254  54.543   2.300  1.00  0.00    +0.000 C 
ATOM     25  C19 UNL A   1      17.012  54.304   1.204  1.00  0.00    +0.000 C 
ATOM     37  C26 UNL A   1      17.141  53.017   0.571  1.00  0.00    +0.000 C 
ATOM     38  C27 UNL A   1      17.930  52.659  -0.507  1.00  0.00    +0.000 C 
ATOM     39  C28 UNL A   1      17.697  51.309  -0.791  1.00  0.00    +0.000 C 
ATOM     40  C29 UNL A   1      16.795  50.815   0.137  1.00  0.00    +0.000 C 
ATOM     41  N5  UNL A   1      16.458  51.875   0.964  1.00  0.00    +0.000 N 
ATOM     42  C30 UNL A   1      16.276  49.477   0.261  1.00  0.00    +0.000 C 
ATOM     54  C37 UNL A   1      15.399  49.068   1.209  1.00  0.00    +0.000 C 
ATOM     55  N6  UNL A   1      14.824  49.799   2.240  1.00  0.00    +0.000 N 
ATOM     56  C38 UNL A   1      14.039  48.965   2.878  1.00  0.00    +0.000 C 
ATOM     57  C39 UNL A   1      13.187  49.206   4.095  1.00  0.00    +0.000 C 
ATOM     69  C46 UNL A   1      13.196  50.421   4.675  1.00  0.00    +0.000 C 
ATOM     70  C47 UNL A   1      12.430  50.799   5.858  1.00  0.00    +0.000 C 
ATOM     71  C48 UNL A   1      12.647  52.098   6.123  1.00  0.00    +0.000 C 
ATOM     72  C49 UNL A   1      13.597  52.633   5.147  1.00  0.00    +0.000 C 
ATOM     73  N7  UNL A   1      13.875  51.563   4.333  1.00  0.00    +0.000 N 
ATOM     74  C50 UNL A   1      14.006  47.612   2.304  1.00  0.00    +0.000 C 
ATOM     75  C51 UNL A   1      14.880  47.719   1.314  1.00  0.00    +0.000 C 
ATOM     76  C52 UNL A   1      16.147  55.831   2.954  1.00  0.00    +0.000 C 
ATOM     77  C53 UNL A   1      15.428  55.743   4.063  1.00  0.00    +0.000 C 
ATOM    113  H21 UNL A   1      18.580  53.280  -1.014  1.00  0.00    +0.000 H 
ATOM    114  H22 UNL A   1      18.125  50.772  -1.562  1.00  0.00    +0.000 H 
ATOM    115  H23 UNL A   1      15.828  51.825   1.719  1.00  0.00    +0.000 H 
ATOM    116  H24 UNL A   1      11.818  50.171   6.404  1.00  0.00    +0.000 H 
ATOM    117  H25 UNL A   1      12.214  52.633   6.892  1.00  0.00    +0.000 H 
ATOM    118  H26 UNL A   1      14.502  51.611   3.576  1.00  0.00    +0.000 H 
ATOM    119  H27 UNL A   1      13.447  46.794   2.595  1.00  0.00    +0.000 H 
ATOM    120  H28 UNL A   1      15.158  46.940   0.696  1.00  0.00    +0.000 H 
ATOM    121  H29 UNL A   1      16.574  56.701   2.602  1.00  0.00    +0.000 H 
ATOM    122  H30 UNL A   1      15.229  56.470   4.769  1.00  0.00    +0.000 H 
ENDROOT
BRANCH   21   20
ATOM     78  C54 UNL A   1      12.385  55.630   5.815  1.00  0.00    +0.000 C 
ATOM    111  H19 UNL A   1      14.160  56.113   9.171  1.00  0.00    +0.000 H 
ATOM     79  C55 UNL A   1      11.905  56.567   6.728  1.00  0.00    +0.000 C 
ATOM     17  C12 UNL A   1      12.520  56.700   7.976  1.00  0.00    +0.000 C 
ATOM     18  C13 UNL A   1      13.683  55.983   8.265  1.00  0.00    +0.000 C 
ATOM     19  C14 UNL A   1      14.200  55.091   7.323  1.00  0.00    +0.000 C 
ATOM    112  H20 UNL A   1      15.074  54.579   7.526  1.00  0.00    +0.000 H 
ATOM     20  C15 UNL A   1      13.538  54.886   6.102  1.00  0.00    +0.000 C 
ATOM    123  H31 UNL A   1      11.888  55.482   4.923  1.00  0.00    +0.000 H 
ATOM    124  H32 UNL A   1      11.098  57.161   6.482  1.00  0.00    +0.000 H 
BRANCH   17   15
ATOM     15  C11 UNL A   1      11.977  57.621   8.998  1.00  0.00    +0.000 C 
ATOM     16  O2  UNL A   1      12.198  58.825   8.913  1.00  0.00    +0.000 O 
BRANCH   15   14
ATOM    110  H18 UNL A   1      11.371  57.592  10.906  1.00  0.00    +0.000 H 
ATOM     14  N3  UNL A   1      11.238  57.132  10.046  1.00  0.00    +0.000 N 
BRANCH   14   13
ATOM    109  H17 UNL A   1       9.871  55.934   9.088  1.00  0.00    +0.000 H 
ATOM    108  H16 UNL A   1       9.521  56.254  10.789  1.00  0.00    +0.000 H 
ATOM     13  C10 UNL A   1      10.283  56.034  10.070  1.00  0.00    +0.000 C 
BRANCH   13   12
ATOM    106  H14 UNL A   1      11.949  54.912  10.747  1.00  0.00    +0.000 H 
ATOM    107  H15 UNL A   1      10.346  54.283  11.223  1.00  0.00    +0.000 H 
ATOM     12  C9  UNL A   1      10.943  54.710  10.443  1.00  0.00    +0.000 C 
BRANCH   12   11
ATOM    105  H13 UNL A   1      11.679  54.053   8.591  1.00  0.00    +0.000 H 
ATOM     11  C8  UNL A   1      10.984  53.677   9.313  1.00  0.00    +0.000 C 
ATOM    104  H12 UNL A   1       9.990  53.566   8.931  1.00  0.00    +0.000 H 
BRANCH   11   10
ATOM     10  C7  UNL A   1      11.496  52.289   9.716  1.00  0.00    +0.000 C 
ATOM    102  H10 UNL A   1      12.351  52.064   9.113  1.00  0.00    +0.000 H 
ATOM    103  H11 UNL A   1      11.715  52.343  10.761  1.00  0.00    +0.000 H 
BRANCH   10    9
ATOM      9  C6  UNL A   1      10.484  51.148   9.549  1.00  0.00    +0.000 C 
ATOM    100  H8  UNL A   1       9.499  51.567   9.546  1.00  0.00    +0.000 H 
ATOM    101  H9  UNL A   1      10.717  50.654   8.629  1.00  0.00    +0.000 H 
BRANCH    9    8
ATOM     98  H6  UNL A   1      10.223  49.158  10.268  1.00  0.00    +0.000 H 
ATOM     99  H7  UNL A   1      11.575  50.030  10.988  1.00  0.00    +0.000 H 
ATOM      8  C5  UNL A   1      10.560  50.096  10.656  1.00  0.00    +0.000 C 
BRANCH    8    7
ATOM     97  H5  UNL A   1       8.873  49.986  11.856  1.00  0.00    +0.000 H 
ATOM      7  N2  UNL A   1       9.735  50.457  11.791  1.00  0.00    +0.000 N 
BRANCH    7    5
ATOM      5  C4  UNL A   1       9.990  51.360  12.783  1.00  0.00    +0.000 C 
ATOM      6  O1  UNL A   1       9.245  52.337  12.884  1.00  0.00    +0.000 O 
BRANCH    5    4
ATOM      4  C3  UNL A   1      11.209  51.206  13.680  1.00  0.00    +0.000 C 
ATOM     95  H3  UNL A   1      10.953  51.571  14.653  1.00  0.00    +0.000 H 
ATOM     96  H4  UNL A   1      11.460  50.166  13.670  1.00  0.00    +0.000 H 
BRANCH    4    3
ATOM      2  C1  UNL A   1      13.573  51.310  12.616  1.00  0.00    +0.000 C 
ATOM      3  C2  UNL A   1      12.448  51.948  13.209  1.00  0.00    +0.000 C 
ATOM     80  C56 UNL A   1      12.461  53.341  13.419  1.00  0.00    +0.000 C 
ATOM     81  C57 UNL A   1      13.562  54.107  13.065  1.00  0.00    +0.000 C 
ATOM     82  C58 UNL A   1      14.668  53.493  12.490  1.00  0.00    +0.000 C 
ATOM     83  C59 UNL A   1      14.694  52.104  12.249  1.00  0.00    +0.000 C 
ATOM    125  H33 UNL A   1      11.640  53.799  13.843  1.00  0.00    +0.000 H 
ATOM    126  H34 UNL A   1      13.560  55.126  13.228  1.00  0.00    +0.000 H 
ATOM    127  H35 UNL A   1      15.488  54.065  12.234  1.00  0.00    +0.000 H 
BRANCH    2    1
ATOM      1  N1  UNL A   1      13.521  49.936  12.344  1.00  0.00    +0.000 N 
ATOM     93  H1  UNL A   1      12.988  49.340  12.919  1.00  0.00    +0.000 H 
ATOM     94  H2  UNL A   1      14.017  49.567  11.578  1.00  0.00    +0.000 H 
ENDBRANCH    2    1
BRANCH   83   84
ATOM     84  C60 UNL A   1      15.989  51.602  11.670  1.00  0.00    +0.000 C 
ATOM     85  O3  UNL A   1      16.951  51.381  12.407  1.00  0.00    +0.000 O 
BRANCH   84   86
ATOM    129  H37 UNL A   1      18.273  49.467   8.337  1.00  0.00    +0.000 H 
ATOM    130  H38 UNL A   1      14.740  51.470   7.230  1.00  0.00    +0.000 H 
ATOM    131  H39 UNL A   1      14.470  52.269   9.515  1.00  0.00    +0.000 H 
ATOM     86  C61 UNL A   1      16.174  51.255  10.250  1.00  0.00    +0.000 C 
ATOM     87  C62 UNL A   1      17.292  50.481   9.908  1.00  0.00    +0.000 C 
ATOM     88  C63 UNL A   1      17.457  50.044   8.593  1.00  0.00    +0.000 C 
ATOM     89  C64 UNL A   1      16.512  50.394   7.628  1.00  0.00    +0.000 C 
ATOM     90 Br1  UNL A   1      16.702  49.747   5.862  1.00  0.00    +0.000 Br
ATOM     91  C65 UNL A   1      15.423  51.203   7.957  1.00  0.00    +0.000 C 
ATOM     92  C66 UNL A   1      15.260  51.651   9.270  1.00  0.00    +0.000 C 
ATOM    128  H36 UNL A   1      17.991  50.237  10.626  1.00  0.00    +0.000 H 
ENDBRANCH   84   86
ENDBRANCH   83   84
ENDBRANCH    4    3
ENDBRANCH    5    4
ENDBRANCH    7    5
ENDBRANCH    8    7
ENDBRANCH    9    8
ENDBRANCH   10    9
ENDBRANCH   11   10
ENDBRANCH   12   11
ENDBRANCH   13   12
ENDBRANCH   14   13
ENDBRANCH   15   14
ENDBRANCH   17   15
ENDBRANCH   21   20
BRANCH   25   26
ATOM     33  C24 UNL A   1      19.708  56.928   0.626  1.00  0.00    +0.000 C 
ATOM     34  F4  UNL A   1      20.888  57.281   1.156  1.00  0.00    +0.000 F 
ATOM     35  C25 UNL A   1      19.014  55.836   1.142  1.00  0.00    +0.000 C 
ATOM     36  F5  UNL A   1      19.556  55.149   2.158  1.00  0.00    +0.000 F 
ATOM     26  C20 UNL A   1      17.768  55.461   0.618  1.00  0.00    +0.000 C 
ATOM     27  C21 UNL A   1      17.246  56.219  -0.440  1.00  0.00    +0.000 C 
ATOM     28  F1  UNL A   1      16.063  55.894  -0.984  1.00  0.00    +0.000 F 
ATOM     29  C22 UNL A   1      17.956  57.293  -0.972  1.00  0.00    +0.000 C 
ATOM     30  F2  UNL A   1      17.458  57.973  -2.014  1.00  0.00    +0.000 F 
ATOM     31  C23 UNL A   1      19.183  57.650  -0.434  1.00  0.00    +0.000 C 
ATOM     32  F3  UNL A   1      19.862  58.687  -0.943  1.00  0.00    +0.000 F 
ENDBRANCH   25   26
BRANCH   42   43
ATOM     43  C31 UNL A   1      16.757  48.449  -0.719  1.00  0.00    +0.000 C 
ATOM     44  C32 UNL A   1      17.991  47.804  -0.562  1.00  0.00    +0.000 C 
ATOM     45  F6  UNL A   1      18.803  48.137   0.454  1.00  0.00    +0.000 F 
ATOM     46  C33 UNL A   1      18.415  46.838  -1.472  1.00  0.00    +0.000 C 
ATOM     47  F7  UNL A   1      19.618  46.266  -1.327  1.00  0.00    +0.000 F 
ATOM     48  C34 UNL A   1      17.600  46.479  -2.536  1.00  0.00    +0.000 C 
ATOM     49  F8  UNL A   1      18.007  45.545  -3.406  1.00  0.00    +0.000 F 
ATOM     50  C35 UNL A   1      16.368  47.093  -2.700  1.00  0.00    +0.000 C 
ATOM     51  F9  UNL A   1      15.574  46.738  -3.721  1.00  0.00    +0.000 F 
ATOM     52  C36 UNL A   1      15.953  48.077  -1.808  1.00  0.00    +0.000 C 
ATOM     53  F10 UNL A   1      14.761  48.662  -2.000  1.00  0.00    +0.000 F 
ENDBRANCH   42   43
BRANCH   57   58
ATOM     65  C44 UNL A   1      10.312  46.810   4.754  1.00  0.00    +0.000 C 
ATOM     66  F14 UNL A   1       9.076  46.576   4.294  1.00  0.00    +0.000 F 
ATOM     67  C45 UNL A   1      11.079  47.831   4.197  1.00  0.00    +0.000 C 
ATOM     68  F15 UNL A   1      10.560  48.558   3.196  1.00  0.00    +0.000 F 
ATOM     58  C40 UNL A   1      12.366  48.112   4.676  1.00  0.00    +0.000 C 
ATOM     59  C41 UNL A   1      12.858  47.328   5.728  1.00  0.00    +0.000 C 
ATOM     60  F11 UNL A   1      14.092  47.547   6.206  1.00  0.00    +0.000 F 
ATOM     61  C42 UNL A   1      12.101  46.290   6.267  1.00  0.00    +0.000 C 
ATOM     62  F12 UNL A   1      12.612  45.529   7.244  1.00  0.00    +0.000 F 
ATOM     63  C43 UNL A   1      10.827  46.035   5.783  1.00  0.00    +0.000 C 
ATOM     64  F13 UNL A   1      10.097  45.040   6.305  1.00  0.00    +0.000 F 
ENDBRANCH   57   58
TORSDOF 19
ENDMDL
MODEL 3
REMARK VINA RESULT:     -10.4      1.827      3.770
ROOT
ATOM     21  C16 UNL A   1      41.281  26.234  27.621  1.00  0.00    +0.000 C 
ATOM     22  C17 UNL A   1      40.642  27.334  28.420  1.00  0.00    +0.000 C 
ATOM     23  N4  UNL A   1      41.146  28.479  28.805  1.00  0.00    +0.000 N 
ATOM     24  C18 UNL A   1      40.121  29.137  29.473  1.00  0.00    +0.000 C 
ATOM     25  C19 UNL A   1      40.158  30.333  30.107  1.00  0.00    +0.000 C 
ATOM     37  C26 UNL A   1      41.328  31.166  30.202  1.00  0.00    +0.000 C 
ATOM     38  C27 UNL A   1      41.482  32.366  30.873  1.00  0.00    +0.000 C 
ATOM     39  C28 UNL A   1      42.784  32.828  30.651  1.00  0.00    +0.000 C 
ATOM     40  C29 UNL A   1      43.454  31.893  29.879  1.00  0.00    +0.000 C 
ATOM     41  N5  UNL A   1      42.547  30.881  29.606  1.00  0.00    +0.000 N 
ATOM     42  C30 UNL A   1      44.820  31.921  29.421  1.00  0.00    +0.000 C 
ATOM     54  C37 UNL A   1      45.408  30.956  28.672  1.00  0.00    +0.000 C 
ATOM     55  N6  UNL A   1      44.868  29.769  28.197  1.00  0.00    +0.000 N 
ATOM     56  C38 UNL A   1      45.826  29.185  27.518  1.00  0.00    +0.000 C 
ATOM     57  C39 UNL A   1      45.811  27.860  26.805  1.00  0.00    +0.000 C 
ATOM     69  C46 UNL A   1      44.697  27.104  26.842  1.00  0.00    +0.000 C 
ATOM     70  C47 UNL A   1      44.537  25.801  26.206  1.00  0.00    +0.000 C 
ATOM     71  C48 UNL A   1      43.283  25.365  26.411  1.00  0.00    +0.000 C 
ATOM     72  C49 UNL A   1      42.563  26.345  27.225  1.00  0.00    +0.000 C 
ATOM     73  N7  UNL A   1      43.484  27.339  27.441  1.00  0.00    +0.000 N 
ATOM     74  C50 UNL A   1      47.077  29.953  27.462  1.00  0.00    +0.000 C 
ATOM     75  C51 UNL A   1      46.781  31.004  28.212  1.00  0.00    +0.000 C 
ATOM     76  C52 UNL A   1      38.953  28.285  29.401  1.00  0.00    +0.000 C 
ATOM     77  C53 UNL A   1      39.240  27.131  28.818  1.00  0.00    +0.000 C 
ATOM    113  H21 UNL A   1      40.761  32.840  31.440  1.00  0.00    +0.000 H 
ATOM    114  H22 UNL A   1      43.179  33.713  31.004  1.00  0.00    +0.000 H 
ATOM    115  H23 UNL A   1      42.740  30.079  29.069  1.00  0.00    +0.000 H 
ATOM    116  H24 UNL A   1      45.269  25.295  25.682  1.00  0.00    +0.000 H 
ATOM    117  H25 UNL A   1      42.891  24.480  26.052  1.00  0.00    +0.000 H 
ATOM    118  H26 UNL A   1      43.293  28.144  27.974  1.00  0.00    +0.000 H 
ATOM    119  H27 UNL A   1      47.956  29.732  26.967  1.00  0.00    +0.000 H 
ATOM    120  H28 UNL A   1      47.445  31.761  28.441  1.00  0.00    +0.000 H 
ATOM    121  H29 UNL A   1      38.020  28.544  29.757  1.00  0.00    +0.000 H 
ATOM    122  H30 UNL A   1      38.637  26.304  28.680  1.00  0.00    +0.000 H 
ENDROOT
BRANCH   21   20
ATOM     78  C54 UNL A   1      39.345  25.235  26.405  1.00  0.00    +0.000 C 
ATOM    111  H19 UNL A   1      40.390  21.700  27.434  1.00  0.00    +0.000 H 
ATOM     79  C55 UNL A   1      38.576  24.141  26.016  1.00  0.00    +0.000 C 
ATOM     17  C12 UNL A   1      38.991  22.847  26.343  1.00  0.00    +0.000 C 
ATOM     18  C13 UNL A   1      40.109  22.654  27.159  1.00  0.00    +0.000 C 
ATOM     19  C14 UNL A   1      40.843  23.756  27.603  1.00  0.00    +0.000 C 
ATOM    112  H20 UNL A   1      41.654  23.616  28.226  1.00  0.00    +0.000 H 
ATOM     20  C15 UNL A   1      40.483  25.054  27.205  1.00  0.00    +0.000 C 
ATOM    123  H31 UNL A   1      39.076  26.185  26.103  1.00  0.00    +0.000 H 
ATOM    124  H32 UNL A   1      37.702  24.286  25.488  1.00  0.00    +0.000 H 
BRANCH   17   15
ATOM     15  C11 UNL A   1      38.244  21.663  25.865  1.00  0.00    +0.000 C 
ATOM     16  O2  UNL A   1      38.816  20.582  25.764  1.00  0.00    +0.000 O 
BRANCH   15   14
ATOM    110  H18 UNL A   1      36.285  21.721  26.277  1.00  0.00    +0.000 H 
ATOM     14  N3  UNL A   1      36.919  21.773  25.525  1.00  0.00    +0.000 N 
BRANCH   14   13
ATOM    109  H17 UNL A   1      35.643  21.141  24.044  1.00  0.00    +0.000 H 
ATOM    108  H16 UNL A   1      37.089  21.982  23.477  1.00  0.00    +0.000 H 
ATOM     13  C10 UNL A   1      36.314  21.957  24.214  1.00  0.00    +0.000 C 
BRANCH   13   12
ATOM    106  H14 UNL A   1      35.067  23.431  25.088  1.00  0.00    +0.000 H 
ATOM    107  H15 UNL A   1      36.203  24.017  23.840  1.00  0.00    +0.000 H 
ATOM     12  C9  UNL A   1      35.512  23.253  24.131  1.00  0.00    +0.000 C 
BRANCH   12   11
ATOM    105  H13 UNL A   1      33.568  22.747  23.527  1.00  0.00    +0.000 H 
ATOM     11  C8  UNL A   1      34.400  23.249  23.079  1.00  0.00    +0.000 C 
ATOM    104  H12 UNL A   1      34.774  22.757  22.204  1.00  0.00    +0.000 H 
BRANCH   11   10
ATOM     10  C7  UNL A   1      33.889  24.634  22.663  1.00  0.00    +0.000 C 
ATOM    102  H10 UNL A   1      33.942  25.276  23.518  1.00  0.00    +0.000 H 
ATOM    103  H11 UNL A   1      34.511  24.950  21.853  1.00  0.00    +0.000 H 
BRANCH   10    9
ATOM      9  C6  UNL A   1      32.449  24.664  22.135  1.00  0.00    +0.000 C 
ATOM    100  H8  UNL A   1      32.295  23.802  21.520  1.00  0.00    +0.000 H 
ATOM    101  H9  UNL A   1      31.802  24.676  22.987  1.00  0.00    +0.000 H 
BRANCH    9    8
ATOM     98  H6  UNL A   1      32.786  25.947  20.465  1.00  0.00    +0.000 H 
ATOM     99  H7  UNL A   1      31.107  25.850  20.993  1.00  0.00    +0.000 H 
ATOM      8  C5  UNL A   1      32.127  25.910  21.308  1.00  0.00    +0.000 C 
BRANCH    8    7
ATOM     97  H5  UNL A   1      33.219  27.435  22.192  1.00  0.00    +0.000 H 
ATOM      7  N2  UNL A   1      32.291  27.122  22.085  1.00  0.00    +0.000 N 
BRANCH    7    5
ATOM      5  C4  UNL A   1      31.337  27.889  22.688  1.00  0.00    +0.000 C 
ATOM      6  O1  UNL A   1      30.601  28.571  21.971  1.00  0.00    +0.000 O 
BRANCH    5    4
ATOM      4  C3  UNL A   1      31.244  27.964  24.205  1.00  0.00    +0.000 C 
ATOM     95  H3  UNL A   1      31.661  28.899  24.516  1.00  0.00    +0.000 H 
ATOM     96  H4  UNL A   1      30.207  27.860  24.448  1.00  0.00    +0.000 H 
BRANCH    4    3
ATOM      2  C1  UNL A   1      31.375  25.601  25.268  1.00  0.00    +0.000 C 
ATOM      3  C2  UNL A   1      31.969  26.854  24.946  1.00  0.00    +0.000 C 
ATOM     80  C56 UNL A   1      33.290  27.129  25.350  1.00  0.00    +0.000 C 
ATOM     81  C57 UNL A   1      34.026  26.199  26.071  1.00  0.00    +0.000 C 
ATOM     82  C58 UNL A   1      33.454  24.976  26.395  1.00  0.00    +0.000 C 
ATOM     83  C59 UNL A   1      32.140  24.651  26.000  1.00  0.00    +0.000 C 
ATOM    125  H33 UNL A   1      33.717  28.036  25.108  1.00  0.00    +0.000 H 
ATOM    126  H34 UNL A   1      34.991  26.416  26.365  1.00  0.00    +0.000 H 
ATOM    127  H35 UNL A   1      34.002  24.289  26.937  1.00  0.00    +0.000 H 
BRANCH    2    1
ATOM      1  N1  UNL A   1      30.088  25.308  24.798  1.00  0.00    +0.000 N 
ATOM     93  H1  UNL A   1      29.441  26.035  24.646  1.00  0.00    +0.000 H 
ATOM     94  H2  UNL A   1      29.830  24.374  24.619  1.00  0.00    +0.000 H 
ENDBRANCH    2    1
BRANCH   83   84
ATOM     84  C60 UNL A   1      31.665  23.307  26.482  1.00  0.00    +0.000 C 
ATOM     85  O3  UNL A   1      30.693  23.228  27.235  1.00  0.00    +0.000 O 
BRANCH   84   86
ATOM    129  H37 UNL A   1      32.013  19.938  23.414  1.00  0.00    +0.000 H 
ATOM    130  H38 UNL A   1      34.565  19.728  26.754  1.00  0.00    +0.000 H 
ATOM    131  H39 UNL A   1      33.529  21.729  27.679  1.00  0.00    +0.000 H 
ATOM     86  C61 UNL A   1      32.235  22.025  26.032  1.00  0.00    +0.000 C 
ATOM     87  C62 UNL A   1      31.767  21.490  24.824  1.00  0.00    +0.000 C 
ATOM     88  C63 UNL A   1      32.346  20.330  24.307  1.00  0.00    +0.000 C 
ATOM     89  C64 UNL A   1      33.378  19.705  25.009  1.00  0.00    +0.000 C 
ATOM     90 Br1  UNL A   1      34.205  18.171  24.277  1.00  0.00    +0.000 Br
ATOM     91  C65 UNL A   1      33.813  20.209  26.236  1.00  0.00    +0.000 C 
ATOM     92  C66 UNL A   1      33.229  21.365  26.761  1.00  0.00    +0.000 C 
ATOM    128  H36 UNL A   1      30.996  21.953  24.318  1.00  0.00    +0.000 H 
ENDBRANCH   84   86
ENDBRANCH   83   84
ENDBRANCH    4    3
ENDBRANCH    5    4
ENDBRANCH    7    5
ENDBRANCH    8    7
ENDBRANCH    9    8
ENDBRANCH   10    9
ENDBRANCH   11   10
ENDBRANCH   12   11
ENDBRANCH   13   12
ENDBRANCH   14   13
ENDBRANCH   15   14
ENDBRANCH   17   15
ENDBRANCH   21   20
BRANCH   25   26
ATOM     33  C24 UNL A   1      37.484  31.026  32.727  1.00  0.00    +0.000 C 
ATOM     34  F4  UNL A   1      37.286  30.806  34.034  1.00  0.00    +0.000 F 
ATOM     35  C25 UNL A   1      38.670  30.614  32.124  1.00  0.00    +0.000 C 
ATOM     36  F5  UNL A   1      39.601  30.011  32.879  1.00  0.00    +0.000 F 
ATOM     26  C20 UNL A   1      38.890  30.814  30.753  1.00  0.00    +0.000 C 
ATOM     27  C21 UNL A   1      37.880  31.442  30.011  1.00  0.00    +0.000 C 
ATOM     28  F1  UNL A   1      38.047  31.667  28.699  1.00  0.00    +0.000 F 
ATOM     29  C22 UNL A   1      36.707  31.879  30.622  1.00  0.00    +0.000 C 
ATOM     30  F2  UNL A   1      35.776  32.519  29.901  1.00  0.00    +0.000 F 
ATOM     31  C23 UNL A   1      36.507  31.665  31.977  1.00  0.00    +0.000 C 
ATOM     32  F3  UNL A   1      35.376  32.080  32.563  1.00  0.00    +0.000 F 
ENDBRANCH   25   26
BRANCH   42   43
ATOM     43  C31 UNL A   1      45.666  33.094  29.817  1.00  0.00    +0.000 C 
ATOM     44  C32 UNL A   1      45.723  34.257  29.037  1.00  0.00    +0.000 C 
ATOM     45  F6  UNL A   1      45.053  34.324  27.876  1.00  0.00    +0.000 F 
ATOM     46  C33 UNL A   1      46.500  35.344  29.428  1.00  0.00    +0.000 C 
ATOM     47  F7  UNL A   1      46.575  36.429  28.645  1.00  0.00    +0.000 F 
ATOM     48  C34 UNL A   1      47.209  35.300  30.620  1.00  0.00    +0.000 C 
ATOM     49  F8  UNL A   1      47.951  36.349  30.998  1.00  0.00    +0.000 F 
ATOM     50  C35 UNL A   1      47.153  34.165  31.416  1.00  0.00    +0.000 C 
ATOM     51  F9  UNL A   1      47.828  34.126  32.573  1.00  0.00    +0.000 F 
ATOM     52  C36 UNL A   1      46.398  33.067  31.014  1.00  0.00    +0.000 C 
ATOM     53  F10 UNL A   1      46.374  31.979  31.798  1.00  0.00    +0.000 F 
ENDBRANCH   42   43
BRANCH   57   58
ATOM     65  C44 UNL A   1      48.344  27.148  24.063  1.00  0.00    +0.000 C 
ATOM     66  F14 UNL A   1      48.498  27.383  22.754  1.00  0.00    +0.000 F 
ATOM     67  C45 UNL A   1      47.213  27.621  24.726  1.00  0.00    +0.000 C 
ATOM     68  F15 UNL A   1      46.301  28.317  24.034  1.00  0.00    +0.000 F 
ATOM     58  C40 UNL A   1      47.017  27.367  26.091  1.00  0.00    +0.000 C 
ATOM     59  C41 UNL A   1      47.998  26.629  26.767  1.00  0.00    +0.000 C 
ATOM     60  F11 UNL A   1      47.863  26.379  28.078  1.00  0.00    +0.000 F 
ATOM     61  C42 UNL A   1      49.140  26.178  26.109  1.00  0.00    +0.000 C 
ATOM     62  F12 UNL A   1      50.082  25.510  26.788  1.00  0.00    +0.000 F 
ATOM     63  C43 UNL A   1      49.310  26.434  24.757  1.00  0.00    +0.000 C 
ATOM     64  F13 UNL A   1      50.406  25.996  24.123  1.00  0.00    +0.000 F 
ENDBRANCH   57   58
TORSDOF 19
ENDMDL
MODEL 4
REMARK VINA RESULT:     -10.3     26.088     29.558
ROOT
ATOM     21  C16 UNL A   1      46.149  10.879  47.821  1.00  0.00    +0.000 C 
ATOM     22  C17 UNL A   1      47.328  11.805  47.925  1.00  0.00    +0.000 C 
ATOM     23  N4  UNL A   1      48.327  11.783  48.770  1.00  0.00    +0.000 N 
ATOM     24  C18 UNL A   1      49.159  12.831  48.399  1.00  0.00    +0.000 C 
ATOM     25  C19 UNL A   1      50.297  13.259  48.996  1.00  0.00    +0.000 C 
ATOM     37  C26 UNL A   1      50.863  12.669  50.181  1.00  0.00    +0.000 C 
ATOM     38  C27 UNL A   1      51.979  13.068  50.896  1.00  0.00    +0.000 C 
ATOM     39  C28 UNL A   1      52.166  12.168  51.951  1.00  0.00    +0.000 C 
ATOM     40  C29 UNL A   1      51.142  11.236  51.920  1.00  0.00    +0.000 C 
ATOM     41  N5  UNL A   1      50.352  11.552  50.825  1.00  0.00    +0.000 N 
ATOM     42  C30 UNL A   1      50.901  10.136  52.818  1.00  0.00    +0.000 C 
ATOM     54  C37 UNL A   1      49.864   9.268  52.725  1.00  0.00    +0.000 C 
ATOM     55  N6  UNL A   1      48.834   9.236  51.795  1.00  0.00    +0.000 N 
ATOM     56  C38 UNL A   1      48.089   8.207  52.119  1.00  0.00    +0.000 C 
ATOM     57  C39 UNL A   1      46.824   7.711  51.473  1.00  0.00    +0.000 C 
ATOM     69  C46 UNL A   1      46.316   8.378  50.419  1.00  0.00    +0.000 C 
ATOM     70  C47 UNL A   1      45.100   8.020  49.697  1.00  0.00    +0.000 C 
ATOM     71  C48 UNL A   1      44.927   8.878  48.678  1.00  0.00    +0.000 C 
ATOM     72  C49 UNL A   1      46.005   9.869  48.699  1.00  0.00    +0.000 C 
ATOM     73  N7  UNL A   1      46.776   9.498  49.772  1.00  0.00    +0.000 N 
ATOM     74  C50 UNL A   1      48.581   7.451  53.280  1.00  0.00    +0.000 C 
ATOM     75  C51 UNL A   1      49.641   8.162  53.633  1.00  0.00    +0.000 C 
ATOM     76  C52 UNL A   1      48.573  13.441  47.224  1.00  0.00    +0.000 C 
ATOM     77  C53 UNL A   1      47.407  12.886  46.930  1.00  0.00    +0.000 C 
ATOM    113  H21 UNL A   1      52.570  13.886  50.687  1.00  0.00    +0.000 H 
ATOM    114  H22 UNL A   1      52.936  12.195  52.638  1.00  0.00    +0.000 H 
ATOM    115  H23 UNL A   1      49.548  11.057  50.546  1.00  0.00    +0.000 H 
ATOM    116  H24 UNL A   1      44.472   7.234  49.931  1.00  0.00    +0.000 H 
ATOM    117  H25 UNL A   1      44.158   8.845  47.991  1.00  0.00    +0.000 H 
ATOM    118  H26 UNL A   1      47.583   9.988  50.051  1.00  0.00    +0.000 H 
ATOM    119  H27 UNL A   1      48.200   6.592  53.706  1.00  0.00    +0.000 H 
ATOM    120  H28 UNL A   1      50.234   7.954  54.452  1.00  0.00    +0.000 H 
ATOM    121  H29 UNL A   1      49.007  14.208  46.687  1.00  0.00    +0.000 H 
ATOM    122  H30 UNL A   1      46.730  13.145  46.195  1.00  0.00    +0.000 H 
ENDROOT
BRANCH   21   20
ATOM     78  C54 UNL A   1      44.109  11.928  46.840  1.00  0.00    +0.000 C 
ATOM    111  H19 UNL A   1      44.522   9.940  43.596  1.00  0.00    +0.000 H 
ATOM     79  C55 UNL A   1      43.180  12.073  45.812  1.00  0.00    +0.000 C 
ATOM     17  C12 UNL A   1      43.364  11.390  44.607  1.00  0.00    +0.000 C 
ATOM     18  C13 UNL A   1      44.411  10.474  44.472  1.00  0.00    +0.000 C 
ATOM     19  C14 UNL A   1      45.305  10.282  45.527  1.00  0.00    +0.000 C 
ATOM    112  H20 UNL A   1      46.063   9.587  45.438  1.00  0.00    +0.000 H 
ATOM     20  C15 UNL A   1      45.178  11.029  46.709  1.00  0.00    +0.000 C 
ATOM    123  H31 UNL A   1      44.011  12.486  47.703  1.00  0.00    +0.000 H 
ATOM    124  H32 UNL A   1      42.358  12.682  45.942  1.00  0.00    +0.000 H 
BRANCH   17   15
ATOM     15  C11 UNL A   1      42.445  11.595  43.466  1.00  0.00    +0.000 C 
ATOM     16  O2  UNL A   1      42.638  10.996  42.413  1.00  0.00    +0.000 O 
BRANCH   15   14
ATOM    110  H18 UNL A   1      40.550  12.061  43.913  1.00  0.00    +0.000 H 
ATOM     14  N3  UNL A   1      41.385  12.460  43.579  1.00  0.00    +0.000 N 
BRANCH   14   13
ATOM    109  H17 UNL A   1      41.519  14.420  44.182  1.00  0.00    +0.000 H 
ATOM    108  H16 UNL A   1      40.343  14.110  42.902  1.00  0.00    +0.000 H 
ATOM     13  C10 UNL A   1      41.318  13.883  43.279  1.00  0.00    +0.000 C 
BRANCH   13   12
ATOM    106  H14 UNL A   1      42.889  15.145  42.623  1.00  0.00    +0.000 H 
ATOM    107  H15 UNL A   1      42.983  13.445  42.082  1.00  0.00    +0.000 H 
ATOM     12  C9  UNL A   1      42.356  14.299  42.241  1.00  0.00    +0.000 C 
BRANCH   12   11
ATOM    105  H13 UNL A   1      41.124  15.504  41.046  1.00  0.00    +0.000 H 
ATOM     11  C8  UNL A   1      41.778  14.674  40.875  1.00  0.00    +0.000 C 
ATOM    104  H12 UNL A   1      41.279  13.813  40.479  1.00  0.00    +0.000 H 
BRANCH   11   10
ATOM     10  C7  UNL A   1      42.805  15.147  39.838  1.00  0.00    +0.000 C 
ATOM    102  H10 UNL A   1      43.732  14.654  40.042  1.00  0.00    +0.000 H 
ATOM    103  H11 UNL A   1      42.395  14.905  38.881  1.00  0.00    +0.000 H 
BRANCH   10    9
ATOM      9  C6  UNL A   1      43.064  16.659  39.823  1.00  0.00    +0.000 C 
ATOM    100  H8  UNL A   1      42.833  17.033  38.847  1.00  0.00    +0.000 H 
ATOM    101  H9  UNL A   1      42.443  17.092  40.580  1.00  0.00    +0.000 H 
BRANCH    9    8
ATOM     98  H6  UNL A   1      45.116  16.882  39.288  1.00  0.00    +0.000 H 
ATOM     99  H7  UNL A   1      44.527  18.061  40.459  1.00  0.00    +0.000 H 
ATOM      8  C5  UNL A   1      44.508  17.035  40.156  1.00  0.00    +0.000 C 
BRANCH    8    7
ATOM     97  H5  UNL A   1      44.785  15.279  41.222  1.00  0.00    +0.000 H 
ATOM      7  N2  UNL A   1      45.031  16.232  41.242  1.00  0.00    +0.000 N 
BRANCH    7    5
ATOM      5  C4  UNL A   1      45.818  16.616  42.290  1.00  0.00    +0.000 C 
ATOM      6  O1  UNL A   1      46.038  17.819  42.440  1.00  0.00    +0.000 O 
BRANCH    5    4
ATOM      4  C3  UNL A   1      46.472  15.579  43.191  1.00  0.00    +0.000 C 
ATOM     95  H3  UNL A   1      45.919  14.668  43.103  1.00  0.00    +0.000 H 
ATOM     96  H4  UNL A   1      47.486  15.493  42.862  1.00  0.00    +0.000 H 
BRANCH    4    3
ATOM      2  C1  UNL A   1      45.435  15.813  45.558  1.00  0.00    +0.000 C 
ATOM      3  C2  UNL A   1      46.531  15.955  44.662  1.00  0.00    +0.000 C 
ATOM     80  C56 UNL A   1      47.745  16.504  45.120  1.00  0.00    +0.000 C 
ATOM     81  C57 UNL A   1      47.891  16.921  46.435  1.00  0.00    +0.000 C 
ATOM     82  C58 UNL A   1      46.825  16.791  47.316  1.00  0.00    +0.000 C 
ATOM     83  C59 UNL A   1      45.596  16.235  46.907  1.00  0.00    +0.000 C 
ATOM    125  H33 UNL A   1      48.538  16.599  44.467  1.00  0.00    +0.000 H 
ATOM    126  H34 UNL A   1      48.784  17.326  46.756  1.00  0.00    +0.000 H 
ATOM    127  H35 UNL A   1      46.935  17.108  48.293  1.00  0.00    +0.000 H 
BRANCH    2    1
ATOM      1  N1  UNL A   1      44.257  15.198  45.113  1.00  0.00    +0.000 N 
ATOM     93  H1  UNL A   1      43.403  15.382  45.568  1.00  0.00    +0.000 H 
ATOM     94  H2  UNL A   1      44.283  14.583  44.345  1.00  0.00    +0.000 H 
ENDBRANCH    2    1
BRANCH   83   84
ATOM     84  C60 UNL A   1      44.538  16.220  47.976  1.00  0.00    +0.000 C 
ATOM     85  O3  UNL A   1      43.755  17.165  48.086  1.00  0.00    +0.000 O 
BRANCH   84   86
ATOM    129  H37 UNL A   1      41.753  13.121  49.854  1.00  0.00    +0.000 H 
ATOM    130  H38 UNL A   1      45.840  12.826  50.818  1.00  0.00    +0.000 H 
ATOM    131  H39 UNL A   1      46.297  14.835  49.521  1.00  0.00    +0.000 H 
ATOM     86  C61 UNL A   1      44.297  15.079  48.877  1.00  0.00    +0.000 C 
ATOM     87  C62 UNL A   1      42.982  14.612  49.003  1.00  0.00    +0.000 C 
ATOM     88  C63 UNL A   1      42.718  13.474  49.766  1.00  0.00    +0.000 C 
ATOM     89  C64 UNL A   1      43.769  12.819  50.409  1.00  0.00    +0.000 C 
ATOM     90 Br1  UNL A   1      43.420  11.240  51.389  1.00  0.00    +0.000 Br
ATOM     91  C65 UNL A   1      45.073  13.309  50.324  1.00  0.00    +0.000 C 
ATOM     92  C66 UNL A   1      45.339  14.455  49.569  1.00  0.00    +0.000 C 
ATOM    128  H36 UNL A   1      42.210  15.110  48.533  1.00  0.00    +0.000 H 
ENDBRANCH   84   86
ENDBRANCH   83   84
ENDBRANCH    4    3
ENDBRANCH    5    4
ENDBRANCH    7    5
ENDBRANCH    8    7
ENDBRANCH    9    8
ENDBRANCH   10    9
ENDBRANCH   11   10
ENDBRANCH   12   11
ENDBRANCH   13   12
ENDBRANCH   14   13
ENDBRANCH   15   14
ENDBRANCH   17   15
ENDBRANCH   21   20
BRANCH   25   26
ATOM     33  C24 UNL A   1      52.807  15.310  47.000  1.00  0.00    +0.000 C 
ATOM     34  F4  UNL A   1      53.884  15.097  46.231  1.00  0.00    +0.000 F 
ATOM     35  C25 UNL A   1      52.123  14.230  47.552  1.00  0.00    +0.000 C 
ATOM     36  F5  UNL A   1      52.556  12.989  47.287  1.00  0.00    +0.000 F 
ATOM     26  C20 UNL A   1      51.006  14.429  48.377  1.00  0.00    +0.000 C 
ATOM     27  C21 UNL A   1      50.601  15.748  48.628  1.00  0.00    +0.000 C 
ATOM     28  F1  UNL A   1      49.532  15.991  49.401  1.00  0.00    +0.000 F 
ATOM     29  C22 UNL A   1      51.270  16.825  48.051  1.00  0.00    +0.000 C 
ATOM     30  F2  UNL A   1      50.836  18.075  48.266  1.00  0.00    +0.000 F 
ATOM     31  C23 UNL A   1      52.376  16.605  47.244  1.00  0.00    +0.000 C 
ATOM     32  F3  UNL A   1      53.022  17.643  46.694  1.00  0.00    +0.000 F 
ENDBRANCH   25   26
BRANCH   42   43
ATOM     43  C31 UNL A   1      51.856   9.945  53.958  1.00  0.00    +0.000 C 
ATOM     44  C32 UNL A   1      51.606  10.487  55.226  1.00  0.00    +0.000 C 
ATOM     45  F6  UNL A   1      50.517  11.244  55.433  1.00  0.00    +0.000 F 
ATOM     46  C33 UNL A   1      52.494  10.285  56.280  1.00  0.00    +0.000 C 
ATOM     47  F7  UNL A   1      52.257  10.849  57.472  1.00  0.00    +0.000 F 
ATOM     48  C34 UNL A   1      53.632   9.513  56.092  1.00  0.00    +0.000 C 
ATOM     49  F8  UNL A   1      54.482   9.315  57.108  1.00  0.00    +0.000 F 
ATOM     50  C35 UNL A   1      53.890   8.953  54.850  1.00  0.00    +0.000 C 
ATOM     51  F9  UNL A   1      54.982   8.197  54.671  1.00  0.00    +0.000 F 
ATOM     52  C36 UNL A   1      53.018   9.175  53.789  1.00  0.00    +0.000 C 
ATOM     53  F10 UNL A   1      53.300   8.631  52.595  1.00  0.00    +0.000 F 
ENDBRANCH   42   43
BRANCH   57   58
ATOM     65  C44 UNL A   1      44.351   5.516  53.345  1.00  0.00    +0.000 C 
ATOM     66  F14 UNL A   1      43.301   5.660  54.164  1.00  0.00    +0.000 F 
ATOM     67  C45 UNL A   1      45.002   6.641  52.844  1.00  0.00    +0.000 C 
ATOM     68  F15 UNL A   1      44.552   7.856  53.189  1.00  0.00    +0.000 F 
ATOM     58  C40 UNL A   1      46.118   6.516  52.004  1.00  0.00    +0.000 C 
ATOM     59  C41 UNL A   1      46.551   5.224  51.679  1.00  0.00    +0.000 C 
ATOM     60  F11 UNL A   1      47.602   5.056  50.863  1.00  0.00    +0.000 F 
ATOM     61  C42 UNL A   1      45.884   4.099  52.160  1.00  0.00    +0.000 C 
ATOM     62  F12 UNL A   1      46.294   2.876  51.800  1.00  0.00    +0.000 F 
ATOM     63  C43 UNL A   1      44.787   4.246  52.996  1.00  0.00    +0.000 C 
ATOM     64  F13 UNL A   1      44.149   3.164  53.461  1.00  0.00    +0.000 F 
ENDBRANCH   57   58
TORSDOF 19
ENDMDL
MODEL 5
REMARK VINA RESULT:     -10.1     25.198     28.226
ROOT
ATOM     21  C16 UNL A   1      46.440  11.619  47.311  1.00  0.00    +0.000 C 
ATOM     22  C17 UNL A   1      46.536  10.561  48.374  1.00  0.00    +0.000 C 
ATOM     23  N4  UNL A   1      47.348  10.487  49.398  1.00  0.00    +0.000 N 
ATOM     24  C18 UNL A   1      46.985   9.337  50.086  1.00  0.00    +0.000 C 
ATOM     25  C19 UNL A   1      47.559   8.793  51.185  1.00  0.00    +0.000 C 
ATOM     37  C26 UNL A   1      48.706   9.343  51.859  1.00  0.00    +0.000 C 
ATOM     38  C27 UNL A   1      49.397   8.834  52.944  1.00  0.00    +0.000 C 
ATOM     39  C28 UNL A   1      50.417   9.734  53.274  1.00  0.00    +0.000 C 
ATOM     40  C29 UNL A   1      50.388  10.781  52.367  1.00  0.00    +0.000 C 
ATOM     41  N5  UNL A   1      49.329  10.531  51.508  1.00  0.00    +0.000 N 
ATOM     42  C30 UNL A   1      51.258  11.926  52.291  1.00  0.00    +0.000 C 
ATOM     54  C37 UNL A   1      51.170  12.910  51.361  1.00  0.00    +0.000 C 
ATOM     55  N6  UNL A   1      50.272  13.039  50.311  1.00  0.00    +0.000 N 
ATOM     56  C38 UNL A   1      50.586  14.159  49.705  1.00  0.00    +0.000 C 
ATOM     57  C39 UNL A   1      49.965  14.785  48.486  1.00  0.00    +0.000 C 
ATOM     69  C46 UNL A   1      48.950  14.154  47.866  1.00  0.00    +0.000 C 
ATOM     70  C47 UNL A   1      48.256  14.634  46.676  1.00  0.00    +0.000 C 
ATOM     71  C48 UNL A   1      47.271  13.775  46.367  1.00  0.00    +0.000 C 
ATOM     72  C49 UNL A   1      47.289  12.663  47.319  1.00  0.00    +0.000 C 
ATOM     73  N7  UNL A   1      48.325  12.969  48.166  1.00  0.00    +0.000 N 
ATOM     74  C50 UNL A   1      51.706  14.882  50.324  1.00  0.00    +0.000 C 
ATOM     75  C51 UNL A   1      52.048  14.060  51.304  1.00  0.00    +0.000 C 
ATOM     76  C52 UNL A   1      45.849   8.768  49.390  1.00  0.00    +0.000 C 
ATOM     77  C53 UNL A   1      45.574   9.451  48.289  1.00  0.00    +0.000 C 
ATOM    113  H21 UNL A   1      49.197   7.945  53.426  1.00  0.00    +0.000 H 
ATOM    114  H22 UNL A   1      51.079   9.634  54.059  1.00  0.00    +0.000 H 
ATOM    115  H23 UNL A   1      49.061  11.111  50.759  1.00  0.00    +0.000 H 
ATOM    116  H24 UNL A   1      48.484  15.496  46.155  1.00  0.00    +0.000 H 
ATOM    117  H25 UNL A   1      46.608  13.880  45.583  1.00  0.00    +0.000 H 
ATOM    118  H26 UNL A   1      48.594  12.393  48.918  1.00  0.00    +0.000 H 
ATOM    119  H27 UNL A   1      52.116  15.793  50.063  1.00  0.00    +0.000 H 
ATOM    120  H28 UNL A   1      52.841  14.218  51.946  1.00  0.00    +0.000 H 
ATOM    121  H29 UNL A   1      45.323   7.941  49.711  1.00  0.00    +0.000 H 
ATOM    122  H30 UNL A   1      44.869   9.255  47.561  1.00  0.00    +0.000 H 
ENDROOT
BRANCH   21   20
ATOM     78  C54 UNL A   1      45.503  10.693  45.192  1.00  0.00    +0.000 C 
ATOM    111  H19 UNL A   1      42.330  12.803  45.553  1.00  0.00    +0.000 H 
ATOM     79  C55 UNL A   1      44.510  10.629  44.217  1.00  0.00    +0.000 C 
ATOM     17  C12 UNL A   1      43.327  11.356  44.380  1.00  0.00    +0.000 C 
ATOM     18  C13 UNL A   1      43.187  12.236  45.456  1.00  0.00    +0.000 C 
ATOM     19  C14 UNL A   1      44.211  12.347  46.399  1.00  0.00    +0.000 C 
ATOM    112  H20 UNL A   1      44.118  13.015  47.181  1.00  0.00    +0.000 H 
ATOM     20  C15 UNL A   1      45.365  11.555  46.290  1.00  0.00    +0.000 C 
ATOM    123  H31 UNL A   1      46.345  10.102  45.106  1.00  0.00    +0.000 H 
ATOM    124  H32 UNL A   1      44.648  10.048  43.376  1.00  0.00    +0.000 H 
BRANCH   17   15
ATOM     15  C11 UNL A   1      42.219  11.237  43.407  1.00  0.00    +0.000 C 
ATOM     16  O2  UNL A   1      41.681  10.148  43.228  1.00  0.00    +0.000 O 
BRANCH   15   14
ATOM    110  H18 UNL A   1      42.105  13.202  43.047  1.00  0.00    +0.000 H 
ATOM     14  N3  UNL A   1      41.801  12.334  42.698  1.00  0.00    +0.000 N 
BRANCH   14   13
ATOM    109  H17 UNL A   1      39.983  12.670  41.800  1.00  0.00    +0.000 H 
ATOM    108  H16 UNL A   1      40.988  11.446  41.018  1.00  0.00    +0.000 H 
ATOM     13  C10 UNL A   1      40.975  12.401  41.501  1.00  0.00    +0.000 C 
BRANCH   13   12
ATOM    106  H14 UNL A   1      42.113  12.975  39.809  1.00  0.00    +0.000 H 
ATOM    107  H15 UNL A   1      40.603  13.892  40.074  1.00  0.00    +0.000 H 
ATOM     12  C9  UNL A   1      41.474  13.457  40.519  1.00  0.00    +0.000 C 
BRANCH   12   11
ATOM    105  H13 UNL A   1      43.222  14.216  41.397  1.00  0.00    +0.000 H 
ATOM     11  C8  UNL A   1      42.254  14.608  41.161  1.00  0.00    +0.000 C 
ATOM    104  H12 UNL A   1      41.707  14.939  42.020  1.00  0.00    +0.000 H 
BRANCH   11   10
ATOM     10  C7  UNL A   1      42.494  15.820  40.253  1.00  0.00    +0.000 C 
ATOM    102  H10 UNL A   1      41.572  16.054  39.763  1.00  0.00    +0.000 H 
ATOM    103  H11 UNL A   1      42.848  16.603  40.889  1.00  0.00    +0.000 H 
BRANCH   10    9
ATOM      9  C6  UNL A   1      43.569  15.624  39.176  1.00  0.00    +0.000 C 
ATOM    100  H8  UNL A   1      43.735  14.574  39.052  1.00  0.00    +0.000 H 
ATOM    101  H9  UNL A   1      43.206  16.086  38.282  1.00  0.00    +0.000 H 
BRANCH    9    8
ATOM     98  H6  UNL A   1      45.621  15.529  39.749  1.00  0.00    +0.000 H 
ATOM     99  H7  UNL A   1      45.217  16.864  38.671  1.00  0.00    +0.000 H 
ATOM      8  C5  UNL A   1      44.903  16.288  39.517  1.00  0.00    +0.000 C 
BRANCH    8    7
ATOM     97  H5  UNL A   1      43.914  17.638  40.740  1.00  0.00    +0.000 H 
ATOM      7  N2  UNL A   1      44.781  17.180  40.652  1.00  0.00    +0.000 N 
BRANCH    7    5
ATOM      5  C4  UNL A   1      45.702  17.472  41.616  1.00  0.00    +0.000 C 
ATOM      6  O1  UNL A   1      46.182  18.607  41.636  1.00  0.00    +0.000 O 
BRANCH    5    4
ATOM      4  C3  UNL A   1      46.184  16.399  42.581  1.00  0.00    +0.000 C 
ATOM     95  H3  UNL A   1      45.498  15.579  42.534  1.00  0.00    +0.000 H 
ATOM     96  H4  UNL A   1      47.175  16.141  42.273  1.00  0.00    +0.000 H 
BRANCH    4    3
ATOM      2  C1  UNL A   1      45.267  16.633  44.997  1.00  0.00    +0.000 C 
ATOM      3  C2  UNL A   1      46.290  16.842  44.030  1.00  0.00    +0.000 C 
ATOM     80  C56 UNL A   1      47.468  17.525  44.392  1.00  0.00    +0.000 C 
ATOM     81  C57 UNL A   1      47.647  18.011  45.679  1.00  0.00    +0.000 C 
ATOM     82  C58 UNL A   1      46.652  17.816  46.629  1.00  0.00    +0.000 C 
ATOM     83  C59 UNL A   1      45.462  17.127  46.317  1.00  0.00    +0.000 C 
ATOM    125  H33 UNL A   1      48.209  17.668  43.688  1.00  0.00    +0.000 H 
ATOM    126  H34 UNL A   1      48.512  18.514  45.929  1.00  0.00    +0.000 H 
ATOM    127  H35 UNL A   1      46.785  18.184  47.584  1.00  0.00    +0.000 H 
BRANCH    2    1
ATOM      1  N1  UNL A   1      44.132  15.888  44.648  1.00  0.00    +0.000 N 
ATOM     93  H1  UNL A   1      43.358  16.334  44.234  1.00  0.00    +0.000 H 
ATOM     94  H2  UNL A   1      44.109  14.918  44.817  1.00  0.00    +0.000 H 
ENDBRANCH    2    1
BRANCH   83   84
ATOM     84  C60 UNL A   1      44.474  17.055  47.449  1.00  0.00    +0.000 C 
ATOM     85  O3  UNL A   1      43.823  18.051  47.766  1.00  0.00    +0.000 O 
BRANCH   84   86
ATOM    129  H37 UNL A   1      45.622  13.640  50.260  1.00  0.00    +0.000 H 
ATOM    130  H38 UNL A   1      41.620  13.758  48.960  1.00  0.00    +0.000 H 
ATOM    131  H39 UNL A   1      42.126  15.686  47.560  1.00  0.00    +0.000 H 
ATOM     86  C61 UNL A   1      44.146  15.815  48.175  1.00  0.00    +0.000 C 
ATOM     87  C62 UNL A   1      45.165  15.206  48.920  1.00  0.00    +0.000 C 
ATOM     88  C63 UNL A   1      44.878  14.087  49.703  1.00  0.00    +0.000 C 
ATOM     89  C64 UNL A   1      43.579  13.577  49.725  1.00  0.00    +0.000 C 
ATOM     90 Br1  UNL A   1      43.178  12.102  50.837  1.00  0.00    +0.000 Br
ATOM     91  C65 UNL A   1      42.574  14.155  48.948  1.00  0.00    +0.000 C 
ATOM     92  C66 UNL A   1      42.860  15.269  48.155  1.00  0.00    +0.000 C 
ATOM    128  H36 UNL A   1      46.125  15.582  48.888  1.00  0.00    +0.000 H 
ENDBRANCH   84   86
ENDBRANCH   83   84
ENDBRANCH    4    3
ENDBRANCH    5    4
ENDBRANCH    7    5
ENDBRANCH    8    7
ENDBRANCH    9    8
ENDBRANCH   10    9
ENDBRANCH   11   10
ENDBRANCH   12   11
ENDBRANCH   13   12
ENDBRANCH   14   13
ENDBRANCH   15   14
ENDBRANCH   17   15
ENDBRANCH   21   20
BRANCH   25   26
ATOM     33  C24 UNL A   1      45.246   6.411  53.048  1.00  0.00    +0.000 C 
ATOM     34  F4  UNL A   1      44.146   6.480  53.812  1.00  0.00    +0.000 F 
ATOM     35  C25 UNL A   1      45.794   7.574  52.513  1.00  0.00    +0.000 C 
ATOM     36  F5  UNL A   1      45.194   8.746  52.767  1.00  0.00    +0.000 F 
ATOM     26  C20 UNL A   1      46.956   7.529  51.728  1.00  0.00    +0.000 C 
ATOM     27  C21 UNL A   1      47.546   6.277  51.500  1.00  0.00    +0.000 C 
ATOM     28  F1  UNL A   1      48.652   6.180  50.746  1.00  0.00    +0.000 F 
ATOM     29  C22 UNL A   1      46.979   5.113  52.012  1.00  0.00    +0.000 C 
ATOM     30  F2  UNL A   1      47.535   3.924  51.741  1.00  0.00    +0.000 F 
ATOM     31  C23 UNL A   1      45.834   5.182  52.791  1.00  0.00    +0.000 C 
ATOM     32  F3  UNL A   1      45.293   4.061  53.289  1.00  0.00    +0.000 F 
ENDBRANCH   25   26
BRANCH   42   43
ATOM     43  C31 UNL A   1      52.360  12.034  53.301  1.00  0.00    +0.000 C 
ATOM     44  C32 UNL A   1      52.157  12.639  54.550  1.00  0.00    +0.000 C 
ATOM     45  F6  UNL A   1      50.970  13.188  54.848  1.00  0.00    +0.000 F 
ATOM     46  C33 UNL A   1      53.188  12.715  55.484  1.00  0.00    +0.000 C 
ATOM     47  F7  UNL A   1      52.984  13.336  56.654  1.00  0.00    +0.000 F 
ATOM     48  C34 UNL A   1      54.428  12.163  55.199  1.00  0.00    +0.000 C 
ATOM     49  F8  UNL A   1      55.416  12.232  56.101  1.00  0.00    +0.000 F 
ATOM     50  C35 UNL A   1      54.645  11.546  53.976  1.00  0.00    +0.000 C 
ATOM     51  F9  UNL A   1      55.840  11.001  53.704  1.00  0.00    +0.000 F 
ATOM     52  C36 UNL A   1      53.626  11.491  53.030  1.00  0.00    +0.000 C 
ATOM     53  F10 UNL A   1      53.869  10.898  51.851  1.00  0.00    +0.000 F 
ENDBRANCH   42   43
BRANCH   57   58
ATOM     65  C44 UNL A   1      52.000  17.312  46.509  1.00  0.00    +0.000 C 
ATOM     66  F14 UNL A   1      53.009  17.319  45.627  1.00  0.00    +0.000 F 
ATOM     67  C45 UNL A   1      51.518  16.102  47.004  1.00  0.00    +0.000 C 
ATOM     68  F15 UNL A   1      52.073  14.960  46.574  1.00  0.00    +0.000 F 
ATOM     58  C40 UNL A   1      50.480  16.069  47.946  1.00  0.00    +0.000 C 
ATOM     59  C41 UNL A   1      49.939  17.292  48.366  1.00  0.00    +0.000 C 
ATOM     60  F11 UNL A   1      48.931  17.308  49.251  1.00  0.00    +0.000 F 
ATOM     61  C42 UNL A   1      50.405  18.500  47.852  1.00  0.00    +0.000 C 
ATOM     62  F12 UNL A   1      49.842  19.652  48.241  1.00  0.00    +0.000 F 
ATOM     63  C43 UNL A   1      51.438  18.509  46.927  1.00  0.00    +0.000 C 
ATOM     64  F13 UNL A   1      51.889  19.672  46.437  1.00  0.00    +0.000 F 
ENDBRANCH   57   58
TORSDOF 19
ENDMDL
MODEL 6
REMARK VINA RESULT:     -10.1      2.044      2.701
ROOT
ATOM     21  C16 UNL A   1      43.292  25.095  27.381  1.00  0.00    +0.000 C 
ATOM     22  C17 UNL A   1      42.362  26.085  28.024  1.00  0.00    +0.000 C 
ATOM     23  N4  UNL A   1      42.539  27.362  28.251  1.00  0.00    +0.000 N 
ATOM     24  C18 UNL A   1      41.357  27.811  28.825  1.00  0.00    +0.000 C 
ATOM     25  C19 UNL A   1      41.060  29.047  29.291  1.00  0.00    +0.000 C 
ATOM     37  C26 UNL A   1      41.971  30.161  29.274  1.00  0.00    +0.000 C 
ATOM     38  C27 UNL A   1      41.785  31.437  29.777  1.00  0.00    +0.000 C 
ATOM     39  C28 UNL A   1      42.931  32.189  29.494  1.00  0.00    +0.000 C 
ATOM     40  C29 UNL A   1      43.847  31.370  28.855  1.00  0.00    +0.000 C 
ATOM     41  N5  UNL A   1      43.243  30.130  28.721  1.00  0.00    +0.000 N 
ATOM     42  C30 UNL A   1      45.173  31.693  28.396  1.00  0.00    +0.000 C 
ATOM     54  C37 UNL A   1      46.018  30.827  27.784  1.00  0.00    +0.000 C 
ATOM     55  N6  UNL A   1      45.820  29.489  27.474  1.00  0.00    +0.000 N 
ATOM     56  C38 UNL A   1      46.919  29.092  26.879  1.00  0.00    +0.000 C 
ATOM     57  C39 UNL A   1      47.272  27.727  26.351  1.00  0.00    +0.000 C 
ATOM     69  C46 UNL A   1      46.392  26.718  26.490  1.00  0.00    +0.000 C 
ATOM     70  C47 UNL A   1      46.597  25.347  26.036  1.00  0.00    +0.000 C 
ATOM     71  C48 UNL A   1      45.492  24.629  26.298  1.00  0.00    +0.000 C 
ATOM     72  C49 UNL A   1      44.514  25.485  26.972  1.00  0.00    +0.000 C 
ATOM     73  N7  UNL A   1      45.139  26.704  27.052  1.00  0.00    +0.000 N 
ATOM     74  C50 UNL A   1      47.931  30.146  26.720  1.00  0.00    +0.000 C 
ATOM     75  C51 UNL A   1      47.346  31.171  27.322  1.00  0.00    +0.000 C 
ATOM     76  C52 UNL A   1      40.452  26.681  28.869  1.00  0.00    +0.000 C 
ATOM     77  C53 UNL A   1      41.048  25.576  28.446  1.00  0.00    +0.000 C 
ATOM    113  H21 UNL A   1      40.948  31.776  30.274  1.00  0.00    +0.000 H 
ATOM    114  H22 UNL A   1      43.071  33.186  29.725  1.00  0.00    +0.000 H 
ATOM    115  H23 UNL A   1      43.655  29.343  28.297  1.00  0.00    +0.000 H 
ATOM    116  H24 UNL A   1      47.453  24.986  25.584  1.00  0.00    +0.000 H 
ATOM    117  H25 UNL A   1      45.355  23.634  26.062  1.00  0.00    +0.000 H 
ATOM    118  H26 UNL A   1      44.728  27.493  27.472  1.00  0.00    +0.000 H 
ATOM    119  H27 UNL A   1      48.853  30.099  26.259  1.00  0.00    +0.000 H 
ATOM    120  H28 UNL A   1      47.783  32.098  27.446  1.00  0.00    +0.000 H 
ATOM    121  H29 UNL A   1      39.472  26.731  29.187  1.00  0.00    +0.000 H 
ATOM    122  H30 UNL A   1      40.685  24.610  28.421  1.00  0.00    +0.000 H 
ENDROOT
BRANCH   21   20
ATOM     78  C54 UNL A   1      42.432  23.333  25.838  1.00  0.00    +0.000 C 
ATOM    111  H19 UNL A   1      42.434  20.731  28.644  1.00  0.00    +0.000 H 
ATOM     79  C55 UNL A   1      41.993  22.036  25.584  1.00  0.00    +0.000 C 
ATOM     17  C12 UNL A   1      42.050  21.072  26.595  1.00  0.00    +0.000 C 
ATOM     18  C13 UNL A   1      42.433  21.434  27.889  1.00  0.00    +0.000 C 
ATOM     19  C14 UNL A   1      42.811  22.751  28.158  1.00  0.00    +0.000 C 
ATOM    112  H20 UNL A   1      43.070  23.025  29.119  1.00  0.00    +0.000 H 
ATOM     20  C15 UNL A   1      42.842  23.704  27.127  1.00  0.00    +0.000 C 
ATOM    123  H31 UNL A   1      42.457  24.025  25.073  1.00  0.00    +0.000 H 
ATOM    124  H32 UNL A   1      41.627  21.787  24.653  1.00  0.00    +0.000 H 
BRANCH   17   15
ATOM     15  C11 UNL A   1      41.676  19.666  26.329  1.00  0.00    +0.000 C 
ATOM     16  O2  UNL A   1      42.543  18.856  26.013  1.00  0.00    +0.000 O 
BRANCH   15   14
ATOM    110  H18 UNL A   1      40.093  18.927  27.305  1.00  0.00    +0.000 H 
ATOM     14  N3  UNL A   1      40.367  19.268  26.423  1.00  0.00    +0.000 N 
BRANCH   14   13
ATOM    109  H17 UNL A   1      38.669  18.454  25.600  1.00  0.00    +0.000 H 
ATOM    108  H16 UNL A   1      39.777  19.199  24.444  1.00  0.00    +0.000 H 
ATOM     13  C10 UNL A   1      39.322  19.279  25.410  1.00  0.00    +0.000 C 
BRANCH   13   12
ATOM    106  H14 UNL A   1      38.493  20.919  26.465  1.00  0.00    +0.000 H 
ATOM    107  H15 UNL A   1      38.947  21.240  24.767  1.00  0.00    +0.000 H 
ATOM     12  C9  UNL A   1      38.492  20.559  25.457  1.00  0.00    +0.000 C 
BRANCH   12   11
ATOM    105  H13 UNL A   1      36.697  19.474  25.436  1.00  0.00    +0.000 H 
ATOM     11  C8  UNL A   1      37.038  20.394  25.009  1.00  0.00    +0.000 C 
ATOM    104  H12 UNL A   1      37.020  20.399  23.938  1.00  0.00    +0.000 H 
BRANCH   11   10
ATOM     10  C7  UNL A   1      36.074  21.478  25.506  1.00  0.00    +0.000 C 
ATOM    102  H10 UNL A   1      35.174  21.410  24.932  1.00  0.00    +0.000 H 
ATOM    103  H11 UNL A   1      35.928  21.291  26.549  1.00  0.00    +0.000 H 
BRANCH   10    9
ATOM      9  C6  UNL A   1      36.600  22.915  25.397  1.00  0.00    +0.000 C 
ATOM    100  H8  UNL A   1      35.991  23.546  26.011  1.00  0.00    +0.000 H 
ATOM    101  H9  UNL A   1      37.621  22.901  25.717  1.00  0.00    +0.000 H 
BRANCH    9    8
ATOM     98  H6  UNL A   1      36.603  24.535  24.010  1.00  0.00    +0.000 H 
ATOM     99  H7  UNL A   1      37.439  23.086  23.454  1.00  0.00    +0.000 H 
ATOM      8  C5  UNL A   1      36.582  23.465  23.970  1.00  0.00    +0.000 C 
BRANCH    8    7
ATOM     97  H5  UNL A   1      35.475  22.194  22.764  1.00  0.00    +0.000 H 
ATOM      7  N2  UNL A   1      35.397  23.046  23.252  1.00  0.00    +0.000 N 
BRANCH    7    5
ATOM      5  C4  UNL A   1      34.186  23.669  23.157  1.00  0.00    +0.000 C 
ATOM      6  O1  UNL A   1      33.193  22.977  22.923  1.00  0.00    +0.000 O 
BRANCH    5    4
ATOM      4  C3  UNL A   1      34.082  25.184  23.251  1.00  0.00    +0.000 C 
ATOM     95  H3  UNL A   1      34.956  25.545  23.752  1.00  0.00    +0.000 H 
ATOM     96  H4  UNL A   1      33.990  25.542  22.248  1.00  0.00    +0.000 H 
BRANCH    4    3
ATOM      2  C1  UNL A   1      31.629  26.020  23.371  1.00  0.00    +0.000 C 
ATOM      3  C2  UNL A   1      32.864  25.697  24.000  1.00  0.00    +0.000 C 
ATOM     80  C56 UNL A   1      33.014  25.882  25.388  1.00  0.00    +0.000 C 
ATOM     81  C57 UNL A   1      31.977  26.387  26.159  1.00  0.00    +0.000 C 
ATOM     82  C58 UNL A   1      30.768  26.710  25.554  1.00  0.00    +0.000 C 
ATOM     83  C59 UNL A   1      30.568  26.529  24.170  1.00  0.00    +0.000 C 
ATOM    125  H33 UNL A   1      33.910  25.640  25.839  1.00  0.00    +0.000 H 
ATOM    126  H34 UNL A   1      32.102  26.522  27.174  1.00  0.00    +0.000 H 
ATOM    127  H35 UNL A   1      30.001  27.091  26.129  1.00  0.00    +0.000 H 
BRANCH    2    1
ATOM      1  N1  UNL A   1      31.464  25.763  22.004  1.00  0.00    +0.000 N 
ATOM     93  H1  UNL A   1      30.614  25.987  21.559  1.00  0.00    +0.000 H 
ATOM     94  H2  UNL A   1      32.198  25.358  21.487  1.00  0.00    +0.000 H 
ENDBRANCH    2    1
BRANCH   83   84
ATOM     84  C60 UNL A   1      29.220  26.980  23.678  1.00  0.00    +0.000 C 
ATOM     85  O3  UNL A   1      28.228  26.272  23.854  1.00  0.00    +0.000 O 
BRANCH   84   86
ATOM    129  H37 UNL A   1      26.551  30.620  22.955  1.00  0.00    +0.000 H 
ATOM    130  H38 UNL A   1      30.419  30.748  21.299  1.00  0.00    +0.000 H 
ATOM    131  H39 UNL A   1      30.844  28.488  22.101  1.00  0.00    +0.000 H 
ATOM     86  C61 UNL A   1      28.969  28.294  23.060  1.00  0.00    +0.000 C 
ATOM     87  C62 UNL A   1      27.718  28.888  23.274  1.00  0.00    +0.000 C 
ATOM     88  C63 UNL A   1      27.467  30.174  22.792  1.00  0.00    +0.000 C 
ATOM     89  C64 UNL A   1      28.464  30.851  22.090  1.00  0.00    +0.000 C 
ATOM     90 Br1  UNL A   1      28.148  32.618  21.495  1.00  0.00    +0.000 Br
ATOM     91  C65 UNL A   1      29.695  30.244  21.835  1.00  0.00    +0.000 C 
ATOM     92  C66 UNL A   1      29.945  28.952  22.307  1.00  0.00    +0.000 C 
ATOM    128  H36 UNL A   1      26.983  28.375  23.784  1.00  0.00    +0.000 H 
ENDBRANCH   84   86
ENDBRANCH   83   84
ENDBRANCH    4    3
ENDBRANCH    5    4
ENDBRANCH    7    5
ENDBRANCH    8    7
ENDBRANCH    9    8
ENDBRANCH   10    9
ENDBRANCH   11   10
ENDBRANCH   12   11
ENDBRANCH   13   12
ENDBRANCH   14   13
ENDBRANCH   15   14
ENDBRANCH   17   15
ENDBRANCH   21   20
BRANCH   25   26
ATOM     33  C24 UNL A   1      37.367  29.924  29.585  1.00  0.00    +0.000 C 
ATOM     34  F4  UNL A   1      36.377  30.356  28.792  1.00  0.00    +0.000 F 
ATOM     35  C25 UNL A   1      38.633  29.692  29.053  1.00  0.00    +0.000 C 
ATOM     36  F5  UNL A   1      38.830  29.898  27.743  1.00  0.00    +0.000 F 
ATOM     26  C20 UNL A   1      39.690  29.259  29.868  1.00  0.00    +0.000 C 
ATOM     27  C21 UNL A   1      39.430  29.067  31.233  1.00  0.00    +0.000 C 
ATOM     28  F1  UNL A   1      40.404  28.642  32.052  1.00  0.00    +0.000 F 
ATOM     29  C22 UNL A   1      38.156  29.271  31.756  1.00  0.00    +0.000 C 
ATOM     30  F2  UNL A   1      37.921  29.035  33.054  1.00  0.00    +0.000 F 
ATOM     31  C23 UNL A   1      37.128  29.706  30.934  1.00  0.00    +0.000 C 
ATOM     32  F3  UNL A   1      35.903  29.908  31.440  1.00  0.00    +0.000 F 
ENDBRANCH   25   26
BRANCH   42   43
ATOM     43  C31 UNL A   1      45.673  33.087  28.631  1.00  0.00    +0.000 C 
ATOM     44  C32 UNL A   1      45.452  34.114  27.702  1.00  0.00    +0.000 C 
ATOM     45  F6  UNL A   1      44.826  33.853  26.544  1.00  0.00    +0.000 F 
ATOM     46  C33 UNL A   1      45.907  35.408  27.943  1.00  0.00    +0.000 C 
ATOM     47  F7  UNL A   1      45.724  36.364  27.022  1.00  0.00    +0.000 F 
ATOM     48  C34 UNL A   1      46.563  35.705  29.129  1.00  0.00    +0.000 C 
ATOM     49  F8  UNL A   1      46.995  36.952  29.362  1.00  0.00    +0.000 F 
ATOM     50  C35 UNL A   1      46.778  34.708  30.069  1.00  0.00    +0.000 C 
ATOM     51  F9  UNL A   1      47.401  34.997  31.220  1.00  0.00    +0.000 F 
ATOM     52  C36 UNL A   1      46.348  33.408  29.819  1.00  0.00    +0.000 C 
ATOM     53  F10 UNL A   1      46.580  32.463  30.742  1.00  0.00    +0.000 F 
ENDBRANCH   42   43
BRANCH   57   58
ATOM     65  C44 UNL A   1      50.964  26.968  25.864  1.00  0.00    +0.000 C 
ATOM     66  F14 UNL A   1      52.044  26.719  26.616  1.00  0.00    +0.000 F 
ATOM     67  C45 UNL A   1      49.730  27.192  26.473  1.00  0.00    +0.000 C 
ATOM     68  F15 UNL A   1      49.650  27.142  27.810  1.00  0.00    +0.000 F 
ATOM     58  C40 UNL A   1      48.589  27.479  25.710  1.00  0.00    +0.000 C 
ATOM     59  C41 UNL A   1      48.729  27.525  24.317  1.00  0.00    +0.000 C 
ATOM     60  F11 UNL A   1      47.661  27.777  23.546  1.00  0.00    +0.000 F 
ATOM     61  C42 UNL A   1      49.957  27.277  23.707  1.00  0.00    +0.000 C 
ATOM     62  F12 UNL A   1      50.053  27.287  22.372  1.00  0.00    +0.000 F 
ATOM     63  C43 UNL A   1      51.074  27.003  24.482  1.00  0.00    +0.000 C 
ATOM     64  F13 UNL A   1      52.256  26.768  23.896  1.00  0.00    +0.000 F 
ENDBRANCH   57   58
TORSDOF 19
ENDMDL
MODEL 7
REMARK VINA RESULT:     -10.1      2.134      3.398
ROOT
ATOM     21  C16 UNL A   1      43.294  24.909  27.405  1.00  0.00    +0.000 C 
ATOM     22  C17 UNL A   1      42.382  25.950  27.993  1.00  0.00    +0.000 C 
ATOM     23  N4  UNL A   1      42.617  27.214  28.237  1.00  0.00    +0.000 N 
ATOM     24  C18 UNL A   1      41.427  27.729  28.736  1.00  0.00    +0.000 C 
ATOM     25  C19 UNL A   1      41.172  28.979  29.188  1.00  0.00    +0.000 C 
ATOM     37  C26 UNL A   1      42.143  30.040  29.235  1.00  0.00    +0.000 C 
ATOM     38  C27 UNL A   1      41.999  31.323  29.732  1.00  0.00    +0.000 C 
ATOM     39  C28 UNL A   1      43.201  32.009  29.528  1.00  0.00    +0.000 C 
ATOM     40  C29 UNL A   1      44.108  31.140  28.945  1.00  0.00    +0.000 C 
ATOM     41  N5  UNL A   1      43.445  29.936  28.766  1.00  0.00    +0.000 N 
ATOM     42  C30 UNL A   1      45.478  31.388  28.575  1.00  0.00    +0.000 C 
ATOM     54  C37 UNL A   1      46.310  30.476  28.014  1.00  0.00    +0.000 C 
ATOM     55  N6  UNL A   1      46.057  29.151  27.685  1.00  0.00    +0.000 N 
ATOM     56  C38 UNL A   1      47.168  28.693  27.160  1.00  0.00    +0.000 C 
ATOM     57  C39 UNL A   1      47.476  27.311  26.649  1.00  0.00    +0.000 C 
ATOM     69  C46 UNL A   1      46.532  26.354  26.725  1.00  0.00    +0.000 C 
ATOM     70  C47 UNL A   1      46.688  24.974  26.278  1.00  0.00    +0.000 C 
ATOM     71  C48 UNL A   1      45.530  24.320  26.464  1.00  0.00    +0.000 C 
ATOM     72  C49 UNL A   1      44.561  25.229  27.079  1.00  0.00    +0.000 C 
ATOM     73  N7  UNL A   1      45.247  26.411  27.205  1.00  0.00    +0.000 N 
ATOM     74  C50 UNL A   1      48.246  29.688  27.072  1.00  0.00    +0.000 C 
ATOM     75  C51 UNL A   1      47.683  30.744  27.641  1.00  0.00    +0.000 C 
ATOM     76  C52 UNL A   1      40.458  26.653  28.715  1.00  0.00    +0.000 C 
ATOM     77  C53 UNL A   1      41.016  25.516  28.326  1.00  0.00    +0.000 C 
ATOM    113  H21 UNL A   1      41.151  31.708  30.176  1.00  0.00    +0.000 H 
ATOM    114  H22 UNL A   1      43.382  32.995  29.772  1.00  0.00    +0.000 H 
ATOM    115  H23 UNL A   1      43.838  29.128  28.366  1.00  0.00    +0.000 H 
ATOM    116  H24 UNL A   1      47.549  24.566  25.881  1.00  0.00    +0.000 H 
ATOM    117  H25 UNL A   1      45.351  23.335  26.215  1.00  0.00    +0.000 H 
ATOM    118  H26 UNL A   1      44.855  27.221  27.602  1.00  0.00    +0.000 H 
ATOM    119  H27 UNL A   1      49.192  29.589  26.672  1.00  0.00    +0.000 H 
ATOM    120  H28 UNL A   1      48.163  31.644  27.798  1.00  0.00    +0.000 H 
ATOM    121  H29 UNL A   1      39.464  26.758  28.969  1.00  0.00    +0.000 H 
ATOM    122  H30 UNL A   1      40.601  24.572  28.272  1.00  0.00    +0.000 H 
ENDROOT
BRANCH   21   20
ATOM     78  C54 UNL A   1      42.380  23.221  25.813  1.00  0.00    +0.000 C 
ATOM    111  H19 UNL A   1      42.205  20.568  28.565  1.00  0.00    +0.000 H 
ATOM     79  C55 UNL A   1      41.884  21.951  25.525  1.00  0.00    +0.000 C 
ATOM     17  C12 UNL A   1      41.876  20.966  26.517  1.00  0.00    +0.000 C 
ATOM     18  C13 UNL A   1      42.252  21.285  27.824  1.00  0.00    +0.000 C 
ATOM     19  C14 UNL A   1      42.688  22.576  28.126  1.00  0.00    +0.000 C 
ATOM    112  H20 UNL A   1      42.941  22.819  29.097  1.00  0.00    +0.000 H 
ATOM     20  C15 UNL A   1      42.783  23.547  27.116  1.00  0.00    +0.000 C 
ATOM    123  H31 UNL A   1      42.452  23.926  25.062  1.00  0.00    +0.000 H 
ATOM    124  H32 UNL A   1      41.524  21.739  24.582  1.00  0.00    +0.000 H 
BRANCH   17   15
ATOM     15  C11 UNL A   1      41.441  19.585  26.216  1.00  0.00    +0.000 C 
ATOM     16  O2  UNL A   1      42.277  18.730  25.942  1.00  0.00    +0.000 O 
BRANCH   15   14
ATOM    110  H18 UNL A   1      39.776  18.881  27.075  1.00  0.00    +0.000 H 
ATOM     14  N3  UNL A   1      40.108  19.261  26.230  1.00  0.00    +0.000 N 
BRANCH   14   13
ATOM    109  H17 UNL A   1      38.421  18.589  25.268  1.00  0.00    +0.000 H 
ATOM    108  H16 UNL A   1      39.607  19.385  24.229  1.00  0.00    +0.000 H 
ATOM     13  C10 UNL A   1      39.112  19.401  25.178  1.00  0.00    +0.000 C 
BRANCH   13   12
ATOM    106  H14 UNL A   1      38.513  21.114  26.273  1.00  0.00    +0.000 H 
ATOM    107  H15 UNL A   1      38.664  21.337  24.508  1.00  0.00    +0.000 H 
ATOM     12  C9  UNL A   1      38.327  20.704  25.302  1.00  0.00    +0.000 C 
BRANCH   12   11
ATOM    105  H13 UNL A   1      36.538  19.663  25.650  1.00  0.00    +0.000 H 
ATOM     11  C8  UNL A   1      36.813  20.556  25.128  1.00  0.00    +0.000 C 
ATOM    104  H12 UNL A   1      36.604  20.518  24.079  1.00  0.00    +0.000 H 
BRANCH   11   10
ATOM     10  C7  UNL A   1      35.972  21.683  25.740  1.00  0.00    +0.000 C 
ATOM    102  H10 UNL A   1      34.964  21.567  25.399  1.00  0.00    +0.000 H 
ATOM    103  H11 UNL A   1      36.075  21.590  26.800  1.00  0.00    +0.000 H 
BRANCH   10    9
ATOM      9  C6  UNL A   1      36.433  23.103  25.388  1.00  0.00    +0.000 C 
ATOM    100  H8  UNL A   1      35.826  23.800  25.927  1.00  0.00    +0.000 H 
ATOM    101  H9  UNL A   1      37.466  23.173  25.655  1.00  0.00    +0.000 H 
BRANCH    9    8
ATOM     98  H6  UNL A   1      36.354  24.488  23.768  1.00  0.00    +0.000 H 
ATOM     99  H7  UNL A   1      37.155  22.963  23.396  1.00  0.00    +0.000 H 
ATOM      8  C5  UNL A   1      36.331  23.426  23.896  1.00  0.00    +0.000 C 
BRANCH    8    7
ATOM     97  H5  UNL A   1      35.056  21.932  23.234  1.00  0.00    +0.000 H 
ATOM      7  N2  UNL A   1      35.105  22.911  23.322  1.00  0.00    +0.000 N 
BRANCH    7    5
ATOM      5  C4  UNL A   1      34.008  23.598  22.885  1.00  0.00    +0.000 C 
ATOM      6  O1  UNL A   1      33.113  22.964  22.323  1.00  0.00    +0.000 O 
BRANCH    5    4
ATOM      4  C3  UNL A   1      33.938  25.112  23.012  1.00  0.00    +0.000 C 
ATOM     95  H3  UNL A   1      34.846  25.449  23.468  1.00  0.00    +0.000 H 
ATOM     96  H4  UNL A   1      33.795  25.490  22.022  1.00  0.00    +0.000 H 
BRANCH    4    3
ATOM      2  C1  UNL A   1      31.515  25.998  23.288  1.00  0.00    +0.000 C 
ATOM      3  C2  UNL A   1      32.774  25.631  23.840  1.00  0.00    +0.000 C 
ATOM     80  C56 UNL A   1      33.003  25.776  25.222  1.00  0.00    +0.000 C 
ATOM     81  C57 UNL A   1      32.022  26.283  26.061  1.00  0.00    +0.000 C 
ATOM     82  C58 UNL A   1      30.790  26.649  25.531  1.00  0.00    +0.000 C 
ATOM     83  C59 UNL A   1      30.511  26.509  24.156  1.00  0.00    +0.000 C 
ATOM    125  H33 UNL A   1      33.916  25.502  25.617  1.00  0.00    +0.000 H 
ATOM    126  H34 UNL A   1      32.204  26.388  27.070  1.00  0.00    +0.000 H 
ATOM    127  H35 UNL A   1      30.064  27.031  26.157  1.00  0.00    +0.000 H 
BRANCH    2    1
ATOM      1  N1  UNL A   1      31.271  25.781  21.925  1.00  0.00    +0.000 N 
ATOM     93  H1  UNL A   1      31.919  26.093  21.252  1.00  0.00    +0.000 H 
ATOM     94  H2  UNL A   1      30.451  25.316  21.639  1.00  0.00    +0.000 H 
ENDBRANCH    2    1
BRANCH   83   84
ATOM     84  C60 UNL A   1      29.149  27.003  23.749  1.00  0.00    +0.000 C 
ATOM     85  O3  UNL A   1      28.149  26.322  23.981  1.00  0.00    +0.000 O 
BRANCH   84   86
ATOM    129  H37 UNL A   1      30.531  30.638  21.349  1.00  0.00    +0.000 H 
ATOM    130  H38 UNL A   1      26.497  30.584  22.552  1.00  0.00    +0.000 H 
ATOM    131  H39 UNL A   1      26.874  28.494  23.743  1.00  0.00    +0.000 H 
ATOM     86  C61 UNL A   1      28.900  28.328  23.156  1.00  0.00    +0.000 C 
ATOM     87  C62 UNL A   1      29.965  28.962  22.502  1.00  0.00    +0.000 C 
ATOM     88  C63 UNL A   1      29.753  30.172  21.840  1.00  0.00    +0.000 C 
ATOM     89  C64 UNL A   1      28.481  30.746  21.848  1.00  0.00    +0.000 C 
ATOM     90 Br1  UNL A   1      28.179  32.352  20.896  1.00  0.00    +0.000 Br
ATOM     91  C65 UNL A   1      27.430  30.141  22.538  1.00  0.00    +0.000 C 
ATOM     92  C66 UNL A   1      27.641  28.934  23.211  1.00  0.00    +0.000 C 
ATOM    128  H36 UNL A   1      30.904  28.535  22.511  1.00  0.00    +0.000 H 
ENDBRANCH   84   86
ENDBRANCH   83   84
ENDBRANCH    4    3
ENDBRANCH    5    4
ENDBRANCH    7    5
ENDBRANCH    8    7
ENDBRANCH    9    8
ENDBRANCH   10    9
ENDBRANCH   11   10
ENDBRANCH   12   11
ENDBRANCH   13   12
ENDBRANCH   14   13
ENDBRANCH   15   14
ENDBRANCH   17   15
ENDBRANCH   21   20
BRANCH   25   26
ATOM     33  C24 UNL A   1      38.172  29.392  31.497  1.00  0.00    +0.000 C 
ATOM     34  F4  UNL A   1      37.890  29.260  32.800  1.00  0.00    +0.000 F 
ATOM     35  C25 UNL A   1      39.467  29.158  31.039  1.00  0.00    +0.000 C 
ATOM     36  F5  UNL A   1      40.412  28.814  31.926  1.00  0.00    +0.000 F 
ATOM     26  C20 UNL A   1      39.781  29.269  29.676  1.00  0.00    +0.000 C 
ATOM     27  C21 UNL A   1      38.752  29.624  28.792  1.00  0.00    +0.000 C 
ATOM     28  F1  UNL A   1      39.004  29.754  27.480  1.00  0.00    +0.000 F 
ATOM     29  C22 UNL A   1      37.466  29.886  29.256  1.00  0.00    +0.000 C 
ATOM     30  F2  UNL A   1      36.510  30.269  28.398  1.00  0.00    +0.000 F 
ATOM     31  C23 UNL A   1      37.176  29.763  30.607  1.00  0.00    +0.000 C 
ATOM     32  F3  UNL A   1      35.936  30.010  31.052  1.00  0.00    +0.000 F 
ENDBRANCH   25   26
BRANCH   42   43
ATOM     43  C31 UNL A   1      46.040  32.750  28.849  1.00  0.00    +0.000 C 
ATOM     44  C32 UNL A   1      46.752  33.030  30.024  1.00  0.00    +0.000 C 
ATOM     45  F6  UNL A   1      46.901  32.084  30.964  1.00  0.00    +0.000 F 
ATOM     46  C33 UNL A   1      47.282  34.297  30.255  1.00  0.00    +0.000 C 
ATOM     47  F7  UNL A   1      47.922  34.555  31.404  1.00  0.00    +0.000 F 
ATOM     48  C34 UNL A   1      47.137  35.297  29.304  1.00  0.00    +0.000 C 
ATOM     49  F8  UNL A   1      47.653  36.513  29.525  1.00  0.00    +0.000 F 
ATOM     50  C35 UNL A   1      46.450  35.037  28.127  1.00  0.00    +0.000 C 
ATOM     51  F9  UNL A   1      46.319  35.998  27.202  1.00  0.00    +0.000 F 
ATOM     52  C36 UNL A   1      45.896  33.780  27.905  1.00  0.00    +0.000 C 
ATOM     53  F10 UNL A   1      45.227  33.561  26.763  1.00  0.00    +0.000 F 
ENDBRANCH   42   43
BRANCH   57   58
ATOM     65  C44 UNL A   1      50.363  26.860  24.220  1.00  0.00    +0.000 C 
ATOM     66  F14 UNL A   1      50.611  27.025  22.914  1.00  0.00    +0.000 F 
ATOM     67  C45 UNL A   1      49.107  27.174  24.734  1.00  0.00    +0.000 C 
ATOM     68  F15 UNL A   1      48.167  27.648  23.904  1.00  0.00    +0.000 F 
ATOM     58  C40 UNL A   1      48.816  26.989  26.093  1.00  0.00    +0.000 C 
ATOM     59  C41 UNL A   1      49.831  26.485  26.917  1.00  0.00    +0.000 C 
ATOM     60  F11 UNL A   1      49.604  26.309  28.227  1.00  0.00    +0.000 F 
ATOM     61  C42 UNL A   1      51.095  26.195  26.407  1.00  0.00    +0.000 C 
ATOM     62  F12 UNL A   1      52.060  25.754  27.225  1.00  0.00    +0.000 F 
ATOM     63  C43 UNL A   1      51.358  26.379  25.058  1.00  0.00    +0.000 C 
ATOM     64  F13 UNL A   1      52.572  26.096  24.567  1.00  0.00    +0.000 F 
ENDBRANCH   57   58
TORSDOF 19
ENDMDL
MODEL 8
REMARK VINA RESULT:     -10.0     25.735     33.956
ROOT
ATOM     21  C16 UNL A   1      22.338   8.774   7.329  1.00  0.00    +0.000 C 
ATOM     22  C17 UNL A   1      21.557   7.855   8.225  1.00  0.00    +0.000 C 
ATOM     23  N4  UNL A   1      21.722   6.575   8.446  1.00  0.00    +0.000 N 
ATOM     24  C18 UNL A   1      20.763   6.228   9.389  1.00  0.00    +0.000 C 
ATOM     25  C19 UNL A   1      20.489   5.007   9.905  1.00  0.00    +0.000 C 
ATOM     37  C26 UNL A   1      21.179   3.798   9.540  1.00  0.00    +0.000 C 
ATOM     38  C27 UNL A   1      20.936   2.502   9.961  1.00  0.00    +0.000 C 
ATOM     39  C28 UNL A   1      21.886   1.664   9.369  1.00  0.00    +0.000 C 
ATOM     40  C29 UNL A   1      22.694   2.430   8.545  1.00  0.00    +0.000 C 
ATOM     41  N5  UNL A   1      22.253   3.739   8.663  1.00  0.00    +0.000 N 
ATOM     42  C30 UNL A   1      23.789   2.002   7.713  1.00  0.00    +0.000 C 
ATOM     54  C37 UNL A   1      24.530   2.818   6.922  1.00  0.00    +0.000 C 
ATOM     55  N6  UNL A   1      24.412   4.187   6.728  1.00  0.00    +0.000 N 
ATOM     56  C38 UNL A   1      25.360   4.513   5.883  1.00  0.00    +0.000 C 
ATOM     57  C39 UNL A   1      25.687   5.860   5.297  1.00  0.00    +0.000 C 
ATOM     69  C46 UNL A   1      24.930   6.924   5.627  1.00  0.00    +0.000 C 
ATOM     70  C47 UNL A   1      25.121   8.284   5.136  1.00  0.00    +0.000 C 
ATOM     71  C48 UNL A   1      24.215   9.090   5.714  1.00  0.00    +0.000 C 
ATOM     72  C49 UNL A   1      23.355   8.292   6.590  1.00  0.00    +0.000 C 
ATOM     73  N7  UNL A   1      23.848   7.017   6.467  1.00  0.00    +0.000 N 
ATOM     74  C50 UNL A   1      26.207   3.387   5.466  1.00  0.00    +0.000 C 
ATOM     75  C51 UNL A   1      25.634   2.372   6.097  1.00  0.00    +0.000 C 
ATOM     76  C52 UNL A   1      20.050   7.440   9.733  1.00  0.00    +0.000 C 
ATOM     77  C53 UNL A   1      20.458   8.460   8.994  1.00  0.00    +0.000 C 
ATOM    113  H21 UNL A   1      20.183   2.206  10.601  1.00  0.00    +0.000 H 
ATOM    114  H22 UNL A   1      21.971   0.646   9.520  1.00  0.00    +0.000 H 
ATOM    115  H23 UNL A   1      22.643   4.511   8.194  1.00  0.00    +0.000 H 
ATOM    116  H24 UNL A   1      25.838   8.581   4.455  1.00  0.00    +0.000 H 
ATOM    117  H25 UNL A   1      24.136  10.108   5.564  1.00  0.00    +0.000 H 
ATOM    118  H26 UNL A   1      23.463   6.243   6.938  1.00  0.00    +0.000 H 
ATOM    119  H27 UNL A   1      27.031   3.387   4.845  1.00  0.00    +0.000 H 
ATOM    120  H28 UNL A   1      25.936   1.389   6.012  1.00  0.00    +0.000 H 
ATOM    121  H29 UNL A   1      19.320   7.501  10.460  1.00  0.00    +0.000 H 
ATOM    122  H30 UNL A   1      20.099   9.428   8.964  1.00  0.00    +0.000 H 
ENDROOT
BRANCH   21   20
ATOM     78  C54 UNL A   1      22.782  11.098   8.121  1.00  0.00    +0.000 C 
ATOM    111  H19 UNL A   1      20.056  12.508   5.834  1.00  0.00    +0.000 H 
ATOM     79  C55 UNL A   1      22.507  12.463   8.126  1.00  0.00    +0.000 C 
ATOM     17  C12 UNL A   1      21.552  12.984   7.248  1.00  0.00    +0.000 C 
ATOM     18  C13 UNL A   1      20.790  12.126   6.451  1.00  0.00    +0.000 C 
ATOM     19  C14 UNL A   1      21.022  10.749   6.495  1.00  0.00    +0.000 C 
ATOM    112  H20 UNL A   1      20.442  10.113   5.925  1.00  0.00    +0.000 H 
ATOM     20  C15 UNL A   1      22.040  10.227   7.309  1.00  0.00    +0.000 C 
ATOM    123  H31 UNL A   1      23.536  10.724   8.718  1.00  0.00    +0.000 H 
ATOM    124  H32 UNL A   1      23.007  13.088   8.777  1.00  0.00    +0.000 H 
BRANCH   17   15
ATOM     15  C11 UNL A   1      21.305  14.440   7.167  1.00  0.00    +0.000 C 
ATOM     16  O2  UNL A   1      21.350  15.005   6.078  1.00  0.00    +0.000 O 
BRANCH   15   14
ATOM    110  H18 UNL A   1      20.366  14.765   8.905  1.00  0.00    +0.000 H 
ATOM     14  N3  UNL A   1      21.037  15.160   8.304  1.00  0.00    +0.000 N 
BRANCH   14   13
ATOM    109  H17 UNL A   1      20.795  17.077   9.003  1.00  0.00    +0.000 H 
ATOM    108  H16 UNL A   1      22.202  16.833   7.964  1.00  0.00    +0.000 H 
ATOM     13  C10 UNL A   1      21.604  16.424   8.752  1.00  0.00    +0.000 C 
BRANCH   13   12
ATOM    106  H14 UNL A   1      22.411  17.151  10.572  1.00  0.00    +0.000 H 
ATOM    107  H15 UNL A   1      22.100  15.393  10.509  1.00  0.00    +0.000 H 
ATOM     12  C9  UNL A   1      22.475  16.253   9.993  1.00  0.00    +0.000 C 
BRANCH   12   11
ATOM    105  H13 UNL A   1      24.082  14.917   9.804  1.00  0.00    +0.000 H 
ATOM     11  C8  UNL A   1      23.952  15.975   9.703  1.00  0.00    +0.000 C 
ATOM    104  H12 UNL A   1      24.537  16.545  10.395  1.00  0.00    +0.000 H 
BRANCH   11   10
ATOM     10  C7  UNL A   1      24.416  16.328   8.284  1.00  0.00    +0.000 C 
ATOM    102  H10 UNL A   1      23.606  16.815   7.782  1.00  0.00    +0.000 H 
ATOM    103  H11 UNL A   1      25.280  16.948   8.399  1.00  0.00    +0.000 H 
BRANCH   10    9
ATOM      9  C6  UNL A   1      24.857  15.134   7.428  1.00  0.00    +0.000 C 
ATOM    100  H8  UNL A   1      24.980  14.285   8.068  1.00  0.00    +0.000 H 
ATOM    101  H9  UNL A   1      24.097  14.978   6.691  1.00  0.00    +0.000 H 
BRANCH    9    8
ATOM     98  H6  UNL A   1      26.402  14.498   6.104  1.00  0.00    +0.000 H 
ATOM     99  H7  UNL A   1      26.045  16.223   6.045  1.00  0.00    +0.000 H 
ATOM      8  C5  UNL A   1      26.169  15.370   6.679  1.00  0.00    +0.000 C 
BRANCH    8    7
ATOM     97  H5  UNL A   1      27.086  15.431   8.537  1.00  0.00    +0.000 H 
ATOM      7  N2  UNL A   1      27.263  15.637   7.590  1.00  0.00    +0.000 N 
BRANCH    7    5
ATOM      5  C4  UNL A   1      28.504  16.136   7.317  1.00  0.00    +0.000 C 
ATOM      6  O1  UNL A   1      29.297  15.416   6.706  1.00  0.00    +0.000 O 
BRANCH    5    4
ATOM      4  C3  UNL A   1      28.921  17.506   7.828  1.00  0.00    +0.000 C 
ATOM     95  H3  UNL A   1      29.471  17.368   8.736  1.00  0.00    +0.000 H 
ATOM     96  H4  UNL A   1      29.496  17.956   7.047  1.00  0.00    +0.000 H 
BRANCH    4    3
ATOM      2  C1  UNL A   1      27.459  18.950   9.413  1.00  0.00    +0.000 C 
ATOM      3  C2  UNL A   1      27.772  18.459   8.115  1.00  0.00    +0.000 C 
ATOM     80  C56 UNL A   1      26.975  18.828   7.014  1.00  0.00    +0.000 C 
ATOM     81  C57 UNL A   1      25.875  19.658   7.173  1.00  0.00    +0.000 C 
ATOM     82  C58 UNL A   1      25.558  20.139   8.437  1.00  0.00    +0.000 C 
ATOM     83  C59 UNL A   1      26.335  19.808   9.566  1.00  0.00    +0.000 C 
ATOM    125  H33 UNL A   1      27.211  18.474   6.074  1.00  0.00    +0.000 H 
ATOM    126  H34 UNL A   1      25.297  19.917   6.358  1.00  0.00    +0.000 H 
ATOM    127  H35 UNL A   1      24.735  20.752   8.553  1.00  0.00    +0.000 H 
BRANCH    2    1
ATOM      1  N1  UNL A   1      28.300  18.638  10.489  1.00  0.00    +0.000 N 
ATOM     93  H1  UNL A   1      28.109  19.000  11.385  1.00  0.00    +0.000 H 
ATOM     94  H2  UNL A   1      29.083  18.057  10.350  1.00  0.00    +0.000 H 
ENDBRANCH    2    1
BRANCH   83   84
ATOM     84  C60 UNL A   1      25.816  20.373  10.860  1.00  0.00    +0.000 C 
ATOM     85  O3  UNL A   1      25.951  21.572  11.110  1.00  0.00    +0.000 O 
BRANCH   84   86
ATOM    129  H37 UNL A   1      21.875  18.664  12.420  1.00  0.00    +0.000 H 
ATOM    130  H38 UNL A   1      25.367  17.575  14.502  1.00  0.00    +0.000 H 
ATOM    131  H39 UNL A   1      26.690  19.011  13.046  1.00  0.00    +0.000 H 
ATOM     86  C61 UNL A   1      25.048  19.594  11.847  1.00  0.00    +0.000 C 
ATOM     87  C62 UNL A   1      23.657  19.529  11.688  1.00  0.00    +0.000 C 
ATOM     88  C63 UNL A   1      22.897  18.724  12.538  1.00  0.00    +0.000 C 
ATOM     89  C64 UNL A   1      23.532  18.001  13.549  1.00  0.00    +0.000 C 
ATOM     90 Br1  UNL A   1      22.511  16.860  14.659  1.00  0.00    +0.000 Br
ATOM     91  C65 UNL A   1      24.911  18.101  13.739  1.00  0.00    +0.000 C 
ATOM     92  C66 UNL A   1      25.673  18.914  12.896  1.00  0.00    +0.000 C 
ATOM    128  H36 UNL A   1      23.195  20.076  10.945  1.00  0.00    +0.000 H 
ENDBRANCH   84   86
ENDBRANCH   83   84
ENDBRANCH    4    3
ENDBRANCH    5    4
ENDBRANCH    7    5
ENDBRANCH    8    7
ENDBRANCH    9    8
ENDBRANCH   10    9
ENDBRANCH   11   10
ENDBRANCH   12   11
ENDBRANCH   13   12
ENDBRANCH   14   13
ENDBRANCH   15   14
ENDBRANCH   17   15
ENDBRANCH   21   20
BRANCH   25   26
ATOM     33  C24 UNL A   1      18.666   4.825  13.242  1.00  0.00    +0.000 C 
ATOM     34  F4  UNL A   1      18.970   4.834  14.548  1.00  0.00    +0.000 F 
ATOM     35  C25 UNL A   1      19.678   4.943  12.292  1.00  0.00    +0.000 C 
ATOM     36  F5  UNL A   1      20.945   5.075  12.713  1.00  0.00    +0.000 F 
ATOM     26  C20 UNL A   1      19.387   4.915  10.920  1.00  0.00    +0.000 C 
ATOM     27  C21 UNL A   1      18.046   4.767  10.537  1.00  0.00    +0.000 C 
ATOM     28  F1  UNL A   1      17.713   4.747   9.237  1.00  0.00    +0.000 F 
ATOM     29  C22 UNL A   1      17.033   4.679  11.489  1.00  0.00    +0.000 C 
ATOM     30  F2  UNL A   1      15.754   4.586  11.098  1.00  0.00    +0.000 F 
ATOM     31  C23 UNL A   1      17.345   4.702  12.840  1.00  0.00    +0.000 C 
ATOM     32  F3  UNL A   1      16.370   4.611  13.755  1.00  0.00    +0.000 F 
ENDBRANCH   25   26
BRANCH   42   43
ATOM     43  C31 UNL A   1      24.128   0.542   7.700  1.00  0.00    +0.000 C 
ATOM     44  C32 UNL A   1      23.548  -0.339   6.776  1.00  0.00    +0.000 C 
ATOM     45  F6  UNL A   1      22.626   0.104   5.908  1.00  0.00    +0.000 F 
ATOM     46  C33 UNL A   1      23.887  -1.690   6.766  1.00  0.00    +0.000 C 
ATOM     47  F7  UNL A   1      23.288  -2.523   5.903  1.00  0.00    +0.000 F 
ATOM     48  C34 UNL A   1      24.831  -2.178   7.658  1.00  0.00    +0.000 C 
ATOM     49  F8  UNL A   1      25.160  -3.477   7.642  1.00  0.00    +0.000 F 
ATOM     50  C35 UNL A   1      25.429  -1.320   8.569  1.00  0.00    +0.000 C 
ATOM     51  F9  UNL A   1      26.351  -1.788   9.422  1.00  0.00    +0.000 F 
ATOM     52  C36 UNL A   1      25.074   0.025   8.599  1.00  0.00    +0.000 C 
ATOM     53  F10 UNL A   1      25.660   0.828   9.500  1.00  0.00    +0.000 F 
ENDBRANCH   42   43
BRANCH   57   58
ATOM     65  C44 UNL A   1      29.139   6.539   3.862  1.00  0.00    +0.000 C 
ATOM     66  F14 UNL A   1      30.351   6.910   4.297  1.00  0.00    +0.000 F 
ATOM     67  C45 UNL A   1      28.093   6.383   4.770  1.00  0.00    +0.000 C 
ATOM     68  F15 UNL A   1      28.328   6.601   6.072  1.00  0.00    +0.000 F 
ATOM     58  C40 UNL A   1      26.810   6.019   4.338  1.00  0.00    +0.000 C 
ATOM     59  C41 UNL A   1      26.617   5.810   2.966  1.00  0.00    +0.000 C 
ATOM     60  F11 UNL A   1      25.411   5.441   2.509  1.00  0.00    +0.000 F 
ATOM     61  C42 UNL A   1      27.669   5.941   2.062  1.00  0.00    +0.000 C 
ATOM     62  F12 UNL A   1      27.466   5.695   0.761  1.00  0.00    +0.000 F 
ATOM     63  C43 UNL A   1      28.928   6.310   2.511  1.00  0.00    +0.000 C 
ATOM     64  F13 UNL A   1      29.939   6.440   1.641  1.00  0.00    +0.000 F 
ENDBRANCH   57   58
TORSDOF 19
ENDMDL
MODEL 9
REMARK VINA RESULT:      -9.9     21.414     28.973
ROOT
ATOM     21  C16 UNL A   1      26.437  35.440  45.814  1.00  0.00    +0.000 C 
ATOM     22  C17 UNL A   1      25.089  34.787  45.686  1.00  0.00    +0.000 C 
ATOM     23  N4  UNL A   1      23.944  35.139  46.213  1.00  0.00    +0.000 N 
ATOM     24  C18 UNL A   1      23.013  34.223  45.741  1.00  0.00    +0.000 C 
ATOM     25  C19 UNL A   1      21.697  34.126  46.042  1.00  0.00    +0.000 C 
ATOM     37  C26 UNL A   1      21.005  35.000  46.953  1.00  0.00    +0.000 C 
ATOM     38  C27 UNL A   1      19.687  34.946  47.370  1.00  0.00    +0.000 C 
ATOM     39  C28 UNL A   1      19.455  36.026  48.228  1.00  0.00    +0.000 C 
ATOM     40  C29 UNL A   1      20.640  36.727  48.382  1.00  0.00    +0.000 C 
ATOM     41  N5  UNL A   1      21.582  36.089  47.589  1.00  0.00    +0.000 N 
ATOM     42  C30 UNL A   1      20.896  37.893  49.188  1.00  0.00    +0.000 C 
ATOM     54  C37 UNL A   1      22.094  38.518  49.293  1.00  0.00    +0.000 C 
ATOM     55  N6  UNL A   1      23.301  38.198  48.687  1.00  0.00    +0.000 N 
ATOM     56  C38 UNL A   1      24.158  39.105  49.092  1.00  0.00    +0.000 C 
ATOM     57  C39 UNL A   1      25.622  39.236  48.772  1.00  0.00    +0.000 C 
ATOM     69  C46 UNL A   1      26.209  38.319  47.979  1.00  0.00    +0.000 C 
ATOM     70  C47 UNL A   1      27.614  38.313  47.588  1.00  0.00    +0.000 C 
ATOM     71  C48 UNL A   1      27.833  37.282  46.755  1.00  0.00    +0.000 C 
ATOM     72  C49 UNL A   1      26.586  36.534  46.583  1.00  0.00    +0.000 C 
ATOM     73  N7  UNL A   1      25.679  37.217  47.354  1.00  0.00    +0.000 N 
ATOM     74  C50 UNL A   1      23.581  40.121  49.983  1.00  0.00    +0.000 C 
ATOM     75  C51 UNL A   1      22.332  39.695  50.103  1.00  0.00    +0.000 C 
ATOM     76  C52 UNL A   1      23.717  33.327  44.848  1.00  0.00    +0.000 C 
ATOM     77  C53 UNL A   1      25.014  33.592  44.830  1.00  0.00    +0.000 C 
ATOM    113  H21 UNL A   1      18.994  34.233  47.095  1.00  0.00    +0.000 H 
ATOM    114  H22 UNL A   1      18.554  36.261  48.674  1.00  0.00    +0.000 H 
ATOM    115  H23 UNL A   1      22.521  36.368  47.493  1.00  0.00    +0.000 H 
ATOM    116  H24 UNL A   1      28.327  38.992  47.901  1.00  0.00    +0.000 H 
ATOM    117  H25 UNL A   1      28.734  37.054  46.309  1.00  0.00    +0.000 H 
ATOM    118  H26 UNL A   1      24.739  36.943  47.450  1.00  0.00    +0.000 H 
ATOM    119  H27 UNL A   1      24.031  40.950  50.403  1.00  0.00    +0.000 H 
ATOM    120  H28 UNL A   1      21.619  40.145  50.699  1.00  0.00    +0.000 H 
ATOM    121  H29 UNL A   1      23.265  32.580  44.297  1.00  0.00    +0.000 H 
ATOM    122  H30 UNL A   1      25.774  33.091  44.343  1.00  0.00    +0.000 H 
ENDROOT
BRANCH   21   20
ATOM     78  C54 UNL A   1      27.816  35.397  43.735  1.00  0.00    +0.000 C 
ATOM    111  H19 UNL A   1      30.224  32.844  45.263  1.00  0.00    +0.000 H 
ATOM     79  C55 UNL A   1      28.887  34.915  42.986  1.00  0.00    +0.000 C 
ATOM     17  C12 UNL A   1      29.798  34.028  43.565  1.00  0.00    +0.000 C 
ATOM     18  C13 UNL A   1      29.573  33.532  44.852  1.00  0.00    +0.000 C 
ATOM     19  C14 UNL A   1      28.463  33.967  45.579  1.00  0.00    +0.000 C 
ATOM    112  H20 UNL A   1      28.282  33.581  46.520  1.00  0.00    +0.000 H 
ATOM     20  C15 UNL A   1      27.592  34.925  45.037  1.00  0.00    +0.000 C 
ATOM    123  H31 UNL A   1      27.185  36.106  43.331  1.00  0.00    +0.000 H 
ATOM    124  H32 UNL A   1      29.007  35.212  42.005  1.00  0.00    +0.000 H 
BRANCH   17   15
ATOM     15  C11 UNL A   1      30.994  33.571  42.824  1.00  0.00    +0.000 C 
ATOM     16  O2  UNL A   1      32.001  33.236  43.440  1.00  0.00    +0.000 O 
BRANCH   15   14
ATOM    110  H18 UNL A   1      30.181  33.133  41.048  1.00  0.00    +0.000 H 
ATOM     14  N3  UNL A   1      30.985  33.533  41.452  1.00  0.00    +0.000 N 
BRANCH   14   13
ATOM    109  H17 UNL A   1      31.552  33.992  39.532  1.00  0.00    +0.000 H 
ATOM    108  H16 UNL A   1      32.838  33.347  40.557  1.00  0.00    +0.000 H 
ATOM     13  C10 UNL A   1      31.989  33.998  40.508  1.00  0.00    +0.000 C 
BRANCH   13   12
ATOM    106  H14 UNL A   1      32.725  35.470  41.844  1.00  0.00    +0.000 H 
ATOM    107  H15 UNL A   1      33.257  35.630  40.146  1.00  0.00    +0.000 H 
ATOM     12  C9  UNL A   1      32.444  35.423  40.812  1.00  0.00    +0.000 C 
BRANCH   12   11
ATOM    105  H13 UNL A   1      30.699  36.443  41.372  1.00  0.00    +0.000 H 
ATOM     11  C8  UNL A   1      31.386  36.499  40.554  1.00  0.00    +0.000 C 
ATOM    104  H12 UNL A   1      30.936  36.298  39.603  1.00  0.00    +0.000 H 
BRANCH   11   10
ATOM     10  C7  UNL A   1      31.912  37.940  40.536  1.00  0.00    +0.000 C 
ATOM    102  H10 UNL A   1      32.978  37.902  40.457  1.00  0.00    +0.000 H 
ATOM    103  H11 UNL A   1      31.440  38.419  39.704  1.00  0.00    +0.000 H 
BRANCH   10    9
ATOM      9  C6  UNL A   1      31.556  38.777  41.771  1.00  0.00    +0.000 C 
ATOM    100  H8  UNL A   1      32.453  39.222  42.149  1.00  0.00    +0.000 H 
ATOM    101  H9  UNL A   1      30.840  39.509  41.459  1.00  0.00    +0.000 H 
BRANCH    9    8
ATOM     98  H6  UNL A   1      30.099  38.529  43.308  1.00  0.00    +0.000 H 
ATOM     99  H7  UNL A   1      30.558  37.042  42.481  1.00  0.00    +0.000 H 
ATOM      8  C5  UNL A   1      30.908  37.965  42.894  1.00  0.00    +0.000 C 
BRANCH    8    7
ATOM     97  H5  UNL A   1      32.279  36.774  43.892  1.00  0.00    +0.000 H 
ATOM      7  N2  UNL A   1      31.855  37.661  43.946  1.00  0.00    +0.000 N 
BRANCH    7    5
ATOM      5  C4  UNL A   1      32.240  38.435  45.003  1.00  0.00    +0.000 C 
ATOM      6  O1  UNL A   1      33.408  38.828  45.039  1.00  0.00    +0.000 O 
BRANCH    5    4
ATOM      4  C3  UNL A   1      31.277  38.729  46.143  1.00  0.00    +0.000 C 
ATOM     95  H3  UNL A   1      30.466  38.034  46.079  1.00  0.00    +0.000 H 
ATOM     96  H4  UNL A   1      31.843  38.638  47.046  1.00  0.00    +0.000 H 
BRANCH    4    3
ATOM      2  C1  UNL A   1      31.283  41.230  46.834  1.00  0.00    +0.000 C 
ATOM      3  C2  UNL A   1      30.696  40.133  46.144  1.00  0.00    +0.000 C 
ATOM     80  C56 UNL A   1      29.490  40.313  45.439  1.00  0.00    +0.000 C 
ATOM     81  C57 UNL A   1      28.853  41.545  45.412  1.00  0.00    +0.000 C 
ATOM     82  C58 UNL A   1      29.415  42.621  46.087  1.00  0.00    +0.000 C 
ATOM     83  C59 UNL A   1      30.628  42.492  46.795  1.00  0.00    +0.000 C 
ATOM    125  H33 UNL A   1      29.073  39.515  44.934  1.00  0.00    +0.000 H 
ATOM    126  H34 UNL A   1      27.968  41.661  44.895  1.00  0.00    +0.000 H 
ATOM    127  H35 UNL A   1      28.935  43.535  46.071  1.00  0.00    +0.000 H 
BRANCH    2    1
ATOM      1  N1  UNL A   1      32.520  41.061  47.471  1.00  0.00    +0.000 N 
ATOM     93  H1  UNL A   1      32.596  41.193  48.444  1.00  0.00    +0.000 H 
ATOM     94  H2  UNL A   1      33.314  40.810  46.945  1.00  0.00    +0.000 H 
ENDBRANCH    2    1
BRANCH   83   84
ATOM     84  C60 UNL A   1      31.062  43.743  47.509  1.00  0.00    +0.000 C 
ATOM     85  O3  UNL A   1      30.759  43.918  48.691  1.00  0.00    +0.000 O 
BRANCH   84   86
ATOM    129  H37 UNL A   1      32.223  48.113  46.849  1.00  0.00    +0.000 H 
ATOM    130  H38 UNL A   1      34.765  45.204  45.176  1.00  0.00    +0.000 H 
ATOM    131  H39 UNL A   1      33.268  43.445  45.946  1.00  0.00    +0.000 H 
ATOM     86  C61 UNL A   1      31.931  44.771  46.911  1.00  0.00    +0.000 C 
ATOM     87  C62 UNL A   1      31.606  46.115  47.138  1.00  0.00    +0.000 C 
ATOM     88  C63 UNL A   1      32.453  47.123  46.676  1.00  0.00    +0.000 C 
ATOM     89  C64 UNL A   1      33.612  46.781  45.978  1.00  0.00    +0.000 C 
ATOM     90 Br1  UNL A   1      34.792  48.144  45.409  1.00  0.00    +0.000 Br
ATOM     91  C65 UNL A   1      33.914  45.444  45.709  1.00  0.00    +0.000 C 
ATOM     92  C66 UNL A   1      33.062  44.433  46.162  1.00  0.00    +0.000 C 
ATOM    128  H36 UNL A   1      30.741  46.359  47.645  1.00  0.00    +0.000 H 
ENDBRANCH   84   86
ENDBRANCH   83   84
ENDBRANCH    4    3
ENDBRANCH    5    4
ENDBRANCH    7    5
ENDBRANCH    8    7
ENDBRANCH    9    8
ENDBRANCH   10    9
ENDBRANCH   11   10
ENDBRANCH   12   11
ENDBRANCH   13   12
ENDBRANCH   14   13
ENDBRANCH   15   14
ENDBRANCH   17   15
ENDBRANCH   21   20
BRANCH   25   26
ATOM     33  C24 UNL A   1      20.351  30.670  45.182  1.00  0.00    +0.000 C 
ATOM     34  F4  UNL A   1      20.509  29.405  45.598  1.00  0.00    +0.000 F 
ATOM     35  C25 UNL A   1      21.047  31.700  45.811  1.00  0.00    +0.000 C 
ATOM     36  F5  UNL A   1      21.858  31.398  46.836  1.00  0.00    +0.000 F 
ATOM     26  C20 UNL A   1      20.914  33.028  45.381  1.00  0.00    +0.000 C 
ATOM     27  C21 UNL A   1      20.058  33.286  44.300  1.00  0.00    +0.000 C 
ATOM     28  F1  UNL A   1      19.888  34.541  43.857  1.00  0.00    +0.000 F 
ATOM     29  C22 UNL A   1      19.341  32.258  43.692  1.00  0.00    +0.000 C 
ATOM     30  F2  UNL A   1      18.493  32.535  42.692  1.00  0.00    +0.000 F 
ATOM     31  C23 UNL A   1      19.493  30.951  44.129  1.00  0.00    +0.000 C 
ATOM     32  F3  UNL A   1      18.807  29.962  43.540  1.00  0.00    +0.000 F 
ENDBRANCH   25   26
BRANCH   42   43
ATOM     43  C31 UNL A   1      19.759  38.449  49.991  1.00  0.00    +0.000 C 
ATOM     44  C32 UNL A   1      19.349  37.856  51.194  1.00  0.00    +0.000 C 
ATOM     45  F6  UNL A   1      19.940  36.732  51.628  1.00  0.00    +0.000 F 
ATOM     46  C33 UNL A   1      18.302  38.396  51.937  1.00  0.00    +0.000 C 
ATOM     47  F7  UNL A   1      17.897  37.788  53.061  1.00  0.00    +0.000 F 
ATOM     48  C34 UNL A   1      17.667  39.553  51.508  1.00  0.00    +0.000 C 
ATOM     49  F8  UNL A   1      16.664  40.073  52.228  1.00  0.00    +0.000 F 
ATOM     50  C35 UNL A   1      18.068  40.164  50.330  1.00  0.00    +0.000 C 
ATOM     51  F9  UNL A   1      17.464  41.289  49.921  1.00  0.00    +0.000 F 
ATOM     52  C36 UNL A   1      19.097  39.613  49.571  1.00  0.00    +0.000 C 
ATOM     53  F10 UNL A   1      19.454  40.220  48.430  1.00  0.00    +0.000 F 
ENDBRANCH   42   43
BRANCH   57   58
ATOM     65  C44 UNL A   1      27.802  41.267  51.131  1.00  0.00    +0.000 C 
ATOM     66  F14 UNL A   1      28.371  41.134  52.336  1.00  0.00    +0.000 F 
ATOM     67  C45 UNL A   1      27.055  40.220  50.596  1.00  0.00    +0.000 C 
ATOM     68  F15 UNL A   1      26.929  39.088  51.302  1.00  0.00    +0.000 F 
ATOM     58  C40 UNL A   1      26.429  40.343  49.347  1.00  0.00    +0.000 C 
ATOM     59  C41 UNL A   1      26.587  41.550  48.652  1.00  0.00    +0.000 C 
ATOM     60  F11 UNL A   1      26.023  41.706  47.445  1.00  0.00    +0.000 F 
ATOM     61  C42 UNL A   1      27.356  42.587  49.176  1.00  0.00    +0.000 C 
ATOM     62  F12 UNL A   1      27.524  43.715  48.473  1.00  0.00    +0.000 F 
ATOM     63  C43 UNL A   1      27.959  42.446  50.417  1.00  0.00    +0.000 C 
ATOM     64  F13 UNL A   1      28.694  43.446  50.923  1.00  0.00    +0.000 F 
ENDBRANCH   57   58
TORSDOF 19
ENDMDL
MODEL 10
REMARK VINA RESULT:      -9.9     20.775     26.140
ROOT
ATOM     21  C16 UNL A   1      25.898  34.651  45.803  1.00  0.00    +0.000 C 
ATOM     22  C17 UNL A   1      25.575  35.797  46.720  1.00  0.00    +0.000 C 
ATOM     23  N4  UNL A   1      26.288  36.859  47.002  1.00  0.00    +0.000 N 
ATOM     24  C18 UNL A   1      25.509  37.618  47.866  1.00  0.00    +0.000 C 
ATOM     25  C19 UNL A   1      25.822  38.780  48.485  1.00  0.00    +0.000 C 
ATOM     37  C26 UNL A   1      27.084  39.458  48.348  1.00  0.00    +0.000 C 
ATOM     38  C27 UNL A   1      27.520  40.609  48.981  1.00  0.00    +0.000 C 
ATOM     39  C28 UNL A   1      28.800  40.912  48.505  1.00  0.00    +0.000 C 
ATOM     40  C29 UNL A   1      29.180  39.926  47.609  1.00  0.00    +0.000 C 
ATOM     41  N5  UNL A   1      28.115  39.043  47.518  1.00  0.00    +0.000 N 
ATOM     42  C30 UNL A   1      30.419  39.798  46.886  1.00  0.00    +0.000 C 
ATOM     54  C37 UNL A   1      30.720  38.792  46.029  1.00  0.00    +0.000 C 
ATOM     55  N6  UNL A   1      29.949  37.696  45.666  1.00  0.00    +0.000 N 
ATOM     56  C38 UNL A   1      30.670  37.019  44.805  1.00  0.00    +0.000 C 
ATOM     57  C39 UNL A   1      30.345  35.728  44.103  1.00  0.00    +0.000 C 
ATOM     69  C46 UNL A   1      29.174  35.115  44.359  1.00  0.00    +0.000 C 
ATOM     70  C47 UNL A   1      28.726  33.862  43.761  1.00  0.00    +0.000 C 
ATOM     71  C48 UNL A   1      27.492  33.578  44.211  1.00  0.00    +0.000 C 
ATOM     72  C49 UNL A   1      27.079  34.615  45.158  1.00  0.00    +0.000 C 
ATOM     73  N7  UNL A   1      28.144  35.480  45.190  1.00  0.00    +0.000 N 
ATOM     74  C50 UNL A   1      31.973  37.627  44.503  1.00  0.00    +0.000 C 
ATOM     75  C51 UNL A   1      31.968  38.683  45.304  1.00  0.00    +0.000 C 
ATOM     76  C52 UNL A   1      24.250  36.919  48.025  1.00  0.00    +0.000 C 
ATOM     77  C53 UNL A   1      24.266  35.757  47.390  1.00  0.00    +0.000 C 
ATOM    113  H21 UNL A   1      26.993  41.151  49.683  1.00  0.00    +0.000 H 
ATOM    114  H22 UNL A   1      29.367  41.731  48.776  1.00  0.00    +0.000 H 
ATOM    115  H23 UNL A   1      28.094  38.240  46.949  1.00  0.00    +0.000 H 
ATOM    116  H24 UNL A   1      29.269  33.285  43.098  1.00  0.00    +0.000 H 
ATOM    117  H25 UNL A   1      26.927  32.760  43.934  1.00  0.00    +0.000 H 
ATOM    118  H26 UNL A   1      28.167  36.285  45.755  1.00  0.00    +0.000 H 
ATOM    119  H27 UNL A   1      32.701  37.314  43.841  1.00  0.00    +0.000 H 
ATOM    120  H28 UNL A   1      32.755  39.344  45.398  1.00  0.00    +0.000 H 
ATOM    121  H29 UNL A   1      23.447  37.281  48.562  1.00  0.00    +0.000 H 
ATOM    122  H30 UNL A   1      23.547  35.016  47.371  1.00  0.00    +0.000 H 
ENDROOT
BRANCH   21   20
ATOM     78  C54 UNL A   1      24.855  32.457  46.373  1.00  0.00    +0.000 C 
ATOM    111  H19 UNL A   1      22.308  32.816  43.538  1.00  0.00    +0.000 H 
ATOM     79  C55 UNL A   1      23.924  31.447  46.141  1.00  0.00    +0.000 C 
ATOM     17  C12 UNL A   1      22.958  31.606  45.144  1.00  0.00    +0.000 C 
ATOM     18  C13 UNL A   1      22.997  32.720  44.301  1.00  0.00    +0.000 C 
ATOM     19  C14 UNL A   1      23.971  33.702  44.493  1.00  0.00    +0.000 C 
ATOM    112  H20 UNL A   1      24.015  34.513  43.856  1.00  0.00    +0.000 H 
ATOM     20  C15 UNL A   1      24.890  33.592  45.549  1.00  0.00    +0.000 C 
ATOM    123  H31 UNL A   1      25.523  32.371  47.155  1.00  0.00    +0.000 H 
ATOM    124  H32 UNL A   1      23.949  30.583  46.705  1.00  0.00    +0.000 H 
BRANCH   17   15
ATOM     15  C11 UNL A   1      21.902  30.591  44.937  1.00  0.00    +0.000 C 
ATOM     16  O2  UNL A   1      22.197  29.400  44.924  1.00  0.00    +0.000 O 
BRANCH   15   14
ATOM    110  H18 UNL A   1      20.459  31.946  44.644  1.00  0.00    +0.000 H 
ATOM     14  N3  UNL A   1      20.599  30.978  44.749  1.00  0.00    +0.000 N 
BRANCH   14   13
ATOM    109  H17 UNL A   1      19.221  29.749  45.650  1.00  0.00    +0.000 H 
ATOM    108  H16 UNL A   1      19.539  29.395  43.949  1.00  0.00    +0.000 H 
ATOM     13  C10 UNL A   1      19.395  30.164  44.679  1.00  0.00    +0.000 C 
BRANCH   13   12
ATOM    106  H14 UNL A   1      17.314  30.344  44.316  1.00  0.00    +0.000 H 
ATOM    107  H15 UNL A   1      18.110  31.792  44.996  1.00  0.00    +0.000 H 
ATOM     12  C9  UNL A   1      18.169  30.987  44.292  1.00  0.00    +0.000 C 
BRANCH   12   11
ATOM    105  H13 UNL A   1      18.991  31.084  42.364  1.00  0.00    +0.000 H 
ATOM     11  C8  UNL A   1      18.245  31.629  42.904  1.00  0.00    +0.000 C 
ATOM    104  H12 UNL A   1      18.482  32.665  43.032  1.00  0.00    +0.000 H 
BRANCH   11   10
ATOM     10  C7  UNL A   1      16.961  31.535  42.070  1.00  0.00    +0.000 C 
ATOM    102  H10 UNL A   1      16.825  32.469  41.565  1.00  0.00    +0.000 H 
ATOM    103  H11 UNL A   1      17.097  30.708  41.406  1.00  0.00    +0.000 H 
BRANCH   10    9
ATOM      9  C6  UNL A   1      15.687  31.237  42.870  1.00  0.00    +0.000 C 
ATOM    100  H8  UNL A   1      15.088  30.550  42.310  1.00  0.00    +0.000 H 
ATOM    101  H9  UNL A   1      15.994  30.833  43.812  1.00  0.00    +0.000 H 
BRANCH    9    8
ATOM     98  H6  UNL A   1      14.817  33.097  42.292  1.00  0.00    +0.000 H 
ATOM     99  H7  UNL A   1      13.863  32.163  43.444  1.00  0.00    +0.000 H 
ATOM      8  C5  UNL A   1      14.847  32.481  43.167  1.00  0.00    +0.000 C 
BRANCH    8    7
ATOM     97  H5  UNL A   1      15.338  32.828  45.151  1.00  0.00    +0.000 H 
ATOM      7  N2  UNL A   1      15.400  33.249  44.263  1.00  0.00    +0.000 N 
BRANCH    7    5
ATOM      5  C4  UNL A   1      15.997  34.477  44.234  1.00  0.00    +0.000 C 
ATOM      6  O1  UNL A   1      16.298  34.950  43.136  1.00  0.00    +0.000 O 
BRANCH    5    4
ATOM      4  C3  UNL A   1      16.355  35.198  45.525  1.00  0.00    +0.000 C 
ATOM     95  H3  UNL A   1      15.942  36.184  45.480  1.00  0.00    +0.000 H 
ATOM     96  H4  UNL A   1      15.954  34.606  46.320  1.00  0.00    +0.000 H 
BRANCH    4    3
ATOM      2  C1  UNL A   1      18.401  36.212  46.757  1.00  0.00    +0.000 C 
ATOM      3  C2  UNL A   1      17.845  35.322  45.796  1.00  0.00    +0.000 C 
ATOM     80  C56 UNL A   1      18.694  34.520  45.009  1.00  0.00    +0.000 C 
ATOM     81  C57 UNL A   1      20.073  34.589  45.146  1.00  0.00    +0.000 C 
ATOM     82  C58 UNL A   1      20.626  35.459  46.078  1.00  0.00    +0.000 C 
ATOM     83  C59 UNL A   1      19.815  36.270  46.898  1.00  0.00    +0.000 C 
ATOM    125  H33 UNL A   1      18.285  33.872  44.318  1.00  0.00    +0.000 H 
ATOM    126  H34 UNL A   1      20.683  33.999  44.560  1.00  0.00    +0.000 H 
ATOM    127  H35 UNL A   1      21.652  35.512  46.173  1.00  0.00    +0.000 H 
BRANCH    2    1
ATOM      1  N1  UNL A   1      17.546  36.951  47.587  1.00  0.00    +0.000 N 
ATOM     93  H1  UNL A   1      17.019  36.495  48.283  1.00  0.00    +0.000 H 
ATOM     94  H2  UNL A   1      17.473  37.926  47.475  1.00  0.00    +0.000 H 
ENDBRANCH    2    1
BRANCH   83   84
ATOM     84  C60 UNL A   1      20.582  37.188  47.811  1.00  0.00    +0.000 C 
ATOM     85  O3  UNL A   1      21.126  38.196  47.360  1.00  0.00    +0.000 O 
BRANCH   84   86
ATOM    129  H37 UNL A   1      21.740  34.752  51.500  1.00  0.00    +0.000 H 
ATOM    130  H38 UNL A   1      20.191  38.605  52.185  1.00  0.00    +0.000 H 
ATOM    131  H39 UNL A   1      19.830  38.892  49.793  1.00  0.00    +0.000 H 
ATOM     86  C61 UNL A   1      20.658  37.016  49.272  1.00  0.00    +0.000 C 
ATOM     87  C62 UNL A   1      21.171  35.807  49.762  1.00  0.00    +0.000 C 
ATOM     88  C63 UNL A   1      21.354  35.636  51.135  1.00  0.00    +0.000 C 
ATOM     89  C64 UNL A   1      21.011  36.668  52.009  1.00  0.00    +0.000 C 
ATOM     90 Br1  UNL A   1      21.322  36.460  53.862  1.00  0.00    +0.000 Br
ATOM     91  C65 UNL A   1      20.457  37.855  51.527  1.00  0.00    +0.000 C 
ATOM     92  C66 UNL A   1      20.262  38.026  50.153  1.00  0.00    +0.000 C 
ATOM    128  H36 UNL A   1      21.410  35.045  49.109  1.00  0.00    +0.000 H 
ENDBRANCH   84   86
ENDBRANCH   83   84
ENDBRANCH    4    3
ENDBRANCH    5    4
ENDBRANCH    7    5
ENDBRANCH    8    7
ENDBRANCH    9    8
ENDBRANCH   10    9
ENDBRANCH   11   10
ENDBRANCH   12   11
ENDBRANCH   13   12
ENDBRANCH   14   13
ENDBRANCH   15   14
ENDBRANCH   17   15
ENDBRANCH   21   20
BRANCH   25   26
ATOM     33  C24 UNL A   1      22.932  40.942  49.696  1.00  0.00    +0.000 C 
ATOM     34  F4  UNL A   1      22.096  41.863  49.195  1.00  0.00    +0.000 F 
ATOM     35  C25 UNL A   1      23.880  40.344  48.870  1.00  0.00    +0.000 C 
ATOM     36  F5  UNL A   1      23.926  40.698  47.577  1.00  0.00    +0.000 F 
ATOM     26  C20 UNL A   1      24.780  39.394  49.375  1.00  0.00    +0.000 C 
ATOM     27  C21 UNL A   1      24.693  39.066  50.737  1.00  0.00    +0.000 C 
ATOM     28  F1  UNL A   1      25.523  38.154  51.266  1.00  0.00    +0.000 F 
ATOM     29  C22 UNL A   1      23.724  39.645  51.553  1.00  0.00    +0.000 C 
ATOM     30  F2  UNL A   1      23.630  39.281  52.839  1.00  0.00    +0.000 F 
ATOM     31  C23 UNL A   1      22.850  40.587  51.034  1.00  0.00    +0.000 C 
ATOM     32  F3  UNL A   1      21.922  41.148  51.822  1.00  0.00    +0.000 F 
ENDBRANCH   25   26
BRANCH   42   43
ATOM     43  C31 UNL A   1      31.469  40.844  47.111  1.00  0.00    +0.000 C 
ATOM     44  C32 UNL A   1      32.590  40.600  47.916  1.00  0.00    +0.000 C 
ATOM     45  F6  UNL A   1      32.720  39.426  48.553  1.00  0.00    +0.000 F 
ATOM     46  C33 UNL A   1      33.566  41.577  48.101  1.00  0.00    +0.000 C 
ATOM     47  F7  UNL A   1      34.607  41.337  48.910  1.00  0.00    +0.000 F 
ATOM     48  C34 UNL A   1      33.453  42.802  47.460  1.00  0.00    +0.000 C 
ATOM     49  F8  UNL A   1      34.396  43.738  47.634  1.00  0.00    +0.000 F 
ATOM     50  C35 UNL A   1      32.361  43.059  46.646  1.00  0.00    +0.000 C 
ATOM     51  F9  UNL A   1      32.257  44.238  46.017  1.00  0.00    +0.000 F 
ATOM     52  C36 UNL A   1      31.371  42.095  46.481  1.00  0.00    +0.000 C 
ATOM     53  F10 UNL A   1      30.319  42.376  45.697  1.00  0.00    +0.000 F 
ENDBRANCH   42   43
BRANCH   57   58
ATOM     65  C44 UNL A   1      33.085  33.516  42.676  1.00  0.00    +0.000 C 
ATOM     66  F14 UNL A   1      33.914  32.549  43.093  1.00  0.00    +0.000 F 
ATOM     67  C45 UNL A   1      32.174  34.082  43.565  1.00  0.00    +0.000 C 
ATOM     68  F15 UNL A   1      32.140  33.635  44.828  1.00  0.00    +0.000 F 
ATOM     58  C40 UNL A   1      31.313  35.112  43.160  1.00  0.00    +0.000 C 
ATOM     59  C41 UNL A   1      31.395  35.547  41.830  1.00  0.00    +0.000 C 
ATOM     60  F11 UNL A   1      30.577  36.516  41.392  1.00  0.00    +0.000 F 
ATOM     61  C42 UNL A   1      32.288  34.963  40.935  1.00  0.00    +0.000 C 
ATOM     62  F12 UNL A   1      32.316  35.369  39.659  1.00  0.00    +0.000 F 
ATOM     63  C43 UNL A   1      33.136  33.951  41.360  1.00  0.00    +0.000 C 
ATOM     64  F13 UNL A   1      33.998  33.393  40.500  1.00  0.00    +0.000 F 
ENDBRANCH   57   58
TORSDOF 19
ENDMDL
