MODEL 1
REMARK VINA RESULT:      -9.9      0.000      0.000
ROOT
ATOM    129  H31 UNL A   1      56.219  18.351   9.138  1.00  0.00    +0.000 H 
ATOM    130  H32 UNL A   1      53.851  19.274   9.103  1.00  0.00    +0.000 H 
ATOM    131  H33 UNL A   1      55.364  19.799  12.940  1.00  0.00    +0.000 H 
ATOM    132  H34 UNL A   1      60.077  18.012  12.799  1.00  0.00    +0.000 H 
ATOM    133  H35 UNL A   1      60.275  18.666  15.268  1.00  0.00    +0.000 H 
ATOM    134  H36 UNL A   1      50.906  22.292  15.127  1.00  0.00    +0.000 H 
ATOM    135  H37 UNL A   1      50.622  21.497  12.708  1.00  0.00    +0.000 H 
ATOM     40  C27 UNL A   1      52.979  20.352  11.594  1.00  0.00    +0.000 C 
ATOM     41  C28 UNL A   1      52.780  20.860  12.992  1.00  0.00    +0.000 C 
ATOM     42  N5  UNL A   1      53.628  20.884  13.990  1.00  0.00    +0.000 N 
ATOM     43  C29 UNL A   1      52.956  21.489  15.042  1.00  0.00    +0.000 C 
ATOM     44  C30 UNL A   1      53.404  21.749  16.292  1.00  0.00    +0.000 C 
ATOM     56  C37 UNL A   1      54.707  21.399  16.791  1.00  0.00    +0.000 C 
ATOM     57  C38 UNL A   1      55.231  21.597  18.058  1.00  0.00    +0.000 C 
ATOM     58  C39 UNL A   1      56.536  21.090  18.077  1.00  0.00    +0.000 C 
ATOM     59  C40 UNL A   1      56.818  20.568  16.826  1.00  0.00    +0.000 C 
ATOM     60  N6  UNL A   1      55.690  20.766  16.047  1.00  0.00    +0.000 N 
ATOM     61  C41 UNL A   1      58.025  19.934  16.368  1.00  0.00    +0.000 C 
ATOM     73  C48 UNL A   1      58.224  19.455  15.118  1.00  0.00    +0.000 C 
ATOM     74  N7  UNL A   1      57.354  19.462  14.038  1.00  0.00    +0.000 N 
ATOM     75  C49 UNL A   1      58.003  18.896  13.052  1.00  0.00    +0.000 C 
ATOM     76  C50 UNL A   1      57.546  18.638  11.647  1.00  0.00    +0.000 C 
ATOM     88  C57 UNL A   1      56.299  18.977  11.272  1.00  0.00    +0.000 C 
ATOM     89  C58 UNL A   1      55.734  18.787   9.939  1.00  0.00    +0.000 C 
ATOM     90  C59 UNL A   1      54.480  19.269   9.921  1.00  0.00    +0.000 C 
ATOM     91  C60 UNL A   1      54.151  19.787  11.248  1.00  0.00    +0.000 C 
ATOM     92  N8  UNL A   1      55.285  19.563  11.988  1.00  0.00    +0.000 N 
ATOM     93  C61 UNL A   1      59.368  18.468  13.394  1.00  0.00    +0.000 C 
ATOM     94  C62 UNL A   1      59.447  18.822  14.671  1.00  0.00    +0.000 C 
ATOM     95  C63 UNL A   1      51.627  21.816  14.563  1.00  0.00    +0.000 C 
ATOM     96  C64 UNL A   1      51.460  21.424  13.307  1.00  0.00    +0.000 C 
ATOM    126  H28 UNL A   1      54.743  22.042  18.851  1.00  0.00    +0.000 H 
ATOM    127  H29 UNL A   1      57.178  21.103  18.886  1.00  0.00    +0.000 H 
ATOM    128  H30 UNL A   1      55.600  20.498  15.104  1.00  0.00    +0.000 H 
ENDROOT
BRANCH   40   39
ATOM     97  C65 UNL A   1      50.988  19.454  10.371  1.00  0.00    +0.000 C 
ATOM     98  C66 UNL A   1      49.967  19.589   9.426  1.00  0.00    +0.000 C 
ATOM     36  C23 UNL A   1      49.828  20.785   8.715  1.00  0.00    +0.000 C 
ATOM     37  C24 UNL A   1      50.758  21.814   8.895  1.00  0.00    +0.000 C 
ATOM     38  C25 UNL A   1      51.794  21.670   9.822  1.00  0.00    +0.000 C 
ATOM     39  C26 UNL A   1      51.907  20.495  10.579  1.00  0.00    +0.000 C 
ATOM    136  H38 UNL A   1      51.067  18.584  10.921  1.00  0.00    +0.000 H 
ATOM    137  H39 UNL A   1      49.316  18.806   9.254  1.00  0.00    +0.000 H 
ATOM    124  H26 UNL A   1      50.679  22.683   8.343  1.00  0.00    +0.000 H 
ATOM    125  H27 UNL A   1      52.479  22.432   9.950  1.00  0.00    +0.000 H 
BRANCH   36   34
ATOM     34  C22 UNL A   1      48.759  20.980   7.708  1.00  0.00    +0.000 C 
ATOM     35  O6  UNL A   1      48.149  22.046   7.684  1.00  0.00    +0.000 O 
BRANCH   34   33
ATOM     33  N4  UNL A   1      48.424  19.986   6.824  1.00  0.00    +0.000 N 
ATOM    123  H25 UNL A   1      47.768  19.334   7.163  1.00  0.00    +0.000 H 
BRANCH   33   32
ATOM    121  H23 UNL A   1      48.701  18.717   5.226  1.00  0.00    +0.000 H 
ATOM    122  H24 UNL A   1      48.345  20.405   4.823  1.00  0.00    +0.000 H 
ATOM     32  C21 UNL A   1      48.882  19.743   5.469  1.00  0.00    +0.000 C 
BRANCH   32   31
ATOM    119  H21 UNL A   1      50.527  20.314   4.266  1.00  0.00    +0.000 H 
ATOM     31  C20 UNL A   1      50.374  20.032   5.286  1.00  0.00    +0.000 C 
ATOM    120  H22 UNL A   1      50.601  20.796   6.000  1.00  0.00    +0.000 H 
BRANCH   31   30
ATOM    118  H20 UNL A   1      51.845  18.672   4.680  1.00  0.00    +0.000 H 
ATOM    117  H19 UNL A   1      50.771  18.070   5.992  1.00  0.00    +0.000 H 
ATOM     30  C19 UNL A   1      51.345  18.884   5.602  1.00  0.00    +0.000 C 
BRANCH   30   29
ATOM    115  H17 UNL A   1      52.931  20.105   6.310  1.00  0.00    +0.000 H 
ATOM    116  H18 UNL A   1      51.990  19.251   7.567  1.00  0.00    +0.000 H 
ATOM     29  C18 UNL A   1      52.459  19.192   6.607  1.00  0.00    +0.000 C 
BRANCH   29   28
ATOM    113  H15 UNL A   1      53.849  18.060   7.742  1.00  0.00    +0.000 H 
ATOM    114  H16 UNL A   1      53.094  17.205   6.366  1.00  0.00    +0.000 H 
ATOM     28  C17 UNL A   1      53.537  18.113   6.720  1.00  0.00    +0.000 C 
BRANCH   28   27
ATOM     27  C16 UNL A   1      54.782  18.354   5.853  1.00  0.00    +0.000 C 
ATOM    111  H13 UNL A   1      54.762  19.351   5.466  1.00  0.00    +0.000 H 
ATOM    112  H14 UNL A   1      55.664  18.224   6.445  1.00  0.00    +0.000 H 
BRANCH   27   26
ATOM     26  N3  UNL A   1      54.787  17.403   4.751  1.00  0.00    +0.000 N 
ATOM    110  H12 UNL A   1      54.885  17.811   3.861  1.00  0.00    +0.000 H 
BRANCH   26   24
ATOM     25  O5  UNL A   1      55.555  15.352   5.258  1.00  0.00    +0.000 O 
ATOM     24  C15 UNL A   1      54.676  16.038   4.739  1.00  0.00    +0.000 C 
BRANCH   24   23
ATOM    103  H5  UNL A   1      52.819  13.727   1.125  1.00  0.00    +0.000 H 
ATOM      8  C3  UNL A   1      53.800  14.776   2.681  1.00  0.00    +0.000 C 
ATOM      9  C4  UNL A   1      52.688  14.226   2.019  1.00  0.00    +0.000 C 
ATOM     10  C5  UNL A   1      51.405  14.354   2.562  1.00  0.00    +0.000 C 
ATOM    104  H6  UNL A   1      50.594  13.966   2.056  1.00  0.00    +0.000 H 
ATOM     11  C6  UNL A   1      51.216  15.004   3.786  1.00  0.00    +0.000 C 
ATOM    109  H11 UNL A   1      52.228  15.844   5.432  1.00  0.00    +0.000 H 
ATOM     22  C13 UNL A   1      52.348  15.436   4.491  1.00  0.00    +0.000 C 
ATOM     23  C14 UNL A   1      53.647  15.331   3.951  1.00  0.00    +0.000 C 
BRANCH    8    5
ATOM      5  S1  UNL A   1      55.309  14.900   1.776  1.00  0.00    +0.000 S 
ATOM      6  O2  UNL A   1      56.257  14.028   2.436  1.00  0.00    +0.000 O 
ATOM      7  O3  UNL A   1      55.612  16.282   1.501  1.00  0.00    +0.000 O 
BRANCH    5    4
ATOM      4  N1  UNL A   1      54.971  14.181   0.320  1.00  0.00    +0.000 N 
ATOM    102  H4  UNL A   1      54.117  13.695   0.268  1.00  0.00    +0.000 H 
BRANCH    4    2
ATOM      2  C2  UNL A   1      55.750  14.181  -0.844  1.00  0.00    +0.000 C 
ATOM      3  O1  UNL A   1      55.197  14.407  -1.913  1.00  0.00    +0.000 O 
BRANCH    2    1
ATOM      1  C1  UNL A   1      57.244  14.064  -0.730  1.00  0.00    +0.000 C 
ATOM     99  H1  UNL A   1      57.672  13.999  -1.708  1.00  0.00    +0.000 H 
ATOM    100  H2  UNL A   1      57.491  13.186  -0.173  1.00  0.00    +0.000 H 
ATOM    101  H3  UNL A   1      57.632  14.926  -0.229  1.00  0.00    +0.000 H 
ENDBRANCH    2    1
ENDBRANCH    4    2
ENDBRANCH    5    4
ENDBRANCH    8    5
BRANCH   11   12
ATOM    105  H7  UNL A   1      50.465  16.228   6.149  1.00  0.00    +0.000 H 
ATOM    106  H8  UNL A   1      48.327  16.952   6.811  1.00  0.00    +0.000 H 
ATOM    108  H10 UNL A   1      48.909  14.658   2.581  1.00  0.00    +0.000 H 
ATOM     12  C7  UNL A   1      49.860  15.379   4.257  1.00  0.00    +0.000 C 
ATOM     13  C8  UNL A   1      49.657  16.060   5.528  1.00  0.00    +0.000 C 
ATOM     14  C9  UNL A   1      48.442  16.469   5.906  1.00  0.00    +0.000 C 
ATOM     15  N2  UNL A   1      47.340  16.257   5.104  1.00  0.00    +0.000 N 
ATOM     19  C11 UNL A   1      47.426  15.618   3.878  1.00  0.00    +0.000 C 
ATOM     20  O4  UNL A   1      46.493  15.419   3.107  1.00  0.00    +0.000 O 
ATOM     21  C12 UNL A   1      48.788  15.157   3.476  1.00  0.00    +0.000 C 
BRANCH   15   16
ATOM     17  F1  UNL A   1      45.291  15.769   6.036  1.00  0.00    +0.000 F 
ATOM     18  F2  UNL A   1      46.157  17.750   6.411  1.00  0.00    +0.000 F 
ATOM    107  H9  UNL A   1      45.579  17.134   4.611  1.00  0.00    +0.000 H 
ATOM     16  C10 UNL A   1      46.046  16.757   5.497  1.00  0.00    +0.000 C 
ENDBRANCH   15   16
ENDBRANCH   11   12
ENDBRANCH   24   23
ENDBRANCH   26   24
ENDBRANCH   27   26
ENDBRANCH   28   27
ENDBRANCH   29   28
ENDBRANCH   30   29
ENDBRANCH   31   30
ENDBRANCH   32   31
ENDBRANCH   33   32
ENDBRANCH   34   33
ENDBRANCH   36   34
ENDBRANCH   40   39
BRANCH   44   45
ATOM     45  C31 UNL A   1      52.472  22.465  17.216  1.00  0.00    +0.000 C 
ATOM     46  C32 UNL A   1      52.336  23.859  17.173  1.00  0.00    +0.000 C 
ATOM     47  F3  UNL A   1      53.080  24.584  16.326  1.00  0.00    +0.000 F 
ATOM     48  C33 UNL A   1      51.443  24.511  18.020  1.00  0.00    +0.000 C 
ATOM     49  F4  UNL A   1      51.338  25.847  17.978  1.00  0.00    +0.000 F 
ATOM     50  C34 UNL A   1      50.667  23.783  18.909  1.00  0.00    +0.000 C 
ATOM     51  F5  UNL A   1      49.808  24.413  19.722  1.00  0.00    +0.000 F 
ATOM     52  C35 UNL A   1      50.785  22.401  18.961  1.00  0.00    +0.000 C 
ATOM     53  F6  UNL A   1      50.035  21.697  19.821  1.00  0.00    +0.000 F 
ATOM     54  C36 UNL A   1      51.683  21.746  18.124  1.00  0.00    +0.000 C 
ATOM     55  F7  UNL A   1      51.784  20.410  18.197  1.00  0.00    +0.000 F 
ENDBRANCH   44   45
BRANCH   61   62
ATOM     65  C44 UNL A   1      60.511  18.404  18.801  1.00  0.00    +0.000 C 
ATOM     66  F9  UNL A   1      60.770  17.211  19.356  1.00  0.00    +0.000 F 
ATOM     67  C45 UNL A   1      61.298  19.501  19.120  1.00  0.00    +0.000 C 
ATOM     68  F10 UNL A   1      62.321  19.366  19.976  1.00  0.00    +0.000 F 
ATOM     69  C46 UNL A   1      61.021  20.739  18.559  1.00  0.00    +0.000 C 
ATOM     70  F11 UNL A   1      61.778  21.799  18.870  1.00  0.00    +0.000 F 
ATOM     71  C47 UNL A   1      59.953  20.883  17.678  1.00  0.00    +0.000 C 
ATOM     72  F12 UNL A   1      59.699  22.091  17.156  1.00  0.00    +0.000 F 
ATOM     62  C42 UNL A   1      59.150  19.785  17.342  1.00  0.00    +0.000 C 
ATOM     63  C43 UNL A   1      59.447  18.541  17.916  1.00  0.00    +0.000 C 
ATOM     64  F8  UNL A   1      58.693  17.470  17.631  1.00  0.00    +0.000 F 
ENDBRANCH   61   62
BRANCH   76   77
ATOM     77  C51 UNL A   1      58.452  18.002  10.665  1.00  0.00    +0.000 C 
ATOM     78  C52 UNL A   1      58.468  16.611  10.502  1.00  0.00    +0.000 C 
ATOM     79  F13 UNL A   1      57.680  15.840  11.264  1.00  0.00    +0.000 F 
ATOM     80  C53 UNL A   1      59.310  16.010   9.571  1.00  0.00    +0.000 C 
ATOM     81  F14 UNL A   1      59.321  14.676   9.444  1.00  0.00    +0.000 F 
ATOM     82  C54 UNL A   1      60.143  16.790   8.782  1.00  0.00    +0.000 C 
ATOM     83  F15 UNL A   1      60.952  16.211   7.884  1.00  0.00    +0.000 F 
ATOM     84  C55 UNL A   1      60.140  18.170   8.927  1.00  0.00    +0.000 C 
ATOM     85  F16 UNL A   1      60.943  18.925   8.164  1.00  0.00    +0.000 F 
ATOM     86  C56 UNL A   1      59.305  18.772   9.864  1.00  0.00    +0.000 C 
ATOM     87  F17 UNL A   1      59.323  20.107   9.992  1.00  0.00    +0.000 F 
ENDBRANCH   76   77
TORSDOF 21
ENDMDL
MODEL 2
REMARK VINA RESULT:      -9.6     48.083     53.807
ROOT
ATOM    129  H31 UNL A   1      11.921  50.162   6.470  1.00  0.00    +0.000 H 
ATOM    130  H32 UNL A   1      12.277  52.635   6.937  1.00  0.00    +0.000 H 
ATOM    131  H33 UNL A   1      14.568  51.623   3.618  1.00  0.00    +0.000 H 
ATOM    132  H34 UNL A   1      13.666  46.734   2.783  1.00  0.00    +0.000 H 
ATOM    133  H35 UNL A   1      15.260  46.900   0.784  1.00  0.00    +0.000 H 
ATOM    134  H36 UNL A   1      16.681  56.670   2.647  1.00  0.00    +0.000 H 
ATOM    135  H37 UNL A   1      15.226  56.493   4.748  1.00  0.00    +0.000 H 
ATOM     40  C27 UNL A   1      14.059  53.922   5.121  1.00  0.00    +0.000 C 
ATOM     41  C28 UNL A   1      15.004  54.351   4.037  1.00  0.00    +0.000 C 
ATOM     42  N5  UNL A   1      15.495  53.650   3.046  1.00  0.00    +0.000 N 
ATOM     43  C29 UNL A   1      16.281  54.529   2.315  1.00  0.00    +0.000 C 
ATOM     44  C30 UNL A   1      17.000  54.286   1.194  1.00  0.00    +0.000 C 
ATOM     56  C37 UNL A   1      17.113  53.007   0.546  1.00  0.00    +0.000 C 
ATOM     57  C38 UNL A   1      17.849  52.667  -0.577  1.00  0.00    +0.000 C 
ATOM     58  C39 UNL A   1      17.652  51.305  -0.835  1.00  0.00    +0.000 C 
ATOM     59  C40 UNL A   1      16.802  50.798   0.134  1.00  0.00    +0.000 C 
ATOM     60  N6  UNL A   1      16.477  51.851   0.972  1.00  0.00    +0.000 N 
ATOM     61  C41 UNL A   1      16.318  49.453   0.290  1.00  0.00    +0.000 C 
ATOM     73  C48 UNL A   1      15.478  49.038   1.266  1.00  0.00    +0.000 C 
ATOM     74  N7  UNL A   1      14.914  49.775   2.296  1.00  0.00    +0.000 N 
ATOM     75  C49 UNL A   1      14.169  48.937   2.971  1.00  0.00    +0.000 C 
ATOM     76  C50 UNL A   1      13.327  49.191   4.187  1.00  0.00    +0.000 C 
ATOM     88  C57 UNL A   1      13.301  50.415   4.743  1.00  0.00    +0.000 C 
ATOM     89  C58 UNL A   1      12.522  50.795   5.919  1.00  0.00    +0.000 C 
ATOM     90  C59 UNL A   1      12.714  52.101   6.170  1.00  0.00    +0.000 C 
ATOM     91  C60 UNL A   1      13.643  52.643   5.180  1.00  0.00    +0.000 C 
ATOM     92  N8  UNL A   1      13.947  51.570   4.379  1.00  0.00    +0.000 N 
ATOM     93  C61 UNL A   1      14.172  47.565   2.441  1.00  0.00    +0.000 C 
ATOM     94  C62 UNL A   1      14.996  47.679   1.407  1.00  0.00    +0.000 C 
ATOM     95  C63 UNL A   1      16.205  55.816   2.978  1.00  0.00    +0.000 C 
ATOM     96  C64 UNL A   1      15.446  55.752   4.064  1.00  0.00    +0.000 C 
ATOM    126  H28 UNL A   1      18.441  53.308  -1.128  1.00  0.00    +0.000 H 
ATOM    127  H29 UNL A   1      18.068  50.770  -1.614  1.00  0.00    +0.000 H 
ATOM    128  H30 UNL A   1      15.883  51.790   1.754  1.00  0.00    +0.000 H 
ENDROOT
BRANCH   40   39
ATOM     97  C65 UNL A   1      12.404  55.661   5.833  1.00  0.00    +0.000 C 
ATOM     98  C66 UNL A   1      11.914  56.575   6.770  1.00  0.00    +0.000 C 
ATOM     36  C23 UNL A   1      12.540  56.703   8.014  1.00  0.00    +0.000 C 
ATOM     37  C24 UNL A   1      13.701  55.972   8.287  1.00  0.00    +0.000 C 
ATOM     38  C25 UNL A   1      14.206  55.077   7.341  1.00  0.00    +0.000 C 
ATOM     39  C26 UNL A   1      13.552  54.902   6.112  1.00  0.00    +0.000 C 
ATOM    136  H38 UNL A   1      11.920  55.542   4.929  1.00  0.00    +0.000 H 
ATOM    137  H39 UNL A   1      11.091  57.155   6.543  1.00  0.00    +0.000 H 
ATOM    124  H26 UNL A   1      14.186  56.094   9.190  1.00  0.00    +0.000 H 
ATOM    125  H27 UNL A   1      15.064  54.541   7.547  1.00  0.00    +0.000 H 
BRANCH   36   34
ATOM     34  C22 UNL A   1      12.056  57.652   9.043  1.00  0.00    +0.000 C 
ATOM     35  O6  UNL A   1      12.359  58.839   8.950  1.00  0.00    +0.000 O 
BRANCH   34   33
ATOM     33  N4  UNL A   1      11.300  57.225  10.106  1.00  0.00    +0.000 N 
ATOM    123  H25 UNL A   1      11.522  57.647  10.968  1.00  0.00    +0.000 H 
BRANCH   33   32
ATOM    121  H23 UNL A   1       9.380  56.701  10.636  1.00  0.00    +0.000 H 
ATOM    122  H24 UNL A   1      10.007  55.956   9.156  1.00  0.00    +0.000 H 
ATOM     32  C21 UNL A   1      10.226  56.251  10.160  1.00  0.00    +0.000 C 
BRANCH   32   31
ATOM    119  H21 UNL A   1      11.621  54.751  10.691  1.00  0.00    +0.000 H 
ATOM     31  C20 UNL A   1      10.608  54.989  10.938  1.00  0.00    +0.000 C 
ATOM    120  H22 UNL A   1      10.443  55.233  11.967  1.00  0.00    +0.000 H 
BRANCH   31   30
ATOM    118  H20 UNL A   1       9.710  53.637   9.616  1.00  0.00    +0.000 H 
ATOM    117  H19 UNL A   1       8.812  53.879  11.157  1.00  0.00    +0.000 H 
ATOM     30  C19 UNL A   1       9.759  53.734  10.681  1.00  0.00    +0.000 C 
BRANCH   30   29
ATOM    115  H17 UNL A   1      10.625  51.827  10.333  1.00  0.00    +0.000 H 
ATOM    116  H18 UNL A   1      11.156  52.659  11.823  1.00  0.00    +0.000 H 
ATOM     29  C18 UNL A   1      10.335  52.408  11.184  1.00  0.00    +0.000 C 
BRANCH   29   28
ATOM    113  H15 UNL A   1       8.903  52.217  12.738  1.00  0.00    +0.000 H 
ATOM    114  H16 UNL A   1       8.684  51.121  11.344  1.00  0.00    +0.000 H 
ATOM     28  C17 UNL A   1       9.374  51.569  12.028  1.00  0.00    +0.000 C 
BRANCH   28   27
ATOM     27  C16 UNL A   1      10.033  50.415  12.798  1.00  0.00    +0.000 C 
ATOM    111  H13 UNL A   1       9.368  49.577  12.826  1.00  0.00    +0.000 H 
ATOM    112  H14 UNL A   1      10.941  50.128  12.311  1.00  0.00    +0.000 H 
BRANCH   27   26
ATOM     26  N3  UNL A   1      10.322  50.854  14.156  1.00  0.00    +0.000 N 
ATOM    110  H12 UNL A   1       9.542  50.864  14.756  1.00  0.00    +0.000 H 
BRANCH   26   24
ATOM     25  O5  UNL A   1      11.764  50.875  15.880  1.00  0.00    +0.000 O 
ATOM     24  C15 UNL A   1      11.492  51.255  14.742  1.00  0.00    +0.000 C 
BRANCH   24   23
ATOM    103  H5  UNL A   1      12.996  55.552  13.681  1.00  0.00    +0.000 H 
ATOM      8  C3  UNL A   1      12.195  53.675  14.244  1.00  0.00    +0.000 C 
ATOM      9  C4  UNL A   1      13.055  54.531  13.536  1.00  0.00    +0.000 C 
ATOM     10  C5  UNL A   1      13.988  54.011  12.633  1.00  0.00    +0.000 C 
ATOM    104  H6  UNL A   1      14.599  54.651  12.102  1.00  0.00    +0.000 H 
ATOM     11  C6  UNL A   1      14.098  52.629  12.447  1.00  0.00    +0.000 C 
ATOM    109  H11 UNL A   1      13.450  50.764  13.181  1.00  0.00    +0.000 H 
ATOM     22  C13 UNL A   1      13.319  51.785  13.252  1.00  0.00    +0.000 C 
ATOM     23  C14 UNL A   1      12.361  52.293  14.154  1.00  0.00    +0.000 C 
BRANCH    8    5
ATOM      5  S1  UNL A   1      10.818  54.403  15.073  1.00  0.00    +0.000 S 
ATOM      6  O2  UNL A   1      10.908  53.992  16.458  1.00  0.00    +0.000 O 
ATOM      7  O3  UNL A   1       9.616  54.214  14.300  1.00  0.00    +0.000 O 
BRANCH    5    4
ATOM      4  N1  UNL A   1      11.149  56.028  15.061  1.00  0.00    +0.000 N 
ATOM    102  H4  UNL A   1      11.738  56.343  14.337  1.00  0.00    +0.000 H 
BRANCH    4    2
ATOM      2  C2  UNL A   1      10.694  57.009  15.952  1.00  0.00    +0.000 C 
ATOM      3  O1  UNL A   1      11.465  57.413  16.813  1.00  0.00    +0.000 O 
BRANCH    2    1
ATOM      1  C1  UNL A   1       9.348  57.639  15.729  1.00  0.00    +0.000 C 
ATOM     99  H1  UNL A   1       9.474  58.675  15.493  1.00  0.00    +0.000 H 
ATOM    100  H2  UNL A   1       8.759  57.544  16.616  1.00  0.00    +0.000 H 
ATOM    101  H3  UNL A   1       8.854  57.146  14.918  1.00  0.00    +0.000 H 
ENDBRANCH    2    1
ENDBRANCH    4    2
ENDBRANCH    5    4
ENDBRANCH    8    5
BRANCH   11   12
ATOM    105  H7  UNL A   1      13.735  52.953   9.725  1.00  0.00    +0.000 H 
ATOM    106  H8  UNL A   1      15.084  52.175   7.962  1.00  0.00    +0.000 H 
ATOM    108  H10 UNL A   1      16.193  51.048  12.544  1.00  0.00    +0.000 H 
ATOM     12  C7  UNL A   1      14.885  52.064  11.323  1.00  0.00    +0.000 C 
ATOM     13  C8  UNL A   1      14.566  52.378   9.937  1.00  0.00    +0.000 C 
ATOM     14  C9  UNL A   1      15.330  51.935   8.934  1.00  0.00    +0.000 C 
ATOM     15  N2  UNL A   1      16.446  51.160   9.181  1.00  0.00    +0.000 N 
ATOM     19  C11 UNL A   1      16.833  50.804  10.462  1.00  0.00    +0.000 C 
ATOM     20  O4  UNL A   1      17.823  50.141  10.752  1.00  0.00    +0.000 O 
ATOM     21  C12 UNL A   1      15.963  51.299  11.570  1.00  0.00    +0.000 C 
BRANCH   15   16
ATOM     17  F1  UNL A   1      18.569  51.155   8.288  1.00  0.00    +0.000 F 
ATOM     18  F2  UNL A   1      17.306  49.389   7.974  1.00  0.00    +0.000 F 
ATOM    107  H9  UNL A   1      16.895  51.175   7.203  1.00  0.00    +0.000 H 
ATOM     16  C10 UNL A   1      17.294  50.738   8.095  1.00  0.00    +0.000 C 
ENDBRANCH   15   16
ENDBRANCH   11   12
ENDBRANCH   24   23
ENDBRANCH   26   24
ENDBRANCH   27   26
ENDBRANCH   28   27
ENDBRANCH   29   28
ENDBRANCH   30   29
ENDBRANCH   31   30
ENDBRANCH   32   31
ENDBRANCH   33   32
ENDBRANCH   34   33
ENDBRANCH   36   34
ENDBRANCH   40   39
BRANCH   44   45
ATOM     45  C31 UNL A   1      17.722  55.444   0.583  1.00  0.00    +0.000 C 
ATOM     46  C32 UNL A   1      18.988  55.833   1.038  1.00  0.00    +0.000 C 
ATOM     47  F3  UNL A   1      19.560  55.196   2.070  1.00  0.00    +0.000 F 
ATOM     48  C33 UNL A   1      19.662  56.896   0.442  1.00  0.00    +0.000 C 
ATOM     49  F4  UNL A   1      20.865  57.266   0.901  1.00  0.00    +0.000 F 
ATOM     50  C34 UNL A   1      19.088  57.575  -0.623  1.00  0.00    +0.000 C 
ATOM     51  F5  UNL A   1      19.738  58.597  -1.197  1.00  0.00    +0.000 F 
ATOM     52  C35 UNL A   1      17.836  57.200  -1.090  1.00  0.00    +0.000 C 
ATOM     53  F6  UNL A   1      17.281  57.857  -2.119  1.00  0.00    +0.000 F 
ATOM     54  C36 UNL A   1      17.155  56.145  -0.491  1.00  0.00    +0.000 C 
ATOM     55  F7  UNL A   1      15.944  55.805  -0.956  1.00  0.00    +0.000 F 
ENDBRANCH   44   45
BRANCH   61   62
ATOM     65  C44 UNL A   1      16.429  47.149  -2.731  1.00  0.00    +0.000 C 
ATOM     66  F9  UNL A   1      15.653  46.822  -3.774  1.00  0.00    +0.000 F 
ATOM     67  C45 UNL A   1      17.669  46.545  -2.574  1.00  0.00    +0.000 C 
ATOM     68  F10 UNL A   1      18.092  45.641  -3.468  1.00  0.00    +0.000 F 
ATOM     69  C46 UNL A   1      18.465  46.871  -1.486  1.00  0.00    +0.000 C 
ATOM     70  F11 UNL A   1      19.659  46.285  -1.332  1.00  0.00    +0.000 F 
ATOM     71  C47 UNL A   1      18.023  47.803  -0.551  1.00  0.00    +0.000 C 
ATOM     72  F12 UNL A   1      18.806  48.096   0.497  1.00  0.00    +0.000 F 
ATOM     62  C42 UNL A   1      16.776  48.426  -0.696  1.00  0.00    +0.000 C 
ATOM     63  C43 UNL A   1      15.986  48.086  -1.803  1.00  0.00    +0.000 C 
ATOM     64  F8  UNL A   1      14.780  48.649  -1.970  1.00  0.00    +0.000 F 
ENDBRANCH   61   62
BRANCH   76   77
ATOM     77  C51 UNL A   1      12.530  48.101   4.791  1.00  0.00    +0.000 C 
ATOM     78  C52 UNL A   1      11.264  47.776   4.288  1.00  0.00    +0.000 C 
ATOM     79  F13 UNL A   1      10.750  48.480   3.269  1.00  0.00    +0.000 F 
ATOM     80  C53 UNL A   1      10.517  46.743   4.845  1.00  0.00    +0.000 C 
ATOM     81  F14 UNL A   1       9.300  46.461   4.359  1.00  0.00    +0.000 F 
ATOM     82  C54 UNL A   1      11.026  46.012   5.909  1.00  0.00    +0.000 C 
ATOM     83  F15 UNL A   1      10.306  45.016   6.444  1.00  0.00    +0.000 F 
ATOM     84  C55 UNL A   1      12.279  46.316   6.420  1.00  0.00    +0.000 C 
ATOM     85  F16 UNL A   1      12.774  45.610   7.446  1.00  0.00    +0.000 F 
ATOM     86  C56 UNL A   1      13.024  47.355   5.869  1.00  0.00    +0.000 C 
ATOM     87  F17 UNL A   1      14.231  47.637   6.382  1.00  0.00    +0.000 F 
ENDBRANCH   76   77
TORSDOF 21
ENDMDL
MODEL 3
REMARK VINA RESULT:      -9.6     20.642     24.981
ROOT
ATOM    129  H31 UNL A   1      40.385  24.902  27.104  1.00  0.00    +0.000 H 
ATOM    130  H32 UNL A   1      38.817  26.842  27.593  1.00  0.00    +0.000 H 
ATOM    131  H33 UNL A   1      42.442  27.631  29.471  1.00  0.00    +0.000 H 
ATOM    132  H34 UNL A   1      45.444  23.748  28.316  1.00  0.00    +0.000 H 
ATOM    133  H35 UNL A   1      47.274  24.906  29.686  1.00  0.00    +0.000 H 
ATOM    134  H36 UNL A   1      41.064  32.560  31.634  1.00  0.00    +0.000 H 
ATOM    135  H37 UNL A   1      39.166  31.347  30.413  1.00  0.00    +0.000 H 
ATOM     40  C27 UNL A   1      39.963  28.893  29.207  1.00  0.00    +0.000 C 
ATOM     41  C28 UNL A   1      40.800  29.818  30.042  1.00  0.00    +0.000 C 
ATOM     42  N5  UNL A   1      42.055  29.701  30.397  1.00  0.00    +0.000 N 
ATOM     43  C29 UNL A   1      42.348  30.843  31.128  1.00  0.00    +0.000 C 
ATOM     44  C30 UNL A   1      43.518  31.195  31.711  1.00  0.00    +0.000 C 
ATOM     56  C37 UNL A   1      44.715  30.397  31.708  1.00  0.00    +0.000 C 
ATOM     57  C38 UNL A   1      45.936  30.665  32.305  1.00  0.00    +0.000 C 
ATOM     58  C39 UNL A   1      46.800  29.597  32.034  1.00  0.00    +0.000 C 
ATOM     59  C40 UNL A   1      46.113  28.662  31.279  1.00  0.00    +0.000 C 
ATOM     60  N6  UNL A   1      44.837  29.165  31.084  1.00  0.00    +0.000 N 
ATOM     61  C41 UNL A   1      46.578  27.400  30.770  1.00  0.00    +0.000 C 
ATOM     73  C48 UNL A   1      45.840  26.542  30.028  1.00  0.00    +0.000 C 
ATOM     74  N7  UNL A   1      44.525  26.671  29.606  1.00  0.00    +0.000 N 
ATOM     75  C49 UNL A   1      44.264  25.592  28.912  1.00  0.00    +0.000 C 
ATOM     76  C50 UNL A   1      42.993  25.201  28.218  1.00  0.00    +0.000 C 
ATOM     88  C57 UNL A   1      41.912  25.998  28.294  1.00  0.00    +0.000 C 
ATOM     89  C58 UNL A   1      40.622  25.738  27.662  1.00  0.00    +0.000 C 
ATOM     90  C59 UNL A   1      39.790  26.760  27.925  1.00  0.00    +0.000 C 
ATOM     91  C60 UNL A   1      40.489  27.738  28.758  1.00  0.00    +0.000 C 
ATOM     92  N8  UNL A   1      41.738  27.199  28.935  1.00  0.00    +0.000 N 
ATOM     93  C61 UNL A   1      45.392  24.653  28.809  1.00  0.00    +0.000 C 
ATOM     94  C62 UNL A   1      46.324  25.276  29.519  1.00  0.00    +0.000 C 
ATOM     95  C63 UNL A   1      41.139  31.641  31.169  1.00  0.00    +0.000 C 
ATOM     96  C64 UNL A   1      40.144  31.039  30.532  1.00  0.00    +0.000 C 
ATOM    126  H28 UNL A   1      46.169  31.507  32.854  1.00  0.00    +0.000 H 
ATOM    127  H29 UNL A   1      47.782  29.519  32.344  1.00  0.00    +0.000 H 
ATOM    128  H30 UNL A   1      44.123  28.716  30.578  1.00  0.00    +0.000 H 
ENDROOT
BRANCH   40   39
ATOM     97  C65 UNL A   1      38.281  29.765  27.571  1.00  0.00    +0.000 C 
ATOM     98  C66 UNL A   1      36.968  30.092  27.220  1.00  0.00    +0.000 C 
ATOM     36  C23 UNL A   1      35.927  29.865  28.126  1.00  0.00    +0.000 C 
ATOM     37  C24 UNL A   1      36.212  29.384  29.408  1.00  0.00    +0.000 C 
ATOM     38  C25 UNL A   1      37.528  29.080  29.768  1.00  0.00    +0.000 C 
ATOM     39  C26 UNL A   1      38.571  29.254  28.846  1.00  0.00    +0.000 C 
ATOM    136  H38 UNL A   1      39.044  29.900  26.888  1.00  0.00    +0.000 H 
ATOM    137  H39 UNL A   1      36.768  30.501  26.294  1.00  0.00    +0.000 H 
ATOM    124  H26 UNL A   1      35.449  29.252  30.091  1.00  0.00    +0.000 H 
ATOM    125  H27 UNL A   1      37.733  28.727  30.716  1.00  0.00    +0.000 H 
BRANCH   36   34
ATOM     34  C22 UNL A   1      34.518  30.188  27.800  1.00  0.00    +0.000 C 
ATOM     35  O6  UNL A   1      34.104  31.326  28.006  1.00  0.00    +0.000 O 
BRANCH   34   33
ATOM     33  N4  UNL A   1      33.667  29.235  27.299  1.00  0.00    +0.000 N 
ATOM    123  H25 UNL A   1      33.292  28.621  27.971  1.00  0.00    +0.000 H 
BRANCH   33   32
ATOM    121  H23 UNL A   1      32.162  28.965  25.919  1.00  0.00    +0.000 H 
ATOM    122  H24 UNL A   1      33.620  29.780  25.328  1.00  0.00    +0.000 H 
ATOM     32  C21 UNL A   1      33.232  28.991  25.936  1.00  0.00    +0.000 C 
BRANCH   32   31
ATOM    119  H21 UNL A   1      33.284  27.507  24.429  1.00  0.00    +0.000 H 
ATOM     31  C20 UNL A   1      33.762  27.671  25.371  1.00  0.00    +0.000 C 
ATOM    120  H22 UNL A   1      34.823  27.794  25.320  1.00  0.00    +0.000 H 
BRANCH   31   30
ATOM    118  H20 UNL A   1      32.530  26.119  26.047  1.00  0.00    +0.000 H 
ATOM    117  H19 UNL A   1      33.753  26.673  27.245  1.00  0.00    +0.000 H 
ATOM     30  C19 UNL A   1      33.543  26.415  26.229  1.00  0.00    +0.000 C 
BRANCH   30   29
ATOM    115  H17 UNL A   1      35.198  25.130  26.576  1.00  0.00    +0.000 H 
ATOM    116  H18 UNL A   1      33.736  24.348  25.909  1.00  0.00    +0.000 H 
ATOM     29  C18 UNL A   1      34.393  25.192  25.873  1.00  0.00    +0.000 C 
BRANCH   29   28
ATOM    113  H15 UNL A   1      34.241  25.570  23.791  1.00  0.00    +0.000 H 
ATOM    114  H16 UNL A   1      35.852  25.847  24.513  1.00  0.00    +0.000 H 
ATOM     28  C17 UNL A   1      34.991  25.214  24.466  1.00  0.00    +0.000 C 
BRANCH   28   27
ATOM     27  C16 UNL A   1      35.483  23.851  23.954  1.00  0.00    +0.000 C 
ATOM    111  H13 UNL A   1      36.532  23.903  23.747  1.00  0.00    +0.000 H 
ATOM    112  H14 UNL A   1      35.308  23.102  24.698  1.00  0.00    +0.000 H 
BRANCH   27   26
ATOM     26  N3  UNL A   1      34.761  23.511  22.737  1.00  0.00    +0.000 N 
ATOM    110  H12 UNL A   1      35.319  23.113  22.030  1.00  0.00    +0.000 H 
BRANCH   26   24
ATOM     25  O5  UNL A   1      33.102  23.592  21.223  1.00  0.00    +0.000 O 
ATOM     24  C15 UNL A   1      33.441  23.650  22.404  1.00  0.00    +0.000 C 
BRANCH   24   23
ATOM    103  H5  UNL A   1      30.342  23.238  25.879  1.00  0.00    +0.000 H 
ATOM      8  C3  UNL A   1      31.780  23.268  24.325  1.00  0.00    +0.000 C 
ATOM      9  C4  UNL A   1      30.744  23.800  25.112  1.00  0.00    +0.000 C 
ATOM     10  C5  UNL A   1      30.252  25.084  24.862  1.00  0.00    +0.000 C 
ATOM    104  H6  UNL A   1      29.476  25.456  25.432  1.00  0.00    +0.000 H 
ATOM     11  C6  UNL A   1      30.804  25.868  23.843  1.00  0.00    +0.000 C 
ATOM    109  H11 UNL A   1      32.383  25.971  22.453  1.00  0.00    +0.000 H 
ATOM     22  C13 UNL A   1      31.917  25.370  23.150  1.00  0.00    +0.000 C 
ATOM     23  C14 UNL A   1      32.415  24.070  23.378  1.00  0.00    +0.000 C 
BRANCH    8    5
ATOM      5  S1  UNL A   1      32.095  21.536  24.452  1.00  0.00    +0.000 S 
ATOM      6  O2  UNL A   1      32.087  21.017  23.102  1.00  0.00    +0.000 O 
ATOM      7  O3  UNL A   1      31.284  20.959  25.494  1.00  0.00    +0.000 O 
BRANCH    5    4
ATOM      4  N1  UNL A   1      33.671  21.446  24.962  1.00  0.00    +0.000 N 
ATOM    102  H4  UNL A   1      34.040  22.263  25.369  1.00  0.00    +0.000 H 
BRANCH    4    2
ATOM      2  C2  UNL A   1      34.542  20.352  24.884  1.00  0.00    +0.000 C 
ATOM      3  O1  UNL A   1      35.730  20.538  25.118  1.00  0.00    +0.000 O 
BRANCH    2    1
ATOM      1  C1  UNL A   1      33.978  18.975  24.675  1.00  0.00    +0.000 C 
ATOM     99  H1  UNL A   1      33.087  18.863  25.256  1.00  0.00    +0.000 H 
ATOM    100  H2  UNL A   1      34.697  18.245  24.979  1.00  0.00    +0.000 H 
ATOM    101  H3  UNL A   1      33.746  18.839  23.639  1.00  0.00    +0.000 H 
ENDBRANCH    2    1
ENDBRANCH    4    2
ENDBRANCH    5    4
ENDBRANCH    8    5
BRANCH   11   12
ATOM    105  H7  UNL A   1      31.890  28.032  22.508  1.00  0.00    +0.000 H 
ATOM    106  H8  UNL A   1      30.794  29.933  21.659  1.00  0.00    +0.000 H 
ATOM    108  H10 UNL A   1      28.293  26.586  24.116  1.00  0.00    +0.000 H 
ATOM     12  C7  UNL A   1      30.142  27.116  23.387  1.00  0.00    +0.000 C 
ATOM     13  C8  UNL A   1      30.874  28.142  22.657  1.00  0.00    +0.000 C 
ATOM     14  C9  UNL A   1      30.253  29.223  22.176  1.00  0.00    +0.000 C 
ATOM     15  N2  UNL A   1      28.897  29.404  22.361  1.00  0.00    +0.000 N 
ATOM     19  C11 UNL A   1      28.113  28.489  23.044  1.00  0.00    +0.000 C 
ATOM     20  O4  UNL A   1      26.902  28.576  23.222  1.00  0.00    +0.000 O 
ATOM     21  C12 UNL A   1      28.824  27.292  23.583  1.00  0.00    +0.000 C 
BRANCH   15   16
ATOM     17  F1  UNL A   1      29.065  31.610  21.720  1.00  0.00    +0.000 F 
ATOM     18  F2  UNL A   1      27.786  30.279  20.535  1.00  0.00    +0.000 F 
ATOM    107  H9  UNL A   1      27.399  30.769  22.423  1.00  0.00    +0.000 H 
ATOM     16  C10 UNL A   1      28.230  30.545  21.787  1.00  0.00    +0.000 C 
ENDBRANCH   15   16
ENDBRANCH   11   12
ENDBRANCH   24   23
ENDBRANCH   26   24
ENDBRANCH   27   26
ENDBRANCH   28   27
ENDBRANCH   29   28
ENDBRANCH   30   29
ENDBRANCH   31   30
ENDBRANCH   32   31
ENDBRANCH   33   32
ENDBRANCH   34   33
ENDBRANCH   36   34
ENDBRANCH   40   39
BRANCH   44   45
ATOM     45  C31 UNL A   1      43.565  32.521  32.400  1.00  0.00    +0.000 C 
ATOM     46  C32 UNL A   1      43.276  32.641  33.765  1.00  0.00    +0.000 C 
ATOM     47  F3  UNL A   1      42.904  31.565  34.474  1.00  0.00    +0.000 F 
ATOM     48  C33 UNL A   1      43.351  33.877  34.402  1.00  0.00    +0.000 C 
ATOM     49  F4  UNL A   1      43.053  33.977  35.705  1.00  0.00    +0.000 F 
ATOM     50  C34 UNL A   1      43.727  35.006  33.688  1.00  0.00    +0.000 C 
ATOM     51  F5  UNL A   1      43.800  36.195  34.303  1.00  0.00    +0.000 F 
ATOM     52  C35 UNL A   1      44.022  34.904  32.337  1.00  0.00    +0.000 C 
ATOM     53  F6  UNL A   1      44.386  35.996  31.647  1.00  0.00    +0.000 F 
ATOM     54  C36 UNL A   1      43.939  33.673  31.694  1.00  0.00    +0.000 C 
ATOM     55  F7  UNL A   1      44.224  33.601  30.386  1.00  0.00    +0.000 F 
ENDBRANCH   44   45
BRANCH   61   62
ATOM     65  C44 UNL A   1      50.360  27.067  30.593  1.00  0.00    +0.000 C 
ATOM     66  F9  UNL A   1      51.368  27.472  29.809  1.00  0.00    +0.000 F 
ATOM     67  C45 UNL A   1      50.621  26.283  31.708  1.00  0.00    +0.000 C 
ATOM     68  F10 UNL A   1      51.883  25.937  32.003  1.00  0.00    +0.000 F 
ATOM     69  C46 UNL A   1      49.577  25.850  32.512  1.00  0.00    +0.000 C 
ATOM     70  F11 UNL A   1      49.829  25.090  33.585  1.00  0.00    +0.000 F 
ATOM     71  C47 UNL A   1      48.266  26.201  32.201  1.00  0.00    +0.000 C 
ATOM     72  F12 UNL A   1      47.271  25.764  32.987  1.00  0.00    +0.000 F 
ATOM     62  C42 UNL A   1      47.983  26.995  31.082  1.00  0.00    +0.000 C 
ATOM     63  C43 UNL A   1      49.052  27.425  30.283  1.00  0.00    +0.000 C 
ATOM     64  F8  UNL A   1      48.822  28.175  29.195  1.00  0.00    +0.000 F 
ENDBRANCH   61   62
BRANCH   76   77
ATOM     77  C51 UNL A   1      42.911  23.936  27.455  1.00  0.00    +0.000 C 
ATOM     78  C52 UNL A   1      42.483  22.754  28.073  1.00  0.00    +0.000 C 
ATOM     79  F13 UNL A   1      42.174  22.756  29.377  1.00  0.00    +0.000 F 
ATOM     80  C53 UNL A   1      42.392  21.565  27.356  1.00  0.00    +0.000 C 
ATOM     81  F14 UNL A   1      41.996  20.442  27.971  1.00  0.00    +0.000 F 
ATOM     82  C54 UNL A   1      42.719  21.539  26.008  1.00  0.00    +0.000 C 
ATOM     83  F15 UNL A   1      42.630  20.394  25.317  1.00  0.00    +0.000 F 
ATOM     84  C55 UNL A   1      43.143  22.700  25.377  1.00  0.00    +0.000 C 
ATOM     85  F16 UNL A   1      43.458  22.678  24.075  1.00  0.00    +0.000 F 
ATOM     86  C56 UNL A   1      43.243  23.888  26.095  1.00  0.00    +0.000 C 
ATOM     87  F17 UNL A   1      43.661  24.997  25.467  1.00  0.00    +0.000 F 
ENDBRANCH   76   77
TORSDOF 21
ENDMDL
MODEL 4
REMARK VINA RESULT:      -9.5      3.039      5.193
ROOT
ATOM    129  H31 UNL A   1      56.017  17.969   9.312  1.00  0.00    +0.000 H 
ATOM    130  H32 UNL A   1      53.683  18.974   9.261  1.00  0.00    +0.000 H 
ATOM    131  H33 UNL A   1      55.300  19.703  13.021  1.00  0.00    +0.000 H 
ATOM    132  H34 UNL A   1      59.942  17.738  12.908  1.00  0.00    +0.000 H 
ATOM    133  H35 UNL A   1      60.220  18.550  15.322  1.00  0.00    +0.000 H 
ATOM    134  H36 UNL A   1      50.985  22.503  15.121  1.00  0.00    +0.000 H 
ATOM    135  H37 UNL A   1      50.618  21.556  12.770  1.00  0.00    +0.000 H 
ATOM     40  C27 UNL A   1      52.907  20.251  11.689  1.00  0.00    +0.000 C 
ATOM     41  C28 UNL A   1      52.758  20.860  13.052  1.00  0.00    +0.000 C 
ATOM     42  N5  UNL A   1      53.628  20.920  14.029  1.00  0.00    +0.000 N 
ATOM     43  C29 UNL A   1      53.002  21.620  15.050  1.00  0.00    +0.000 C 
ATOM     44  C30 UNL A   1      53.488  21.948  16.270  1.00  0.00    +0.000 C 
ATOM     56  C37 UNL A   1      54.789  21.585  16.765  1.00  0.00    +0.000 C 
ATOM     57  C38 UNL A   1      55.348  21.849  18.005  1.00  0.00    +0.000 C 
ATOM     58  C39 UNL A   1      56.635  21.297  18.033  1.00  0.00    +0.000 C 
ATOM     59  C40 UNL A   1      56.869  20.681  16.815  1.00  0.00    +0.000 C 
ATOM     60  N6  UNL A   1      55.732  20.867  16.047  1.00  0.00    +0.000 N 
ATOM     61  C41 UNL A   1      58.041  19.973  16.377  1.00  0.00    +0.000 C 
ATOM     73  C48 UNL A   1      58.195  19.402  15.159  1.00  0.00    +0.000 C 
ATOM     74  N7  UNL A   1      57.302  19.368  14.100  1.00  0.00    +0.000 N 
ATOM     75  C49 UNL A   1      57.908  18.712  13.142  1.00  0.00    +0.000 C 
ATOM     76  C50 UNL A   1      57.410  18.377  11.767  1.00  0.00    +0.000 C 
ATOM     88  C57 UNL A   1      56.167  18.735  11.396  1.00  0.00    +0.000 C 
ATOM     89  C58 UNL A   1      55.566  18.476  10.090  1.00  0.00    +0.000 C 
ATOM     90  C59 UNL A   1      54.330  19.002  10.064  1.00  0.00    +0.000 C 
ATOM     91  C60 UNL A   1      54.049  19.621  11.359  1.00  0.00    +0.000 C 
ATOM     92  N8  UNL A   1      55.192  19.406  12.090  1.00  0.00    +0.000 N 
ATOM     93  C61 UNL A   1      59.264  18.259  13.485  1.00  0.00    +0.000 C 
ATOM     94  C62 UNL A   1      59.385  18.695  14.732  1.00  0.00    +0.000 C 
ATOM     95  C63 UNL A   1      51.676  21.963  14.577  1.00  0.00    +0.000 C 
ATOM     96  C64 UNL A   1      51.466  21.493  13.354  1.00  0.00    +0.000 C 
ATOM    126  H28 UNL A   1      54.895  22.365  18.775  1.00  0.00    +0.000 H 
ATOM    127  H29 UNL A   1      57.295  21.341  18.825  1.00  0.00    +0.000 H 
ATOM    128  H30 UNL A   1      55.610  20.539  15.127  1.00  0.00    +0.000 H 
ENDROOT
BRANCH   40   39
ATOM     97  C65 UNL A   1      50.680  19.545  10.787  1.00  0.00    +0.000 C 
ATOM     98  C66 UNL A   1      49.645  19.658   9.855  1.00  0.00    +0.000 C 
ATOM     36  C23 UNL A   1      49.716  20.623   8.845  1.00  0.00    +0.000 C 
ATOM     37  C24 UNL A   1      50.859  21.420   8.724  1.00  0.00    +0.000 C 
ATOM     38  C25 UNL A   1      51.906  21.291   9.640  1.00  0.00    +0.000 C 
ATOM     39  C26 UNL A   1      51.818  20.363  10.689  1.00  0.00    +0.000 C 
ATOM    136  H38 UNL A   1      50.610  18.857  11.553  1.00  0.00    +0.000 H 
ATOM    137  H39 UNL A   1      48.828  19.029   9.912  1.00  0.00    +0.000 H 
ATOM    124  H26 UNL A   1      50.930  22.106   7.956  1.00  0.00    +0.000 H 
ATOM    125  H27 UNL A   1      52.748  21.881   9.545  1.00  0.00    +0.000 H 
BRANCH   36   34
ATOM     34  C22 UNL A   1      48.642  20.786   7.838  1.00  0.00    +0.000 C 
ATOM     35  O6  UNL A   1      48.212  21.912   7.602  1.00  0.00    +0.000 O 
BRANCH   34   33
ATOM     33  N4  UNL A   1      48.106  19.703   7.187  1.00  0.00    +0.000 N 
ATOM    123  H25 UNL A   1      47.428  19.206   7.700  1.00  0.00    +0.000 H 
BRANCH   33   32
ATOM    121  H23 UNL A   1      47.491  18.707   5.493  1.00  0.00    +0.000 H 
ATOM    122  H24 UNL A   1      48.681  19.996   5.246  1.00  0.00    +0.000 H 
ATOM     32  C21 UNL A   1      48.378  19.177   5.863  1.00  0.00    +0.000 C 
BRANCH   32   31
ATOM    119  H21 UNL A   1      49.338  17.481   5.038  1.00  0.00    +0.000 H 
ATOM     31  C20 UNL A   1      49.513  18.149   5.854  1.00  0.00    +0.000 C 
ATOM    120  H22 UNL A   1      50.412  18.725   5.777  1.00  0.00    +0.000 H 
BRANCH   31   30
ATOM    118  H20 UNL A   1      49.410  16.306   6.841  1.00  0.00    +0.000 H 
ATOM    117  H19 UNL A   1      49.075  17.730   7.889  1.00  0.00    +0.000 H 
ATOM     30  C19 UNL A   1      49.686  17.300   7.123  1.00  0.00    +0.000 C 
BRANCH   30   29
ATOM    115  H17 UNL A   1      51.064  17.292   8.739  1.00  0.00    +0.000 H 
ATOM    116  H18 UNL A   1      51.478  16.230   7.363  1.00  0.00    +0.000 H 
ATOM     29  C18 UNL A   1      51.110  17.185   7.675  1.00  0.00    +0.000 C 
BRANCH   29   28
ATOM    113  H15 UNL A   1      51.540  18.943   6.568  1.00  0.00    +0.000 H 
ATOM    114  H16 UNL A   1      52.586  18.646   7.986  1.00  0.00    +0.000 H 
ATOM     28  C17 UNL A   1      52.094  18.224   7.135  1.00  0.00    +0.000 C 
BRANCH   28   27
ATOM     27  C16 UNL A   1      53.200  17.655   6.233  1.00  0.00    +0.000 C 
ATOM    111  H13 UNL A   1      53.322  16.610   6.431  1.00  0.00    +0.000 H 
ATOM    112  H14 UNL A   1      52.932  17.790   5.206  1.00  0.00    +0.000 H 
BRANCH   27   26
ATOM     26  N3  UNL A   1      54.447  18.353   6.511  1.00  0.00    +0.000 N 
ATOM    110  H12 UNL A   1      55.065  17.863   7.100  1.00  0.00    +0.000 H 
BRANCH   26   24
ATOM     25  O5  UNL A   1      54.531  20.031   5.018  1.00  0.00    +0.000 O 
ATOM     24  C15 UNL A   1      54.908  19.573   6.096  1.00  0.00    +0.000 C 
BRANCH   24   23
ATOM    103  H5  UNL A   1      59.293  20.629   7.324  1.00  0.00    +0.000 H 
ATOM      8  C3  UNL A   1      57.368  20.037   6.670  1.00  0.00    +0.000 C 
ATOM      9  C4  UNL A   1      58.278  20.740   7.479  1.00  0.00    +0.000 C 
ATOM     10  C5  UNL A   1      57.819  21.586   8.493  1.00  0.00    +0.000 C 
ATOM    104  H6  UNL A   1      58.497  22.079   9.095  1.00  0.00    +0.000 H 
ATOM     11  C6  UNL A   1      56.447  21.767   8.696  1.00  0.00    +0.000 C 
ATOM    109  H11 UNL A   1      54.545  21.348   7.892  1.00  0.00    +0.000 H 
ATOM     22  C13 UNL A   1      55.555  21.157   7.803  1.00  0.00    +0.000 C 
ATOM     23  C14 UNL A   1      56.000  20.287   6.785  1.00  0.00    +0.000 C 
BRANCH    8    5
ATOM      5  S1  UNL A   1      58.003  18.728   5.673  1.00  0.00    +0.000 S 
ATOM      6  O2  UNL A   1      59.445  18.843   5.714  1.00  0.00    +0.000 O 
ATOM      7  O3  UNL A   1      57.281  18.656   4.427  1.00  0.00    +0.000 O 
BRANCH    5    4
ATOM      4  N1  UNL A   1      57.635  17.353   6.524  1.00  0.00    +0.000 N 
ATOM    102  H4  UNL A   1      57.435  17.478   7.480  1.00  0.00    +0.000 H 
BRANCH    4    2
ATOM      2  C2  UNL A   1      57.573  16.035   6.051  1.00  0.00    +0.000 C 
ATOM      3  O1  UNL A   1      58.587  15.542   5.575  1.00  0.00    +0.000 O 
BRANCH    2    1
ATOM      1  C1  UNL A   1      56.328  15.228   6.282  1.00  0.00    +0.000 C 
ATOM     99  H1  UNL A   1      55.485  15.745   5.874  1.00  0.00    +0.000 H 
ATOM    100  H2  UNL A   1      56.184  15.087   7.333  1.00  0.00    +0.000 H 
ATOM    101  H3  UNL A   1      56.426  14.275   5.804  1.00  0.00    +0.000 H 
ENDBRANCH    2    1
ENDBRANCH    4    2
ENDBRANCH    5    4
ENDBRANCH    8    5
BRANCH   11   12
ATOM    105  H7  UNL A   1      57.496  21.797  11.254  1.00  0.00    +0.000 H 
ATOM    106  H8  UNL A   1      56.749  23.000  13.132  1.00  0.00    +0.000 H 
ATOM    108  H10 UNL A   1      54.288  23.239   8.964  1.00  0.00    +0.000 H 
ATOM     12  C7  UNL A   1      55.932  22.445   9.912  1.00  0.00    +0.000 C 
ATOM     13  C8  UNL A   1      56.647  22.380  11.180  1.00  0.00    +0.000 C 
ATOM     14  C9  UNL A   1      56.222  23.061  12.248  1.00  0.00    +0.000 C 
ATOM     15  N2  UNL A   1      55.089  23.846  12.185  1.00  0.00    +0.000 N 
ATOM     19  C11 UNL A   1      54.337  23.972  11.028  1.00  0.00    +0.000 C 
ATOM     20  O4  UNL A   1      53.337  24.670  10.897  1.00  0.00    +0.000 O 
ATOM     21  C12 UNL A   1      54.819  23.197   9.847  1.00  0.00    +0.000 C 
BRANCH   15   16
ATOM     17  F1  UNL A   1      54.940  25.937  13.138  1.00  0.00    +0.000 F 
ATOM     18  F2  UNL A   1      53.348  24.488  13.560  1.00  0.00    +0.000 F 
ATOM    107  H9  UNL A   1      55.227  24.253  14.167  1.00  0.00    +0.000 H 
ATOM     16  C10 UNL A   1      54.675  24.622  13.327  1.00  0.00    +0.000 C 
ENDBRANCH   15   16
ENDBRANCH   11   12
ENDBRANCH   24   23
ENDBRANCH   26   24
ENDBRANCH   27   26
ENDBRANCH   28   27
ENDBRANCH   29   28
ENDBRANCH   30   29
ENDBRANCH   31   30
ENDBRANCH   32   31
ENDBRANCH   33   32
ENDBRANCH   34   33
ENDBRANCH   36   34
ENDBRANCH   40   39
BRANCH   44   45
ATOM     45  C31 UNL A   1      52.603  22.760  17.161  1.00  0.00    +0.000 C 
ATOM     46  C32 UNL A   1      52.655  24.160  17.155  1.00  0.00    +0.000 C 
ATOM     47  F3  UNL A   1      53.539  24.800  16.377  1.00  0.00    +0.000 F 
ATOM     48  C33 UNL A   1      51.805  24.905  17.970  1.00  0.00    +0.000 C 
ATOM     49  F4  UNL A   1      51.880  26.243  17.965  1.00  0.00    +0.000 F 
ATOM     50  C34 UNL A   1      50.887  24.265  18.788  1.00  0.00    +0.000 C 
ATOM     51  F5  UNL A   1      50.069  24.984  19.570  1.00  0.00    +0.000 F 
ATOM     52  C35 UNL A   1      50.819  22.880  18.802  1.00  0.00    +0.000 C 
ATOM     53  F6  UNL A   1      49.931  22.261  19.594  1.00  0.00    +0.000 F 
ATOM     54  C36 UNL A   1      51.672  22.130  17.998  1.00  0.00    +0.000 C 
ATOM     55  F7  UNL A   1      51.591  20.792  18.034  1.00  0.00    +0.000 F 
ENDBRANCH   44   45
BRANCH   61   62
ATOM     65  C44 UNL A   1      61.033  20.839  18.556  1.00  0.00    +0.000 C 
ATOM     66  F9  UNL A   1      61.806  21.900  18.825  1.00  0.00    +0.000 F 
ATOM     67  C45 UNL A   1      61.282  19.624  19.181  1.00  0.00    +0.000 C 
ATOM     68  F10 UNL A   1      62.290  19.516  20.058  1.00  0.00    +0.000 F 
ATOM     69  C46 UNL A   1      60.492  18.522  18.891  1.00  0.00    +0.000 C 
ATOM     70  F11 UNL A   1      60.734  17.349  19.491  1.00  0.00    +0.000 F 
ATOM     71  C47 UNL A   1      59.450  18.630  17.974  1.00  0.00    +0.000 C 
ATOM     72  F12 UNL A   1      58.706  17.549  17.703  1.00  0.00    +0.000 F 
ATOM     62  C42 UNL A   1      59.182  19.849  17.336  1.00  0.00    +0.000 C 
ATOM     63  C43 UNL A   1      59.989  20.953  17.644  1.00  0.00    +0.000 C 
ATOM     64  F8  UNL A   1      59.775  22.133  17.044  1.00  0.00    +0.000 F 
ENDBRANCH   61   62
BRANCH   76   77
ATOM     77  C51 UNL A   1      58.270  17.642  10.814  1.00  0.00    +0.000 C 
ATOM     78  C52 UNL A   1      58.091  16.270  10.600  1.00  0.00    +0.000 C 
ATOM     79  F13 UNL A   1      57.154  15.602  11.288  1.00  0.00    +0.000 F 
ATOM     80  C53 UNL A   1      58.891  15.578   9.694  1.00  0.00    +0.000 C 
ATOM     81  F14 UNL A   1      58.714  14.261   9.517  1.00  0.00    +0.000 F 
ATOM     82  C54 UNL A   1      59.875  16.247   8.982  1.00  0.00    +0.000 C 
ATOM     83  F15 UNL A   1      60.643  15.581   8.109  1.00  0.00    +0.000 F 
ATOM     84  C55 UNL A   1      60.066  17.608   9.178  1.00  0.00    +0.000 C 
ATOM     85  F16 UNL A   1      61.014  18.257   8.490  1.00  0.00    +0.000 F 
ATOM     86  C56 UNL A   1      59.273  18.300  10.090  1.00  0.00    +0.000 C 
ATOM     87  F17 UNL A   1      59.478  19.613  10.269  1.00  0.00    +0.000 F 
ENDBRANCH   76   77
TORSDOF 21
ENDMDL
MODEL 5
REMARK VINA RESULT:      -9.4     47.870     53.321
ROOT
ATOM    129  H31 UNL A   1      11.752  50.156   6.295  1.00  0.00    +0.000 H 
ATOM    130  H32 UNL A   1      12.130  52.619   6.797  1.00  0.00    +0.000 H 
ATOM    131  H33 UNL A   1      14.490  51.610   3.526  1.00  0.00    +0.000 H 
ATOM    132  H34 UNL A   1      13.542  46.742   2.616  1.00  0.00    +0.000 H 
ATOM    133  H35 UNL A   1      15.188  46.907   0.659  1.00  0.00    +0.000 H 
ATOM    134  H36 UNL A   1      16.695  56.636   2.662  1.00  0.00    +0.000 H 
ATOM    135  H37 UNL A   1      15.185  56.458   4.724  1.00  0.00    +0.000 H 
ATOM     40  C27 UNL A   1      13.974  53.900   5.040  1.00  0.00    +0.000 C 
ATOM     41  C28 UNL A   1      14.952  54.327   3.984  1.00  0.00    +0.000 C 
ATOM     42  N5  UNL A   1      15.458  53.630   2.998  1.00  0.00    +0.000 N 
ATOM     43  C29 UNL A   1      16.275  54.505   2.297  1.00  0.00    +0.000 C 
ATOM     44  C30 UNL A   1      17.018  54.264   1.192  1.00  0.00    +0.000 C 
ATOM     56  C37 UNL A   1      17.129  52.990   0.533  1.00  0.00    +0.000 C 
ATOM     57  C38 UNL A   1      17.889  52.651  -0.575  1.00  0.00    +0.000 C 
ATOM     58  C39 UNL A   1      17.679  51.295  -0.852  1.00  0.00    +0.000 C 
ATOM     59  C40 UNL A   1      16.799  50.790   0.089  1.00  0.00    +0.000 C 
ATOM     60  N6  UNL A   1      16.468  51.839   0.931  1.00  0.00    +0.000 N 
ATOM     61  C41 UNL A   1      16.292  49.450   0.219  1.00  0.00    +0.000 C 
ATOM     73  C48 UNL A   1      15.422  49.037   1.170  1.00  0.00    +0.000 C 
ATOM     74  N7  UNL A   1      14.843  49.771   2.193  1.00  0.00    +0.000 N 
ATOM     75  C49 UNL A   1      14.070  48.936   2.840  1.00  0.00    +0.000 C 
ATOM     76  C50 UNL A   1      13.202  49.190   4.037  1.00  0.00    +0.000 C 
ATOM     88  C57 UNL A   1      13.178  50.409   4.606  1.00  0.00    +0.000 C 
ATOM     89  C58 UNL A   1      12.376  50.787   5.766  1.00  0.00    +0.000 C 
ATOM     90  C59 UNL A   1      12.579  52.087   6.035  1.00  0.00    +0.000 C 
ATOM     91  C60 UNL A   1      13.540  52.627   5.074  1.00  0.00    +0.000 C 
ATOM     92  N8  UNL A   1      13.849  51.558   4.270  1.00  0.00    +0.000 N 
ATOM     93  C61 UNL A   1      14.067  47.571   2.295  1.00  0.00    +0.000 C 
ATOM     94  C62 UNL A   1      14.919  47.684   1.284  1.00  0.00    +0.000 C 
ATOM     95  C63 UNL A   1      16.200  55.786   2.971  1.00  0.00    +0.000 C 
ATOM     96  C64 UNL A   1      15.413  55.721   4.037  1.00  0.00    +0.000 C 
ATOM    126  H28 UNL A   1      18.503  53.289  -1.105  1.00  0.00    +0.000 H 
ATOM    127  H29 UNL A   1      18.108  50.762  -1.626  1.00  0.00    +0.000 H 
ATOM    128  H30 UNL A   1      15.853  51.778   1.697  1.00  0.00    +0.000 H 
ENDROOT
BRANCH   40   39
ATOM     97  C65 UNL A   1      12.272  55.586   5.768  1.00  0.00    +0.000 C 
ATOM     98  C66 UNL A   1      11.772  56.496   6.704  1.00  0.00    +0.000 C 
ATOM     36  C23 UNL A   1      12.427  56.670   7.928  1.00  0.00    +0.000 C 
ATOM     37  C24 UNL A   1      13.622  55.990   8.181  1.00  0.00    +0.000 C 
ATOM     38  C25 UNL A   1      14.136  55.098   7.236  1.00  0.00    +0.000 C 
ATOM     39  C26 UNL A   1      13.457  54.877   6.029  1.00  0.00    +0.000 C 
ATOM    136  H38 UNL A   1      11.769  55.432   4.881  1.00  0.00    +0.000 H 
ATOM    137  H39 UNL A   1      10.921  57.040   6.491  1.00  0.00    +0.000 H 
ATOM    124  H26 UNL A   1      14.126  56.146   9.067  1.00  0.00    +0.000 H 
ATOM    125  H27 UNL A   1      15.020  54.600   7.426  1.00  0.00    +0.000 H 
BRANCH   36   34
ATOM     34  C22 UNL A   1      11.933  57.617   8.954  1.00  0.00    +0.000 C 
ATOM     35  O6  UNL A   1      11.909  58.818   8.696  1.00  0.00    +0.000 O 
BRANCH   34   33
ATOM     33  N4  UNL A   1      11.529  57.180  10.191  1.00  0.00    +0.000 N 
ATOM    123  H25 UNL A   1      11.637  57.835  10.917  1.00  0.00    +0.000 H 
BRANCH   33   32
ATOM    121  H23 UNL A   1      10.303  56.070  11.418  1.00  0.00    +0.000 H 
ATOM    122  H24 UNL A   1      10.458  55.493   9.751  1.00  0.00    +0.000 H 
ATOM     32  C21 UNL A   1      10.967  55.905  10.596  1.00  0.00    +0.000 C 
BRANCH   32   31
ATOM    119  H21 UNL A   1      12.055  54.114  10.297  1.00  0.00    +0.000 H 
ATOM     31  C20 UNL A   1      12.035  54.896  11.027  1.00  0.00    +0.000 C 
ATOM    120  H22 UNL A   1      12.940  55.461  11.103  1.00  0.00    +0.000 H 
BRANCH   31   30
ATOM    118  H20 UNL A   1      11.603  53.220  12.204  1.00  0.00    +0.000 H 
ATOM    117  H19 UNL A   1      11.094  54.787  12.927  1.00  0.00    +0.000 H 
ATOM     30  C19 UNL A   1      11.851  54.241  12.405  1.00  0.00    +0.000 C 
BRANCH   30   29
ATOM    115  H17 UNL A   1      13.846  54.807  12.865  1.00  0.00    +0.000 H 
ATOM    116  H18 UNL A   1      12.776  54.527  14.269  1.00  0.00    +0.000 H 
ATOM     29  C18 UNL A   1      13.090  54.189  13.304  1.00  0.00    +0.000 C 
BRANCH   29   28
ATOM    113  H15 UNL A   1      13.533  52.515  14.531  1.00  0.00    +0.000 H 
ATOM    114  H16 UNL A   1      13.168  52.147  12.820  1.00  0.00    +0.000 H 
ATOM     28  C17 UNL A   1      13.677  52.791  13.507  1.00  0.00    +0.000 C 
BRANCH   28   27
ATOM     27  C16 UNL A   1      15.175  52.669  13.187  1.00  0.00    +0.000 C 
ATOM    111  H13 UNL A   1      15.574  53.637  12.966  1.00  0.00    +0.000 H 
ATOM    112  H14 UNL A   1      15.691  52.259  14.029  1.00  0.00    +0.000 H 
BRANCH   27   26
ATOM     26  N3  UNL A   1      15.345  51.797  12.033  1.00  0.00    +0.000 N 
ATOM    110  H12 UNL A   1      15.938  51.027  12.189  1.00  0.00    +0.000 H 
BRANCH   26   24
ATOM     25  O5  UNL A   1      14.941  52.899  10.117  1.00  0.00    +0.000 O 
ATOM     24  C15 UNL A   1      14.824  51.863  10.769  1.00  0.00    +0.000 C 
BRANCH   24   23
ATOM    103  H5  UNL A   1      13.648  47.801   8.778  1.00  0.00    +0.000 H 
ATOM      8  C3  UNL A   1      14.335  49.593   9.673  1.00  0.00    +0.000 C 
ATOM      9  C4  UNL A   1      13.375  48.746   9.090  1.00  0.00    +0.000 C 
ATOM     10  C5  UNL A   1      12.055  49.178   8.927  1.00  0.00    +0.000 C 
ATOM    104  H6  UNL A   1      11.365  48.556   8.477  1.00  0.00    +0.000 H 
ATOM     11  C6  UNL A   1      11.665  50.446   9.369  1.00  0.00    +0.000 C 
ATOM    109  H11 UNL A   1      12.305  52.130  10.460  1.00  0.00    +0.000 H 
ATOM     22  C13 UNL A   1      12.603  51.228  10.058  1.00  0.00    +0.000 C 
ATOM     23  C14 UNL A   1      13.943  50.815  10.217  1.00  0.00    +0.000 C 
BRANCH    8    5
ATOM      5  S1  UNL A   1      16.031  49.135   9.515  1.00  0.00    +0.000 S 
ATOM      6  O2  UNL A   1      16.182  47.871  10.204  1.00  0.00    +0.000 O 
ATOM      7  O3  UNL A   1      16.880  50.264   9.803  1.00  0.00    +0.000 O 
BRANCH    5    4
ATOM      4  N1  UNL A   1      16.212  48.794   7.901  1.00  0.00    +0.000 N 
ATOM    102  H4  UNL A   1      16.166  47.842   7.654  1.00  0.00    +0.000 H 
BRANCH    4    2
ATOM      2  C2  UNL A   1      16.421  49.694   6.847  1.00  0.00    +0.000 C 
ATOM      3  O1  UNL A   1      16.746  49.243   5.756  1.00  0.00    +0.000 O 
BRANCH    2    1
ATOM      1  C1  UNL A   1      16.092  51.146   7.043  1.00  0.00    +0.000 C 
ATOM     99  H1  UNL A   1      16.950  51.659   7.424  1.00  0.00    +0.000 H 
ATOM    100  H2  UNL A   1      15.284  51.238   7.738  1.00  0.00    +0.000 H 
ATOM    101  H3  UNL A   1      15.807  51.577   6.105  1.00  0.00    +0.000 H 
ENDBRANCH    2    1
ENDBRANCH    4    2
ENDBRANCH    5    4
ENDBRANCH    8    5
BRANCH   11   12
ATOM    105  H7  UNL A   1      10.619  52.938   9.955  1.00  0.00    +0.000 H 
ATOM    106  H8  UNL A   1       8.606  53.897   9.206  1.00  0.00    +0.000 H 
ATOM    108  H10 UNL A   1       9.740  49.353   7.957  1.00  0.00    +0.000 H 
ATOM     12  C7  UNL A   1      10.356  51.027   8.982  1.00  0.00    +0.000 C 
ATOM     13  C8  UNL A   1       9.986  52.386   9.354  1.00  0.00    +0.000 C 
ATOM     14  C9  UNL A   1       8.842  52.931   8.931  1.00  0.00    +0.000 C 
ATOM     15  N2  UNL A   1       7.971  52.221   8.130  1.00  0.00    +0.000 N 
ATOM     19  C11 UNL A   1       8.228  50.922   7.724  1.00  0.00    +0.000 C 
ATOM     20  O4  UNL A   1       7.510  50.245   6.995  1.00  0.00    +0.000 O 
ATOM     21  C12 UNL A   1       9.505  50.324   8.214  1.00  0.00    +0.000 C 
BRANCH   15   16
ATOM     17  F1  UNL A   1       6.402  53.882   8.419  1.00  0.00    +0.000 F 
ATOM     18  F2  UNL A   1       6.937  53.305   6.372  1.00  0.00    +0.000 F 
ATOM    107  H9  UNL A   1       6.007  52.089   7.640  1.00  0.00    +0.000 H 
ATOM     16  C10 UNL A   1       6.768  52.841   7.633  1.00  0.00    +0.000 C 
ENDBRANCH   15   16
ENDBRANCH   11   12
ENDBRANCH   24   23
ENDBRANCH   26   24
ENDBRANCH   27   26
ENDBRANCH   28   27
ENDBRANCH   29   28
ENDBRANCH   30   29
ENDBRANCH   31   30
ENDBRANCH   32   31
ENDBRANCH   33   32
ENDBRANCH   34   33
ENDBRANCH   36   34
ENDBRANCH   40   39
BRANCH   44   45
ATOM     45  C31 UNL A   1      17.770  55.418   0.611  1.00  0.00    +0.000 C 
ATOM     46  C32 UNL A   1      17.241  56.173  -0.444  1.00  0.00    +0.000 C 
ATOM     47  F3  UNL A   1      16.061  55.840  -0.986  1.00  0.00    +0.000 F 
ATOM     48  C33 UNL A   1      17.939  57.263  -0.958  1.00  0.00    +0.000 C 
ATOM     49  F4  UNL A   1      17.427  57.963  -1.979  1.00  0.00    +0.000 F 
ATOM     50  C34 UNL A   1      19.166  57.622  -0.418  1.00  0.00    +0.000 C 
ATOM     51  F5  UNL A   1      19.835  58.672  -0.912  1.00  0.00    +0.000 F 
ATOM     52  C35 UNL A   1      19.702  56.889   0.631  1.00  0.00    +0.000 C 
ATOM     53  F6  UNL A   1      20.887  57.236   1.153  1.00  0.00    +0.000 F 
ATOM     54  C36 UNL A   1      19.013  55.793   1.141  1.00  0.00    +0.000 C 
ATOM     55  F7  UNL A   1      19.555  55.096   2.151  1.00  0.00    +0.000 F 
ENDBRANCH   44   45
BRANCH   61   62
ATOM     65  C44 UNL A   1      18.416  46.817  -1.513  1.00  0.00    +0.000 C 
ATOM     66  F9  UNL A   1      19.609  46.226  -1.357  1.00  0.00    +0.000 F 
ATOM     67  C45 UNL A   1      17.606  46.467  -2.584  1.00  0.00    +0.000 C 
ATOM     68  F10 UNL A   1      18.013  45.535  -3.457  1.00  0.00    +0.000 F 
ATOM     69  C46 UNL A   1      16.378  47.089  -2.756  1.00  0.00    +0.000 C 
ATOM     70  F11 UNL A   1      15.598  46.755  -3.792  1.00  0.00    +0.000 F 
ATOM     71  C47 UNL A   1      15.957  48.064  -1.856  1.00  0.00    +0.000 C 
ATOM     72  F12 UNL A   1      14.771  48.659  -2.047  1.00  0.00    +0.000 F 
ATOM     62  C42 UNL A   1      16.761  48.427  -0.767  1.00  0.00    +0.000 C 
ATOM     63  C43 UNL A   1      17.997  47.786  -0.608  1.00  0.00    +0.000 C 
ATOM     64  F8  UNL A   1      18.802  48.116   0.413  1.00  0.00    +0.000 F 
ENDBRANCH   61   62
BRANCH   76   77
ATOM     77  C51 UNL A   1      12.375  48.104   4.610  1.00  0.00    +0.000 C 
ATOM     78  C52 UNL A   1      11.090  47.847   4.115  1.00  0.00    +0.000 C 
ATOM     79  F13 UNL A   1      10.585  48.611   3.136  1.00  0.00    +0.000 F 
ATOM     80  C53 UNL A   1      10.314  46.819   4.643  1.00  0.00    +0.000 C 
ATOM     81  F14 UNL A   1       9.080  46.601   4.167  1.00  0.00    +0.000 F 
ATOM     82  C54 UNL A   1      10.813  46.026   5.666  1.00  0.00    +0.000 C 
ATOM     83  F15 UNL A   1      10.066  45.035   6.172  1.00  0.00    +0.000 F 
ATOM     84  C55 UNL A   1      12.085  46.263   6.168  1.00  0.00    +0.000 C 
ATOM     85  F16 UNL A   1      12.569  45.498   7.154  1.00  0.00    +0.000 F 
ATOM     86  C56 UNL A   1      12.858  47.297   5.647  1.00  0.00    +0.000 C 
ATOM     87  F17 UNL A   1      14.083  47.513   6.150  1.00  0.00    +0.000 F 
ENDBRANCH   76   77
TORSDOF 21
ENDMDL
MODEL 6
REMARK VINA RESULT:      -9.4     20.471     24.785
ROOT
ATOM    129  H31 UNL A   1      40.468  24.762  27.075  1.00  0.00    +0.000 H 
ATOM    130  H32 UNL A   1      38.926  26.719  27.578  1.00  0.00    +0.000 H 
ATOM    131  H33 UNL A   1      42.592  27.493  29.378  1.00  0.00    +0.000 H 
ATOM    132  H34 UNL A   1      45.539  23.575  28.200  1.00  0.00    +0.000 H 
ATOM    133  H35 UNL A   1      47.405  24.729  29.524  1.00  0.00    +0.000 H 
ATOM    134  H36 UNL A   1      41.298  32.452  31.525  1.00  0.00    +0.000 H 
ATOM    135  H37 UNL A   1      39.367  31.244  30.352  1.00  0.00    +0.000 H 
ATOM     40  C27 UNL A   1      40.120  28.774  29.152  1.00  0.00    +0.000 C 
ATOM     41  C28 UNL A   1      40.981  29.699  29.962  1.00  0.00    +0.000 C 
ATOM     42  N5  UNL A   1      42.241  29.574  30.294  1.00  0.00    +0.000 N 
ATOM     43  C29 UNL A   1      42.558  30.720  31.010  1.00  0.00    +0.000 C 
ATOM     44  C30 UNL A   1      43.742  31.067  31.567  1.00  0.00    +0.000 C 
ATOM     56  C37 UNL A   1      44.932  30.258  31.548  1.00  0.00    +0.000 C 
ATOM     57  C38 UNL A   1      46.166  30.521  32.118  1.00  0.00    +0.000 C 
ATOM     58  C39 UNL A   1      47.016  29.443  31.840  1.00  0.00    +0.000 C 
ATOM     59  C40 UNL A   1      46.306  28.508  31.107  1.00  0.00    +0.000 C 
ATOM     60  N6  UNL A   1      45.032  29.021  30.932  1.00  0.00    +0.000 N 
ATOM     61  C41 UNL A   1      46.751  27.238  30.599  1.00  0.00    +0.000 C 
ATOM     73  C48 UNL A   1      45.991  26.380  29.879  1.00  0.00    +0.000 C 
ATOM     74  N7  UNL A   1      44.670  26.516  29.482  1.00  0.00    +0.000 N 
ATOM     75  C49 UNL A   1      44.387  25.434  28.802  1.00  0.00    +0.000 C 
ATOM     76  C50 UNL A   1      43.100  25.048  28.136  1.00  0.00    +0.000 C 
ATOM     88  C57 UNL A   1      42.027  25.855  28.226  1.00  0.00    +0.000 C 
ATOM     89  C58 UNL A   1      40.722  25.600  27.622  1.00  0.00    +0.000 C 
ATOM     90  C59 UNL A   1      39.905  26.632  27.892  1.00  0.00    +0.000 C 
ATOM     91  C60 UNL A   1      40.627  27.611  28.702  1.00  0.00    +0.000 C 
ATOM     92  N8  UNL A   1      41.875  27.063  28.860  1.00  0.00    +0.000 N 
ATOM     93  C61 UNL A   1      45.504  24.485  28.686  1.00  0.00    +0.000 C 
ATOM     94  C62 UNL A   1      46.456  25.106  29.372  1.00  0.00    +0.000 C 
ATOM     95  C63 UNL A   1      41.357  31.529  31.067  1.00  0.00    +0.000 C 
ATOM     96  C64 UNL A   1      40.345  30.929  30.455  1.00  0.00    +0.000 C 
ATOM    126  H28 UNL A   1      46.417  31.366  32.656  1.00  0.00    +0.000 H 
ATOM    127  H29 UNL A   1      48.003  29.360  32.132  1.00  0.00    +0.000 H 
ATOM    128  H30 UNL A   1      44.304  28.573  30.443  1.00  0.00    +0.000 H 
ENDROOT
BRANCH   40   39
ATOM     97  C65 UNL A   1      38.412  29.635  27.537  1.00  0.00    +0.000 C 
ATOM     98  C66 UNL A   1      37.095  29.970  27.209  1.00  0.00    +0.000 C 
ATOM     36  C23 UNL A   1      36.071  29.771  28.142  1.00  0.00    +0.000 C 
ATOM     37  C24 UNL A   1      36.379  29.310  29.426  1.00  0.00    +0.000 C 
ATOM     38  C25 UNL A   1      37.700  28.998  29.763  1.00  0.00    +0.000 C 
ATOM     39  C26 UNL A   1      38.724  29.143  28.815  1.00  0.00    +0.000 C 
ATOM    136  H38 UNL A   1      39.160  29.749  26.836  1.00  0.00    +0.000 H 
ATOM    137  H39 UNL A   1      36.879  30.364  26.280  1.00  0.00    +0.000 H 
ATOM    124  H26 UNL A   1      35.630  29.199  30.127  1.00  0.00    +0.000 H 
ATOM    125  H27 UNL A   1      37.922  28.660  30.712  1.00  0.00    +0.000 H 
BRANCH   36   34
ATOM     34  C22 UNL A   1      34.660  30.104  27.841  1.00  0.00    +0.000 C 
ATOM     35  O6  UNL A   1      34.234  31.218  28.132  1.00  0.00    +0.000 O 
BRANCH   34   33
ATOM     33  N4  UNL A   1      33.818  29.183  27.268  1.00  0.00    +0.000 N 
ATOM    123  H25 UNL A   1      33.391  28.562  27.902  1.00  0.00    +0.000 H 
BRANCH   33   32
ATOM    121  H23 UNL A   1      32.395  29.064  25.785  1.00  0.00    +0.000 H 
ATOM    122  H24 UNL A   1      33.966  29.724  25.301  1.00  0.00    +0.000 H 
ATOM     32  C21 UNL A   1      33.457  28.981  25.877  1.00  0.00    +0.000 C 
BRANCH   32   31
ATOM    119  H21 UNL A   1      33.456  27.490  24.375  1.00  0.00    +0.000 H 
ATOM     31  C20 UNL A   1      33.887  27.611  25.346  1.00  0.00    +0.000 C 
ATOM    120  H22 UNL A   1      34.957  27.628  25.361  1.00  0.00    +0.000 H 
BRANCH   31   30
ATOM    118  H20 UNL A   1      32.566  26.044  25.771  1.00  0.00    +0.000 H 
ATOM    117  H19 UNL A   1      33.430  26.700  27.207  1.00  0.00    +0.000 H 
ATOM     30  C19 UNL A   1      33.491  26.387  26.186  1.00  0.00    +0.000 C 
BRANCH   30   29
ATOM    115  H17 UNL A   1      35.092  25.232  26.968  1.00  0.00    +0.000 H 
ATOM    116  H18 UNL A   1      33.815  24.313  26.121  1.00  0.00    +0.000 H 
ATOM     29  C18 UNL A   1      34.436  25.184  26.124  1.00  0.00    +0.000 C 
BRANCH   29   28
ATOM    113  H15 UNL A   1      34.729  25.522  24.049  1.00  0.00    +0.000 H 
ATOM    114  H16 UNL A   1      36.192  25.646  25.069  1.00  0.00    +0.000 H 
ATOM     28  C17 UNL A   1      35.292  25.106  24.859  1.00  0.00    +0.000 C 
BRANCH   28   27
ATOM     27  C16 UNL A   1      35.723  23.686  24.459  1.00  0.00    +0.000 C 
ATOM    111  H13 UNL A   1      36.789  23.645  24.378  1.00  0.00    +0.000 H 
ATOM    112  H14 UNL A   1      35.399  22.989  25.203  1.00  0.00    +0.000 H 
BRANCH   27   26
ATOM     26  N3  UNL A   1      35.122  23.350  23.177  1.00  0.00    +0.000 N 
ATOM    110  H12 UNL A   1      35.770  23.174  22.457  1.00  0.00    +0.000 H 
BRANCH   26   24
ATOM     25  O5  UNL A   1      33.535  23.030  21.617  1.00  0.00    +0.000 O 
ATOM     24  C15 UNL A   1      33.811  23.237  22.798  1.00  0.00    +0.000 C 
BRANCH   24   23
ATOM    103  H5  UNL A   1      30.549  22.521  26.068  1.00  0.00    +0.000 H 
ATOM      8  C3  UNL A   1      32.073  22.692  24.608  1.00  0.00    +0.000 C 
ATOM      9  C4  UNL A   1      30.945  23.122  25.328  1.00  0.00    +0.000 C 
ATOM     10  C5  UNL A   1      30.354  24.358  25.048  1.00  0.00    +0.000 C 
ATOM    104  H6  UNL A   1      29.512  24.653  25.567  1.00  0.00    +0.000 H 
ATOM     11  C6  UNL A   1      30.896  25.196  24.067  1.00  0.00    +0.000 C 
ATOM    109  H11 UNL A   1      32.544  25.452  22.781  1.00  0.00    +0.000 H 
ATOM     22  C13 UNL A   1      32.091  24.806  23.446  1.00  0.00    +0.000 C 
ATOM     23  C14 UNL A   1      32.692  23.556  23.705  1.00  0.00    +0.000 C 
BRANCH    8    5
ATOM      5  S1  UNL A   1      32.538  20.996  24.755  1.00  0.00    +0.000 S 
ATOM      6  O2  UNL A   1      31.598  20.391  25.675  1.00  0.00    +0.000 O 
ATOM      7  O3  UNL A   1      33.962  20.885  24.941  1.00  0.00    +0.000 O 
BRANCH    5    4
ATOM      4  N1  UNL A   1      32.193  20.350  23.266  1.00  0.00    +0.000 N 
ATOM    102  H4  UNL A   1      31.881  20.986  22.582  1.00  0.00    +0.000 H 
BRANCH    4    2
ATOM      2  C2  UNL A   1      32.292  19.012  22.862  1.00  0.00    +0.000 C 
ATOM      3  O1  UNL A   1      32.322  18.146  23.727  1.00  0.00    +0.000 O 
BRANCH    2    1
ATOM      1  C1  UNL A   1      32.199  18.676  21.401  1.00  0.00    +0.000 C 
ATOM     99  H1  UNL A   1      32.889  19.281  20.851  1.00  0.00    +0.000 H 
ATOM    100  H2  UNL A   1      31.205  18.864  21.054  1.00  0.00    +0.000 H 
ATOM    101  H3  UNL A   1      32.438  17.643  21.257  1.00  0.00    +0.000 H 
ENDBRANCH    2    1
ENDBRANCH    4    2
ENDBRANCH    5    4
ENDBRANCH    8    5
BRANCH   11   12
ATOM    105  H7  UNL A   1      28.209  25.800  24.314  1.00  0.00    +0.000 H 
ATOM    106  H8  UNL A   1      27.078  27.754  23.653  1.00  0.00    +0.000 H 
ATOM    108  H10 UNL A   1      31.806  27.253  22.712  1.00  0.00    +0.000 H 
ATOM     12  C7  UNL A   1      30.153  26.380  23.570  1.00  0.00    +0.000 C 
ATOM     13  C8  UNL A   1      28.729  26.550  23.830  1.00  0.00    +0.000 C 
ATOM     14  C9  UNL A   1      28.086  27.658  23.453  1.00  0.00    +0.000 C 
ATOM     15  N2  UNL A   1      28.749  28.678  22.801  1.00  0.00    +0.000 N 
ATOM     19  C11 UNL A   1      30.101  28.613  22.505  1.00  0.00    +0.000 C 
ATOM     20  O4  UNL A   1      30.755  29.490  21.951  1.00  0.00    +0.000 O 
ATOM     21  C12 UNL A   1      30.802  27.364  22.923  1.00  0.00    +0.000 C 
BRANCH   15   16
ATOM     17  F1  UNL A   1      27.750  29.912  21.133  1.00  0.00    +0.000 F 
ATOM     18  F2  UNL A   1      26.904  30.022  23.154  1.00  0.00    +0.000 F 
ATOM    107  H9  UNL A   1      28.714  30.703  22.690  1.00  0.00    +0.000 H 
ATOM     16  C10 UNL A   1      28.056  29.892  22.453  1.00  0.00    +0.000 C 
ENDBRANCH   15   16
ENDBRANCH   11   12
ENDBRANCH   24   23
ENDBRANCH   26   24
ENDBRANCH   27   26
ENDBRANCH   28   27
ENDBRANCH   29   28
ENDBRANCH   30   29
ENDBRANCH   31   30
ENDBRANCH   32   31
ENDBRANCH   33   32
ENDBRANCH   34   33
ENDBRANCH   36   34
ENDBRANCH   40   39
BRANCH   44   45
ATOM     45  C31 UNL A   1      43.813  32.398  32.243  1.00  0.00    +0.000 C 
ATOM     46  C32 UNL A   1      44.147  33.557  31.531  1.00  0.00    +0.000 C 
ATOM     47  F3  UNL A   1      44.456  33.484  30.229  1.00  0.00    +0.000 F 
ATOM     48  C33 UNL A   1      44.183  34.796  32.167  1.00  0.00    +0.000 C 
ATOM     49  F4  UNL A   1      44.522  35.892  31.475  1.00  0.00    +0.000 F 
ATOM     50  C34 UNL A   1      43.874  34.896  33.515  1.00  0.00    +0.000 C 
ATOM     51  F5  UNL A   1      43.907  36.089  34.125  1.00  0.00    +0.000 F 
ATOM     52  C35 UNL A   1      43.536  33.759  34.235  1.00  0.00    +0.000 C 
ATOM     53  F6  UNL A   1      43.237  33.855  35.538  1.00  0.00    +0.000 F 
ATOM     54  C36 UNL A   1      43.508  32.517  33.606  1.00  0.00    +0.000 C 
ATOM     55  F7  UNL A   1      43.185  31.432  34.324  1.00  0.00    +0.000 F 
ENDBRANCH   44   45
BRANCH   61   62
ATOM     65  C44 UNL A   1      49.767  25.600  32.232  1.00  0.00    +0.000 C 
ATOM     66  F9  UNL A   1      50.040  24.831  33.294  1.00  0.00    +0.000 F 
ATOM     67  C45 UNL A   1      50.792  26.002  31.386  1.00  0.00    +0.000 C 
ATOM     68  F10 UNL A   1      52.052  25.614  31.629  1.00  0.00    +0.000 F 
ATOM     69  C46 UNL A   1      50.513  26.812  30.295  1.00  0.00    +0.000 C 
ATOM     70  F11 UNL A   1      51.503  27.204  29.482  1.00  0.00    +0.000 F 
ATOM     71  C47 UNL A   1      49.207  27.224  30.047  1.00  0.00    +0.000 C 
ATOM     72  F12 UNL A   1      48.962  28.014  28.992  1.00  0.00    +0.000 F 
ATOM     62  C42 UNL A   1      48.159  26.824  30.887  1.00  0.00    +0.000 C 
ATOM     63  C43 UNL A   1      48.460  26.004  31.983  1.00  0.00    +0.000 C 
ATOM     64  F8  UNL A   1      47.487  25.612  32.819  1.00  0.00    +0.000 F 
ENDBRANCH   61   62
BRANCH   76   77
ATOM     77  C51 UNL A   1      42.992  23.777  27.386  1.00  0.00    +0.000 C 
ATOM     78  C52 UNL A   1      43.404  23.698  26.050  1.00  0.00    +0.000 C 
ATOM     79  F13 UNL A   1      43.871  24.790  25.428  1.00  0.00    +0.000 F 
ATOM     80  C53 UNL A   1      43.316  22.501  25.345  1.00  0.00    +0.000 C 
ATOM     81  F14 UNL A   1      43.700  22.451  24.062  1.00  0.00    +0.000 F 
ATOM     82  C54 UNL A   1      42.823  21.362  25.966  1.00  0.00    +0.000 C 
ATOM     83  F15 UNL A   1      42.741  20.210  25.287  1.00  0.00    +0.000 F 
ATOM     84  C55 UNL A   1      42.412  21.420  27.290  1.00  0.00    +0.000 C 
ATOM     85  F16 UNL A   1      41.937  20.322  27.892  1.00  0.00    +0.000 F 
ATOM     86  C56 UNL A   1      42.491  22.619  27.994  1.00  0.00    +0.000 C 
ATOM     87  F17 UNL A   1      42.083  22.654  29.271  1.00  0.00    +0.000 F 
ENDBRANCH   76   77
TORSDOF 21
ENDMDL
MODEL 7
REMARK VINA RESULT:      -9.2     28.725     34.616
ROOT
ATOM    129  H31 UNL A   1      45.757  54.390  15.129  1.00  0.00    +0.000 H 
ATOM    130  H32 UNL A   1      44.904  52.143  15.956  1.00  0.00    +0.000 H 
ATOM    131  H33 UNL A   1      48.410  53.010  18.016  1.00  0.00    +0.000 H 
ATOM    132  H34 UNL A   1      49.897  57.523  16.330  1.00  0.00    +0.000 H 
ATOM    133  H35 UNL A   1      51.879  57.344  17.944  1.00  0.00    +0.000 H 
ATOM    134  H36 UNL A   1      48.516  48.450  21.190  1.00  0.00    +0.000 H 
ATOM    135  H37 UNL A   1      46.620  48.525  19.468  1.00  0.00    +0.000 H 
ATOM     40  C27 UNL A   1      46.532  50.942  17.966  1.00  0.00    +0.000 C 
ATOM     41  C28 UNL A   1      47.539  50.546  19.005  1.00  0.00    +0.000 C 
ATOM     42  N5  UNL A   1      48.582  51.209  19.438  1.00  0.00    +0.000 N 
ATOM     43  C29 UNL A   1      49.151  50.415  20.423  1.00  0.00    +0.000 C 
ATOM     44  C30 UNL A   1      50.249  50.661  21.176  1.00  0.00    +0.000 C 
ATOM     56  C37 UNL A   1      51.083  51.828  21.062  1.00  0.00    +0.000 C 
ATOM     57  C38 UNL A   1      52.236  52.140  21.765  1.00  0.00    +0.000 C 
ATOM     58  C39 UNL A   1      52.705  53.379  21.311  1.00  0.00    +0.000 C 
ATOM     59  C40 UNL A   1      51.850  53.830  20.320  1.00  0.00    +0.000 C 
ATOM     60  N6  UNL A   1      50.860  52.871  20.179  1.00  0.00    +0.000 N 
ATOM     61  C41 UNL A   1      51.924  55.044  19.553  1.00  0.00    +0.000 C 
ATOM     73  C48 UNL A   1      51.038  55.417  18.601  1.00  0.00    +0.000 C 
ATOM     74  N7  UNL A   1      49.905  54.749  18.162  1.00  0.00    +0.000 N 
ATOM     75  C49 UNL A   1      49.374  55.512  17.239  1.00  0.00    +0.000 C 
ATOM     76  C50 UNL A   1      48.135  55.284  16.425  1.00  0.00    +0.000 C 
ATOM     88  C57 UNL A   1      47.427  54.150  16.580  1.00  0.00    +0.000 C 
ATOM     89  C58 UNL A   1      46.205  53.810  15.856  1.00  0.00    +0.000 C 
ATOM     90  C59 UNL A   1      45.757  52.619  16.289  1.00  0.00    +0.000 C 
ATOM     91  C60 UNL A   1      46.672  52.108  17.308  1.00  0.00    +0.000 C 
ATOM     92  N8  UNL A   1      47.639  53.078  17.409  1.00  0.00    +0.000 N 
ATOM     93  C61 UNL A   1      50.111  56.760  16.990  1.00  0.00    +0.000 C 
ATOM     94  C62 UNL A   1      51.125  56.646  17.839  1.00  0.00    +0.000 C 
ATOM     95  C63 UNL A   1      48.340  49.218  20.524  1.00  0.00    +0.000 C 
ATOM     96  C64 UNL A   1      47.343  49.240  19.649  1.00  0.00    +0.000 C 
ATOM    126  H28 UNL A   1      52.673  51.559  22.498  1.00  0.00    +0.000 H 
ATOM    127  H29 UNL A   1      53.544  53.871  21.656  1.00  0.00    +0.000 H 
ATOM    128  H30 UNL A   1      50.108  52.924  19.546  1.00  0.00    +0.000 H 
ENDROOT
BRANCH   40   39
ATOM     97  C65 UNL A   1      45.492  48.985  16.801  1.00  0.00    +0.000 C 
ATOM     98  C66 UNL A   1      44.398  48.156  16.537  1.00  0.00    +0.000 C 
ATOM     36  C23 UNL A   1      43.179  48.382  17.184  1.00  0.00    +0.000 C 
ATOM     37  C24 UNL A   1      43.036  49.484  18.035  1.00  0.00    +0.000 C 
ATOM     38  C25 UNL A   1      44.122  50.327  18.280  1.00  0.00    +0.000 C 
ATOM     39  C26 UNL A   1      45.364  50.075  17.677  1.00  0.00    +0.000 C 
ATOM    136  H38 UNL A   1      46.401  48.795  16.350  1.00  0.00    +0.000 H 
ATOM    137  H39 UNL A   1      44.490  47.378  15.865  1.00  0.00    +0.000 H 
ATOM    124  H26 UNL A   1      42.126  49.674  18.483  1.00  0.00    +0.000 H 
ATOM    125  H27 UNL A   1      44.011  51.140  18.907  1.00  0.00    +0.000 H 
BRANCH   36   34
ATOM     34  C22 UNL A   1      41.992  47.528  16.944  1.00  0.00    +0.000 C 
ATOM     35  O6  UNL A   1      41.157  47.886  16.117  1.00  0.00    +0.000 O 
BRANCH   34   33
ATOM     33  N4  UNL A   1      41.799  46.365  17.645  1.00  0.00    +0.000 N 
ATOM    123  H25 UNL A   1      41.673  46.481  18.615  1.00  0.00    +0.000 H 
BRANCH   33   32
ATOM    121  H23 UNL A   1      41.404  44.372  17.985  1.00  0.00    +0.000 H 
ATOM    122  H24 UNL A   1      41.090  44.956  16.342  1.00  0.00    +0.000 H 
ATOM     32  C21 UNL A   1      41.749  44.989  17.183  1.00  0.00    +0.000 C 
BRANCH   32   31
ATOM    119  H21 UNL A   1      43.011  43.423  16.524  1.00  0.00    +0.000 H 
ATOM     31  C20 UNL A   1      43.113  44.470  16.720  1.00  0.00    +0.000 C 
ATOM    120  H22 UNL A   1      43.364  45.063  15.865  1.00  0.00    +0.000 H 
BRANCH   31   30
ATOM    118  H20 UNL A   1      44.280  45.684  17.962  1.00  0.00    +0.000 H 
ATOM    117  H19 UNL A   1      45.177  44.328  17.193  1.00  0.00    +0.000 H 
ATOM     30  C19 UNL A   1      44.288  44.649  17.693  1.00  0.00    +0.000 C 
BRANCH   30   29
ATOM    115  H17 UNL A   1      43.250  43.387  19.050  1.00  0.00    +0.000 H 
ATOM    116  H18 UNL A   1      45.029  43.212  19.034  1.00  0.00    +0.000 H 
ATOM     29  C18 UNL A   1      44.197  43.885  19.017  1.00  0.00    +0.000 C 
BRANCH   29   28
ATOM    113  H15 UNL A   1      45.322  45.129  20.317  1.00  0.00    +0.000 H 
ATOM    114  H16 UNL A   1      43.585  45.525  20.176  1.00  0.00    +0.000 H 
ATOM     28  C17 UNL A   1      44.321  44.754  20.270  1.00  0.00    +0.000 C 
BRANCH   28   27
ATOM     27  C16 UNL A   1      44.021  44.028  21.590  1.00  0.00    +0.000 C 
ATOM    111  H13 UNL A   1      44.253  44.670  22.413  1.00  0.00    +0.000 H 
ATOM    112  H14 UNL A   1      42.984  43.765  21.629  1.00  0.00    +0.000 H 
BRANCH   27   26
ATOM     26  N3  UNL A   1      44.835  42.823  21.666  1.00  0.00    +0.000 N 
ATOM    110  H12 UNL A   1      44.386  42.007  21.347  1.00  0.00    +0.000 H 
BRANCH   26   24
ATOM     25  O5  UNL A   1      46.426  41.557  22.622  1.00  0.00    +0.000 O 
ATOM     24  C15 UNL A   1      46.117  42.629  22.105  1.00  0.00    +0.000 C 
BRANCH   24   23
ATOM    103  H5  UNL A   1      48.594  46.112  23.997  1.00  0.00    +0.000 H 
ATOM      8  C3  UNL A   1      47.401  44.515  23.284  1.00  0.00    +0.000 C 
ATOM      9  C4  UNL A   1      48.300  45.588  23.158  1.00  0.00    +0.000 C 
ATOM     10  C5  UNL A   1      48.796  45.953  21.902  1.00  0.00    +0.000 C 
ATOM    104  H6  UNL A   1      49.438  46.757  21.819  1.00  0.00    +0.000 H 
ATOM     11  C6  UNL A   1      48.428  45.235  20.759  1.00  0.00    +0.000 C 
ATOM    109  H11 UNL A   1      47.419  43.510  20.095  1.00  0.00    +0.000 H 
ATOM     22  C13 UNL A   1      47.630  44.094  20.920  1.00  0.00    +0.000 C 
ATOM     23  C14 UNL A   1      47.107  43.721  22.176  1.00  0.00    +0.000 C 
BRANCH    8    5
ATOM      5  S1  UNL A   1      46.543  44.345  24.816  1.00  0.00    +0.000 S 
ATOM      6  O2  UNL A   1      46.975  43.090  25.392  1.00  0.00    +0.000 O 
ATOM      7  O3  UNL A   1      45.147  44.661  24.642  1.00  0.00    +0.000 O 
BRANCH    5    4
ATOM      4  N1  UNL A   1      47.190  45.531  25.779  1.00  0.00    +0.000 N 
ATOM    102  H4  UNL A   1      47.546  46.320  25.310  1.00  0.00    +0.000 H 
BRANCH    4    2
ATOM      2  C2  UNL A   1      47.293  45.547  27.176  1.00  0.00    +0.000 C 
ATOM      3  O1  UNL A   1      46.265  45.653  27.832  1.00  0.00    +0.000 O 
BRANCH    2    1
ATOM      1  C1  UNL A   1      48.624  45.279  27.819  1.00  0.00    +0.000 C 
ATOM     99  H1  UNL A   1      49.095  44.451  27.333  1.00  0.00    +0.000 H 
ATOM    100  H2  UNL A   1      48.481  45.051  28.854  1.00  0.00    +0.000 H 
ATOM    101  H3  UNL A   1      49.245  46.146  27.727  1.00  0.00    +0.000 H 
ENDBRANCH    2    1
ENDBRANCH    4    2
ENDBRANCH    5    4
ENDBRANCH    8    5
BRANCH   11   12
ATOM    105  H7  UNL A   1      50.747  46.394  19.801  1.00  0.00    +0.000 H 
ATOM    106  H8  UNL A   1      51.254  47.062  17.603  1.00  0.00    +0.000 H 
ATOM    108  H10 UNL A   1      46.868  45.283  18.647  1.00  0.00    +0.000 H 
ATOM     12  C7  UNL A   1      48.726  45.748  19.399  1.00  0.00    +0.000 C 
ATOM     13  C8  UNL A   1      50.032  46.298  19.063  1.00  0.00    +0.000 C 
ATOM     14  C9  UNL A   1      50.320  46.680  17.815  1.00  0.00    +0.000 C 
ATOM     15  N2  UNL A   1      49.386  46.569  16.805  1.00  0.00    +0.000 N 
ATOM     19  C11 UNL A   1      48.115  46.062  17.022  1.00  0.00    +0.000 C 
ATOM     20  O4  UNL A   1      47.248  45.915  16.167  1.00  0.00    +0.000 O 
ATOM     21  C12 UNL A   1      47.806  45.650  18.423  1.00  0.00    +0.000 C 
BRANCH   15   16
ATOM     17  F1  UNL A   1      50.856  47.681  15.425  1.00  0.00    +0.000 F 
ATOM     18  F2  UNL A   1      49.936  45.832  14.686  1.00  0.00    +0.000 F 
ATOM    107  H9  UNL A   1      48.904  47.489  15.063  1.00  0.00    +0.000 H 
ATOM     16  C10 UNL A   1      49.729  46.930  15.452  1.00  0.00    +0.000 C 
ENDBRANCH   15   16
ENDBRANCH   11   12
ENDBRANCH   24   23
ENDBRANCH   26   24
ENDBRANCH   27   26
ENDBRANCH   28   27
ENDBRANCH   29   28
ENDBRANCH   30   29
ENDBRANCH   31   30
ENDBRANCH   32   31
ENDBRANCH   33   32
ENDBRANCH   34   33
ENDBRANCH   36   34
ENDBRANCH   40   39
BRANCH   44   45
ATOM     45  C31 UNL A   1      50.610  49.643  22.209  1.00  0.00    +0.000 C 
ATOM     46  C32 UNL A   1      51.480  48.586  21.915  1.00  0.00    +0.000 C 
ATOM     47  F3  UNL A   1      51.973  48.442  20.676  1.00  0.00    +0.000 F 
ATOM     48  C33 UNL A   1      51.830  47.659  22.894  1.00  0.00    +0.000 C 
ATOM     49  F4  UNL A   1      52.650  46.644  22.590  1.00  0.00    +0.000 F 
ATOM     50  C34 UNL A   1      51.328  47.784  24.181  1.00  0.00    +0.000 C 
ATOM     51  F5  UNL A   1      51.667  46.892  25.123  1.00  0.00    +0.000 F 
ATOM     52  C35 UNL A   1      50.469  48.828  24.492  1.00  0.00    +0.000 C 
ATOM     53  F6  UNL A   1      49.983  48.947  25.736  1.00  0.00    +0.000 F 
ATOM     54  C36 UNL A   1      50.108  49.750  23.514  1.00  0.00    +0.000 C 
ATOM     55  F7  UNL A   1      49.272  50.747  23.837  1.00  0.00    +0.000 F 
ENDBRANCH   44   45
BRANCH   61   62
ATOM     65  C44 UNL A   1      54.036  57.837  21.029  1.00  0.00    +0.000 C 
ATOM     66  F9  UNL A   1      53.910  58.825  21.926  1.00  0.00    +0.000 F 
ATOM     67  C45 UNL A   1      55.237  57.663  20.355  1.00  0.00    +0.000 C 
ATOM     68  F10 UNL A   1      56.272  58.477  20.608  1.00  0.00    +0.000 F 
ATOM     69  C46 UNL A   1      55.363  56.651  19.415  1.00  0.00    +0.000 C 
ATOM     70  F11 UNL A   1      56.521  56.485  18.761  1.00  0.00    +0.000 F 
ATOM     71  C47 UNL A   1      54.287  55.811  19.145  1.00  0.00    +0.000 C 
ATOM     72  F12 UNL A   1      54.429  54.845  18.226  1.00  0.00    +0.000 F 
ATOM     62  C42 UNL A   1      53.068  55.970  19.819  1.00  0.00    +0.000 C 
ATOM     63  C43 UNL A   1      52.961  56.996  20.767  1.00  0.00    +0.000 C 
ATOM     64  F8  UNL A   1      51.806  57.190  21.422  1.00  0.00    +0.000 F 
ENDBRANCH   61   62
BRANCH   76   77
ATOM     77  C51 UNL A   1      47.685  56.293  15.441  1.00  0.00    +0.000 C 
ATOM     78  C52 UNL A   1      46.976  57.428  15.853  1.00  0.00    +0.000 C 
ATOM     79  F13 UNL A   1      46.669  57.591  17.147  1.00  0.00    +0.000 F 
ATOM     80  C53 UNL A   1      46.563  58.386  14.931  1.00  0.00    +0.000 C 
ATOM     81  F14 UNL A   1      45.870  59.456  15.344  1.00  0.00    +0.000 F 
ATOM     82  C54 UNL A   1      46.859  58.229  13.585  1.00  0.00    +0.000 C 
ATOM     83  F15 UNL A   1      46.463  59.152  12.698  1.00  0.00    +0.000 F 
ATOM     84  C55 UNL A   1      47.563  57.112  13.157  1.00  0.00    +0.000 C 
ATOM     85  F16 UNL A   1      47.852  56.960  11.858  1.00  0.00    +0.000 F 
ATOM     86  C56 UNL A   1      47.969  56.149  14.076  1.00  0.00    +0.000 C 
ATOM     87  F17 UNL A   1      48.644  55.074  13.642  1.00  0.00    +0.000 F 
ENDBRANCH   76   77
TORSDOF 21
ENDMDL
MODEL 8
REMARK VINA RESULT:      -9.2     28.231     34.549
ROOT
ATOM    129  H31 UNL A   1      45.751  54.434  15.061  1.00  0.00    +0.000 H 
ATOM    130  H32 UNL A   1      44.926  52.196  15.938  1.00  0.00    +0.000 H 
ATOM    131  H33 UNL A   1      48.423  53.151  17.975  1.00  0.00    +0.000 H 
ATOM    132  H34 UNL A   1      49.854  57.643  16.186  1.00  0.00    +0.000 H 
ATOM    133  H35 UNL A   1      51.839  57.524  17.801  1.00  0.00    +0.000 H 
ATOM    134  H36 UNL A   1      48.587  48.666  21.250  1.00  0.00    +0.000 H 
ATOM    135  H37 UNL A   1      46.689  48.679  19.529  1.00  0.00    +0.000 H 
ATOM     40  C27 UNL A   1      46.570  51.060  17.973  1.00  0.00    +0.000 C 
ATOM     41  C28 UNL A   1      47.583  50.700  19.019  1.00  0.00    +0.000 C 
ATOM     42  N5  UNL A   1      48.618  51.385  19.436  1.00  0.00    +0.000 N 
ATOM     43  C29 UNL A   1      49.198  50.620  20.438  1.00  0.00    +0.000 C 
ATOM     44  C30 UNL A   1      50.293  50.896  21.184  1.00  0.00    +0.000 C 
ATOM     56  C37 UNL A   1      51.113  52.070  21.043  1.00  0.00    +0.000 C 
ATOM     57  C38 UNL A   1      52.262  52.412  21.737  1.00  0.00    +0.000 C 
ATOM     58  C39 UNL A   1      52.716  53.646  21.255  1.00  0.00    +0.000 C 
ATOM     59  C40 UNL A   1      51.855  54.064  20.255  1.00  0.00    +0.000 C 
ATOM     60  N6  UNL A   1      50.876  53.091  20.137  1.00  0.00    +0.000 N 
ATOM     61  C41 UNL A   1      51.914  55.261  19.461  1.00  0.00    +0.000 C 
ATOM     73  C48 UNL A   1      51.022  55.603  18.502  1.00  0.00    +0.000 C 
ATOM     74  N7  UNL A   1      49.897  54.911  18.079  1.00  0.00    +0.000 N 
ATOM     75  C49 UNL A   1      49.356  55.647  17.140  1.00  0.00    +0.000 C 
ATOM     76  C50 UNL A   1      48.119  55.386  16.333  1.00  0.00    +0.000 C 
ATOM     88  C57 UNL A   1      47.425  54.247  16.514  1.00  0.00    +0.000 C 
ATOM     89  C58 UNL A   1      46.206  53.876  15.800  1.00  0.00    +0.000 C 
ATOM     90  C59 UNL A   1      45.773  52.690  16.259  1.00  0.00    +0.000 C 
ATOM     91  C60 UNL A   1      46.695  52.213  17.289  1.00  0.00    +0.000 C 
ATOM     92  N8  UNL A   1      47.651  53.196  17.367  1.00  0.00    +0.000 N 
ATOM     93  C61 UNL A   1      50.078  56.898  16.863  1.00  0.00    +0.000 C 
ATOM     94  C62 UNL A   1      51.094  56.815  17.713  1.00  0.00    +0.000 C 
ATOM     95  C63 UNL A   1      48.401  49.417  20.567  1.00  0.00    +0.000 C 
ATOM     96  C64 UNL A   1      47.403  49.406  19.693  1.00  0.00    +0.000 C 
ATOM    126  H28 UNL A   1      52.707  51.853  22.482  1.00  0.00    +0.000 H 
ATOM    127  H29 UNL A   1      53.549  54.156  21.588  1.00  0.00    +0.000 H 
ATOM    128  H30 UNL A   1      50.123  53.120  19.504  1.00  0.00    +0.000 H 
ENDROOT
BRANCH   40   39
ATOM     97  C65 UNL A   1      44.181  50.407  18.339  1.00  0.00    +0.000 C 
ATOM     98  C66 UNL A   1      43.083  49.583  18.079  1.00  0.00    +0.000 C 
ATOM     36  C23 UNL A   1      43.193  48.547  17.145  1.00  0.00    +0.000 C 
ATOM     37  C24 UNL A   1      44.424  48.290  16.532  1.00  0.00    +0.000 C 
ATOM     38  C25 UNL A   1      45.530  49.098  16.811  1.00  0.00    +0.000 C 
ATOM     39  C26 UNL A   1      45.412  50.173  17.705  1.00  0.00    +0.000 C 
ATOM    136  H38 UNL A   1      44.088  51.193  19.001  1.00  0.00    +0.000 H 
ATOM    137  H39 UNL A   1      42.191  49.738  18.575  1.00  0.00    +0.000 H 
ATOM    124  H26 UNL A   1      44.517  47.502  15.872  1.00  0.00    +0.000 H 
ATOM    125  H27 UNL A   1      46.436  48.904  16.358  1.00  0.00    +0.000 H 
BRANCH   36   34
ATOM     34  C22 UNL A   1      42.057  47.650  16.829  1.00  0.00    +0.000 C 
ATOM     35  O6  UNL A   1      40.925  47.976  17.178  1.00  0.00    +0.000 O 
BRANCH   34   33
ATOM     33  N4  UNL A   1      42.251  46.457  16.180  1.00  0.00    +0.000 N 
ATOM    123  H25 UNL A   1      42.648  46.533  15.282  1.00  0.00    +0.000 H 
BRANCH   33   32
ATOM    121  H23 UNL A   1      40.959  44.860  16.331  1.00  0.00    +0.000 H 
ATOM    122  H24 UNL A   1      42.673  44.455  16.132  1.00  0.00    +0.000 H 
ATOM     32  C21 UNL A   1      41.964  45.100  16.608  1.00  0.00    +0.000 C 
BRANCH   32   31
ATOM    119  H21 UNL A   1      41.690  45.769  18.597  1.00  0.00    +0.000 H 
ATOM     31  C20 UNL A   1      42.113  44.910  18.120  1.00  0.00    +0.000 C 
ATOM    120  H22 UNL A   1      41.617  43.987  18.337  1.00  0.00    +0.000 H 
BRANCH   31   30
ATOM    118  H20 UNL A   1      44.160  44.620  17.792  1.00  0.00    +0.000 H 
ATOM    117  H19 UNL A   1      43.541  43.894  19.318  1.00  0.00    +0.000 H 
ATOM     30  C19 UNL A   1      43.542  44.736  18.658  1.00  0.00    +0.000 C 
BRANCH   30   29
ATOM    115  H17 UNL A   1      43.892  46.819  18.882  1.00  0.00    +0.000 H 
ATOM    116  H18 UNL A   1      43.702  45.897  20.401  1.00  0.00    +0.000 H 
ATOM     29  C18 UNL A   1      44.131  45.926  19.421  1.00  0.00    +0.000 C 
BRANCH   29   28
ATOM    113  H15 UNL A   1      46.109  46.207  18.706  1.00  0.00    +0.000 H 
ATOM    114  H16 UNL A   1      45.866  46.506  20.451  1.00  0.00    +0.000 H 
ATOM     28  C17 UNL A   1      45.648  45.877  19.613  1.00  0.00    +0.000 C 
BRANCH   28   27
ATOM     27  C16 UNL A   1      46.209  44.488  19.956  1.00  0.00    +0.000 C 
ATOM    111  H13 UNL A   1      45.487  43.940  20.524  1.00  0.00    +0.000 H 
ATOM    112  H14 UNL A   1      46.426  43.955  19.054  1.00  0.00    +0.000 H 
BRANCH   27   26
ATOM     26  N3  UNL A   1      47.427  44.647  20.737  1.00  0.00    +0.000 N 
ATOM    110  H12 UNL A   1      47.411  44.197  21.612  1.00  0.00    +0.000 H 
BRANCH   26   24
ATOM     25  O5  UNL A   1      49.028  46.129  21.277  1.00  0.00    +0.000 O 
ATOM     24  C15 UNL A   1      48.591  45.315  20.465  1.00  0.00    +0.000 C 
BRANCH   24   23
ATOM    103  H5  UNL A   1      51.583  43.867  17.178  1.00  0.00    +0.000 H 
ATOM      8  C3  UNL A   1      50.291  44.412  18.765  1.00  0.00    +0.000 C 
ATOM      9  C4  UNL A   1      50.883  44.556  17.498  1.00  0.00    +0.000 C 
ATOM     10  C5  UNL A   1      50.533  45.626  16.670  1.00  0.00    +0.000 C 
ATOM    104  H6  UNL A   1      50.991  45.734  15.752  1.00  0.00    +0.000 H 
ATOM     11  C6  UNL A   1      49.567  46.551  17.079  1.00  0.00    +0.000 C 
ATOM    109  H11 UNL A   1      48.128  46.952  18.564  1.00  0.00    +0.000 H 
ATOM     22  C13 UNL A   1      48.898  46.323  18.291  1.00  0.00    +0.000 C 
ATOM     23  C14 UNL A   1      49.251  45.258  19.146  1.00  0.00    +0.000 C 
BRANCH    8    5
ATOM      5  S1  UNL A   1      51.034  43.272  19.889  1.00  0.00    +0.000 S 
ATOM      6  O2  UNL A   1      52.094  42.609  19.161  1.00  0.00    +0.000 O 
ATOM      7  O3  UNL A   1      50.016  42.531  20.591  1.00  0.00    +0.000 O 
BRANCH    5    4
ATOM      4  N1  UNL A   1      51.788  44.236  21.008  1.00  0.00    +0.000 N 
ATOM    102  H4  UNL A   1      52.084  45.119  20.687  1.00  0.00    +0.000 H 
BRANCH    4    2
ATOM      2  C2  UNL A   1      52.054  43.951  22.354  1.00  0.00    +0.000 C 
ATOM      3  O1  UNL A   1      51.232  44.293  23.193  1.00  0.00    +0.000 O 
BRANCH    2    1
ATOM      1  C1  UNL A   1      53.246  43.106  22.704  1.00  0.00    +0.000 C 
ATOM     99  H1  UNL A   1      53.550  43.317  23.709  1.00  0.00    +0.000 H 
ATOM    100  H2  UNL A   1      54.050  43.328  22.035  1.00  0.00    +0.000 H 
ATOM    101  H3  UNL A   1      52.987  42.071  22.621  1.00  0.00    +0.000 H 
ENDBRANCH    2    1
ENDBRANCH    4    2
ENDBRANCH    5    4
ENDBRANCH    8    5
BRANCH   11   12
ATOM    105  H7  UNL A   1      50.324  49.113  17.791  1.00  0.00    +0.000 H 
ATOM    106  H8  UNL A   1      50.127  51.100  16.548  1.00  0.00    +0.000 H 
ATOM    108  H10 UNL A   1      48.376  46.945  14.772  1.00  0.00    +0.000 H 
ATOM     12  C7  UNL A   1      49.363  47.826  16.347  1.00  0.00    +0.000 C 
ATOM     13  C8  UNL A   1      49.870  49.090  16.864  1.00  0.00    +0.000 C 
ATOM     14  C9  UNL A   1      49.756  50.220  16.160  1.00  0.00    +0.000 C 
ATOM     15  N2  UNL A   1      49.151  50.225  14.919  1.00  0.00    +0.000 N 
ATOM     19  C11 UNL A   1      48.634  49.077  14.341  1.00  0.00    +0.000 C 
ATOM     20  O4  UNL A   1      48.107  49.008  13.236  1.00  0.00    +0.000 O 
ATOM     21  C12 UNL A   1      48.760  47.826  15.146  1.00  0.00    +0.000 C 
BRANCH   15   16
ATOM     17  F1  UNL A   1      47.803  51.773  13.875  1.00  0.00    +0.000 F 
ATOM     18  F2  UNL A   1      49.663  52.474  14.802  1.00  0.00    +0.000 F 
ATOM    107  H9  UNL A   1      49.619  51.252  13.234  1.00  0.00    +0.000 H 
ATOM     16  C10 UNL A   1      49.088  51.439  14.145  1.00  0.00    +0.000 C 
ENDBRANCH   15   16
ENDBRANCH   11   12
ENDBRANCH   24   23
ENDBRANCH   26   24
ENDBRANCH   27   26
ENDBRANCH   28   27
ENDBRANCH   29   28
ENDBRANCH   30   29
ENDBRANCH   31   30
ENDBRANCH   32   31
ENDBRANCH   33   32
ENDBRANCH   34   33
ENDBRANCH   36   34
ENDBRANCH   40   39
BRANCH   44   45
ATOM     45  C31 UNL A   1      50.667  49.906  22.240  1.00  0.00    +0.000 C 
ATOM     46  C32 UNL A   1      51.560  48.861  21.971  1.00  0.00    +0.000 C 
ATOM     47  F3  UNL A   1      52.063  48.702  20.738  1.00  0.00    +0.000 F 
ATOM     48  C33 UNL A   1      51.922  47.961  22.971  1.00  0.00    +0.000 C 
ATOM     49  F4  UNL A   1      52.763  46.956  22.692  1.00  0.00    +0.000 F 
ATOM     50  C34 UNL A   1      51.409  48.100  24.252  1.00  0.00    +0.000 C 
ATOM     51  F5  UNL A   1      51.760  47.235  25.213  1.00  0.00    +0.000 F 
ATOM     52  C35 UNL A   1      50.528  49.133  24.537  1.00  0.00    +0.000 C 
ATOM     53  F6  UNL A   1      50.032  49.268  25.775  1.00  0.00    +0.000 F 
ATOM     54  C36 UNL A   1      50.156  50.029  23.539  1.00  0.00    +0.000 C 
ATOM     55  F7  UNL A   1      49.297  51.015  23.837  1.00  0.00    +0.000 F 
ENDBRANCH   44   45
BRANCH   61   62
ATOM     65  C44 UNL A   1      54.030  58.052  20.937  1.00  0.00    +0.000 C 
ATOM     66  F9  UNL A   1      53.926  59.002  21.877  1.00  0.00    +0.000 F 
ATOM     67  C45 UNL A   1      55.198  57.936  20.197  1.00  0.00    +0.000 C 
ATOM     68  F10 UNL A   1      56.224  58.767  20.428  1.00  0.00    +0.000 F 
ATOM     69  C46 UNL A   1      55.300  56.964  19.212  1.00  0.00    +0.000 C 
ATOM     70  F11 UNL A   1      56.426  56.854  18.495  1.00  0.00    +0.000 F 
ATOM     71  C47 UNL A   1      54.233  56.106  18.964  1.00  0.00    +0.000 C 
ATOM     72  F12 UNL A   1      54.351  55.180  18.002  1.00  0.00    +0.000 F 
ATOM     62  C42 UNL A   1      53.047  56.207  19.705  1.00  0.00    +0.000 C 
ATOM     63  C43 UNL A   1      52.963  57.193  20.697  1.00  0.00    +0.000 C 
ATOM     64  F8  UNL A   1      51.840  57.331  21.417  1.00  0.00    +0.000 F 
ENDBRANCH   61   62
BRANCH   76   77
ATOM     77  C51 UNL A   1      47.656  56.367  15.327  1.00  0.00    +0.000 C 
ATOM     78  C52 UNL A   1      46.950  57.512  15.716  1.00  0.00    +0.000 C 
ATOM     79  F13 UNL A   1      46.657  57.710  17.009  1.00  0.00    +0.000 F 
ATOM     80  C53 UNL A   1      46.524  58.443  14.774  1.00  0.00    +0.000 C 
ATOM     81  F14 UNL A   1      45.834  59.524  15.166  1.00  0.00    +0.000 F 
ATOM     82  C54 UNL A   1      46.805  58.251  13.429  1.00  0.00    +0.000 C 
ATOM     83  F15 UNL A   1      46.397  59.149  12.522  1.00  0.00    +0.000 F 
ATOM     84  C55 UNL A   1      47.506  57.124  13.024  1.00  0.00    +0.000 C 
ATOM     85  F16 UNL A   1      47.781  56.936  11.726  1.00  0.00    +0.000 F 
ATOM     86  C56 UNL A   1      47.925  56.187  13.964  1.00  0.00    +0.000 C 
ATOM     87  F17 UNL A   1      48.596  55.101  13.551  1.00  0.00    +0.000 F 
ENDBRANCH   76   77
TORSDOF 21
ENDMDL
MODEL 9
REMARK VINA RESULT:      -9.1     19.110     26.122
ROOT
ATOM    129  H31 UNL A   1      47.664  30.021  26.326  1.00  0.00    +0.000 H 
ATOM    130  H32 UNL A   1      46.863  32.122  27.511  1.00  0.00    +0.000 H 
ATOM    131  H33 UNL A   1      43.882  29.246  27.866  1.00  0.00    +0.000 H 
ATOM    132  H34 UNL A   1      45.674  25.138  25.556  1.00  0.00    +0.000 H 
ATOM    133  H35 UNL A   1      43.483  23.969  26.187  1.00  0.00    +0.000 H 
ATOM    134  H36 UNL A   1      40.314  32.285  30.850  1.00  0.00    +0.000 H 
ATOM    135  H37 UNL A   1      42.420  33.529  30.089  1.00  0.00    +0.000 H 
ATOM     40  C27 UNL A   1      44.275  31.888  28.684  1.00  0.00    +0.000 C 
ATOM     41  C28 UNL A   1      42.926  31.500  29.212  1.00  0.00    +0.000 C 
ATOM     42  N5  UNL A   1      42.313  30.345  29.141  1.00  0.00    +0.000 N 
ATOM     43  C29 UNL A   1      41.115  30.510  29.820  1.00  0.00    +0.000 C 
ATOM     44  C30 UNL A   1      40.130  29.605  30.029  1.00  0.00    +0.000 C 
ATOM     56  C37 UNL A   1      40.133  28.254  29.534  1.00  0.00    +0.000 C 
ATOM     57  C38 UNL A   1      39.158  27.280  29.673  1.00  0.00    +0.000 C 
ATOM     58  C39 UNL A   1      39.600  26.121  29.021  1.00  0.00    +0.000 C 
ATOM     59  C40 UNL A   1      40.843  26.381  28.470  1.00  0.00    +0.000 C 
ATOM     60  N6  UNL A   1      41.159  27.690  28.793  1.00  0.00    +0.000 N 
ATOM     61  C41 UNL A   1      41.687  25.505  27.703  1.00  0.00    +0.000 C 
ATOM     73  C48 UNL A   1      42.900  25.835  27.202  1.00  0.00    +0.000 C 
ATOM     74  N7  UNL A   1      43.582  27.038  27.306  1.00  0.00    +0.000 N 
ATOM     75  C49 UNL A   1      44.712  26.865  26.669  1.00  0.00    +0.000 C 
ATOM     76  C50 UNL A   1      45.837  27.836  26.464  1.00  0.00    +0.000 C 
ATOM     88  C57 UNL A   1      45.740  29.089  26.941  1.00  0.00    +0.000 C 
ATOM     89  C58 UNL A   1      46.761  30.126  26.814  1.00  0.00    +0.000 C 
ATOM     90  C59 UNL A   1      46.336  31.239  27.436  1.00  0.00    +0.000 C 
ATOM     91  C60 UNL A   1      45.005  30.995  27.989  1.00  0.00    +0.000 C 
ATOM     92  N8  UNL A   1      44.726  29.697  27.639  1.00  0.00    +0.000 N 
ATOM     93  C61 UNL A   1      44.880  25.523  26.090  1.00  0.00    +0.000 C 
ATOM     94  C62 UNL A   1      43.739  24.939  26.434  1.00  0.00    +0.000 C 
ATOM     95  C63 UNL A   1      41.083  31.879  30.295  1.00  0.00    +0.000 C 
ATOM     96  C64 UNL A   1      42.171  32.541  29.923  1.00  0.00    +0.000 C 
ATOM    126  H28 UNL A   1      38.261  27.388  30.171  1.00  0.00    +0.000 H 
ATOM    127  H29 UNL A   1      39.087  25.227  28.963  1.00  0.00    +0.000 H 
ATOM    128  H30 UNL A   1      41.989  28.152  28.536  1.00  0.00    +0.000 H 
ENDROOT
BRANCH   40   39
ATOM     97  C65 UNL A   1      45.674  33.456  30.046  1.00  0.00    +0.000 C 
ATOM     98  C66 UNL A   1      46.209  34.724  30.288  1.00  0.00    +0.000 C 
ATOM     36  C23 UNL A   1      45.943  35.775  29.404  1.00  0.00    +0.000 C 
ATOM     37  C24 UNL A   1      45.078  35.574  28.323  1.00  0.00    +0.000 C 
ATOM     38  C25 UNL A   1      44.522  34.312  28.095  1.00  0.00    +0.000 C 
ATOM     39  C26 UNL A   1      44.828  33.240  28.945  1.00  0.00    +0.000 C 
ATOM    136  H38 UNL A   1      45.900  32.673  30.679  1.00  0.00    +0.000 H 
ATOM    137  H39 UNL A   1      46.801  34.884  31.119  1.00  0.00    +0.000 H 
ATOM    124  H26 UNL A   1      44.851  36.358  27.693  1.00  0.00    +0.000 H 
ATOM    125  H27 UNL A   1      43.883  34.169  27.297  1.00  0.00    +0.000 H 
BRANCH   36   34
ATOM     34  C22 UNL A   1      46.492  37.135  29.613  1.00  0.00    +0.000 C 
ATOM     35  O6  UNL A   1      47.710  37.293  29.611  1.00  0.00    +0.000 O 
BRANCH   34   33
ATOM     33  N4  UNL A   1      45.668  38.209  29.835  1.00  0.00    +0.000 N 
ATOM    123  H25 UNL A   1      45.369  38.317  30.767  1.00  0.00    +0.000 H 
BRANCH   33   32
ATOM    121  H23 UNL A   1      45.612  40.154  29.159  1.00  0.00    +0.000 H 
ATOM    122  H24 UNL A   1      45.426  38.899  27.924  1.00  0.00    +0.000 H 
ATOM     32  C21 UNL A   1      45.168  39.213  28.913  1.00  0.00    +0.000 C 
BRANCH   32   31
ATOM    119  H21 UNL A   1      43.355  39.343  29.996  1.00  0.00    +0.000 H 
ATOM     31  C20 UNL A   1      43.645  39.363  28.967  1.00  0.00    +0.000 C 
ATOM    120  H22 UNL A   1      43.436  40.281  28.459  1.00  0.00    +0.000 H 
BRANCH   31   30
ATOM    118  H20 UNL A   1      42.043  38.018  28.910  1.00  0.00    +0.000 H 
ATOM    117  H19 UNL A   1      43.481  37.501  27.960  1.00  0.00    +0.000 H 
ATOM     30  C19 UNL A   1      42.819  38.298  28.229  1.00  0.00    +0.000 C 
BRANCH   30   29
ATOM    115  H17 UNL A   1      42.820  38.813  26.169  1.00  0.00    +0.000 H 
ATOM    116  H18 UNL A   1      41.328  38.037  26.773  1.00  0.00    +0.000 H 
ATOM     29  C18 UNL A   1      42.099  38.755  26.958  1.00  0.00    +0.000 C 
BRANCH   29   28
ATOM    113  H15 UNL A   1      40.351  39.944  27.141  1.00  0.00    +0.000 H 
ATOM    114  H16 UNL A   1      41.815  40.594  27.931  1.00  0.00    +0.000 H 
ATOM     28  C17 UNL A   1      41.404  40.113  27.068  1.00  0.00    +0.000 C 
BRANCH   28   27
ATOM     27  C16 UNL A   1      41.653  41.061  25.884  1.00  0.00    +0.000 C 
ATOM    111  H13 UNL A   1      40.995  40.810  25.079  1.00  0.00    +0.000 H 
ATOM    112  H14 UNL A   1      41.470  42.071  26.186  1.00  0.00    +0.000 H 
BRANCH   27   26
ATOM     26  N3  UNL A   1      43.035  40.923  25.447  1.00  0.00    +0.000 N 
ATOM    110  H12 UNL A   1      43.171  40.260  24.732  1.00  0.00    +0.000 H 
BRANCH   26   24
ATOM     25  O5  UNL A   1      44.112  42.426  26.724  1.00  0.00    +0.000 O 
ATOM     24  C15 UNL A   1      44.177  41.555  25.857  1.00  0.00    +0.000 C 
BRANCH   24   23
ATOM    103  H5  UNL A   1      47.543  42.362  22.715  1.00  0.00    +0.000 H 
ATOM      8  C3  UNL A   1      45.935  42.117  24.071  1.00  0.00    +0.000 C 
ATOM      9  C4  UNL A   1      47.150  41.764  23.459  1.00  0.00    +0.000 C 
ATOM     10  C5  UNL A   1      47.830  40.606  23.850  1.00  0.00    +0.000 C 
ATOM    104  H6  UNL A   1      48.709  40.344  23.378  1.00  0.00    +0.000 H 
ATOM     11  C6  UNL A   1      47.324  39.800  24.875  1.00  0.00    +0.000 C 
ATOM    109  H11 UNL A   1      45.841  39.690  26.368  1.00  0.00    +0.000 H 
ATOM     22  C13 UNL A   1      46.178  40.233  25.557  1.00  0.00    +0.000 C 
ATOM     23  C14 UNL A   1      45.471  41.389  25.166  1.00  0.00    +0.000 C 
BRANCH    8    5
ATOM      5  S1  UNL A   1      44.962  43.366  23.292  1.00  0.00    +0.000 S 
ATOM      6  O2  UNL A   1      44.893  44.473  24.221  1.00  0.00    +0.000 O 
ATOM      7  O3  UNL A   1      43.777  42.784  22.714  1.00  0.00    +0.000 O 
BRANCH    5    4
ATOM      4  N1  UNL A   1      45.905  43.890  22.033  1.00  0.00    +0.000 N 
ATOM    102  H4  UNL A   1      46.803  44.216  22.272  1.00  0.00    +0.000 H 
BRANCH    4    2
ATOM      2  C2  UNL A   1      45.583  43.926  20.669  1.00  0.00    +0.000 C 
ATOM      3  O1  UNL A   1      44.654  44.639  20.312  1.00  0.00    +0.000 O 
BRANCH    2    1
ATOM      1  C1  UNL A   1      46.473  43.225  19.683  1.00  0.00    +0.000 C 
ATOM     99  H1  UNL A   1      46.061  43.319  18.701  1.00  0.00    +0.000 H 
ATOM    100  H2  UNL A   1      46.546  42.190  19.942  1.00  0.00    +0.000 H 
ATOM    101  H3  UNL A   1      47.447  43.667  19.705  1.00  0.00    +0.000 H 
ENDBRANCH    2    1
ENDBRANCH    4    2
ENDBRANCH    5    4
ENDBRANCH    8    5
BRANCH   11   12
ATOM    105  H7  UNL A   1      46.197  37.693  26.266  1.00  0.00    +0.000 H 
ATOM    106  H8  UNL A   1      47.018  35.505  26.535  1.00  0.00    +0.000 H 
ATOM    108  H10 UNL A   1      49.636  38.801  24.131  1.00  0.00    +0.000 H 
ATOM     12  C7  UNL A   1      47.874  38.446  25.133  1.00  0.00    +0.000 C 
ATOM     13  C8  UNL A   1      47.113  37.441  25.862  1.00  0.00    +0.000 C 
ATOM     14  C9  UNL A   1      47.580  36.198  26.017  1.00  0.00    +0.000 C 
ATOM     15  N2  UNL A   1      48.802  35.829  25.494  1.00  0.00    +0.000 N 
ATOM     19  C11 UNL A   1      49.604  36.711  24.788  1.00  0.00    +0.000 C 
ATOM     20  O4  UNL A   1      50.686  36.442  24.277  1.00  0.00    +0.000 O 
ATOM     21  C12 UNL A   1      49.072  38.097  24.633  1.00  0.00    +0.000 C 
BRANCH   15   16
ATOM     17  F1  UNL A   1      50.182  34.362  26.611  1.00  0.00    +0.000 F 
ATOM     18  F2  UNL A   1      48.247  33.623  25.891  1.00  0.00    +0.000 F 
ATOM    107  H9  UNL A   1      49.711  34.209  24.680  1.00  0.00    +0.000 H 
ATOM     16  C10 UNL A   1      49.267  34.470  25.618  1.00  0.00    +0.000 C 
ENDBRANCH   15   16
ENDBRANCH   11   12
ENDBRANCH   24   23
ENDBRANCH   26   24
ENDBRANCH   27   26
ENDBRANCH   28   27
ENDBRANCH   29   28
ENDBRANCH   30   29
ENDBRANCH   31   30
ENDBRANCH   32   31
ENDBRANCH   33   32
ENDBRANCH   34   33
ENDBRANCH   36   34
ENDBRANCH   40   39
BRANCH   44   45
ATOM     45  C31 UNL A   1      38.960  30.047  30.847  1.00  0.00    +0.000 C 
ATOM     46  C32 UNL A   1      38.964  29.929  32.243  1.00  0.00    +0.000 C 
ATOM     47  F3  UNL A   1      40.009  29.370  32.871  1.00  0.00    +0.000 F 
ATOM     48  C33 UNL A   1      37.879  30.370  32.996  1.00  0.00    +0.000 C 
ATOM     49  F4  UNL A   1      37.891  30.233  34.330  1.00  0.00    +0.000 F 
ATOM     50  C34 UNL A   1      36.783  30.945  32.369  1.00  0.00    +0.000 C 
ATOM     51  F5  UNL A   1      35.741  31.371  33.096  1.00  0.00    +0.000 F 
ATOM     52  C35 UNL A   1      36.765  31.075  30.988  1.00  0.00    +0.000 C 
ATOM     53  F6  UNL A   1      35.706  31.631  30.382  1.00  0.00    +0.000 F 
ATOM     54  C36 UNL A   1      37.843  30.626  30.230  1.00  0.00    +0.000 C 
ATOM     55  F7  UNL A   1      37.799  30.756  28.896  1.00  0.00    +0.000 F 
ENDBRANCH   44   45
BRANCH   61   62
ATOM     65  C44 UNL A   1      41.312  21.723  27.790  1.00  0.00    +0.000 C 
ATOM     66  F9  UNL A   1      41.912  20.667  28.357  1.00  0.00    +0.000 F 
ATOM     67  C45 UNL A   1      40.217  21.534  26.957  1.00  0.00    +0.000 C 
ATOM     68  F10 UNL A   1      39.757  20.296  26.727  1.00  0.00    +0.000 F 
ATOM     69  C46 UNL A   1      39.606  22.625  26.357  1.00  0.00    +0.000 C 
ATOM     70  F11 UNL A   1      38.553  22.441  25.551  1.00  0.00    +0.000 F 
ATOM     71  C47 UNL A   1      40.089  23.910  26.588  1.00  0.00    +0.000 C 
ATOM     72  F12 UNL A   1      39.488  24.948  25.990  1.00  0.00    +0.000 F 
ATOM     62  C42 UNL A   1      41.191  24.120  27.428  1.00  0.00    +0.000 C 
ATOM     63  C43 UNL A   1      41.794  23.006  28.028  1.00  0.00    +0.000 C 
ATOM     64  F8  UNL A   1      42.859  23.164  28.827  1.00  0.00    +0.000 F 
ENDBRANCH   61   62
BRANCH   76   77
ATOM     77  C51 UNL A   1      47.056  27.431  25.728  1.00  0.00    +0.000 C 
ATOM     78  C52 UNL A   1      47.181  27.686  24.356  1.00  0.00    +0.000 C 
ATOM     79  F13 UNL A   1      46.176  28.273  23.691  1.00  0.00    +0.000 F 
ATOM     80  C53 UNL A   1      48.330  27.318  23.664  1.00  0.00    +0.000 C 
ATOM     81  F14 UNL A   1      48.423  27.556  22.348  1.00  0.00    +0.000 F 
ATOM     82  C54 UNL A   1      49.376  26.697  24.331  1.00  0.00    +0.000 C 
ATOM     83  F15 UNL A   1      50.484  26.345  23.664  1.00  0.00    +0.000 F 
ATOM     84  C55 UNL A   1      49.272  26.438  25.690  1.00  0.00    +0.000 C 
ATOM     85  F16 UNL A   1      50.281  25.840  26.338  1.00  0.00    +0.000 F 
ATOM     86  C56 UNL A   1      48.119  26.797  26.383  1.00  0.00    +0.000 C 
ATOM     87  F17 UNL A   1      48.036  26.532  27.695  1.00  0.00    +0.000 F 
ENDBRANCH   76   77
TORSDOF 21
ENDMDL
MODEL 10
REMARK VINA RESULT:      -9.0     20.296     27.574
ROOT
ATOM    129  H31 UNL A   1      42.870  26.883  29.688  1.00  0.00    +0.000 H 
ATOM    130  H32 UNL A   1      43.967  27.220  31.956  1.00  0.00    +0.000 H 
ATOM    131  H33 UNL A   1      40.801  29.899  31.662  1.00  0.00    +0.000 H 
ATOM    132  H34 UNL A   1      38.692  29.024  27.166  1.00  0.00    +0.000 H 
ATOM    133  H35 UNL A   1      37.000  30.863  27.731  1.00  0.00    +0.000 H 
ATOM    134  H36 UNL A   1      41.354  32.208  36.685  1.00  0.00    +0.000 H 
ATOM    135  H37 UNL A   1      43.158  30.493  36.079  1.00  0.00    +0.000 H 
ATOM     40  C27 UNL A   1      42.748  29.242  33.554  1.00  0.00    +0.000 C 
ATOM     41  C28 UNL A   1      41.923  30.326  34.184  1.00  0.00    +0.000 C 
ATOM     42  N5  UNL A   1      40.857  30.927  33.720  1.00  0.00    +0.000 N 
ATOM     43  C29 UNL A   1      40.464  31.816  34.709  1.00  0.00    +0.000 C 
ATOM     44  C30 UNL A   1      39.412  32.669  34.709  1.00  0.00    +0.000 C 
ATOM     56  C37 UNL A   1      38.489  32.840  33.619  1.00  0.00    +0.000 C 
ATOM     57  C38 UNL A   1      37.413  33.708  33.524  1.00  0.00    +0.000 C 
ATOM     58  C39 UNL A   1      36.808  33.521  32.275  1.00  0.00    +0.000 C 
ATOM     59  C40 UNL A   1      37.514  32.545  31.592  1.00  0.00    +0.000 C 
ATOM     60  N6  UNL A   1      38.540  32.135  32.427  1.00  0.00    +0.000 N 
ATOM     61  C41 UNL A   1      37.277  32.021  30.274  1.00  0.00    +0.000 C 
ATOM     73  C48 UNL A   1      38.014  31.056  29.677  1.00  0.00    +0.000 C 
ATOM     74  N7  UNL A   1      39.118  30.378  30.172  1.00  0.00    +0.000 N 
ATOM     75  C49 UNL A   1      39.473  29.538  29.233  1.00  0.00    +0.000 C 
ATOM     76  C50 UNL A   1      40.604  28.552  29.227  1.00  0.00    +0.000 C 
ATOM     88  C57 UNL A   1      41.436  28.477  30.282  1.00  0.00    +0.000 C 
ATOM     89  C58 UNL A   1      42.567  27.561  30.405  1.00  0.00    +0.000 C 
ATOM     90  C59 UNL A   1      43.151  27.742  31.601  1.00  0.00    +0.000 C 
ATOM     91  C60 UNL A   1      42.442  28.800  32.320  1.00  0.00    +0.000 C 
ATOM     92  N8  UNL A   1      41.446  29.185  31.458  1.00  0.00    +0.000 N 
ATOM     93  C61 UNL A   1      38.628  29.584  28.030  1.00  0.00    +0.000 C 
ATOM     94  C62 UNL A   1      37.760  30.536  28.350  1.00  0.00    +0.000 C 
ATOM     95  C63 UNL A   1      41.407  31.679  35.801  1.00  0.00    +0.000 C 
ATOM     96  C64 UNL A   1      42.345  30.786  35.515  1.00  0.00    +0.000 C 
ATOM    126  H28 UNL A   1      37.110  34.377  34.248  1.00  0.00    +0.000 H 
ATOM    127  H29 UNL A   1      35.978  34.024  31.923  1.00  0.00    +0.000 H 
ATOM    128  H30 UNL A   1      39.206  31.444  32.208  1.00  0.00    +0.000 H 
ENDROOT
BRANCH   40   39
ATOM     97  C65 UNL A   1      43.656  27.559  35.170  1.00  0.00    +0.000 C 
ATOM     98  C66 UNL A   1      44.722  26.969  35.855  1.00  0.00    +0.000 C 
ATOM     36  C23 UNL A   1      46.029  27.415  35.629  1.00  0.00    +0.000 C 
ATOM     37  C24 UNL A   1      46.257  28.501  34.777  1.00  0.00    +0.000 C 
ATOM     38  C25 UNL A   1      45.188  29.107  34.111  1.00  0.00    +0.000 C 
ATOM     39  C26 UNL A   1      43.881  28.631  34.290  1.00  0.00    +0.000 C 
ATOM    136  H38 UNL A   1      42.697  27.206  35.311  1.00  0.00    +0.000 H 
ATOM    137  H39 UNL A   1      44.545  26.206  36.526  1.00  0.00    +0.000 H 
ATOM    124  H26 UNL A   1      47.216  28.855  34.639  1.00  0.00    +0.000 H 
ATOM    125  H27 UNL A   1      45.361  29.910  33.485  1.00  0.00    +0.000 H 
BRANCH   36   34
ATOM     34  C22 UNL A   1      47.193  26.819  36.324  1.00  0.00    +0.000 C 
ATOM     35  O6  UNL A   1      47.977  27.556  36.916  1.00  0.00    +0.000 O 
BRANCH   34   33
ATOM     33  N4  UNL A   1      47.422  25.466  36.296  1.00  0.00    +0.000 N 
ATOM    123  H25 UNL A   1      47.100  24.975  37.086  1.00  0.00    +0.000 H 
BRANCH   33   32
ATOM    121  H23 UNL A   1      49.113  24.855  35.290  1.00  0.00    +0.000 H 
ATOM    122  H24 UNL A   1      47.863  23.622  35.526  1.00  0.00    +0.000 H 
ATOM     32  C21 UNL A   1      48.064  24.645  35.286  1.00  0.00    +0.000 C 
BRANCH   32   31
ATOM    119  H21 UNL A   1      47.521  25.961  33.720  1.00  0.00    +0.000 H 
ATOM     31  C20 UNL A   1      47.520  24.904  33.878  1.00  0.00    +0.000 C 
ATOM    120  H22 UNL A   1      48.163  24.352  33.224  1.00  0.00    +0.000 H 
BRANCH   31   30
ATOM    118  H20 UNL A   1      45.535  24.591  34.462  1.00  0.00    +0.000 H 
ATOM    117  H19 UNL A   1      46.180  23.352  33.328  1.00  0.00    +0.000 H 
ATOM     30  C19 UNL A   1      46.103  24.389  33.579  1.00  0.00    +0.000 C 
BRANCH   30   29
ATOM    115  H17 UNL A   1      45.002  24.339  31.764  1.00  0.00    +0.000 H 
ATOM    116  H18 UNL A   1      44.561  25.644  32.903  1.00  0.00    +0.000 H 
ATOM     29  C18 UNL A   1      45.352  25.089  32.443  1.00  0.00    +0.000 C 
BRANCH   29   28
ATOM    113  H15 UNL A   1      45.627  27.011  31.587  1.00  0.00    +0.000 H 
ATOM    114  H16 UNL A   1      47.110  26.205  32.174  1.00  0.00    +0.000 H 
ATOM     28  C17 UNL A   1      46.183  26.099  31.650  1.00  0.00    +0.000 C 
BRANCH   28   27
ATOM     27  C16 UNL A   1      46.541  25.659  30.223  1.00  0.00    +0.000 C 
ATOM    111  H13 UNL A   1      46.668  26.522  29.603  1.00  0.00    +0.000 H 
ATOM    112  H14 UNL A   1      47.452  25.098  30.236  1.00  0.00    +0.000 H 
BRANCH   27   26
ATOM     26  N3  UNL A   1      45.463  24.833  29.695  1.00  0.00    +0.000 N 
ATOM    110  H12 UNL A   1      45.463  23.905  30.024  1.00  0.00    +0.000 H 
BRANCH   26   24
ATOM     25  O5  UNL A   1      43.322  24.684  29.030  1.00  0.00    +0.000 O 
ATOM     24  C15 UNL A   1      44.451  25.124  28.821  1.00  0.00    +0.000 C 
BRANCH   24   23
ATOM    103  H5  UNL A   1      45.212  25.466  24.222  1.00  0.00    +0.000 H 
ATOM      8  C3  UNL A   1      44.860  25.151  26.286  1.00  0.00    +0.000 C 
ATOM      9  C4  UNL A   1      45.184  25.915  25.151  1.00  0.00    +0.000 C 
ATOM     10  C5  UNL A   1      45.472  27.278  25.272  1.00  0.00    +0.000 C 
ATOM    104  H6  UNL A   1      45.731  27.823  24.436  1.00  0.00    +0.000 H 
ATOM     11  C6  UNL A   1      45.412  27.905  26.521  1.00  0.00    +0.000 C 
ATOM    109  H11 UNL A   1      44.840  27.629  28.530  1.00  0.00    +0.000 H 
ATOM     22  C13 UNL A   1      44.967  27.157  27.620  1.00  0.00    +0.000 C 
ATOM     23  C14 UNL A   1      44.689  25.778  27.519  1.00  0.00    +0.000 C 
BRANCH    8    5
ATOM      5  S1  UNL A   1      44.870  23.395  26.118  1.00  0.00    +0.000 S 
ATOM      6  O2  UNL A   1      45.571  22.876  27.273  1.00  0.00    +0.000 O 
ATOM      7  O3  UNL A   1      45.241  23.026  24.775  1.00  0.00    +0.000 O 
BRANCH    5    4
ATOM      4  N1  UNL A   1      43.283  22.957  26.318  1.00  0.00    +0.000 N 
ATOM    102  H4  UNL A   1      42.614  23.613  26.015  1.00  0.00    +0.000 H 
BRANCH    4    2
ATOM      2  C2  UNL A   1      42.777  21.770  26.864  1.00  0.00    +0.000 C 
ATOM      3  O1  UNL A   1      42.417  21.777  28.034  1.00  0.00    +0.000 O 
BRANCH    2    1
ATOM      1  C1  UNL A   1      42.546  20.587  25.967  1.00  0.00    +0.000 C 
ATOM     99  H1  UNL A   1      41.892  20.868  25.167  1.00  0.00    +0.000 H 
ATOM    100  H2  UNL A   1      42.101  19.795  26.530  1.00  0.00    +0.000 H 
ATOM    101  H3  UNL A   1      43.481  20.258  25.564  1.00  0.00    +0.000 H 
ENDBRANCH    2    1
ENDBRANCH    4    2
ENDBRANCH    5    4
ENDBRANCH    8    5
BRANCH   11   12
ATOM    105  H7  UNL A   1      48.024  28.695  26.960  1.00  0.00    +0.000 H 
ATOM    106  H8  UNL A   1      48.889  30.877  27.126  1.00  0.00    +0.000 H 
ATOM    108  H10 UNL A   1      44.124  30.194  26.565  1.00  0.00    +0.000 H 
ATOM     12  C7  UNL A   1      45.956  29.271  26.723  1.00  0.00    +0.000 C 
ATOM     13  C8  UNL A   1      47.383  29.502  26.905  1.00  0.00    +0.000 C 
ATOM     14  C9  UNL A   1      47.875  30.741  27.001  1.00  0.00    +0.000 C 
ATOM     15  N2  UNL A   1      47.045  31.842  26.936  1.00  0.00    +0.000 N 
ATOM     19  C11 UNL A   1      45.674  31.729  26.768  1.00  0.00    +0.000 C 
ATOM     20  O4  UNL A   1      44.885  32.663  26.678  1.00  0.00    +0.000 O 
ATOM     21  C12 UNL A   1      45.140  30.338  26.672  1.00  0.00    +0.000 C 
BRANCH   15   16
ATOM     17  F1  UNL A   1      48.950  33.136  26.959  1.00  0.00    +0.000 F 
ATOM     18  F2  UNL A   1      47.175  33.918  25.932  1.00  0.00    +0.000 F 
ATOM    107  H9  UNL A   1      47.256  33.616  27.896  1.00  0.00    +0.000 H 
ATOM     16  C10 UNL A   1      47.595  33.173  26.983  1.00  0.00    +0.000 C 
ENDBRANCH   15   16
ENDBRANCH   11   12
ENDBRANCH   24   23
ENDBRANCH   26   24
ENDBRANCH   27   26
ENDBRANCH   28   27
ENDBRANCH   29   28
ENDBRANCH   30   29
ENDBRANCH   31   30
ENDBRANCH   32   31
ENDBRANCH   33   32
ENDBRANCH   34   33
ENDBRANCH   36   34
ENDBRANCH   40   39
BRANCH   44   45
ATOM     45  C31 UNL A   1      39.193  33.483  35.943  1.00  0.00    +0.000 C 
ATOM     46  C32 UNL A   1      38.436  32.990  37.014  1.00  0.00    +0.000 C 
ATOM     47  F3  UNL A   1      37.851  31.786  36.929  1.00  0.00    +0.000 F 
ATOM     48  C33 UNL A   1      38.263  33.747  38.170  1.00  0.00    +0.000 C 
ATOM     49  F4  UNL A   1      37.521  33.267  39.177  1.00  0.00    +0.000 F 
ATOM     50  C34 UNL A   1      38.854  34.997  38.278  1.00  0.00    +0.000 C 
ATOM     51  F5  UNL A   1      38.688  35.723  39.392  1.00  0.00    +0.000 F 
ATOM     52  C35 UNL A   1      39.611  35.499  37.230  1.00  0.00    +0.000 C 
ATOM     53  F6  UNL A   1      40.182  36.708  37.335  1.00  0.00    +0.000 F 
ATOM     54  C36 UNL A   1      39.778  34.750  36.069  1.00  0.00    +0.000 C 
ATOM     55  F7  UNL A   1      40.510  35.259  35.067  1.00  0.00    +0.000 F 
ENDBRANCH   44   45
BRANCH   61   62
ATOM     65  C44 UNL A   1      33.958  32.320  28.446  1.00  0.00    +0.000 C 
ATOM     66  F9  UNL A   1      32.922  31.539  28.110  1.00  0.00    +0.000 F 
ATOM     67  C45 UNL A   1      33.961  33.660  28.083  1.00  0.00    +0.000 C 
ATOM     68  F10 UNL A   1      32.925  34.172  27.403  1.00  0.00    +0.000 F 
ATOM     69  C46 UNL A   1      35.040  34.466  28.417  1.00  0.00    +0.000 C 
ATOM     70  F11 UNL A   1      35.044  35.757  28.062  1.00  0.00    +0.000 F 
ATOM     71  C47 UNL A   1      36.119  33.933  29.115  1.00  0.00    +0.000 C 
ATOM     72  F12 UNL A   1      37.155  34.728  29.419  1.00  0.00    +0.000 F 
ATOM     62  C42 UNL A   1      36.132  32.583  29.493  1.00  0.00    +0.000 C 
ATOM     63  C43 UNL A   1      35.032  31.785  29.149  1.00  0.00    +0.000 C 
ATOM     64  F8  UNL A   1      35.012  30.486  29.480  1.00  0.00    +0.000 F 
ENDBRANCH   61   62
BRANCH   76   77
ATOM     77  C51 UNL A   1      40.823  27.665  28.064  1.00  0.00    +0.000 C 
ATOM     78  C52 UNL A   1      41.511  28.124  26.933  1.00  0.00    +0.000 C 
ATOM     79  F13 UNL A   1      41.949  29.390  26.886  1.00  0.00    +0.000 F 
ATOM     80  C53 UNL A   1      41.730  27.288  25.842  1.00  0.00    +0.000 C 
ATOM     81  F14 UNL A   1      42.376  27.753  24.764  1.00  0.00    +0.000 F 
ATOM     82  C54 UNL A   1      41.273  25.979  25.866  1.00  0.00    +0.000 C 
ATOM     83  F15 UNL A   1      41.486  25.174  24.816  1.00  0.00    +0.000 F 
ATOM     84  C55 UNL A   1      40.591  25.504  26.978  1.00  0.00    +0.000 C 
ATOM     85  F16 UNL A   1      40.150  24.240  27.004  1.00  0.00    +0.000 F 
ATOM     86  C56 UNL A   1      40.363  26.342  28.066  1.00  0.00    +0.000 C 
ATOM     87  F17 UNL A   1      39.697  25.865  29.129  1.00  0.00    +0.000 F 
ENDBRANCH   76   77
TORSDOF 21
ENDMDL
