MODEL 1
REMARK VINA RESULT:     -10.6      0.000      0.000
ROOT
ATOM     19  C15 UNL A   1      41.610  26.414  27.715  1.00  0.00    +0.000 C 
ATOM     20  C16 UNL A   1      40.894  27.500  28.466  1.00  0.00    +0.000 C 
ATOM     21  N3  UNL A   1      41.310  28.701  28.784  1.00  0.00    +0.000 N 
ATOM     22  C17 UNL A   1      40.243  29.311  29.431  1.00  0.00    +0.000 C 
ATOM     23  C18 UNL A   1      40.190  30.540  29.995  1.00  0.00    +0.000 C 
ATOM     35  C25 UNL A   1      41.290  31.467  30.032  1.00  0.00    +0.000 C 
ATOM     36  C26 UNL A   1      41.353  32.709  30.638  1.00  0.00    +0.000 C 
ATOM     37  C27 UNL A   1      42.615  33.257  30.382  1.00  0.00    +0.000 C 
ATOM     38  C28 UNL A   1      43.349  32.341  29.648  1.00  0.00    +0.000 C 
ATOM     39  N4  UNL A   1      42.524  31.249  29.437  1.00  0.00    +0.000 N 
ATOM     40  C29 UNL A   1      44.704  32.451  29.171  1.00  0.00    +0.000 C 
ATOM     52  C36 UNL A   1      45.361  31.499  28.466  1.00  0.00    +0.000 C 
ATOM     53  N5  UNL A   1      44.911  30.252  28.057  1.00  0.00    +0.000 N 
ATOM     54  C37 UNL A   1      45.904  29.708  27.399  1.00  0.00    +0.000 C 
ATOM     55  C38 UNL A   1      45.986  28.353  26.752  1.00  0.00    +0.000 C 
ATOM     67  C45 UNL A   1      44.935  27.515  26.839  1.00  0.00    +0.000 C 
ATOM     68  C46 UNL A   1      44.872  26.174  26.267  1.00  0.00    +0.000 C 
ATOM     69  C47 UNL A   1      43.661  25.648  26.516  1.00  0.00    +0.000 C 
ATOM     70  C48 UNL A   1      42.874  26.607  27.292  1.00  0.00    +0.000 C 
ATOM     71  N6  UNL A   1      43.713  27.683  27.443  1.00  0.00    +0.000 N 
ATOM     72  C49 UNL A   1      47.095  30.564  27.294  1.00  0.00    +0.000 C 
ATOM     73  C50 UNL A   1      46.723  31.629  27.991  1.00  0.00    +0.000 C 
ATOM     74  C51 UNL A   1      39.147  28.364  29.424  1.00  0.00    +0.000 C 
ATOM     75  C52 UNL A   1      39.517  27.208  28.894  1.00  0.00    +0.000 C 
ATOM    111  H21 UNL A   1      40.600  33.154  31.185  1.00  0.00    +0.000 H 
ATOM    112  H22 UNL A   1      42.943  34.186  30.689  1.00  0.00    +0.000 H 
ATOM    113  H23 UNL A   1      42.775  30.438  28.939  1.00  0.00    +0.000 H 
ATOM    114  H24 UNL A   1      45.635  25.704  25.756  1.00  0.00    +0.000 H 
ATOM    115  H25 UNL A   1      43.338  24.718  26.208  1.00  0.00    +0.000 H 
ATOM    116  H26 UNL A   1      43.463  28.496  27.938  1.00  0.00    +0.000 H 
ATOM    117  H27 UNL A   1      47.987  30.383  26.808  1.00  0.00    +0.000 H 
ATOM    118  H28 UNL A   1      47.326  32.447  28.171  1.00  0.00    +0.000 H 
ATOM    119  H29 UNL A   1      38.202  28.564  29.786  1.00  0.00    +0.000 H 
ATOM    120  H30 UNL A   1      38.980  26.331  28.805  1.00  0.00    +0.000 H 
ENDROOT
BRANCH   19   18
ATOM     76  C53 UNL A   1      39.774  25.193  26.545  1.00  0.00    +0.000 C 
ATOM    109  H19 UNL A   1      41.055  21.826  27.835  1.00  0.00    +0.000 H 
ATOM     77  C54 UNL A   1      39.100  24.020  26.215  1.00  0.00    +0.000 C 
ATOM     15  C11 UNL A   1      39.603  22.785  26.638  1.00  0.00    +0.000 C 
ATOM     16  C12 UNL A   1      40.712  22.734  27.487  1.00  0.00    +0.000 C 
ATOM     17  C13 UNL A   1      41.353  23.916  27.865  1.00  0.00    +0.000 C 
ATOM    110  H20 UNL A   1      42.158  23.880  28.509  1.00  0.00    +0.000 H 
ATOM     18  C14 UNL A   1      40.906  25.153  27.373  1.00  0.00    +0.000 C 
ATOM    121  H31 UNL A   1      39.439  26.098  26.178  1.00  0.00    +0.000 H 
ATOM    122  H32 UNL A   1      38.231  24.061  25.660  1.00  0.00    +0.000 H 
BRANCH   15   13
ATOM     13  C10 UNL A   1      38.968  21.517  26.218  1.00  0.00    +0.000 C 
ATOM     14  O2  UNL A   1      39.604  20.469  26.286  1.00  0.00    +0.000 O 
BRANCH   13   12
ATOM    108  H18 UNL A   1      36.976  21.497  26.424  1.00  0.00    +0.000 H 
ATOM     12  N2  UNL A   1      37.683  21.516  25.738  1.00  0.00    +0.000 N 
BRANCH   12   11
ATOM    106  H16 UNL A   1      38.057  21.658  23.714  1.00  0.00    +0.000 H 
ATOM     11  C9  UNL A   1      37.214  21.537  24.362  1.00  0.00    +0.000 C 
ATOM    107  H17 UNL A   1      36.706  20.613  24.176  1.00  0.00    +0.000 H 
BRANCH   11   10
ATOM    105  H15 UNL A   1      35.280  22.208  23.924  1.00  0.00    +0.000 H 
ATOM     10  C8  UNL A   1      36.228  22.672  24.099  1.00  0.00    +0.000 C 
ATOM    104  H14 UNL A   1      36.586  23.236  23.263  1.00  0.00    +0.000 H 
BRANCH   10    9
ATOM      9  C7  UNL A   1      36.024  23.635  25.270  1.00  0.00    +0.000 C 
ATOM    102  H12 UNL A   1      36.444  23.185  26.145  1.00  0.00    +0.000 H 
ATOM    103  H13 UNL A   1      36.502  24.551  24.989  1.00  0.00    +0.000 H 
BRANCH    9    8
ATOM    100  H10 UNL A   1      34.501  25.055  25.678  1.00  0.00    +0.000 H 
ATOM    101  H11 UNL A   1      33.993  23.604  24.759  1.00  0.00    +0.000 H 
ATOM      8  C6  UNL A   1      34.567  23.992  25.573  1.00  0.00    +0.000 C 
BRANCH    8    7
ATOM     98  H8  UNL A   1      34.295  23.941  27.682  1.00  0.00    +0.000 H 
ATOM     99  H9  UNL A   1      32.924  23.333  26.710  1.00  0.00    +0.000 H 
ATOM      7  C5  UNL A   1      33.985  23.355  26.842  1.00  0.00    +0.000 C 
BRANCH    7    6
ATOM     97  H7  UNL A   1      34.521  21.758  28.144  1.00  0.00    +0.000 H 
ATOM      6  C4  UNL A   1      34.420  21.902  27.089  1.00  0.00    +0.000 C 
ATOM     96  H6  UNL A   1      35.350  21.728  26.589  1.00  0.00    +0.000 H 
BRANCH    6    5
ATOM      5  N1  UNL A   1      33.434  20.956  26.593  1.00  0.00    +0.000 N 
ATOM     95  H5  UNL A   1      32.703  20.681  27.193  1.00  0.00    +0.000 H 
BRANCH    5    3
ATOM      3  C3  UNL A   1      33.478  20.427  25.322  1.00  0.00    +0.000 C 
ATOM      4  O1  UNL A   1      34.444  19.722  25.036  1.00  0.00    +0.000 O 
BRANCH    3    2
ATOM      2  C2  UNL A   1      32.283  20.682  24.400  1.00  0.00    +0.000 C 
ATOM     94  H4  UNL A   1      31.415  20.601  25.021  1.00  0.00    +0.000 H 
BRANCH    2    1
ATOM      1  C1  UNL A   1      32.348  19.632  23.277  1.00  0.00    +0.000 C 
ATOM     91  H1  UNL A   1      32.776  20.073  22.401  1.00  0.00    +0.000 H 
ATOM     92  H2  UNL A   1      31.360  19.286  23.056  1.00  0.00    +0.000 H 
ATOM     93  H3  UNL A   1      32.952  18.808  23.593  1.00  0.00    +0.000 H 
ENDBRANCH    2    1
BRANCH    2   78
ATOM    130  H40 UNL A   1      30.733  25.119  24.212  1.00  0.00    +0.000 H 
ATOM     78  C55 UNL A   1      32.127  22.080  23.806  1.00  0.00    +0.000 C 
ATOM     79  C56 UNL A   1      32.882  22.394  22.657  1.00  0.00    +0.000 C 
ATOM     80  C57 UNL A   1      32.889  23.682  22.114  1.00  0.00    +0.000 C 
ATOM     81  C58 UNL A   1      32.144  24.708  22.700  1.00  0.00    +0.000 C 
ATOM     88  C64 UNL A   1      31.326  24.389  23.788  1.00  0.00    +0.000 C 
ATOM     89  C65 UNL A   1      31.301  23.091  24.309  1.00  0.00    +0.000 C 
ATOM     90  F16 UNL A   1      30.431  22.857  25.297  1.00  0.00    +0.000 F 
ATOM    123  H33 UNL A   1      33.444  21.655  22.207  1.00  0.00    +0.000 H 
ATOM    124  H34 UNL A   1      33.451  23.877  21.270  1.00  0.00    +0.000 H 
BRANCH   81   82
ATOM     82  C59 UNL A   1      32.226  26.124  22.174  1.00  0.00    +0.000 C 
ATOM    125  H35 UNL A   1      31.267  26.398  21.787  1.00  0.00    +0.000 H 
ATOM    126  H36 UNL A   1      32.985  26.139  21.420  1.00  0.00    +0.000 H 
BRANCH   82   83
ATOM    129  H39 UNL A   1      32.533  29.943  25.282  1.00  0.00    +0.000 H 
ATOM     83  C60 UNL A   1      32.623  27.128  23.226  1.00  0.00    +0.000 C 
ATOM     84  C61 UNL A   1      33.772  27.164  23.996  1.00  0.00    +0.000 C 
ATOM     85  C62 UNL A   1      33.807  28.282  24.878  1.00  0.00    +0.000 C 
ATOM     86  C63 UNL A   1      32.692  29.078  24.742  1.00  0.00    +0.000 C 
ATOM     87  S1  UNL A   1      31.604  28.464  23.576  1.00  0.00    +0.000 S 
ATOM    127  H37 UNL A   1      34.521  26.458  23.938  1.00  0.00    +0.000 H 
ATOM    128  H38 UNL A   1      34.577  28.473  25.538  1.00  0.00    +0.000 H 
ENDBRANCH   82   83
ENDBRANCH   81   82
ENDBRANCH    2   78
ENDBRANCH    3    2
ENDBRANCH    5    3
ENDBRANCH    6    5
ENDBRANCH    7    6
ENDBRANCH    8    7
ENDBRANCH    9    8
ENDBRANCH   10    9
ENDBRANCH   11   10
ENDBRANCH   12   11
ENDBRANCH   13   12
ENDBRANCH   15   13
ENDBRANCH   19   18
BRANCH   23   24
ATOM     33  C24 UNL A   1      38.689  30.795  32.005  1.00  0.00    +0.000 C 
ATOM     34  F5  UNL A   1      39.664  30.295  32.779  1.00  0.00    +0.000 F 
ATOM     24  C19 UNL A   1      38.893  30.955  30.626  1.00  0.00    +0.000 C 
ATOM     25  C20 UNL A   1      37.841  31.478  29.861  1.00  0.00    +0.000 C 
ATOM     26  F1  UNL A   1      37.991  31.660  28.541  1.00  0.00    +0.000 F 
ATOM     27  C21 UNL A   1      36.639  31.851  30.459  1.00  0.00    +0.000 C 
ATOM     28  F2  UNL A   1      35.663  32.391  29.715  1.00  0.00    +0.000 F 
ATOM     29  C22 UNL A   1      36.457  31.681  31.822  1.00  0.00    +0.000 C 
ATOM     30  F3  UNL A   1      35.299  32.037  32.395  1.00  0.00    +0.000 F 
ATOM     31  C23 UNL A   1      37.478  31.146  32.595  1.00  0.00    +0.000 C 
ATOM     32  F4  UNL A   1      37.299  30.971  33.911  1.00  0.00    +0.000 F 
ENDBRANCH   23   24
BRANCH   40   41
ATOM     41  C30 UNL A   1      45.457  33.707  29.493  1.00  0.00    +0.000 C 
ATOM     42  C31 UNL A   1      46.234  33.817  30.654  1.00  0.00    +0.000 C 
ATOM     43  F6  UNL A   1      46.278  32.807  31.536  1.00  0.00    +0.000 F 
ATOM     44  C32 UNL A   1      46.944  34.983  30.931  1.00  0.00    +0.000 C 
ATOM     45  F7  UNL A   1      47.651  35.082  32.066  1.00  0.00    +0.000 F 
ATOM     46  C33 UNL A   1      46.911  36.046  30.040  1.00  0.00    +0.000 C 
ATOM     47  F8  UNL A   1      47.599  37.165  30.306  1.00  0.00    +0.000 F 
ATOM     48  C34 UNL A   1      46.159  35.952  28.880  1.00  0.00    +0.000 C 
ATOM     49  F9  UNL A   1      46.133  36.976  28.014  1.00  0.00    +0.000 F 
ATOM     50  C35 UNL A   1      45.429  34.798  28.611  1.00  0.00    +0.000 C 
ATOM     51  F10 UNL A   1      44.703  34.739  27.486  1.00  0.00    +0.000 F 
ENDBRANCH   40   41
BRANCH   55   56
ATOM     65  C44 UNL A   1      47.290  27.906  24.646  1.00  0.00    +0.000 C 
ATOM     66  F15 UNL A   1      46.234  28.291  23.914  1.00  0.00    +0.000 F 
ATOM     56  C39 UNL A   1      47.217  27.920  26.045  1.00  0.00    +0.000 C 
ATOM     57  C40 UNL A   1      48.346  27.506  26.765  1.00  0.00    +0.000 C 
ATOM     58  F11 UNL A   1      48.328  27.523  28.106  1.00  0.00    +0.000 F 
ATOM     59  C41 UNL A   1      49.510  27.107  26.110  1.00  0.00    +0.000 C 
ATOM     60  F12 UNL A   1      50.587  26.750  26.822  1.00  0.00    +0.000 F 
ATOM     61  C42 UNL A   1      49.557  27.092  24.724  1.00  0.00    +0.000 C 
ATOM     62  F13 UNL A   1      50.674  26.705  24.095  1.00  0.00    +0.000 F 
ATOM     63  C43 UNL A   1      48.446  27.486  23.992  1.00  0.00    +0.000 C 
ATOM     64  F14 UNL A   1      48.486  27.462  22.653  1.00  0.00    +0.000 F 
ENDBRANCH   55   56
TORSDOF 19
ENDMDL
MODEL 2
REMARK VINA RESULT:     -10.5      4.129      7.066
ROOT
ATOM     19  C15 UNL A   1      40.065  28.828  29.343  1.00  0.00    +0.000 C 
ATOM     20  C16 UNL A   1      40.932  29.730  30.174  1.00  0.00    +0.000 C 
ATOM     21  N3  UNL A   1      42.186  29.583  30.522  1.00  0.00    +0.000 N 
ATOM     22  C17 UNL A   1      42.513  30.722  31.247  1.00  0.00    +0.000 C 
ATOM     23  C18 UNL A   1      43.679  31.024  31.864  1.00  0.00    +0.000 C 
ATOM     35  C25 UNL A   1      44.834  30.166  31.885  1.00  0.00    +0.000 C 
ATOM     36  C26 UNL A   1      46.039  30.355  32.539  1.00  0.00    +0.000 C 
ATOM     37  C27 UNL A   1      46.872  29.270  32.244  1.00  0.00    +0.000 C 
ATOM     38  C28 UNL A   1      46.174  28.389  31.436  1.00  0.00    +0.000 C 
ATOM     39  N4  UNL A   1      44.926  28.952  31.220  1.00  0.00    +0.000 N 
ATOM     40  C29 UNL A   1      46.609  27.127  30.897  1.00  0.00    +0.000 C 
ATOM     52  C36 UNL A   1      45.857  26.311  30.120  1.00  0.00    +0.000 C 
ATOM     53  N5  UNL A   1      44.552  26.485  29.682  1.00  0.00    +0.000 N 
ATOM     54  C37 UNL A   1      44.273  25.433  28.952  1.00  0.00    +0.000 C 
ATOM     55  C38 UNL A   1      42.994  25.080  28.245  1.00  0.00    +0.000 C 
ATOM     67  C45 UNL A   1      41.933  25.903  28.349  1.00  0.00    +0.000 C 
ATOM     68  C46 UNL A   1      40.631  25.689  27.726  1.00  0.00    +0.000 C 
ATOM     69  C47 UNL A   1      39.832  26.729  28.012  1.00  0.00    +0.000 C 
ATOM     70  C48 UNL A   1      40.558  27.669  28.866  1.00  0.00    +0.000 C 
ATOM     71  N6  UNL A   1      41.794  27.093  29.021  1.00  0.00    +0.000 N 
ATOM     72  C49 UNL A   1      45.385  24.479  28.825  1.00  0.00    +0.000 C 
ATOM     73  C50 UNL A   1      46.314  25.045  29.583  1.00  0.00    +0.000 C 
ATOM     74  C51 UNL A   1      41.339  31.569  31.255  1.00  0.00    +0.000 C 
ATOM     75  C52 UNL A   1      40.316  30.975  30.658  1.00  0.00    +0.000 C 
ATOM    111  H21 UNL A   1      46.281  31.157  33.142  1.00  0.00    +0.000 H 
ATOM    112  H22 UNL A   1      47.843  29.148  32.573  1.00  0.00    +0.000 H 
ATOM    113  H23 UNL A   1      44.211  28.550  30.676  1.00  0.00    +0.000 H 
ATOM    114  H24 UNL A   1      40.366  24.870  27.157  1.00  0.00    +0.000 H 
ATOM    115  H25 UNL A   1      38.861  26.847  27.682  1.00  0.00    +0.000 H 
ATOM    116  H26 UNL A   1      42.512  27.494  29.561  1.00  0.00    +0.000 H 
ATOM    117  H27 UNL A   1      45.430  23.600  28.287  1.00  0.00    +0.000 H 
ATOM    118  H28 UNL A   1      47.243  24.637  29.767  1.00  0.00    +0.000 H 
ATOM    119  H29 UNL A   1      41.303  32.512  31.672  1.00  0.00    +0.000 H 
ATOM    120  H30 UNL A   1      39.341  31.300  30.559  1.00  0.00    +0.000 H 
ENDROOT
BRANCH   19   18
ATOM     76  C53 UNL A   1      38.434  29.792  27.719  1.00  0.00    +0.000 C 
ATOM    109  H19 UNL A   1      35.542  29.304  30.178  1.00  0.00    +0.000 H 
ATOM     77  C54 UNL A   1      37.145  30.187  27.365  1.00  0.00    +0.000 C 
ATOM     15  C11 UNL A   1      36.081  29.954  28.241  1.00  0.00    +0.000 C 
ATOM     16  C12 UNL A   1      36.323  29.434  29.516  1.00  0.00    +0.000 C 
ATOM     17  C13 UNL A   1      37.623  29.092  29.891  1.00  0.00    +0.000 C 
ATOM    110  H20 UNL A   1      37.805  28.729  30.839  1.00  0.00    +0.000 H 
ATOM     18  C14 UNL A   1      38.685  29.242  28.984  1.00  0.00    +0.000 C 
ATOM    121  H31 UNL A   1      39.208  29.905  27.045  1.00  0.00    +0.000 H 
ATOM    122  H32 UNL A   1      36.977  30.651  26.458  1.00  0.00    +0.000 H 
BRANCH   15   13
ATOM     13  C10 UNL A   1      34.688  30.268  27.852  1.00  0.00    +0.000 C 
ATOM     14  O2  UNL A   1      34.183  31.328  28.210  1.00  0.00    +0.000 O 
BRANCH   13   12
ATOM    108  H18 UNL A   1      34.230  29.286  26.168  1.00  0.00    +0.000 H 
ATOM     12  N2  UNL A   1      33.961  29.371  27.111  1.00  0.00    +0.000 N 
BRANCH   12   11
ATOM    106  H16 UNL A   1      33.113  28.026  28.426  1.00  0.00    +0.000 H 
ATOM     11  C9  UNL A   1      32.849  28.528  27.519  1.00  0.00    +0.000 C 
ATOM    107  H17 UNL A   1      31.995  29.159  27.655  1.00  0.00    +0.000 H 
BRANCH   11   10
ATOM    105  H15 UNL A   1      32.150  28.026  25.610  1.00  0.00    +0.000 H 
ATOM     10  C8  UNL A   1      32.493  27.483  26.466  1.00  0.00    +0.000 C 
ATOM    104  H14 UNL A   1      31.751  26.833  26.882  1.00  0.00    +0.000 H 
BRANCH   10    9
ATOM      9  C7  UNL A   1      33.664  26.623  25.987  1.00  0.00    +0.000 C 
ATOM    102  H12 UNL A   1      34.550  26.966  26.480  1.00  0.00    +0.000 H 
ATOM    103  H13 UNL A   1      33.407  25.612  26.223  1.00  0.00    +0.000 H 
BRANCH    9    8
ATOM    100  H10 UNL A   1      34.886  26.230  24.297  1.00  0.00    +0.000 H 
ATOM    101  H11 UNL A   1      33.118  26.106  24.031  1.00  0.00    +0.000 H 
ATOM      8  C6  UNL A   1      33.920  26.655  24.478  1.00  0.00    +0.000 C 
BRANCH    8    7
ATOM     98  H8  UNL A   1      33.409  28.719  24.518  1.00  0.00    +0.000 H 
ATOM     99  H9  UNL A   1      34.906  28.309  23.631  1.00  0.00    +0.000 H 
ATOM      7  C5  UNL A   1      33.889  28.048  23.836  1.00  0.00    +0.000 C 
BRANCH    7    6
ATOM     97  H7  UNL A   1      32.792  27.141  22.254  1.00  0.00    +0.000 H 
ATOM      6  C4  UNL A   1      33.145  28.121  22.494  1.00  0.00    +0.000 C 
ATOM     96  H6  UNL A   1      33.818  28.480  21.743  1.00  0.00    +0.000 H 
BRANCH    6    5
ATOM      5  N1  UNL A   1      31.999  29.013  22.564  1.00  0.00    +0.000 N 
ATOM     95  H5  UNL A   1      32.004  29.829  22.012  1.00  0.00    +0.000 H 
BRANCH    5    3
ATOM      3  C3  UNL A   1      30.909  28.769  23.369  1.00  0.00    +0.000 C 
ATOM      4  O1  UNL A   1      30.687  29.564  24.280  1.00  0.00    +0.000 O 
BRANCH    3    2
ATOM      2  C2  UNL A   1      30.009  27.582  23.012  1.00  0.00    +0.000 C 
ATOM     94  H4  UNL A   1      30.267  27.314  22.009  1.00  0.00    +0.000 H 
BRANCH    2    1
ATOM      1  C1  UNL A   1      28.554  28.054  23.177  1.00  0.00    +0.000 C 
ATOM     91  H1  UNL A   1      27.916  27.467  22.550  1.00  0.00    +0.000 H 
ATOM     92  H2  UNL A   1      28.480  29.084  22.897  1.00  0.00    +0.000 H 
ATOM     93  H3  UNL A   1      28.255  27.939  24.197  1.00  0.00    +0.000 H 
ENDBRANCH    2    1
BRANCH    2   78
ATOM    130  H40 UNL A   1      31.819  23.303  23.748  1.00  0.00    +0.000 H 
ATOM     78  C55 UNL A   1      30.227  26.271  23.764  1.00  0.00    +0.000 C 
ATOM     79  C56 UNL A   1      29.646  26.143  25.043  1.00  0.00    +0.000 C 
ATOM     80  C57 UNL A   1      29.887  25.027  25.849  1.00  0.00    +0.000 C 
ATOM     81  C58 UNL A   1      30.722  23.997  25.410  1.00  0.00    +0.000 C 
ATOM     88  C64 UNL A   1      31.235  24.072  24.112  1.00  0.00    +0.000 C 
ATOM     89  C65 UNL A   1      30.966  25.179  23.299  1.00  0.00    +0.000 C 
ATOM     90  F16 UNL A   1      31.431  25.130  22.046  1.00  0.00    +0.000 F 
ATOM    123  H33 UNL A   1      29.028  26.892  25.393  1.00  0.00    +0.000 H 
ATOM    124  H34 UNL A   1      29.443  24.963  26.779  1.00  0.00    +0.000 H 
BRANCH   81   82
ATOM     82  C59 UNL A   1      31.063  22.835  26.318  1.00  0.00    +0.000 C 
ATOM    125  H35 UNL A   1      30.487  21.986  26.014  1.00  0.00    +0.000 H 
ATOM    126  H36 UNL A   1      30.837  23.138  27.319  1.00  0.00    +0.000 H 
BRANCH   82   83
ATOM    129  H39 UNL A   1      35.435  20.642  25.675  1.00  0.00    +0.000 H 
ATOM     83  C60 UNL A   1      32.523  22.461  26.283  1.00  0.00    +0.000 C 
ATOM     84  C61 UNL A   1      33.602  23.140  26.821  1.00  0.00    +0.000 C 
ATOM     85  C62 UNL A   1      34.838  22.467  26.603  1.00  0.00    +0.000 C 
ATOM     86  C63 UNL A   1      34.665  21.284  25.921  1.00  0.00    +0.000 C 
ATOM     87  S1  UNL A   1      33.025  21.004  25.528  1.00  0.00    +0.000 S 
ATOM    127  H37 UNL A   1      33.519  24.036  27.325  1.00  0.00    +0.000 H 
ATOM    128  H38 UNL A   1      35.753  22.823  26.920  1.00  0.00    +0.000 H 
ENDBRANCH   82   83
ENDBRANCH   81   82
ENDBRANCH    2   78
ENDBRANCH    3    2
ENDBRANCH    5    3
ENDBRANCH    6    5
ENDBRANCH    7    6
ENDBRANCH    8    7
ENDBRANCH    9    8
ENDBRANCH   10    9
ENDBRANCH   11   10
ENDBRANCH   12   11
ENDBRANCH   13   12
ENDBRANCH   15   13
ENDBRANCH   19   18
BRANCH   23   24
ATOM     33  C24 UNL A   1      43.363  32.453  33.917  1.00  0.00    +0.000 C 
ATOM     34  F5  UNL A   1      42.928  31.375  34.584  1.00  0.00    +0.000 F 
ATOM     24  C19 UNL A   1      43.762  32.342  32.576  1.00  0.00    +0.000 C 
ATOM     25  C20 UNL A   1      44.205  33.501  31.923  1.00  0.00    +0.000 C 
ATOM     26  F1  UNL A   1      44.608  33.443  30.645  1.00  0.00    +0.000 F 
ATOM     27  C21 UNL A   1      44.270  34.720  32.594  1.00  0.00    +0.000 C 
ATOM     28  F2  UNL A   1      44.739  35.805  31.962  1.00  0.00    +0.000 F 
ATOM     29  C22 UNL A   1      43.866  34.808  33.917  1.00  0.00    +0.000 C 
ATOM     30  F3  UNL A   1      43.926  35.983  34.559  1.00  0.00    +0.000 F 
ATOM     31  C23 UNL A   1      43.406  33.679  34.577  1.00  0.00    +0.000 C 
ATOM     32  F4  UNL A   1      43.005  33.766  35.852  1.00  0.00    +0.000 F 
ENDBRANCH   23   24
BRANCH   40   41
ATOM     41  C30 UNL A   1      47.995  26.665  31.234  1.00  0.00    +0.000 C 
ATOM     42  C31 UNL A   1      48.245  25.842  32.341  1.00  0.00    +0.000 C 
ATOM     43  F6  UNL A   1      47.242  25.490  33.160  1.00  0.00    +0.000 F 
ATOM     44  C32 UNL A   1      49.535  25.405  32.630  1.00  0.00    +0.000 C 
ATOM     45  F7  UNL A   1      49.757  24.651  33.716  1.00  0.00    +0.000 F 
ATOM     46  C33 UNL A   1      50.591  25.761  31.805  1.00  0.00    +0.000 C 
ATOM     47  F8  UNL A   1      51.831  25.335  32.083  1.00  0.00    +0.000 F 
ATOM     48  C34 UNL A   1      50.365  26.563  30.698  1.00  0.00    +0.000 C 
ATOM     49  F9  UNL A   1      51.384  26.900  29.894  1.00  0.00    +0.000 F 
ATOM     50  C35 UNL A   1      49.081  27.021  30.418  1.00  0.00    +0.000 C 
ATOM     51  F10 UNL A   1      48.892  27.804  29.346  1.00  0.00    +0.000 F 
ENDBRANCH   40   41
BRANCH   55   56
ATOM     65  C44 UNL A   1      43.238  23.776  26.106  1.00  0.00    +0.000 C 
ATOM     66  F15 UNL A   1      43.696  24.875  25.491  1.00  0.00    +0.000 F 
ATOM     56  C39 UNL A   1      42.880  23.825  27.460  1.00  0.00    +0.000 C 
ATOM     57  C40 UNL A   1      42.403  22.650  28.056  1.00  0.00    +0.000 C 
ATOM     58  F11 UNL A   1      42.069  22.647  29.355  1.00  0.00    +0.000 F 
ATOM     59  C41 UNL A   1      42.301  21.466  27.330  1.00  0.00    +0.000 C 
ATOM     60  F12 UNL A   1      41.876  20.348  27.933  1.00  0.00    +0.000 F 
ATOM     61  C42 UNL A   1      42.652  21.441  25.988  1.00  0.00    +0.000 C 
ATOM     62  F13 UNL A   1      42.551  20.303  25.288  1.00  0.00    +0.000 F 
ATOM     63  C43 UNL A   1      43.115  22.596  25.375  1.00  0.00    +0.000 C 
ATOM     64  F14 UNL A   1      43.444  22.578  24.076  1.00  0.00    +0.000 F 
ENDBRANCH   55   56
TORSDOF 19
ENDMDL
MODEL 3
REMARK VINA RESULT:     -10.4      3.968      6.474
ROOT
ATOM     19  C15 UNL A   1      39.567  28.904  29.550  1.00  0.00    +0.000 C 
ATOM     20  C16 UNL A   1      40.330  29.766  30.515  1.00  0.00    +0.000 C 
ATOM     21  N3  UNL A   1      41.544  29.612  30.981  1.00  0.00    +0.000 N 
ATOM     22  C17 UNL A   1      41.776  30.711  31.799  1.00  0.00    +0.000 C 
ATOM     23  C18 UNL A   1      42.868  30.989  32.549  1.00  0.00    +0.000 C 
ATOM     35  C25 UNL A   1      44.029  30.143  32.641  1.00  0.00    +0.000 C 
ATOM     36  C26 UNL A   1      45.157  30.307  33.425  1.00  0.00    +0.000 C 
ATOM     37  C27 UNL A   1      46.034  29.250  33.157  1.00  0.00    +0.000 C 
ATOM     38  C28 UNL A   1      45.436  28.409  32.233  1.00  0.00    +0.000 C 
ATOM     39  N4  UNL A   1      44.208  28.971  31.922  1.00  0.00    +0.000 N 
ATOM     40  C29 UNL A   1      45.945  27.185  31.672  1.00  0.00    +0.000 C 
ATOM     52  C36 UNL A   1      45.289  26.407  30.777  1.00  0.00    +0.000 C 
ATOM     53  N5  UNL A   1      44.033  26.592  30.217  1.00  0.00    +0.000 N 
ATOM     54  C37 UNL A   1      43.848  25.581  29.405  1.00  0.00    +0.000 C 
ATOM     55  C38 UNL A   1      42.654  25.257  28.551  1.00  0.00    +0.000 C 
ATOM     67  C45 UNL A   1      41.574  26.061  28.591  1.00  0.00    +0.000 C 
ATOM     68  C46 UNL A   1      40.346  25.869  27.825  1.00  0.00    +0.000 C 
ATOM     69  C47 UNL A   1      39.505  26.883  28.086  1.00  0.00    +0.000 C 
ATOM     70  C48 UNL A   1      40.125  27.780  29.062  1.00  0.00    +0.000 C 
ATOM     71  N6  UNL A   1      41.348  27.209  29.310  1.00  0.00    +0.000 N 
ATOM     72  C49 UNL A   1      44.982  24.648  29.339  1.00  0.00    +0.000 C 
ATOM     73  C50 UNL A   1      45.819  25.179  30.220  1.00  0.00    +0.000 C 
ATOM     74  C51 UNL A   1      40.594  31.544  31.733  1.00  0.00    +0.000 C 
ATOM     75  C52 UNL A   1      39.647  30.975  31.002  1.00  0.00    +0.000 C 
ATOM    111  H21 UNL A   1      45.323  31.076  34.093  1.00  0.00    +0.000 H 
ATOM    112  H22 UNL A   1      46.967  29.118  33.577  1.00  0.00    +0.000 H 
ATOM    113  H23 UNL A   1      43.559  28.594  31.285  1.00  0.00    +0.000 H 
ATOM    114  H24 UNL A   1      40.155  25.082  27.187  1.00  0.00    +0.000 H 
ATOM    115  H25 UNL A   1      38.572  27.010  27.665  1.00  0.00    +0.000 H 
ATOM    116  H26 UNL A   1      42.001  27.586  29.944  1.00  0.00    +0.000 H 
ATOM    117  H27 UNL A   1      45.097  23.802  28.760  1.00  0.00    +0.000 H 
ATOM    118  H28 UNL A   1      46.731  24.771  30.475  1.00  0.00    +0.000 H 
ATOM    119  H29 UNL A   1      40.500  32.461  32.197  1.00  0.00    +0.000 H 
ATOM    120  H30 UNL A   1      38.682  31.294  30.821  1.00  0.00    +0.000 H 
ENDROOT
BRANCH   19   18
ATOM     76  C53 UNL A   1      38.075  29.819  27.770  1.00  0.00    +0.000 C 
ATOM    109  H19 UNL A   1      35.006  29.493  30.034  1.00  0.00    +0.000 H 
ATOM     77  C54 UNL A   1      36.823  30.219  27.308  1.00  0.00    +0.000 C 
ATOM     15  C11 UNL A   1      35.694  30.044  28.114  1.00  0.00    +0.000 C 
ATOM     16  C12 UNL A   1      35.835  29.579  29.425  1.00  0.00    +0.000 C 
ATOM     17  C13 UNL A   1      37.098  29.233  29.908  1.00  0.00    +0.000 C 
ATOM    110  H20 UNL A   1      37.205  28.911  30.882  1.00  0.00    +0.000 H 
ATOM     18  C14 UNL A   1      38.225  29.323  29.074  1.00  0.00    +0.000 C 
ATOM    121  H31 UNL A   1      38.897  29.888  27.150  1.00  0.00    +0.000 H 
ATOM    122  H32 UNL A   1      36.728  30.643  26.371  1.00  0.00    +0.000 H 
BRANCH   15   13
ATOM     13  C10 UNL A   1      34.339  30.362  27.612  1.00  0.00    +0.000 C 
ATOM     14  O2  UNL A   1      33.788  31.399  27.972  1.00  0.00    +0.000 O 
BRANCH   13   12
ATOM    108  H18 UNL A   1      33.334  29.898  25.943  1.00  0.00    +0.000 H 
ATOM     12  N2  UNL A   1      33.697  29.495  26.766  1.00  0.00    +0.000 N 
BRANCH   12   11
ATOM    106  H16 UNL A   1      33.802  27.762  27.881  1.00  0.00    +0.000 H 
ATOM     11  C9  UNL A   1      33.472  28.065  26.910  1.00  0.00    +0.000 C 
ATOM    107  H17 UNL A   1      32.425  27.885  26.777  1.00  0.00    +0.000 H 
BRANCH   11   10
ATOM    105  H15 UNL A   1      35.244  27.225  26.176  1.00  0.00    +0.000 H 
ATOM     10  C8  UNL A   1      34.222  27.249  25.861  1.00  0.00    +0.000 C 
ATOM    104  H14 UNL A   1      34.081  27.720  24.911  1.00  0.00    +0.000 H 
BRANCH   10    9
ATOM      9  C7  UNL A   1      33.778  25.790  25.738  1.00  0.00    +0.000 C 
ATOM    102  H12 UNL A   1      34.025  25.292  26.653  1.00  0.00    +0.000 H 
ATOM    103  H13 UNL A   1      32.728  25.814  25.535  1.00  0.00    +0.000 H 
BRANCH    9    8
ATOM    100  H10 UNL A   1      33.645  24.454  24.095  1.00  0.00    +0.000 H 
ATOM    101  H11 UNL A   1      34.887  25.739  23.961  1.00  0.00    +0.000 H 
ATOM      8  C6  UNL A   1      34.417  25.009  24.587  1.00  0.00    +0.000 C 
BRANCH    8    7
ATOM     98  H8  UNL A   1      35.602  23.280  24.231  1.00  0.00    +0.000 H 
ATOM     99  H9  UNL A   1      36.413  24.606  25.112  1.00  0.00    +0.000 H 
ATOM      7  C5  UNL A   1      35.522  24.026  24.994  1.00  0.00    +0.000 C 
BRANCH    7    6
ATOM     97  H7  UNL A   1      34.248  23.383  26.573  1.00  0.00    +0.000 H 
ATOM      6  C4  UNL A   1      35.288  23.314  26.335  1.00  0.00    +0.000 C 
ATOM     96  H6  UNL A   1      35.885  23.787  27.087  1.00  0.00    +0.000 H 
BRANCH    6    5
ATOM      5  N1  UNL A   1      35.647  21.907  26.264  1.00  0.00    +0.000 N 
ATOM     95  H5  UNL A   1      36.458  21.604  26.734  1.00  0.00    +0.000 H 
BRANCH    5    3
ATOM      3  C3  UNL A   1      34.903  20.980  25.569  1.00  0.00    +0.000 C 
ATOM      4  O1  UNL A   1      35.497  20.264  24.764  1.00  0.00    +0.000 O 
BRANCH    3    2
ATOM      2  C2  UNL A   1      33.417  20.849  25.917  1.00  0.00    +0.000 C 
ATOM     94  H4  UNL A   1      33.340  21.097  26.955  1.00  0.00    +0.000 H 
BRANCH    2    1
ATOM      1  C1  UNL A   1      33.001  19.406  25.586  1.00  0.00    +0.000 C 
ATOM     91  H1  UNL A   1      32.243  19.088  26.270  1.00  0.00    +0.000 H 
ATOM     92  H2  UNL A   1      33.851  18.762  25.672  1.00  0.00    +0.000 H 
ATOM     93  H3  UNL A   1      32.621  19.364  24.587  1.00  0.00    +0.000 H 
ENDBRANCH    2    1
BRANCH    2   78
ATOM    130  H40 UNL A   1      30.267  24.342  25.846  1.00  0.00    +0.000 H 
ATOM     78  C55 UNL A   1      32.446  21.839  25.275  1.00  0.00    +0.000 C 
ATOM     79  C56 UNL A   1      32.396  21.890  23.867  1.00  0.00    +0.000 C 
ATOM     80  C57 UNL A   1      31.623  22.841  23.195  1.00  0.00    +0.000 C 
ATOM     81  C58 UNL A   1      30.872  23.781  23.905  1.00  0.00    +0.000 C 
ATOM     88  C64 UNL A   1      30.847  23.686  25.300  1.00  0.00    +0.000 C 
ATOM     89  C65 UNL A   1      31.601  22.713  25.965  1.00  0.00    +0.000 C 
ATOM     90  F16 UNL A   1      31.455  22.645  27.292  1.00  0.00    +0.000 F 
ATOM    123  H33 UNL A   1      32.944  21.209  23.318  1.00  0.00    +0.000 H 
ATOM    124  H34 UNL A   1      31.605  22.848  22.163  1.00  0.00    +0.000 H 
BRANCH   81   82
ATOM     82  C59 UNL A   1      30.113  24.872  23.183  1.00  0.00    +0.000 C 
ATOM    125  H35 UNL A   1      29.140  24.957  23.623  1.00  0.00    +0.000 H 
ATOM    126  H36 UNL A   1      30.065  24.596  22.151  1.00  0.00    +0.000 H 
BRANCH   82   83
ATOM    129  H39 UNL A   1      32.993  28.827  22.555  1.00  0.00    +0.000 H 
ATOM     83  C60 UNL A   1      30.790  26.217  23.255  1.00  0.00    +0.000 C 
ATOM     84  C61 UNL A   1      30.555  27.257  24.136  1.00  0.00    +0.000 C 
ATOM     85  C62 UNL A   1      31.409  28.374  23.908  1.00  0.00    +0.000 C 
ATOM     86  C63 UNL A   1      32.284  28.147  22.870  1.00  0.00    +0.000 C 
ATOM     87  S1  UNL A   1      32.057  26.606  22.165  1.00  0.00    +0.000 S 
ATOM    127  H37 UNL A   1      29.839  27.226  24.878  1.00  0.00    +0.000 H 
ATOM    128  H38 UNL A   1      31.375  29.248  24.456  1.00  0.00    +0.000 H 
ENDBRANCH   82   83
ENDBRANCH   81   82
ENDBRANCH    2   78
ENDBRANCH    3    2
ENDBRANCH    5    3
ENDBRANCH    6    5
ENDBRANCH    7    6
ENDBRANCH    8    7
ENDBRANCH    9    8
ENDBRANCH   10    9
ENDBRANCH   11   10
ENDBRANCH   12   11
ENDBRANCH   13   12
ENDBRANCH   15   13
ENDBRANCH   19   18
BRANCH   23   24
ATOM     33  C24 UNL A   1      42.324  32.294  34.636  1.00  0.00    +0.000 C 
ATOM     34  F5  UNL A   1      41.842  31.174  35.195  1.00  0.00    +0.000 F 
ATOM     24  C19 UNL A   1      42.857  32.265  33.339  1.00  0.00    +0.000 C 
ATOM     25  C20 UNL A   1      43.342  33.464  32.800  1.00  0.00    +0.000 C 
ATOM     26  F1  UNL A   1      43.872  33.485  31.568  1.00  0.00    +0.000 F 
ATOM     27  C21 UNL A   1      43.319  34.643  33.541  1.00  0.00    +0.000 C 
ATOM     28  F2  UNL A   1      43.829  35.769  33.022  1.00  0.00    +0.000 F 
ATOM     29  C22 UNL A   1      42.783  34.651  34.819  1.00  0.00    +0.000 C 
ATOM     30  F3  UNL A   1      42.758  35.787  35.530  1.00  0.00    +0.000 F 
ATOM     31  C23 UNL A   1      42.279  33.480  35.365  1.00  0.00    +0.000 C 
ATOM     32  F4  UNL A   1      41.751  33.488  36.596  1.00  0.00    +0.000 F 
ENDBRANCH   23   24
BRANCH   40   41
ATOM     41  C30 UNL A   1      47.296  26.719  32.123  1.00  0.00    +0.000 C 
ATOM     42  C31 UNL A   1      48.470  27.171  31.504  1.00  0.00    +0.000 C 
ATOM     43  F6  UNL A   1      48.403  27.999  30.451  1.00  0.00    +0.000 F 
ATOM     44  C32 UNL A   1      49.720  26.745  31.947  1.00  0.00    +0.000 C 
ATOM     45  F7  UNL A   1      50.829  27.160  31.316  1.00  0.00    +0.000 F 
ATOM     46  C33 UNL A   1      49.819  25.883  33.028  1.00  0.00    +0.000 C 
ATOM     47  F8  UNL A   1      51.024  25.479  33.455  1.00  0.00    +0.000 F 
ATOM     48  C34 UNL A   1      48.671  25.435  33.663  1.00  0.00    +0.000 C 
ATOM     49  F9  UNL A   1      48.766  24.608  34.715  1.00  0.00    +0.000 F 
ATOM     50  C35 UNL A   1      47.419  25.839  33.209  1.00  0.00    +0.000 C 
ATOM     51  F10 UNL A   1      46.325  25.382  33.836  1.00  0.00    +0.000 F 
ENDBRANCH   40   41
BRANCH   55   56
ATOM     65  C44 UNL A   1      42.304  22.788  28.203  1.00  0.00    +0.000 C 
ATOM     66  F15 UNL A   1      41.982  22.654  29.498  1.00  0.00    +0.000 F 
ATOM     56  C39 UNL A   1      42.641  24.048  27.689  1.00  0.00    +0.000 C 
ATOM     57  C40 UNL A   1      42.972  24.135  26.331  1.00  0.00    +0.000 C 
ATOM     58  F11 UNL A   1      43.281  25.324  25.792  1.00  0.00    +0.000 F 
ATOM     59  C41 UNL A   1      42.953  23.007  25.512  1.00  0.00    +0.000 C 
ATOM     60  F12 UNL A   1      43.240  23.124  24.209  1.00  0.00    +0.000 F 
ATOM     61  C42 UNL A   1      42.626  21.769  26.043  1.00  0.00    +0.000 C 
ATOM     62  F13 UNL A   1      42.611  20.684  25.257  1.00  0.00    +0.000 F 
ATOM     63  C43 UNL A   1      42.306  21.658  27.389  1.00  0.00    +0.000 C 
ATOM     64  F14 UNL A   1      42.001  20.461  27.907  1.00  0.00    +0.000 F 
ENDBRANCH   55   56
TORSDOF 19
ENDMDL
MODEL 4
REMARK VINA RESULT:     -10.3      4.037      7.022
ROOT
ATOM     19  C15 UNL A   1      39.868  28.893  29.193  1.00  0.00    +0.000 C 
ATOM     20  C16 UNL A   1      40.722  29.837  29.991  1.00  0.00    +0.000 C 
ATOM     21  N3  UNL A   1      41.983  29.728  30.330  1.00  0.00    +0.000 N 
ATOM     22  C17 UNL A   1      42.290  30.893  31.020  1.00  0.00    +0.000 C 
ATOM     23  C18 UNL A   1      43.455  31.238  31.618  1.00  0.00    +0.000 C 
ATOM     35  C25 UNL A   1      44.629  30.407  31.650  1.00  0.00    +0.000 C 
ATOM     36  C26 UNL A   1      45.835  30.641  32.288  1.00  0.00    +0.000 C 
ATOM     37  C27 UNL A   1      46.690  29.567  32.014  1.00  0.00    +0.000 C 
ATOM     38  C28 UNL A   1      46.004  28.649  31.237  1.00  0.00    +0.000 C 
ATOM     39  N4  UNL A   1      44.742  29.178  31.018  1.00  0.00    +0.000 N 
ATOM     40  C29 UNL A   1      46.463  27.383  30.729  1.00  0.00    +0.000 C 
ATOM     52  C36 UNL A   1      45.722  26.529  29.981  1.00  0.00    +0.000 C 
ATOM     53  N5  UNL A   1      44.410  26.662  29.551  1.00  0.00    +0.000 N 
ATOM     54  C37 UNL A   1      44.148  25.584  28.853  1.00  0.00    +0.000 C 
ATOM     55  C38 UNL A   1      42.871  25.184  28.169  1.00  0.00    +0.000 C 
ATOM     67  C45 UNL A   1      41.793  25.985  28.261  1.00  0.00    +0.000 C 
ATOM     68  C46 UNL A   1      40.490  25.725  27.656  1.00  0.00    +0.000 C 
ATOM     69  C47 UNL A   1      39.670  26.755  27.922  1.00  0.00    +0.000 C 
ATOM     70  C48 UNL A   1      40.383  27.734  28.743  1.00  0.00    +0.000 C 
ATOM     71  N6  UNL A   1      41.633  27.189  28.901  1.00  0.00    +0.000 N 
ATOM     72  C49 UNL A   1      45.280  24.652  28.741  1.00  0.00    +0.000 C 
ATOM     73  C50 UNL A   1      46.203  25.259  29.474  1.00  0.00    +0.000 C 
ATOM     74  C51 UNL A   1      41.097  31.714  31.017  1.00  0.00    +0.000 C 
ATOM     75  C52 UNL A   1      40.082  31.081  30.446  1.00  0.00    +0.000 C 
ATOM    111  H21 UNL A   1      46.064  31.464  32.865  1.00  0.00    +0.000 H 
ATOM    112  H22 UNL A   1      47.666  29.476  32.337  1.00  0.00    +0.000 H 
ATOM    113  H23 UNL A   1      44.032  28.745  30.493  1.00  0.00    +0.000 H 
ATOM    114  H24 UNL A   1      40.239  24.885  27.113  1.00  0.00    +0.000 H 
ATOM    115  H25 UNL A   1      38.694  26.841  27.598  1.00  0.00    +0.000 H 
ATOM    116  H26 UNL A   1      42.347  27.621  29.423  1.00  0.00    +0.000 H 
ATOM    117  H27 UNL A   1      45.340  23.760  28.227  1.00  0.00    +0.000 H 
ATOM    118  H28 UNL A   1      47.143  24.877  29.660  1.00  0.00    +0.000 H 
ATOM    119  H29 UNL A   1      41.044  32.667  31.408  1.00  0.00    +0.000 H 
ATOM    120  H30 UNL A   1      39.099  31.381  30.348  1.00  0.00    +0.000 H 
ENDROOT
BRANCH   19   18
ATOM     76  C53 UNL A   1      38.200  29.775  27.558  1.00  0.00    +0.000 C 
ATOM    109  H19 UNL A   1      35.344  29.293  30.059  1.00  0.00    +0.000 H 
ATOM     77  C54 UNL A   1      36.900  30.132  27.207  1.00  0.00    +0.000 C 
ATOM     15  C11 UNL A   1      35.849  29.900  28.099  1.00  0.00    +0.000 C 
ATOM     16  C12 UNL A   1      36.115  29.421  29.386  1.00  0.00    +0.000 C 
ATOM     17  C13 UNL A   1      37.426  29.119  29.758  1.00  0.00    +0.000 C 
ATOM    110  H20 UNL A   1      37.625  28.786  30.713  1.00  0.00    +0.000 H 
ATOM     18  C14 UNL A   1      38.476  29.266  28.836  1.00  0.00    +0.000 C 
ATOM    121  H31 UNL A   1      38.966  29.886  26.874  1.00  0.00    +0.000 H 
ATOM    122  H32 UNL A   1      36.713  30.566  26.289  1.00  0.00    +0.000 H 
BRANCH   15   13
ATOM     13  C10 UNL A   1      34.446  30.172  27.716  1.00  0.00    +0.000 C 
ATOM     14  O2  UNL A   1      34.011  31.318  27.781  1.00  0.00    +0.000 O 
BRANCH   13   12
ATOM    108  H18 UNL A   1      34.095  28.379  26.896  1.00  0.00    +0.000 H 
ATOM     12  N2  UNL A   1      33.633  29.145  27.307  1.00  0.00    +0.000 N 
BRANCH   12   11
ATOM    106  H16 UNL A   1      31.931  28.631  28.355  1.00  0.00    +0.000 H 
ATOM     11  C9  UNL A   1      32.186  29.027  27.394  1.00  0.00    +0.000 C 
ATOM    107  H17 UNL A   1      31.771  30.003  27.250  1.00  0.00    +0.000 H 
BRANCH   11   10
ATOM    105  H15 UNL A   1      32.234  28.235  25.456  1.00  0.00    +0.000 H 
ATOM     10  C8  UNL A   1      31.611  28.112  26.318  1.00  0.00    +0.000 C 
ATOM    104  H14 UNL A   1      30.593  28.395  26.150  1.00  0.00    +0.000 H 
BRANCH   10    9
ATOM      9  C7  UNL A   1      31.639  26.619  26.655  1.00  0.00    +0.000 C 
ATOM    102  H12 UNL A   1      32.570  26.220  26.310  1.00  0.00    +0.000 H 
ATOM    103  H13 UNL A   1      31.511  26.552  27.715  1.00  0.00    +0.000 H 
BRANCH    9    8
ATOM    100  H10 UNL A   1      30.917  24.847  25.738  1.00  0.00    +0.000 H 
ATOM    101  H11 UNL A   1      29.754  25.713  26.792  1.00  0.00    +0.000 H 
ATOM      8  C6  UNL A   1      30.510  25.791  26.038  1.00  0.00    +0.000 C 
BRANCH    8    7
ATOM     98  H8  UNL A   1      28.767  26.376  24.969  1.00  0.00    +0.000 H 
ATOM     99  H9  UNL A   1      30.200  27.419  24.743  1.00  0.00    +0.000 H 
ATOM      7  C5  UNL A   1      29.825  26.420  24.817  1.00  0.00    +0.000 C 
BRANCH    7    6
ATOM     97  H7  UNL A   1      29.276  25.193  23.167  1.00  0.00    +0.000 H 
ATOM      6  C4  UNL A   1      30.143  25.737  23.478  1.00  0.00    +0.000 C 
ATOM     96  H6  UNL A   1      30.978  25.081  23.613  1.00  0.00    +0.000 H 
BRANCH    6    5
ATOM      5  N1  UNL A   1      30.467  26.708  22.446  1.00  0.00    +0.000 N 
ATOM     95  H5  UNL A   1      29.798  26.892  21.747  1.00  0.00    +0.000 H 
BRANCH    5    3
ATOM      3  C3  UNL A   1      31.668  27.381  22.402  1.00  0.00    +0.000 C 
ATOM      4  O1  UNL A   1      31.676  28.551  22.780  1.00  0.00    +0.000 O 
BRANCH    3    2
ATOM      2  C2  UNL A   1      32.912  26.596  21.977  1.00  0.00    +0.000 C 
ATOM     94  H4  UNL A   1      33.657  27.331  21.758  1.00  0.00    +0.000 H 
BRANCH    2    1
ATOM      1  C1  UNL A   1      32.510  25.734  20.768  1.00  0.00    +0.000 C 
ATOM     91  H1  UNL A   1      32.150  26.366  19.984  1.00  0.00    +0.000 H 
ATOM     92  H2  UNL A   1      31.740  25.051  21.058  1.00  0.00    +0.000 H 
ATOM     93  H3  UNL A   1      33.361  25.186  20.422  1.00  0.00    +0.000 H 
ENDBRANCH    2    1
BRANCH    2   78
ATOM    130  H40 UNL A   1      34.935  25.687  26.126  1.00  0.00    +0.000 H 
ATOM     78  C55 UNL A   1      33.606  25.735  23.032  1.00  0.00    +0.000 C 
ATOM     79  C56 UNL A   1      33.743  24.357  22.768  1.00  0.00    +0.000 C 
ATOM     80  C57 UNL A   1      34.261  23.476  23.722  1.00  0.00    +0.000 C 
ATOM     81  C58 UNL A   1      34.658  23.939  24.979  1.00  0.00    +0.000 C 
ATOM     88  C64 UNL A   1      34.606  25.315  25.221  1.00  0.00    +0.000 C 
ATOM     89  C65 UNL A   1      34.114  26.194  24.251  1.00  0.00    +0.000 C 
ATOM     90  F16 UNL A   1      34.175  27.499  24.537  1.00  0.00    +0.000 F 
ATOM    123  H33 UNL A   1      33.453  23.989  21.849  1.00  0.00    +0.000 H 
ATOM    124  H34 UNL A   1      34.351  22.473  23.495  1.00  0.00    +0.000 H 
BRANCH   81   82
ATOM     82  C59 UNL A   1      35.127  22.976  26.047  1.00  0.00    +0.000 C 
ATOM    125  H35 UNL A   1      34.599  22.052  25.927  1.00  0.00    +0.000 H 
ATOM    126  H36 UNL A   1      34.929  23.433  26.995  1.00  0.00    +0.000 H 
BRANCH   82   83
ATOM    129  H39 UNL A   1      39.611  21.012  25.443  1.00  0.00    +0.000 H 
ATOM     83  C60 UNL A   1      36.606  22.694  25.988  1.00  0.00    +0.000 C 
ATOM     84  C61 UNL A   1      37.655  23.492  26.409  1.00  0.00    +0.000 C 
ATOM     85  C62 UNL A   1      38.926  22.880  26.207  1.00  0.00    +0.000 C 
ATOM     86  C63 UNL A   1      38.809  21.625  25.655  1.00  0.00    +0.000 C 
ATOM     87  S1  UNL A   1      37.178  21.202  25.363  1.00  0.00    +0.000 S 
ATOM    127  H37 UNL A   1      37.530  24.428  26.824  1.00  0.00    +0.000 H 
ATOM    128  H38 UNL A   1      39.825  23.325  26.447  1.00  0.00    +0.000 H 
ENDBRANCH   82   83
ENDBRANCH   81   82
ENDBRANCH    2   78
ENDBRANCH    3    2
ENDBRANCH    5    3
ENDBRANCH    6    5
ENDBRANCH    7    6
ENDBRANCH    8    7
ENDBRANCH    9    8
ENDBRANCH   10    9
ENDBRANCH   11   10
ENDBRANCH   12   11
ENDBRANCH   13   12
ENDBRANCH   15   13
ENDBRANCH   19   18
BRANCH   23   24
ATOM     33  C24 UNL A   1      43.149  32.711  33.640  1.00  0.00    +0.000 C 
ATOM     34  F5  UNL A   1      42.768  31.638  34.348  1.00  0.00    +0.000 F 
ATOM     24  C19 UNL A   1      43.515  32.577  32.293  1.00  0.00    +0.000 C 
ATOM     25  C20 UNL A   1      43.901  33.731  31.597  1.00  0.00    +0.000 C 
ATOM     26  F1  UNL A   1      44.271  33.652  30.311  1.00  0.00    +0.000 F 
ATOM     27  C21 UNL A   1      43.945  34.969  32.234  1.00  0.00    +0.000 C 
ATOM     28  F2  UNL A   1      44.361  36.051  31.562  1.00  0.00    +0.000 F 
ATOM     29  C22 UNL A   1      43.575  35.080  33.565  1.00  0.00    +0.000 C 
ATOM     30  F3  UNL A   1      43.615  36.273  34.175  1.00  0.00    +0.000 F 
ATOM     31  C23 UNL A   1      43.170  33.955  34.267  1.00  0.00    +0.000 C 
ATOM     32  F4  UNL A   1      42.802  34.063  35.551  1.00  0.00    +0.000 F 
ENDBRANCH   23   24
BRANCH   40   41
ATOM     41  C30 UNL A   1      47.862  26.962  31.064  1.00  0.00    +0.000 C 
ATOM     42  C31 UNL A   1      48.957  27.383  30.297  1.00  0.00    +0.000 C 
ATOM     43  F6  UNL A   1      48.766  28.139  29.205  1.00  0.00    +0.000 F 
ATOM     44  C32 UNL A   1      50.254  27.000  30.631  1.00  0.00    +0.000 C 
ATOM     45  F7  UNL A   1      51.283  27.383  29.862  1.00  0.00    +0.000 F 
ATOM     46  C33 UNL A   1      50.480  26.213  31.750  1.00  0.00    +0.000 C 
ATOM     47  F8  UNL A   1      51.729  25.850  32.073  1.00  0.00    +0.000 F 
ATOM     48  C34 UNL A   1      49.413  25.796  32.530  1.00  0.00    +0.000 C 
ATOM     49  F9  UNL A   1      49.631  25.043  33.618  1.00  0.00    +0.000 F 
ATOM     50  C35 UNL A   1      48.113  26.157  32.186  1.00  0.00    +0.000 C 
ATOM     51  F10 UNL A   1      47.099  25.732  32.953  1.00  0.00    +0.000 F 
ENDBRANCH   40   41
BRANCH   55   56
ATOM     65  C44 UNL A   1      43.126  23.826  26.064  1.00  0.00    +0.000 C 
ATOM     66  F15 UNL A   1      43.555  24.918  25.415  1.00  0.00    +0.000 F 
ATOM     56  C39 UNL A   1      42.778  23.905  27.419  1.00  0.00    +0.000 C 
ATOM     57  C40 UNL A   1      42.332  22.737  28.051  1.00  0.00    +0.000 C 
ATOM     58  F11 UNL A   1      42.008  22.762  29.353  1.00  0.00    +0.000 F 
ATOM     59  C41 UNL A   1      42.250  21.531  27.358  1.00  0.00    +0.000 C 
ATOM     60  F12 UNL A   1      41.855  20.421  27.995  1.00  0.00    +0.000 F 
ATOM     61  C42 UNL A   1      42.591  21.477  26.015  1.00  0.00    +0.000 C 
ATOM     62  F13 UNL A   1      42.509  20.318  25.348  1.00  0.00    +0.000 F 
ATOM     63  C43 UNL A   1      43.023  22.625  25.366  1.00  0.00    +0.000 C 
ATOM     64  F14 UNL A   1      43.342  22.578  24.066  1.00  0.00    +0.000 F 
ENDBRANCH   55   56
TORSDOF 19
ENDMDL
MODEL 5
REMARK VINA RESULT:     -10.3     24.186     32.562
ROOT
ATOM     19  C15 UNL A   1      22.001  19.437   5.279  1.00  0.00    +0.000 C 
ATOM     20  C16 UNL A   1      20.801  18.852   5.968  1.00  0.00    +0.000 C 
ATOM     21  N3  UNL A   1      19.530  19.095   5.768  1.00  0.00    +0.000 N 
ATOM     22  C17 UNL A   1      18.844  18.255   6.635  1.00  0.00    +0.000 C 
ATOM     23  C18 UNL A   1      17.509  18.165   6.842  1.00  0.00    +0.000 C 
ATOM     35  C25 UNL A   1      16.525  18.973   6.172  1.00  0.00    +0.000 C 
ATOM     36  C26 UNL A   1      15.155  19.000   6.363  1.00  0.00    +0.000 C 
ATOM     37  C27 UNL A   1      14.606  19.922   5.463  1.00  0.00    +0.000 C 
ATOM     38  C28 UNL A   1      15.638  20.494   4.739  1.00  0.00    +0.000 C 
ATOM     39  N4  UNL A   1      16.810  19.900   5.181  1.00  0.00    +0.000 N 
ATOM     40  C29 UNL A   1      15.565  21.506   3.718  1.00  0.00    +0.000 C 
ATOM     52  C36 UNL A   1      16.629  22.027   3.061  1.00  0.00    +0.000 C 
ATOM     53  N5  UNL A   1      17.976  21.729   3.209  1.00  0.00    +0.000 N 
ATOM     54  C37 UNL A   1      18.610  22.485   2.347  1.00  0.00    +0.000 C 
ATOM     55  C38 UNL A   1      20.087  22.595   2.087  1.00  0.00    +0.000 C 
ATOM     67  C45 UNL A   1      20.943  21.860   2.821  1.00  0.00    +0.000 C 
ATOM     68  C46 UNL A   1      22.397  21.867   2.685  1.00  0.00    +0.000 C 
ATOM     69  C47 UNL A   1      22.922  20.984   3.550  1.00  0.00    +0.000 C 
ATOM     70  C48 UNL A   1      21.841  20.371   4.323  1.00  0.00    +0.000 C 
ATOM     71  N6  UNL A   1      20.703  20.957   3.827  1.00  0.00    +0.000 N 
ATOM     72  C49 UNL A   1      17.729  23.335   1.533  1.00  0.00    +0.000 C 
ATOM     73  C50 UNL A   1      16.536  23.043   2.032  1.00  0.00    +0.000 C 
ATOM     74  C51 UNL A   1      19.836  17.466   7.334  1.00  0.00    +0.000 C 
ATOM     75  C52 UNL A   1      21.064  17.839   7.003  1.00  0.00    +0.000 C 
ATOM    111  H21 UNL A   1      14.628  18.439   7.049  1.00  0.00    +0.000 H 
ATOM    112  H22 UNL A   1      13.603  20.139   5.359  1.00  0.00    +0.000 H 
ATOM    113  H23 UNL A   1      17.711  20.107   4.843  1.00  0.00    +0.000 H 
ATOM    114  H24 UNL A   1      22.935  22.456   2.031  1.00  0.00    +0.000 H 
ATOM    115  H25 UNL A   1      23.926  20.772   3.653  1.00  0.00    +0.000 H 
ATOM    116  H26 UNL A   1      19.800  20.750   4.162  1.00  0.00    +0.000 H 
ATOM    117  H27 UNL A   1      17.975  23.989   0.773  1.00  0.00    +0.000 H 
ATOM    118  H28 UNL A   1      15.654  23.483   1.727  1.00  0.00    +0.000 H 
ATOM    119  H29 UNL A   1      19.616  16.713   8.003  1.00  0.00    +0.000 H 
ATOM    120  H30 UNL A   1      21.968  17.507   7.374  1.00  0.00    +0.000 H 
ENDROOT
BRANCH   19   18
ATOM     76  C53 UNL A   1      24.161  19.641   6.514  1.00  0.00    +0.000 C 
ATOM    109  H19 UNL A   1      25.488  16.422   4.925  1.00  0.00    +0.000 H 
ATOM     77  C54 UNL A   1      25.441  19.188   6.824  1.00  0.00    +0.000 C 
ATOM     15  C11 UNL A   1      25.902  17.981   6.289  1.00  0.00    +0.000 C 
ATOM     16  C12 UNL A   1      25.128  17.289   5.353  1.00  0.00    +0.000 C 
ATOM     17  C13 UNL A   1      23.868  17.774   4.999  1.00  0.00    +0.000 C 
ATOM    110  H20 UNL A   1      23.306  17.275   4.292  1.00  0.00    +0.000 H 
ATOM     18  C14 UNL A   1      23.362  18.939   5.598  1.00  0.00    +0.000 C 
ATOM    121  H31 UNL A   1      23.797  20.497   6.960  1.00  0.00    +0.000 H 
ATOM    122  H32 UNL A   1      26.049  19.742   7.448  1.00  0.00    +0.000 H 
BRANCH   15   13
ATOM     13  C10 UNL A   1      27.216  17.423   6.680  1.00  0.00    +0.000 C 
ATOM     14  O2  UNL A   1      27.351  16.208   6.787  1.00  0.00    +0.000 O 
BRANCH   13   12
ATOM    108  H18 UNL A   1      28.810  18.516   6.157  1.00  0.00    +0.000 H 
ATOM     12  N2  UNL A   1      28.270  18.262   6.940  1.00  0.00    +0.000 N 
BRANCH   12   11
ATOM    106  H16 UNL A   1      29.774  18.827   8.234  1.00  0.00    +0.000 H 
ATOM     11  C9  UNL A   1      28.704  18.828   8.207  1.00  0.00    +0.000 C 
ATOM    107  H17 UNL A   1      28.312  19.822   8.271  1.00  0.00    +0.000 H 
BRANCH   11   10
ATOM    105  H15 UNL A   1      29.035  17.830  10.017  1.00  0.00    +0.000 H 
ATOM     10  C8  UNL A   1      28.182  18.043   9.407  1.00  0.00    +0.000 C 
ATOM    104  H14 UNL A   1      27.691  17.166   9.041  1.00  0.00    +0.000 H 
BRANCH   10    9
ATOM      9  C7  UNL A   1      27.198  18.804  10.298  1.00  0.00    +0.000 C 
ATOM    102  H12 UNL A   1      26.219  18.406  10.124  1.00  0.00    +0.000 H 
ATOM    103  H13 UNL A   1      27.541  18.670  11.302  1.00  0.00    +0.000 H 
BRANCH    9    8
ATOM    100  H10 UNL A   1      28.082  20.622   9.655  1.00  0.00    +0.000 H 
ATOM    101  H11 UNL A   1      26.312  20.483   9.411  1.00  0.00    +0.000 H 
ATOM      8  C6  UNL A   1      27.142  20.316  10.065  1.00  0.00    +0.000 C 
BRANCH    8    7
ATOM     98  H8  UNL A   1      27.567  20.869  12.074  1.00  0.00    +0.000 H 
ATOM     99  H9  UNL A   1      26.980  22.185  11.017  1.00  0.00    +0.000 H 
ATOM      7  C5  UNL A   1      26.872  21.163  11.316  1.00  0.00    +0.000 C 
BRANCH    7    6
ATOM     97  H7  UNL A   1      24.864  20.470  11.195  1.00  0.00    +0.000 H 
ATOM      6  C4  UNL A   1      25.454  21.027  11.891  1.00  0.00    +0.000 C 
ATOM     96  H6  UNL A   1      25.046  22.006  12.040  1.00  0.00    +0.000 H 
BRANCH    6    5
ATOM      5  N1  UNL A   1      25.456  20.318  13.159  1.00  0.00    +0.000 N 
ATOM     95  H5  UNL A   1      25.778  20.790  13.961  1.00  0.00    +0.000 H 
BRANCH    5    3
ATOM      3  C3  UNL A   1      25.028  19.015  13.288  1.00  0.00    +0.000 C 
ATOM      4  O1  UNL A   1      25.755  18.239  13.905  1.00  0.00    +0.000 O 
BRANCH    3    2
ATOM      2  C2  UNL A   1      23.645  18.659  12.735  1.00  0.00    +0.000 C 
ATOM     94  H4  UNL A   1      23.281  19.550  12.269  1.00  0.00    +0.000 H 
BRANCH    2    1
ATOM      1  C1  UNL A   1      22.793  18.183  13.924  1.00  0.00    +0.000 C 
ATOM     91  H1  UNL A   1      23.003  18.791  14.779  1.00  0.00    +0.000 H 
ATOM     92  H2  UNL A   1      23.029  17.163  14.146  1.00  0.00    +0.000 H 
ATOM     93  H3  UNL A   1      21.756  18.264  13.675  1.00  0.00    +0.000 H 
ENDBRANCH    2    1
BRANCH    2   78
ATOM    130  H40 UNL A   1      23.996  17.164   8.289  1.00  0.00    +0.000 H 
ATOM     78  C55 UNL A   1      23.574  17.644  11.595  1.00  0.00    +0.000 C 
ATOM     79  C56 UNL A   1      23.310  16.300  11.928  1.00  0.00    +0.000 C 
ATOM     80  C57 UNL A   1      23.339  15.287  10.966  1.00  0.00    +0.000 C 
ATOM     81  C58 UNL A   1      23.638  15.579   9.632  1.00  0.00    +0.000 C 
ATOM     88  C64 UNL A   1      23.817  16.918   9.275  1.00  0.00    +0.000 C 
ATOM     89  C65 UNL A   1      23.758  17.930  10.239  1.00  0.00    +0.000 C 
ATOM     90  F16 UNL A   1      23.862  19.188   9.796  1.00  0.00    +0.000 F 
ATOM    123  H33 UNL A   1      23.091  16.057  12.907  1.00  0.00    +0.000 H 
ATOM    124  H34 UNL A   1      23.138  14.313  11.242  1.00  0.00    +0.000 H 
BRANCH   81   82
ATOM     82  C59 UNL A   1      23.767  14.474   8.607  1.00  0.00    +0.000 C 
ATOM    125  H35 UNL A   1      24.008  13.564   9.116  1.00  0.00    +0.000 H 
ATOM    126  H36 UNL A   1      24.534  14.766   7.920  1.00  0.00    +0.000 H 
BRANCH   82   83
ATOM    129  H39 UNL A   1      20.349  14.040   5.077  1.00  0.00    +0.000 H 
ATOM     83  C60 UNL A   1      22.510  14.255   7.804  1.00  0.00    +0.000 C 
ATOM     84  C61 UNL A   1      21.236  13.962   8.258  1.00  0.00    +0.000 C 
ATOM     85  C62 UNL A   1      20.290  13.843   7.199  1.00  0.00    +0.000 C 
ATOM     86  C63 UNL A   1      20.866  14.067   5.969  1.00  0.00    +0.000 C 
ATOM     87  S1  UNL A   1      22.539  14.395   6.095  1.00  0.00    +0.000 S 
ATOM    127  H37 UNL A   1      20.997  13.842   9.254  1.00  0.00    +0.000 H 
ATOM    128  H38 UNL A   1      19.293  13.616   7.338  1.00  0.00    +0.000 H 
ENDBRANCH   82   83
ENDBRANCH   81   82
ENDBRANCH    2   78
ENDBRANCH    3    2
ENDBRANCH    5    3
ENDBRANCH    6    5
ENDBRANCH    7    6
ENDBRANCH    8    7
ENDBRANCH    9    8
ENDBRANCH   10    9
ENDBRANCH   11   10
ENDBRANCH   12   11
ENDBRANCH   13   12
ENDBRANCH   15   13
ENDBRANCH   19   18
BRANCH   23   24
ATOM     33  C24 UNL A   1      16.607  17.557   9.117  1.00  0.00    +0.000 C 
ATOM     34  F5  UNL A   1      16.597  18.857   9.445  1.00  0.00    +0.000 F 
ATOM     24  C19 UNL A   1      17.033  17.153   7.842  1.00  0.00    +0.000 C 
ATOM     25  C20 UNL A   1      17.029  15.781   7.552  1.00  0.00    +0.000 C 
ATOM     26  F1  UNL A   1      17.415  15.346   6.344  1.00  0.00    +0.000 F 
ATOM     27  C21 UNL A   1      16.591  14.851   8.492  1.00  0.00    +0.000 C 
ATOM     28  F2  UNL A   1      16.554  13.549   8.177  1.00  0.00    +0.000 F 
ATOM     29  C22 UNL A   1      16.180  15.272   9.747  1.00  0.00    +0.000 C 
ATOM     30  F3  UNL A   1      15.763  14.376  10.653  1.00  0.00    +0.000 F 
ATOM     31  C23 UNL A   1      16.194  16.623  10.064  1.00  0.00    +0.000 C 
ATOM     32  F4  UNL A   1      15.807  17.030  11.280  1.00  0.00    +0.000 F 
ENDBRANCH   23   24
BRANCH   40   41
ATOM     41  C30 UNL A   1      14.211  22.042   3.362  1.00  0.00    +0.000 C 
ATOM     42  C31 UNL A   1      13.589  23.032   4.136  1.00  0.00    +0.000 C 
ATOM     43  F6  UNL A   1      14.179  23.487   5.252  1.00  0.00    +0.000 F 
ATOM     44  C32 UNL A   1      12.340  23.535   3.783  1.00  0.00    +0.000 C 
ATOM     45  F7  UNL A   1      11.745  24.453   4.558  1.00  0.00    +0.000 F 
ATOM     46  C33 UNL A   1      11.703  23.077   2.639  1.00  0.00    +0.000 C 
ATOM     47  F8  UNL A   1      10.503  23.566   2.298  1.00  0.00    +0.000 F 
ATOM     48  C34 UNL A   1      12.307  22.108   1.853  1.00  0.00    +0.000 C 
ATOM     49  F9  UNL A   1      11.697  21.672   0.741  1.00  0.00    +0.000 F 
ATOM     50  C35 UNL A   1      13.545  21.586   2.214  1.00  0.00    +0.000 C 
ATOM     51  F10 UNL A   1      14.101  20.643   1.440  1.00  0.00    +0.000 F 
ENDBRANCH   40   41
BRANCH   55   56
ATOM     65  C44 UNL A   1      21.063  24.807   1.387  1.00  0.00    +0.000 C 
ATOM     66  F15 UNL A   1      21.030  25.222   2.661  1.00  0.00    +0.000 F 
ATOM     56  C39 UNL A   1      20.610  23.524   1.053  1.00  0.00    +0.000 C 
ATOM     57  C40 UNL A   1      20.661  23.139  -0.293  1.00  0.00    +0.000 C 
ATOM     58  F11 UNL A   1      20.258  21.912  -0.654  1.00  0.00    +0.000 F 
ATOM     59  C41 UNL A   1      21.160  24.001  -1.268  1.00  0.00    +0.000 C 
ATOM     60  F12 UNL A   1      21.231  23.595  -2.543  1.00  0.00    +0.000 F 
ATOM     61  C42 UNL A   1      21.594  25.270  -0.918  1.00  0.00    +0.000 C 
ATOM     62  F13 UNL A   1      22.070  26.100  -1.856  1.00  0.00    +0.000 F 
ATOM     63  C43 UNL A   1      21.540  25.676   0.408  1.00  0.00    +0.000 C 
ATOM     64  F14 UNL A   1      21.949  26.906   0.747  1.00  0.00    +0.000 F 
ENDBRANCH   55   56
TORSDOF 19
ENDMDL
MODEL 6
REMARK VINA RESULT:     -10.2      1.614      2.809
ROOT
ATOM     19  C15 UNL A   1      41.536  26.019  27.497  1.00  0.00    +0.000 C 
ATOM     20  C16 UNL A   1      40.821  27.097  28.262  1.00  0.00    +0.000 C 
ATOM     21  N3  UNL A   1      41.245  28.285  28.612  1.00  0.00    +0.000 N 
ATOM     22  C17 UNL A   1      40.176  28.893  29.257  1.00  0.00    +0.000 C 
ATOM     23  C18 UNL A   1      40.128  30.110  29.847  1.00  0.00    +0.000 C 
ATOM     35  C25 UNL A   1      41.238  31.024  29.920  1.00  0.00    +0.000 C 
ATOM     36  C26 UNL A   1      41.305  32.252  30.554  1.00  0.00    +0.000 C 
ATOM     37  C27 UNL A   1      42.577  32.791  30.327  1.00  0.00    +0.000 C 
ATOM     38  C28 UNL A   1      43.312  31.883  29.584  1.00  0.00    +0.000 C 
ATOM     39  N4  UNL A   1      42.477  30.805  29.337  1.00  0.00    +0.000 N 
ATOM     40  C29 UNL A   1      44.674  31.988  29.129  1.00  0.00    +0.000 C 
ATOM     52  C36 UNL A   1      45.330  31.044  28.412  1.00  0.00    +0.000 C 
ATOM     53  N5  UNL A   1      44.873  29.811  27.970  1.00  0.00    +0.000 N 
ATOM     54  C37 UNL A   1      45.870  29.271  27.314  1.00  0.00    +0.000 C 
ATOM     55  C38 UNL A   1      45.946  27.930  26.639  1.00  0.00    +0.000 C 
ATOM     67  C45 UNL A   1      44.885  27.102  26.693  1.00  0.00    +0.000 C 
ATOM     68  C46 UNL A   1      44.815  25.774  26.092  1.00  0.00    +0.000 C 
ATOM     69  C47 UNL A   1      43.596  25.257  26.311  1.00  0.00    +0.000 C 
ATOM     70  C48 UNL A   1      42.808  26.207  27.097  1.00  0.00    +0.000 C 
ATOM     71  N6  UNL A   1      43.656  27.270  27.283  1.00  0.00    +0.000 N 
ATOM     72  C49 UNL A   1      47.071  30.116  27.245  1.00  0.00    +0.000 C 
ATOM     73  C50 UNL A   1      46.701  31.170  27.959  1.00  0.00    +0.000 C 
ATOM     74  C51 UNL A   1      39.070  27.959  29.214  1.00  0.00    +0.000 C 
ATOM     75  C52 UNL A   1      39.435  26.810  28.664  1.00  0.00    +0.000 C 
ATOM    111  H21 UNL A   1      40.549  32.693  31.099  1.00  0.00    +0.000 H 
ATOM    112  H22 UNL A   1      42.910  33.710  30.659  1.00  0.00    +0.000 H 
ATOM    113  H23 UNL A   1      42.727  30.002  28.825  1.00  0.00    +0.000 H 
ATOM    114  H24 UNL A   1      45.580  25.307  25.581  1.00  0.00    +0.000 H 
ATOM    115  H25 UNL A   1      43.267  24.336  25.979  1.00  0.00    +0.000 H 
ATOM    116  H26 UNL A   1      43.408  28.075  27.792  1.00  0.00    +0.000 H 
ATOM    117  H27 UNL A   1      47.968  29.935  26.767  1.00  0.00    +0.000 H 
ATOM    118  H28 UNL A   1      47.310  31.976  28.166  1.00  0.00    +0.000 H 
ATOM    119  H29 UNL A   1      38.122  28.162  29.567  1.00  0.00    +0.000 H 
ATOM    120  H30 UNL A   1      38.890  25.941  28.548  1.00  0.00    +0.000 H 
ENDROOT
BRANCH   19   18
ATOM     76  C53 UNL A   1      39.724  24.841  26.249  1.00  0.00    +0.000 C 
ATOM    109  H19 UNL A   1      40.897  21.440  27.555  1.00  0.00    +0.000 H 
ATOM     77  C54 UNL A   1      39.042  23.683  25.884  1.00  0.00    +0.000 C 
ATOM     15  C11 UNL A   1      39.507  22.436  26.314  1.00  0.00    +0.000 C 
ATOM     16  C12 UNL A   1      40.583  22.358  27.203  1.00  0.00    +0.000 C 
ATOM     17  C13 UNL A   1      41.230  23.524  27.615  1.00  0.00    +0.000 C 
ATOM    110  H20 UNL A   1      42.010  23.469  28.288  1.00  0.00    +0.000 H 
ATOM     18  C14 UNL A   1      40.823  24.774  27.119  1.00  0.00    +0.000 C 
ATOM    121  H31 UNL A   1      39.418  25.755  25.879  1.00  0.00    +0.000 H 
ATOM    122  H32 UNL A   1      38.195  23.744  25.297  1.00  0.00    +0.000 H 
BRANCH   15   13
ATOM     13  C10 UNL A   1      38.866  21.182  25.859  1.00  0.00    +0.000 C 
ATOM     14  O2  UNL A   1      39.353  20.102  26.179  1.00  0.00    +0.000 O 
BRANCH   13   12
ATOM    108  H18 UNL A   1      37.913  21.265  24.100  1.00  0.00    +0.000 H 
ATOM     12  N2  UNL A   1      37.745  21.229  25.070  1.00  0.00    +0.000 N 
BRANCH   12   11
ATOM    106  H16 UNL A   1      35.951  20.248  25.339  1.00  0.00    +0.000 H 
ATOM     11  C9  UNL A   1      36.345  21.235  25.459  1.00  0.00    +0.000 C 
ATOM    107  H17 UNL A   1      36.292  21.557  26.479  1.00  0.00    +0.000 H 
BRANCH   11   10
ATOM    105  H15 UNL A   1      34.488  21.998  24.863  1.00  0.00    +0.000 H 
ATOM     10  C8  UNL A   1      35.511  22.201  24.622  1.00  0.00    +0.000 C 
ATOM    104  H14 UNL A   1      35.746  22.035  23.592  1.00  0.00    +0.000 H 
BRANCH   10    9
ATOM      9  C7  UNL A   1      35.736  23.683  24.929  1.00  0.00    +0.000 C 
ATOM    102  H12 UNL A   1      35.703  23.809  25.991  1.00  0.00    +0.000 H 
ATOM    103  H13 UNL A   1      36.681  23.936  24.497  1.00  0.00    +0.000 H 
BRANCH    9    8
ATOM    100  H10 UNL A   1      35.250  25.366  23.731  1.00  0.00    +0.000 H 
ATOM    101  H11 UNL A   1      34.057  24.029  23.723  1.00  0.00    +0.000 H 
ATOM      8  C6  UNL A   1      34.715  24.639  24.306  1.00  0.00    +0.000 C 
BRANCH    8    7
ATOM     98  H8  UNL A   1      34.430  26.093  25.831  1.00  0.00    +0.000 H 
ATOM     99  H9  UNL A   1      33.045  25.845  24.730  1.00  0.00    +0.000 H 
ATOM      7  C5  UNL A   1      33.822  25.387  25.305  1.00  0.00    +0.000 C 
BRANCH    7    6
ATOM     97  H7  UNL A   1      33.412  24.824  27.315  1.00  0.00    +0.000 H 
ATOM      6  C4  UNL A   1      33.125  24.493  26.340  1.00  0.00    +0.000 C 
ATOM     96  H6  UNL A   1      33.423  23.477  26.178  1.00  0.00    +0.000 H 
BRANCH    6    5
ATOM      5  N1  UNL A   1      31.677  24.581  26.237  1.00  0.00    +0.000 N 
ATOM     95  H5  UNL A   1      31.226  25.369  26.619  1.00  0.00    +0.000 H 
BRANCH    5    3
ATOM      3  C3  UNL A   1      30.910  23.612  25.630  1.00  0.00    +0.000 C 
ATOM      4  O1  UNL A   1      30.474  22.707  26.340  1.00  0.00    +0.000 O 
BRANCH    3    2
ATOM      2  C2  UNL A   1      30.584  23.785  24.144  1.00  0.00    +0.000 C 
ATOM     94  H4  UNL A   1      29.579  23.437  24.026  1.00  0.00    +0.000 H 
BRANCH    2    1
ATOM      1  C1  UNL A   1      31.624  22.970  23.356  1.00  0.00    +0.000 C 
ATOM     91  H1  UNL A   1      31.673  23.333  22.350  1.00  0.00    +0.000 H 
ATOM     92  H2  UNL A   1      31.338  21.940  23.350  1.00  0.00    +0.000 H 
ATOM     93  H3  UNL A   1      32.583  23.072  23.819  1.00  0.00    +0.000 H 
ENDBRANCH    2    1
BRANCH    2   78
ATOM    130  H40 UNL A   1      29.006  28.210  23.900  1.00  0.00    +0.000 H 
ATOM     78  C55 UNL A   1      30.501  25.208  23.594  1.00  0.00    +0.000 C 
ATOM     79  C56 UNL A   1      31.427  25.582  22.598  1.00  0.00    +0.000 C 
ATOM     80  C57 UNL A   1      31.499  26.893  22.120  1.00  0.00    +0.000 C 
ATOM     81  C58 UNL A   1      30.651  27.883  22.621  1.00  0.00    +0.000 C 
ATOM     88  C64 UNL A   1      29.673  27.506  23.546  1.00  0.00    +0.000 C 
ATOM     89  C65 UNL A   1      29.587  26.185  24.000  1.00  0.00    +0.000 C 
ATOM     90  F16 UNL A   1      28.573  25.897  24.822  1.00  0.00    +0.000 F 
ATOM    123  H33 UNL A   1      32.068  24.870  22.214  1.00  0.00    +0.000 H 
ATOM    124  H34 UNL A   1      32.186  27.132  21.388  1.00  0.00    +0.000 H 
BRANCH   81   82
ATOM     82  C59 UNL A   1      30.791  29.323  22.178  1.00  0.00    +0.000 C 
ATOM    125  H35 UNL A   1      30.913  29.340  21.114  1.00  0.00    +0.000 H 
ATOM    126  H36 UNL A   1      31.640  29.730  22.687  1.00  0.00    +0.000 H 
BRANCH   82   83
ATOM    129  H39 UNL A   1      26.587  31.901  22.249  1.00  0.00    +0.000 H 
ATOM     83  C60 UNL A   1      29.603  30.177  22.539  1.00  0.00    +0.000 C 
ATOM     84  C61 UNL A   1      29.352  30.853  23.719  1.00  0.00    +0.000 C 
ATOM     85  C62 UNL A   1      28.125  31.575  23.688  1.00  0.00    +0.000 C 
ATOM     86  C63 UNL A   1      27.484  31.445  22.477  1.00  0.00    +0.000 C 
ATOM     87  S1  UNL A   1      28.347  30.438  21.399  1.00  0.00    +0.000 S 
ATOM    127  H37 UNL A   1      29.985  30.835  24.534  1.00  0.00    +0.000 H 
ATOM    128  H38 UNL A   1      27.762  32.131  24.478  1.00  0.00    +0.000 H 
ENDBRANCH   82   83
ENDBRANCH   81   82
ENDBRANCH    2   78
ENDBRANCH    3    2
ENDBRANCH    5    3
ENDBRANCH    6    5
ENDBRANCH    7    6
ENDBRANCH    8    7
ENDBRANCH    9    8
ENDBRANCH   10    9
ENDBRANCH   11   10
ENDBRANCH   12   11
ENDBRANCH   13   12
ENDBRANCH   15   13
ENDBRANCH   19   18
BRANCH   23   24
ATOM     33  C24 UNL A   1      37.819  31.109  29.687  1.00  0.00    +0.000 C 
ATOM     34  F5  UNL A   1      37.998  31.278  28.368  1.00  0.00    +0.000 F 
ATOM     24  C19 UNL A   1      38.827  30.525  30.468  1.00  0.00    +0.000 C 
ATOM     25  C20 UNL A   1      38.590  30.376  31.843  1.00  0.00    +0.000 C 
ATOM     26  F1  UNL A   1      39.519  29.813  32.630  1.00  0.00    +0.000 F 
ATOM     27  C21 UNL A   1      37.381  30.773  32.408  1.00  0.00    +0.000 C 
ATOM     28  F2  UNL A   1      37.160  30.580  33.715  1.00  0.00    +0.000 F 
ATOM     29  C22 UNL A   1      36.401  31.352  31.617  1.00  0.00    +0.000 C 
ATOM     30  F3  UNL A   1      35.238  31.736  32.164  1.00  0.00    +0.000 F 
ATOM     31  C23 UNL A   1      36.620  31.527  30.259  1.00  0.00    +0.000 C 
ATOM     32  F4  UNL A   1      35.678  32.097  29.497  1.00  0.00    +0.000 F 
ENDBRANCH   23   24
BRANCH   40   41
ATOM     41  C30 UNL A   1      45.436  33.228  29.489  1.00  0.00    +0.000 C 
ATOM     42  C31 UNL A   1      45.412  34.366  28.670  1.00  0.00    +0.000 C 
ATOM     43  F6  UNL A   1      44.740  34.348  27.509  1.00  0.00    +0.000 F 
ATOM     44  C32 UNL A   1      46.109  35.518  29.026  1.00  0.00    +0.000 C 
ATOM     45  F7  UNL A   1      46.104  36.581  28.209  1.00  0.00    +0.000 F 
ATOM     46  C33 UNL A   1      46.818  35.561  30.217  1.00  0.00    +0.000 C 
ATOM     47  F8  UNL A   1      47.484  36.672  30.560  1.00  0.00    +0.000 F 
ATOM     48  C34 UNL A   1      46.844  34.452  31.048  1.00  0.00    +0.000 C 
ATOM     49  F9  UNL A   1      47.522  34.496  32.204  1.00  0.00    +0.000 F 
ATOM     50  C35 UNL A   1      46.168  33.291  30.684  1.00  0.00    +0.000 C 
ATOM     51  F10 UNL A   1      46.218  32.230  31.503  1.00  0.00    +0.000 F 
ENDBRANCH   40   41
BRANCH   55   56
ATOM     65  C44 UNL A   1      48.245  26.906  26.636  1.00  0.00    +0.000 C 
ATOM     66  F15 UNL A   1      48.159  26.717  27.961  1.00  0.00    +0.000 F 
ATOM     56  C39 UNL A   1      47.183  27.498  25.941  1.00  0.00    +0.000 C 
ATOM     57  C40 UNL A   1      47.323  27.678  24.558  1.00  0.00    +0.000 C 
ATOM     58  F11 UNL A   1      46.322  28.222  23.849  1.00  0.00    +0.000 F 
ATOM     59  C41 UNL A   1      48.476  27.267  23.893  1.00  0.00    +0.000 C 
ATOM     60  F12 UNL A   1      48.570  27.418  22.565  1.00  0.00    +0.000 F 
ATOM     61  C42 UNL A   1      49.520  26.692  24.602  1.00  0.00    +0.000 C 
ATOM     62  F13 UNL A   1      50.631  26.300  23.964  1.00  0.00    +0.000 F 
ATOM     63  C43 UNL A   1      49.407  26.516  25.974  1.00  0.00    +0.000 C 
ATOM     64  F14 UNL A   1      50.418  25.971  26.663  1.00  0.00    +0.000 F 
ENDBRANCH   55   56
TORSDOF 19
ENDMDL
MODEL 7
REMARK VINA RESULT:     -10.2     19.549     26.411
ROOT
ATOM     19  C15 UNL A   1      46.557  51.003  18.007  1.00  0.00    +0.000 C 
ATOM     20  C16 UNL A   1      47.551  50.608  19.062  1.00  0.00    +0.000 C 
ATOM     21  N3  UNL A   1      48.592  51.266  19.508  1.00  0.00    +0.000 N 
ATOM     22  C17 UNL A   1      49.138  50.474  20.509  1.00  0.00    +0.000 C 
ATOM     23  C18 UNL A   1      50.254  50.693  21.244  1.00  0.00    +0.000 C 
ATOM     35  C25 UNL A   1      51.114  51.837  21.096  1.00  0.00    +0.000 C 
ATOM     36  C26 UNL A   1      52.302  52.114  21.748  1.00  0.00    +0.000 C 
ATOM     37  C27 UNL A   1      52.767  53.356  21.300  1.00  0.00    +0.000 C 
ATOM     38  C28 UNL A   1      51.888  53.834  20.344  1.00  0.00    +0.000 C 
ATOM     39  N4  UNL A   1      50.876  52.894  20.231  1.00  0.00    +0.000 N 
ATOM     40  C29 UNL A   1      51.960  55.058  19.589  1.00  0.00    +0.000 C 
ATOM     52  C36 UNL A   1      51.061  55.451  18.655  1.00  0.00    +0.000 C 
ATOM     53  N5  UNL A   1      49.914  54.801  18.222  1.00  0.00    +0.000 N 
ATOM     54  C37 UNL A   1      49.376  55.583  17.319  1.00  0.00    +0.000 C 
ATOM     55  C38 UNL A   1      48.133  55.371  16.500  1.00  0.00    +0.000 C 
ATOM     67  C45 UNL A   1      47.433  54.230  16.644  1.00  0.00    +0.000 C 
ATOM     68  C46 UNL A   1      46.215  53.885  15.917  1.00  0.00    +0.000 C 
ATOM     69  C47 UNL A   1      45.772  52.692  16.345  1.00  0.00    +0.000 C 
ATOM     70  C48 UNL A   1      46.693  52.175  17.357  1.00  0.00    +0.000 C 
ATOM     71  N6  UNL A   1      47.652  53.151  17.464  1.00  0.00    +0.000 N 
ATOM     72  C49 UNL A   1      50.112  56.835  17.093  1.00  0.00    +0.000 C 
ATOM     73  C50 UNL A   1      51.148  56.689  17.907  1.00  0.00    +0.000 C 
ATOM     74  C51 UNL A   1      48.291  49.306  20.634  1.00  0.00    +0.000 C 
ATOM     75  C52 UNL A   1      47.331  49.311  19.721  1.00  0.00    +0.000 C 
ATOM    111  H21 UNL A   1      52.766  51.510  22.443  1.00  0.00    +0.000 H 
ATOM    112  H22 UNL A   1      53.622  53.834  21.628  1.00  0.00    +0.000 H 
ATOM    113  H23 UNL A   1      50.103  52.966  19.625  1.00  0.00    +0.000 H 
ATOM    114  H24 UNL A   1      45.768  54.464  15.189  1.00  0.00    +0.000 H 
ATOM    115  H25 UNL A   1      44.918  52.217  16.014  1.00  0.00    +0.000 H 
ATOM    116  H26 UNL A   1      48.425  53.083  18.071  1.00  0.00    +0.000 H 
ATOM    117  H27 UNL A   1      49.883  57.622  16.466  1.00  0.00    +0.000 H 
ATOM    118  H28 UNL A   1      51.918  57.370  17.997  1.00  0.00    +0.000 H 
ATOM    119  H29 UNL A   1      48.419  48.566  21.342  1.00  0.00    +0.000 H 
ATOM    120  H30 UNL A   1      46.617  48.593  19.523  1.00  0.00    +0.000 H 
ENDROOT
BRANCH   19   18
ATOM     76  C53 UNL A   1      44.161  50.403  18.361  1.00  0.00    +0.000 C 
ATOM    109  H19 UNL A   1      44.410  47.513  15.864  1.00  0.00    +0.000 H 
ATOM     77  C54 UNL A   1      43.049  49.602  18.110  1.00  0.00    +0.000 C 
ATOM     15  C11 UNL A   1      43.125  48.585  17.154  1.00  0.00    +0.000 C 
ATOM     16  C12 UNL A   1      44.345  48.294  16.536  1.00  0.00    +0.000 C 
ATOM     17  C13 UNL A   1      45.474  49.060  16.832  1.00  0.00    +0.000 C 
ATOM    110  H20 UNL A   1      46.379  48.832  16.392  1.00  0.00    +0.000 H 
ATOM     18  C14 UNL A   1      45.383  50.140  17.725  1.00  0.00    +0.000 C 
ATOM    121  H31 UNL A   1      44.085  51.195  19.019  1.00  0.00    +0.000 H 
ATOM    122  H32 UNL A   1      42.170  49.759  18.628  1.00  0.00    +0.000 H 
BRANCH   15   13
ATOM     13  C10 UNL A   1      41.934  47.785  16.791  1.00  0.00    +0.000 C 
ATOM     14  O2  UNL A   1      41.292  48.075  15.786  1.00  0.00    +0.000 O 
BRANCH   13   12
ATOM    108  H18 UNL A   1      40.609  46.780  17.908  1.00  0.00    +0.000 H 
ATOM     12  N2  UNL A   1      41.539  46.739  17.586  1.00  0.00    +0.000 N 
BRANCH   12   11
ATOM    106  H16 UNL A   1      43.042  45.357  17.285  1.00  0.00    +0.000 H 
ATOM     11  C9  UNL A   1      42.297  45.577  18.021  1.00  0.00    +0.000 C 
ATOM    107  H17 UNL A   1      42.739  45.812  18.967  1.00  0.00    +0.000 H 
BRANCH   11   10
ATOM    105  H15 UNL A   1      41.200  43.979  17.229  1.00  0.00    +0.000 H 
ATOM     10  C8  UNL A   1      41.418  44.345  18.211  1.00  0.00    +0.000 C 
ATOM    104  H14 UNL A   1      40.547  44.639  18.759  1.00  0.00    +0.000 H 
BRANCH   10    9
ATOM      9  C7  UNL A   1      42.081  43.187  18.960  1.00  0.00    +0.000 C 
ATOM    102  H12 UNL A   1      41.394  42.366  18.974  1.00  0.00    +0.000 H 
ATOM    103  H13 UNL A   1      42.990  42.975  18.437  1.00  0.00    +0.000 H 
BRANCH    9    8
ATOM    100  H10 UNL A   1      43.541  43.656  20.426  1.00  0.00    +0.000 H 
ATOM    101  H11 UNL A   1      41.910  44.345  20.698  1.00  0.00    +0.000 H 
ATOM      8  C6  UNL A   1      42.484  43.491  20.405  1.00  0.00    +0.000 C 
BRANCH    8    7
ATOM     98  H8  UNL A   1      41.422  41.744  20.992  1.00  0.00    +0.000 H 
ATOM     99  H9  UNL A   1      43.079  41.899  21.644  1.00  0.00    +0.000 H 
ATOM      7  C5  UNL A   1      42.156  42.392  21.424  1.00  0.00    +0.000 C 
BRANCH    7    6
ATOM     97  H7  UNL A   1      41.417  42.056  23.392  1.00  0.00    +0.000 H 
ATOM      6  C4  UNL A   1      41.609  42.902  22.766  1.00  0.00    +0.000 C 
ATOM     96  H6  UNL A   1      40.710  43.456  22.587  1.00  0.00    +0.000 H 
BRANCH    6    5
ATOM      5  N1  UNL A   1      42.566  43.761  23.444  1.00  0.00    +0.000 N 
ATOM     95  H5  UNL A   1      42.453  44.737  23.373  1.00  0.00    +0.000 H 
BRANCH    5    3
ATOM      3  C3  UNL A   1      43.623  43.271  24.177  1.00  0.00    +0.000 C 
ATOM      4  O1  UNL A   1      43.408  42.299  24.900  1.00  0.00    +0.000 O 
BRANCH    3    2
ATOM      2  C2  UNL A   1      44.998  43.912  23.968  1.00  0.00    +0.000 C 
ATOM     94  H4  UNL A   1      45.711  43.157  24.223  1.00  0.00    +0.000 H 
BRANCH    2    1
ATOM      1  C1  UNL A   1      45.057  45.157  24.868  1.00  0.00    +0.000 C 
ATOM     91  H1  UNL A   1      44.814  46.026  24.292  1.00  0.00    +0.000 H 
ATOM     92  H2  UNL A   1      46.043  45.260  25.270  1.00  0.00    +0.000 H 
ATOM     93  H3  UNL A   1      44.355  45.053  25.668  1.00  0.00    +0.000 H 
ENDBRANCH    2    1
BRANCH    2   78
ATOM    130  H40 UNL A   1      46.334  43.063  19.538  1.00  0.00    +0.000 H 
ATOM     78  C55 UNL A   1      45.405  44.273  22.540  1.00  0.00    +0.000 C 
ATOM     79  C56 UNL A   1      45.332  45.628  22.159  1.00  0.00    +0.000 C 
ATOM     80  C57 UNL A   1      45.575  46.035  20.844  1.00  0.00    +0.000 C 
ATOM     81  C58 UNL A   1      45.896  45.100  19.857  1.00  0.00    +0.000 C 
ATOM     88  C64 UNL A   1      46.055  43.765  20.240  1.00  0.00    +0.000 C 
ATOM     89  C65 UNL A   1      45.838  43.370  21.564  1.00  0.00    +0.000 C 
ATOM     90  F16 UNL A   1      46.089  42.090  21.857  1.00  0.00    +0.000 F 
ATOM    123  H33 UNL A   1      45.093  46.339  22.869  1.00  0.00    +0.000 H 
ATOM    124  H34 UNL A   1      45.517  47.036  20.600  1.00  0.00    +0.000 H 
BRANCH   81   82
ATOM     82  C59 UNL A   1      46.064  45.523  18.414  1.00  0.00    +0.000 C 
ATOM    125  H35 UNL A   1      45.438  46.373  18.234  1.00  0.00    +0.000 H 
ATOM    126  H36 UNL A   1      45.791  44.686  17.805  1.00  0.00    +0.000 H 
BRANCH   82   83
ATOM    129  H39 UNL A   1      50.274  46.768  16.167  1.00  0.00    +0.000 H 
ATOM     83  C60 UNL A   1      47.482  45.889  18.061  1.00  0.00    +0.000 C 
ATOM     84  C61 UNL A   1      48.589  45.952  18.888  1.00  0.00    +0.000 C 
ATOM     85  C62 UNL A   1      49.776  46.320  18.191  1.00  0.00    +0.000 C 
ATOM     86  C63 UNL A   1      49.543  46.509  16.847  1.00  0.00    +0.000 C 
ATOM     87  S1  UNL A   1      47.901  46.267  16.440  1.00  0.00    +0.000 S 
ATOM    127  H37 UNL A   1      48.559  45.754  19.900  1.00  0.00    +0.000 H 
ATOM    128  H38 UNL A   1      50.699  46.431  18.639  1.00  0.00    +0.000 H 
ENDBRANCH   82   83
ENDBRANCH   81   82
ENDBRANCH    2   78
ENDBRANCH    3    2
ENDBRANCH    5    3
ENDBRANCH    6    5
ENDBRANCH    7    6
ENDBRANCH    8    7
ENDBRANCH    9    8
ENDBRANCH   10    9
ENDBRANCH   11   10
ENDBRANCH   12   11
ENDBRANCH   13   12
ENDBRANCH   15   13
ENDBRANCH   19   18
BRANCH   23   24
ATOM     33  C24 UNL A   1      51.347  48.525  21.922  1.00  0.00    +0.000 C 
ATOM     34  F5  UNL A   1      51.760  48.354  20.658  1.00  0.00    +0.000 F 
ATOM     24  C19 UNL A   1      50.612  49.666  22.278  1.00  0.00    +0.000 C 
ATOM     25  C20 UNL A   1      50.201  49.794  23.612  1.00  0.00    +0.000 C 
ATOM     26  F1  UNL A   1      49.507  50.873  24.003  1.00  0.00    +0.000 F 
ATOM     27  C21 UNL A   1      50.534  48.830  24.560  1.00  0.00    +0.000 C 
ATOM     28  F2  UNL A   1      50.169  48.995  25.838  1.00  0.00    +0.000 F 
ATOM     29  C22 UNL A   1      51.257  47.707  24.185  1.00  0.00    +0.000 C 
ATOM     30  F3  UNL A   1      51.574  46.778  25.098  1.00  0.00    +0.000 F 
ATOM     31  C23 UNL A   1      51.657  47.550  22.867  1.00  0.00    +0.000 C 
ATOM     32  F4  UNL A   1      52.346  46.460  22.502  1.00  0.00    +0.000 F 
ENDBRANCH   23   24
BRANCH   40   41
ATOM     41  C30 UNL A   1      53.130  55.963  19.837  1.00  0.00    +0.000 C 
ATOM     42  C31 UNL A   1      53.058  57.015  20.761  1.00  0.00    +0.000 C 
ATOM     43  F6  UNL A   1      51.911  57.266  21.410  1.00  0.00    +0.000 F 
ATOM     44  C32 UNL A   1      54.158  57.835  20.996  1.00  0.00    +0.000 C 
ATOM     45  F7  UNL A   1      54.057  58.860  21.854  1.00  0.00    +0.000 F 
ATOM     46  C33 UNL A   1      55.354  57.603  20.332  1.00  0.00    +0.000 C 
ATOM     47  F8  UNL A   1      56.413  58.391  20.564  1.00  0.00    +0.000 F 
ATOM     48  C34 UNL A   1      55.450  56.560  19.425  1.00  0.00    +0.000 C 
ATOM     49  F9  UNL A   1      56.608  56.328  18.790  1.00  0.00    +0.000 F 
ATOM     50  C35 UNL A   1      54.346  55.752  19.170  1.00  0.00    +0.000 C 
ATOM     51  F10 UNL A   1      54.465  54.756  18.280  1.00  0.00    +0.000 F 
ENDBRANCH   40   41
BRANCH   55   56
ATOM     65  C44 UNL A   1      47.958  56.254  14.149  1.00  0.00    +0.000 C 
ATOM     66  F15 UNL A   1      48.634  55.186  13.701  1.00  0.00    +0.000 F 
ATOM     56  C39 UNL A   1      47.686  56.390  15.517  1.00  0.00    +0.000 C 
ATOM     57  C40 UNL A   1      46.981  57.526  15.936  1.00  0.00    +0.000 C 
ATOM     58  F11 UNL A   1      46.680  57.687  17.233  1.00  0.00    +0.000 F 
ATOM     59  C41 UNL A   1      46.550  58.483  15.019  1.00  0.00    +0.000 C 
ATOM     60  F12 UNL A   1      45.845  59.541  15.441  1.00  0.00    +0.000 F 
ATOM     61  C42 UNL A   1      46.837  58.333  13.671  1.00  0.00    +0.000 C 
ATOM     62  F13 UNL A   1      46.426  59.255  12.790  1.00  0.00    +0.000 F 
ATOM     63  C43 UNL A   1      47.546  57.222  13.236  1.00  0.00    +0.000 C 
ATOM     64  F14 UNL A   1      47.835  57.081  11.936  1.00  0.00    +0.000 F 
ENDBRANCH   55   56
TORSDOF 19
ENDMDL
MODEL 8
REMARK VINA RESULT:     -10.1     24.515     32.740
ROOT
ATOM     19  C15 UNL A   1      22.138  19.202   4.939  1.00  0.00    +0.000 C 
ATOM     20  C16 UNL A   1      20.962  18.575   5.632  1.00  0.00    +0.000 C 
ATOM     21  N3  UNL A   1      19.684  18.814   5.475  1.00  0.00    +0.000 N 
ATOM     22  C17 UNL A   1      19.028  17.930   6.322  1.00  0.00    +0.000 C 
ATOM     23  C18 UNL A   1      17.700  17.817   6.559  1.00  0.00    +0.000 C 
ATOM     35  C25 UNL A   1      16.692  18.645   5.951  1.00  0.00    +0.000 C 
ATOM     36  C26 UNL A   1      15.327  18.650   6.178  1.00  0.00    +0.000 C 
ATOM     37  C27 UNL A   1      14.747  19.605   5.335  1.00  0.00    +0.000 C 
ATOM     38  C28 UNL A   1      15.755  20.219   4.610  1.00  0.00    +0.000 C 
ATOM     39  N4  UNL A   1      16.943  19.618   4.995  1.00  0.00    +0.000 N 
ATOM     40  C29 UNL A   1      15.646  21.274   3.637  1.00  0.00    +0.000 C 
ATOM     52  C36 UNL A   1      16.688  21.834   2.977  1.00  0.00    +0.000 C 
ATOM     53  N5  UNL A   1      18.041  21.543   3.076  1.00  0.00    +0.000 N 
ATOM     54  C37 UNL A   1      18.646  22.342   2.233  1.00  0.00    +0.000 C 
ATOM     55  C38 UNL A   1      20.114  22.478   1.940  1.00  0.00    +0.000 C 
ATOM     67  C45 UNL A   1      20.996  21.720   2.618  1.00  0.00    +0.000 C 
ATOM     68  C46 UNL A   1      22.445  21.747   2.446  1.00  0.00    +0.000 C 
ATOM     69  C47 UNL A   1      23.000  20.832   3.257  1.00  0.00    +0.000 C 
ATOM     70  C48 UNL A   1      21.945  20.175   4.030  1.00  0.00    +0.000 C 
ATOM     71  N6  UNL A   1      20.790  20.772   3.590  1.00  0.00    +0.000 N 
ATOM     72  C49 UNL A   1      17.736  23.219   1.480  1.00  0.00    +0.000 C 
ATOM     73  C50 UNL A   1      16.559  22.894   1.996  1.00  0.00    +0.000 C 
ATOM     74  C51 UNL A   1      20.045  17.121   6.959  1.00  0.00    +0.000 C 
ATOM     75  C52 UNL A   1      21.261  17.520   6.613  1.00  0.00    +0.000 C 
ATOM    111  H21 UNL A   1      14.823  18.054   6.852  1.00  0.00    +0.000 H 
ATOM    112  H22 UNL A   1      13.739  19.817   5.265  1.00  0.00    +0.000 H 
ATOM    113  H23 UNL A   1      17.832  19.848   4.643  1.00  0.00    +0.000 H 
ATOM    114  H24 UNL A   1      22.961  22.370   1.805  1.00  0.00    +0.000 H 
ATOM    115  H25 UNL A   1      24.009  20.625   3.324  1.00  0.00    +0.000 H 
ATOM    116  H26 UNL A   1      19.898  20.541   3.938  1.00  0.00    +0.000 H 
ATOM    117  H27 UNL A   1      17.957  23.908   0.744  1.00  0.00    +0.000 H 
ATOM    118  H28 UNL A   1      15.666  23.337   1.734  1.00  0.00    +0.000 H 
ATOM    119  H29 UNL A   1      19.850  16.336   7.600  1.00  0.00    +0.000 H 
ATOM    120  H30 UNL A   1      22.177  17.180   6.946  1.00  0.00    +0.000 H 
ENDROOT
BRANCH   19   18
ATOM     76  C53 UNL A   1      24.350  19.407   6.078  1.00  0.00    +0.000 C 
ATOM    109  H19 UNL A   1      25.605  16.182   4.444  1.00  0.00    +0.000 H 
ATOM     77  C54 UNL A   1      25.642  18.954   6.335  1.00  0.00    +0.000 C 
ATOM     15  C11 UNL A   1      26.078  17.745   5.784  1.00  0.00    +0.000 C 
ATOM     16  C12 UNL A   1      25.264  17.051   4.884  1.00  0.00    +0.000 C 
ATOM     17  C13 UNL A   1      23.990  17.536   4.583  1.00  0.00    +0.000 C 
ATOM    110  H20 UNL A   1      23.397  17.035   3.903  1.00  0.00    +0.000 H 
ATOM     18  C14 UNL A   1      23.512  18.703   5.200  1.00  0.00    +0.000 C 
ATOM    121  H31 UNL A   1      24.006  20.265   6.537  1.00  0.00    +0.000 H 
ATOM    122  H32 UNL A   1      26.277  19.510   6.930  1.00  0.00    +0.000 H 
BRANCH   15   13
ATOM     13  C10 UNL A   1      27.407  17.187   6.120  1.00  0.00    +0.000 C 
ATOM     14  O2  UNL A   1      27.534  15.977   6.277  1.00  0.00    +0.000 O 
BRANCH   13   12
ATOM    108  H18 UNL A   1      29.060  18.117   5.477  1.00  0.00    +0.000 H 
ATOM     12  N2  UNL A   1      28.485  18.022   6.272  1.00  0.00    +0.000 N 
BRANCH   12   11
ATOM    106  H16 UNL A   1      29.937  19.035   7.331  1.00  0.00    +0.000 H 
ATOM     11  C9  UNL A   1      28.902  18.783   7.438  1.00  0.00    +0.000 C 
ATOM    107  H17 UNL A   1      28.290  19.659   7.491  1.00  0.00    +0.000 H 
BRANCH   11   10
ATOM    105  H15 UNL A   1      29.616  18.151   9.302  1.00  0.00    +0.000 H 
ATOM     10  C8  UNL A   1      28.718  18.007   8.738  1.00  0.00    +0.000 C 
ATOM    104  H14 UNL A   1      28.532  16.983   8.490  1.00  0.00    +0.000 H 
BRANCH   10    9
ATOM      9  C7  UNL A   1      27.572  18.496   9.627  1.00  0.00    +0.000 C 
ATOM    102  H12 UNL A   1      26.706  17.910   9.400  1.00  0.00    +0.000 H 
ATOM    103  H13 UNL A   1      27.911  18.386  10.636  1.00  0.00    +0.000 H 
BRANCH    9    8
ATOM    100  H10 UNL A   1      27.950  20.433   8.847  1.00  0.00    +0.000 H 
ATOM    101  H11 UNL A   1      26.225  19.984   9.026  1.00  0.00    +0.000 H 
ATOM      8  C6  UNL A   1      27.203  19.972   9.460  1.00  0.00    +0.000 C 
BRANCH    8    7
ATOM     98  H8  UNL A   1      27.912  20.490  11.396  1.00  0.00    +0.000 H 
ATOM     99  H9  UNL A   1      27.119  21.807  10.484  1.00  0.00    +0.000 H 
ATOM      7  C5  UNL A   1      27.098  20.774  10.763  1.00  0.00    +0.000 C 
BRANCH    7    6
ATOM     97  H7  UNL A   1      25.075  20.123  10.884  1.00  0.00    +0.000 H 
ATOM      6  C4  UNL A   1      25.791  20.564  11.544  1.00  0.00    +0.000 C 
ATOM     96  H6  UNL A   1      25.446  21.512  11.904  1.00  0.00    +0.000 H 
BRANCH    6    5
ATOM      5  N1  UNL A   1      25.980  19.670  12.675  1.00  0.00    +0.000 N 
ATOM     95  H5  UNL A   1      26.779  19.789  13.239  1.00  0.00    +0.000 H 
BRANCH    5    3
ATOM      3  C3  UNL A   1      25.093  18.666  12.990  1.00  0.00    +0.000 C 
ATOM      4  O1  UNL A   1      25.346  17.975  13.975  1.00  0.00    +0.000 O 
BRANCH    3    2
ATOM      2  C2  UNL A   1      23.819  18.547  12.149  1.00  0.00    +0.000 C 
ATOM     94  H4  UNL A   1      23.759  19.454  11.584  1.00  0.00    +0.000 H 
BRANCH    2    1
ATOM      1  C1  UNL A   1      22.649  18.343  13.127  1.00  0.00    +0.000 C 
ATOM     91  H1  UNL A   1      21.765  18.790  12.723  1.00  0.00    +0.000 H 
ATOM     92  H2  UNL A   1      22.885  18.802  14.064  1.00  0.00    +0.000 H 
ATOM     93  H3  UNL A   1      22.485  17.297  13.273  1.00  0.00    +0.000 H 
ENDBRANCH    2    1
BRANCH    2   78
ATOM    130  H40 UNL A   1      24.234  16.867   7.774  1.00  0.00    +0.000 H 
ATOM     78  C55 UNL A   1      23.784  17.481  11.055  1.00  0.00    +0.000 C 
ATOM     79  C56 UNL A   1      23.563  16.145  11.447  1.00  0.00    +0.000 C 
ATOM     80  C57 UNL A   1      23.629  15.091  10.531  1.00  0.00    +0.000 C 
ATOM     81  C58 UNL A   1      23.922  15.333   9.187  1.00  0.00    +0.000 C 
ATOM     88  C64 UNL A   1      24.059  16.660   8.770  1.00  0.00    +0.000 C 
ATOM     89  C65 UNL A   1      23.964  17.712   9.688  1.00  0.00    +0.000 C 
ATOM     90  F16 UNL A   1      24.028  18.951   9.189  1.00  0.00    +0.000 F 
ATOM    123  H33 UNL A   1      23.349  15.939  12.436  1.00  0.00    +0.000 H 
ATOM    124  H34 UNL A   1      23.459  14.125  10.851  1.00  0.00    +0.000 H 
BRANCH   81   82
ATOM     82  C59 UNL A   1      24.091  14.188   8.212  1.00  0.00    +0.000 C 
ATOM    125  H35 UNL A   1      24.187  13.279   8.769  1.00  0.00    +0.000 H 
ATOM    126  H36 UNL A   1      24.963  14.396   7.627  1.00  0.00    +0.000 H 
BRANCH   82   83
ATOM    129  H39 UNL A   1      19.757  13.296   6.032  1.00  0.00    +0.000 H 
ATOM     83  C60 UNL A   1      22.935  14.044   7.256  1.00  0.00    +0.000 C 
ATOM     84  C61 UNL A   1      22.903  14.294   5.896  1.00  0.00    +0.000 C 
ATOM     85  C62 UNL A   1      21.629  14.025   5.318  1.00  0.00    +0.000 C 
ATOM     86  C63 UNL A   1      20.731  13.560   6.251  1.00  0.00    +0.000 C 
ATOM     87  S1  UNL A   1      21.417  13.472   7.815  1.00  0.00    +0.000 S 
ATOM    127  H37 UNL A   1      23.714  14.638   5.359  1.00  0.00    +0.000 H 
ATOM    128  H38 UNL A   1      21.407  14.163   4.320  1.00  0.00    +0.000 H 
ENDBRANCH   82   83
ENDBRANCH   81   82
ENDBRANCH    2   78
ENDBRANCH    3    2
ENDBRANCH    5    3
ENDBRANCH    6    5
ENDBRANCH    7    6
ENDBRANCH    8    7
ENDBRANCH    9    8
ENDBRANCH   10    9
ENDBRANCH   11   10
ENDBRANCH   12   11
ENDBRANCH   13   12
ENDBRANCH   15   13
ENDBRANCH   19   18
BRANCH   23   24
ATOM     33  C24 UNL A   1      17.220  15.410   7.136  1.00  0.00    +0.000 C 
ATOM     34  F5  UNL A   1      17.603  15.053   5.901  1.00  0.00    +0.000 F 
ATOM     24  C19 UNL A   1      17.259  16.757   7.525  1.00  0.00    +0.000 C 
ATOM     25  C20 UNL A   1      16.843  17.078   8.825  1.00  0.00    +0.000 C 
ATOM     26  F1  UNL A   1      16.873  18.351   9.248  1.00  0.00    +0.000 F 
ATOM     27  C21 UNL A   1      16.428  16.086   9.710  1.00  0.00    +0.000 C 
ATOM     28  F2  UNL A   1      16.078  16.411  10.962  1.00  0.00    +0.000 F 
ATOM     29  C22 UNL A   1      16.393  14.761   9.302  1.00  0.00    +0.000 C 
ATOM     30  F3  UNL A   1      15.991  13.807  10.153  1.00  0.00    +0.000 F 
ATOM     31  C23 UNL A   1      16.781  14.423   8.014  1.00  0.00    +0.000 C 
ATOM     32  F4  UNL A   1      16.738  13.145   7.616  1.00  0.00    +0.000 F 
ENDBRANCH   23   24
BRANCH   40   41
ATOM     41  C30 UNL A   1      14.279  21.812   3.341  1.00  0.00    +0.000 C 
ATOM     42  C31 UNL A   1      13.496  21.290   2.302  1.00  0.00    +0.000 C 
ATOM     43  F6  UNL A   1      13.982  20.321   1.512  1.00  0.00    +0.000 F 
ATOM     44  C32 UNL A   1      12.219  21.786   2.051  1.00  0.00    +0.000 C 
ATOM     45  F7  UNL A   1      11.502  21.298   1.028  1.00  0.00    +0.000 F 
ATOM     46  C33 UNL A   1      11.695  22.793   2.847  1.00  0.00    +0.000 C 
ATOM     47  F8  UNL A   1      10.464  23.265   2.606  1.00  0.00    +0.000 F 
ATOM     48  C34 UNL A   1      12.447  23.315   3.887  1.00  0.00    +0.000 C 
ATOM     49  F9  UNL A   1      11.937  24.282   4.664  1.00  0.00    +0.000 F 
ATOM     50  C35 UNL A   1      13.732  22.838   4.128  1.00  0.00    +0.000 C 
ATOM     51  F10 UNL A   1      14.441  23.367   5.135  1.00  0.00    +0.000 F 
ENDBRANCH   40   41
BRANCH   55   56
ATOM     65  C44 UNL A   1      20.687  23.127  -0.424  1.00  0.00    +0.000 C 
ATOM     66  F15 UNL A   1      20.322  21.907  -0.844  1.00  0.00    +0.000 F 
ATOM     56  C39 UNL A   1      20.602  23.457   0.936  1.00  0.00    +0.000 C 
ATOM     57  C40 UNL A   1      20.998  24.743   1.325  1.00  0.00    +0.000 C 
ATOM     58  F11 UNL A   1      20.914  25.108   2.612  1.00  0.00    +0.000 F 
ATOM     59  C41 UNL A   1      21.449  25.671   0.387  1.00  0.00    +0.000 C 
ATOM     60  F12 UNL A   1      21.788  26.906   0.781  1.00  0.00    +0.000 F 
ATOM     61  C42 UNL A   1      21.533  25.321  -0.952  1.00  0.00    +0.000 C 
ATOM     62  F13 UNL A   1      21.970  26.211  -1.853  1.00  0.00    +0.000 F 
ATOM     63  C43 UNL A   1      21.158  24.048  -1.357  1.00  0.00    +0.000 C 
ATOM     64  F14 UNL A   1      21.249  23.704  -2.649  1.00  0.00    +0.000 F 
ENDBRANCH   55   56
TORSDOF 19
ENDMDL
MODEL 9
REMARK VINA RESULT:     -10.1     20.010     26.936
ROOT
ATOM     19  C15 UNL A   1      46.616  50.984  18.022  1.00  0.00    +0.000 C 
ATOM     20  C16 UNL A   1      47.618  50.599  19.073  1.00  0.00    +0.000 C 
ATOM     21  N3  UNL A   1      48.650  51.270  19.520  1.00  0.00    +0.000 N 
ATOM     22  C17 UNL A   1      49.210  50.483  20.517  1.00  0.00    +0.000 C 
ATOM     23  C18 UNL A   1      50.324  50.715  21.249  1.00  0.00    +0.000 C 
ATOM     35  C25 UNL A   1      51.167  51.872  21.103  1.00  0.00    +0.000 C 
ATOM     36  C26 UNL A   1      52.353  52.164  21.754  1.00  0.00    +0.000 C 
ATOM     37  C27 UNL A   1      52.799  53.414  21.310  1.00  0.00    +0.000 C 
ATOM     38  C28 UNL A   1      51.910  53.883  20.358  1.00  0.00    +0.000 C 
ATOM     39  N4  UNL A   1      50.912  52.929  20.243  1.00  0.00    +0.000 N 
ATOM     40  C29 UNL A   1      51.963  55.110  19.607  1.00  0.00    +0.000 C 
ATOM     52  C36 UNL A   1      51.056  55.494  18.677  1.00  0.00    +0.000 C 
ATOM     53  N5  UNL A   1      49.917  54.829  18.244  1.00  0.00    +0.000 N 
ATOM     54  C37 UNL A   1      49.366  55.606  17.345  1.00  0.00    +0.000 C 
ATOM     55  C38 UNL A   1      48.124  55.380  16.529  1.00  0.00    +0.000 C 
ATOM     67  C45 UNL A   1      47.441  54.228  16.670  1.00  0.00    +0.000 C 
ATOM     68  C46 UNL A   1      46.227  53.868  15.944  1.00  0.00    +0.000 C 
ATOM     69  C47 UNL A   1      45.802  52.667  16.369  1.00  0.00    +0.000 C 
ATOM     70  C48 UNL A   1      46.733  52.160  17.377  1.00  0.00    +0.000 C 
ATOM     71  N6  UNL A   1      47.679  53.149  17.486  1.00  0.00    +0.000 N 
ATOM     72  C49 UNL A   1      50.083  56.870  17.123  1.00  0.00    +0.000 C 
ATOM     73  C50 UNL A   1      51.123  56.736  17.934  1.00  0.00    +0.000 C 
ATOM     74  C51 UNL A   1      48.381  49.302  20.639  1.00  0.00    +0.000 C 
ATOM     75  C52 UNL A   1      47.419  49.296  19.728  1.00  0.00    +0.000 C 
ATOM    111  H21 UNL A   1      52.827  51.564  22.446  1.00  0.00    +0.000 H 
ATOM    112  H22 UNL A   1      53.647  53.903  21.637  1.00  0.00    +0.000 H 
ATOM    113  H23 UNL A   1      50.137  52.992  19.640  1.00  0.00    +0.000 H 
ATOM    114  H24 UNL A   1      45.769  54.443  15.220  1.00  0.00    +0.000 H 
ATOM    115  H25 UNL A   1      44.954  52.181  16.038  1.00  0.00    +0.000 H 
ATOM    116  H26 UNL A   1      48.453  53.090  18.090  1.00  0.00    +0.000 H 
ATOM    117  H27 UNL A   1      49.841  57.656  16.499  1.00  0.00    +0.000 H 
ATOM    118  H28 UNL A   1      51.884  57.428  18.025  1.00  0.00    +0.000 H 
ATOM    119  H29 UNL A   1      48.521  48.561  21.344  1.00  0.00    +0.000 H 
ATOM    120  H30 UNL A   1      46.715  48.568  19.528  1.00  0.00    +0.000 H 
ENDROOT
BRANCH   19   18
ATOM     76  C53 UNL A   1      44.233  50.340  18.389  1.00  0.00    +0.000 C 
ATOM    109  H19 UNL A   1      44.509  47.484  15.856  1.00  0.00    +0.000 H 
ATOM     77  C54 UNL A   1      43.132  49.524  18.138  1.00  0.00    +0.000 C 
ATOM     15  C11 UNL A   1      43.217  48.519  17.169  1.00  0.00    +0.000 C 
ATOM     16  C12 UNL A   1      44.436  48.255  16.538  1.00  0.00    +0.000 C 
ATOM     17  C13 UNL A   1      45.554  49.037  16.833  1.00  0.00    +0.000 C 
ATOM    110  H20 UNL A   1      46.459  48.829  16.383  1.00  0.00    +0.000 H 
ATOM     18  C14 UNL A   1      45.454  50.104  17.740  1.00  0.00    +0.000 C 
ATOM    121  H31 UNL A   1      44.149  51.122  19.057  1.00  0.00    +0.000 H 
ATOM    122  H32 UNL A   1      42.255  49.660  18.665  1.00  0.00    +0.000 H 
BRANCH   15   13
ATOM     13  C10 UNL A   1      42.036  47.704  16.807  1.00  0.00    +0.000 C 
ATOM     14  O2  UNL A   1      41.369  48.008  15.822  1.00  0.00    +0.000 O 
BRANCH   13   12
ATOM    108  H18 UNL A   1      41.461  46.834  18.516  1.00  0.00    +0.000 H 
ATOM     12  N2  UNL A   1      41.679  46.627  17.578  1.00  0.00    +0.000 N 
BRANCH   12   11
ATOM    106  H16 UNL A   1      41.271  45.159  16.188  1.00  0.00    +0.000 H 
ATOM     11  C9  UNL A   1      41.579  45.224  17.211  1.00  0.00    +0.000 C 
ATOM    107  H17 UNL A   1      42.541  44.779  17.360  1.00  0.00    +0.000 H 
BRANCH   11   10
ATOM    105  H15 UNL A   1      39.855  44.052  17.399  1.00  0.00    +0.000 H 
ATOM     10  C8  UNL A   1      40.575  44.466  18.074  1.00  0.00    +0.000 C 
ATOM    104  H14 UNL A   1      40.154  45.154  18.776  1.00  0.00    +0.000 H 
BRANCH   10    9
ATOM      9  C7  UNL A   1      41.156  43.286  18.856  1.00  0.00    +0.000 C 
ATOM    102  H12 UNL A   1      40.356  42.612  19.081  1.00  0.00    +0.000 H 
ATOM    103  H13 UNL A   1      41.912  42.858  18.231  1.00  0.00    +0.000 H 
BRANCH    9    8
ATOM    100  H10 UNL A   1      42.587  44.399  19.958  1.00  0.00    +0.000 H 
ATOM    101  H11 UNL A   1      41.075  43.989  20.828  1.00  0.00    +0.000 H 
ATOM      8  C6  UNL A   1      41.849  43.653  20.170  1.00  0.00    +0.000 C 
BRANCH    8    7
ATOM     98  H8  UNL A   1      41.800  41.938  21.427  1.00  0.00    +0.000 H 
ATOM     99  H9  UNL A   1      43.037  41.918  20.138  1.00  0.00    +0.000 H 
ATOM      7  C5  UNL A   1      42.544  42.492  20.894  1.00  0.00    +0.000 C 
BRANCH    7    6
ATOM     97  H7  UNL A   1      44.289  42.086  22.042  1.00  0.00    +0.000 H 
ATOM      6  C4  UNL A   1      43.631  42.915  21.894  1.00  0.00    +0.000 C 
ATOM     96  H6  UNL A   1      43.163  43.201  22.813  1.00  0.00    +0.000 H 
BRANCH    6    5
ATOM      5  N1  UNL A   1      44.413  44.034  21.394  1.00  0.00    +0.000 N 
ATOM     95  H5  UNL A   1      43.940  44.781  20.959  1.00  0.00    +0.000 H 
BRANCH    5    3
ATOM      3  C3  UNL A   1      45.784  44.095  21.500  1.00  0.00    +0.000 C 
ATOM      4  O1  UNL A   1      46.377  43.054  21.779  1.00  0.00    +0.000 O 
BRANCH    3    2
ATOM      2  C2  UNL A   1      46.469  45.425  21.174  1.00  0.00    +0.000 C 
ATOM     94  H4  UNL A   1      47.311  45.486  21.831  1.00  0.00    +0.000 H 
BRANCH    2    1
ATOM      1  C1  UNL A   1      45.425  46.535  21.391  1.00  0.00    +0.000 C 
ATOM     91  H1  UNL A   1      44.612  46.397  20.710  1.00  0.00    +0.000 H 
ATOM     92  H2  UNL A   1      45.878  47.488  21.218  1.00  0.00    +0.000 H 
ATOM     93  H3  UNL A   1      45.060  46.490  22.396  1.00  0.00    +0.000 H 
ENDBRANCH    2    1
BRANCH    2   78
ATOM    130  H40 UNL A   1      46.559  46.008  16.507  1.00  0.00    +0.000 H 
ATOM     78  C55 UNL A   1      47.118  45.574  19.800  1.00  0.00    +0.000 C 
ATOM     79  C56 UNL A   1      48.524  45.659  19.744  1.00  0.00    +0.000 C 
ATOM     80  C57 UNL A   1      49.197  45.910  18.544  1.00  0.00    +0.000 C 
ATOM     81  C58 UNL A   1      48.488  46.089  17.354  1.00  0.00    +0.000 C 
ATOM     88  C64 UNL A   1      47.101  45.923  17.381  1.00  0.00    +0.000 C 
ATOM     89  C65 UNL A   1      46.437  45.643  18.581  1.00  0.00    +0.000 C 
ATOM     90  F16 UNL A   1      45.121  45.421  18.500  1.00  0.00    +0.000 F 
ATOM    123  H33 UNL A   1      49.072  45.534  20.610  1.00  0.00    +0.000 H 
ATOM    124  H34 UNL A   1      50.228  45.963  18.538  1.00  0.00    +0.000 H 
BRANCH   81   82
ATOM     82  C59 UNL A   1      49.205  46.458  16.073  1.00  0.00    +0.000 C 
ATOM    125  H35 UNL A   1      48.724  45.956  15.259  1.00  0.00    +0.000 H 
ATOM    126  H36 UNL A   1      50.226  46.159  16.184  1.00  0.00    +0.000 H 
BRANCH   82   83
ATOM    129  H39 UNL A   1      48.635  50.975  14.175  1.00  0.00    +0.000 H 
ATOM     83  C60 UNL A   1      49.201  47.939  15.793  1.00  0.00    +0.000 C 
ATOM     84  C61 UNL A   1      49.778  48.958  16.528  1.00  0.00    +0.000 C 
ATOM     85  C62 UNL A   1      49.580  50.240  15.939  1.00  0.00    +0.000 C 
ATOM     86  C63 UNL A   1      48.872  50.160  14.761  1.00  0.00    +0.000 C 
ATOM     87  S1  UNL A   1      48.432  48.551  14.386  1.00  0.00    +0.000 S 
ATOM    127  H37 UNL A   1      50.296  48.807  17.407  1.00  0.00    +0.000 H 
ATOM    128  H38 UNL A   1      49.926  51.123  16.346  1.00  0.00    +0.000 H 
ENDBRANCH   82   83
ENDBRANCH   81   82
ENDBRANCH    2   78
ENDBRANCH    3    2
ENDBRANCH    5    3
ENDBRANCH    6    5
ENDBRANCH    7    6
ENDBRANCH    8    7
ENDBRANCH    9    8
ENDBRANCH   10    9
ENDBRANCH   11   10
ENDBRANCH   12   11
ENDBRANCH   13   12
ENDBRANCH   15   13
ENDBRANCH   19   18
BRANCH   23   24
ATOM     33  C24 UNL A   1      51.465  48.569  21.920  1.00  0.00    +0.000 C 
ATOM     34  F5  UNL A   1      51.891  48.417  20.657  1.00  0.00    +0.000 F 
ATOM     24  C19 UNL A   1      50.701  49.689  22.278  1.00  0.00    +0.000 C 
ATOM     25  C20 UNL A   1      50.277  49.798  23.610  1.00  0.00    +0.000 C 
ATOM     26  F1  UNL A   1      49.554  50.857  24.004  1.00  0.00    +0.000 F 
ATOM     27  C21 UNL A   1      50.626  48.835  24.553  1.00  0.00    +0.000 C 
ATOM     28  F2  UNL A   1      50.248  48.982  25.831  1.00  0.00    +0.000 F 
ATOM     29  C22 UNL A   1      51.378  47.733  24.176  1.00  0.00    +0.000 C 
ATOM     30  F3  UNL A   1      51.711  46.805  25.084  1.00  0.00    +0.000 F 
ATOM     31  C23 UNL A   1      51.792  47.595  22.860  1.00  0.00    +0.000 C 
ATOM     32  F4  UNL A   1      52.509  46.525  22.492  1.00  0.00    +0.000 F 
ENDBRANCH   23   24
BRANCH   40   41
ATOM     41  C30 UNL A   1      53.120  56.031  19.856  1.00  0.00    +0.000 C 
ATOM     42  C31 UNL A   1      53.029  57.090  20.771  1.00  0.00    +0.000 C 
ATOM     43  F6  UNL A   1      51.875  57.332  21.411  1.00  0.00    +0.000 F 
ATOM     44  C32 UNL A   1      54.118  57.925  21.007  1.00  0.00    +0.000 C 
ATOM     45  F7  UNL A   1      53.998  58.955  21.857  1.00  0.00    +0.000 F 
ATOM     46  C33 UNL A   1      55.321  57.702  20.354  1.00  0.00    +0.000 C 
ATOM     47  F8  UNL A   1      56.368  58.505  20.586  1.00  0.00    +0.000 F 
ATOM     48  C34 UNL A   1      55.435  56.654  19.455  1.00  0.00    +0.000 C 
ATOM     49  F9  UNL A   1      56.601  56.431  18.829  1.00  0.00    +0.000 F 
ATOM     50  C35 UNL A   1      54.343  55.830  19.199  1.00  0.00    +0.000 C 
ATOM     51  F10 UNL A   1      54.480  54.829  18.317  1.00  0.00    +0.000 F 
ENDBRANCH   40   41
BRANCH   55   56
ATOM     65  C44 UNL A   1      46.973  57.546  15.963  1.00  0.00    +0.000 C 
ATOM     66  F15 UNL A   1      46.722  57.749  17.264  1.00  0.00    +0.000 F 
ATOM     56  C39 UNL A   1      47.661  56.396  15.551  1.00  0.00    +0.000 C 
ATOM     57  C40 UNL A   1      47.896  56.229  14.180  1.00  0.00    +0.000 C 
ATOM     58  F11 UNL A   1      48.568  55.153  13.743  1.00  0.00    +0.000 F 
ATOM     59  C41 UNL A   1      47.473  57.182  13.256  1.00  0.00    +0.000 C 
ATOM     60  F12 UNL A   1      47.742  57.015  11.954  1.00  0.00    +0.000 F 
ATOM     61  C42 UNL A   1      46.786  58.308  13.684  1.00  0.00    +0.000 C 
ATOM     62  F13 UNL A   1      46.376  59.223  12.796  1.00  0.00    +0.000 F 
ATOM     63  C43 UNL A   1      46.532  58.488  15.036  1.00  0.00    +0.000 C 
ATOM     64  F14 UNL A   1      45.859  59.570  15.452  1.00  0.00    +0.000 F 
ENDBRANCH   55   56
TORSDOF 19
ENDMDL
MODEL 10
REMARK VINA RESULT:     -10.1     20.105     25.872
ROOT
ATOM     19  C15 UNL A   1      25.881  35.621  45.738  1.00  0.00    +0.000 C 
ATOM     20  C16 UNL A   1      27.191  35.581  45.005  1.00  0.00    +0.000 C 
ATOM     21  N3  UNL A   1      28.229  36.371  45.120  1.00  0.00    +0.000 N 
ATOM     22  C17 UNL A   1      29.186  35.866  44.249  1.00  0.00    +0.000 C 
ATOM     23  C18 UNL A   1      30.415  36.359  43.968  1.00  0.00    +0.000 C 
ATOM     35  C25 UNL A   1      30.962  37.558  44.545  1.00  0.00    +0.000 C 
ATOM     36  C26 UNL A   1      32.171  38.174  44.274  1.00  0.00    +0.000 C 
ATOM     37  C27 UNL A   1      32.286  39.297  45.100  1.00  0.00    +0.000 C 
ATOM     38  C28 UNL A   1      31.133  39.401  45.860  1.00  0.00    +0.000 C 
ATOM     39  N4  UNL A   1      30.330  38.326  45.512  1.00  0.00    +0.000 N 
ATOM     40  C29 UNL A   1      30.785  40.405  46.832  1.00  0.00    +0.000 C 
ATOM     52  C36 UNL A   1      29.624  40.444  47.528  1.00  0.00    +0.000 C 
ATOM     53  N5  UNL A   1      28.544  39.575  47.472  1.00  0.00    +0.000 N 
ATOM     54  C37 UNL A   1      27.671  40.028  48.338  1.00  0.00    +0.000 C 
ATOM     55  C38 UNL A   1      26.308  39.493  48.680  1.00  0.00    +0.000 C 
ATOM     67  C45 UNL A   1      25.840  38.412  48.028  1.00  0.00    +0.000 C 
ATOM     68  C46 UNL A   1      24.540  37.787  48.248  1.00  0.00    +0.000 C 
ATOM     69  C47 UNL A   1      24.430  36.710  47.453  1.00  0.00    +0.000 C 
ATOM     70  C48 UNL A   1      25.644  36.588  46.644  1.00  0.00    +0.000 C 
ATOM     71  N6  UNL A   1      26.421  37.645  47.047  1.00  0.00    +0.000 N 
ATOM     72  C49 UNL A   1      28.112  41.229  49.063  1.00  0.00    +0.000 C 
ATOM     73  C50 UNL A   1      29.293  41.461  48.507  1.00  0.00    +0.000 C 
ATOM     74  C51 UNL A   1      28.622  34.678  43.643  1.00  0.00    +0.000 C 
ATOM     75  C52 UNL A   1      27.368  34.493  44.030  1.00  0.00    +0.000 C 
ATOM    111  H21 UNL A   1      32.868  37.859  43.581  1.00  0.00    +0.000 H 
ATOM    112  H22 UNL A   1      33.093  39.940  45.137  1.00  0.00    +0.000 H 
ATOM    113  H23 UNL A   1      29.444  38.136  45.894  1.00  0.00    +0.000 H 
ATOM    114  H24 UNL A   1      23.819  38.119  48.908  1.00  0.00    +0.000 H 
ATOM    115  H25 UNL A   1      23.621  36.072  47.418  1.00  0.00    +0.000 H 
ATOM    116  H26 UNL A   1      27.310  37.836  46.669  1.00  0.00    +0.000 H 
ATOM    117  H27 UNL A   1      27.628  41.754  49.808  1.00  0.00    +0.000 H 
ATOM    118  H28 UNL A   1      29.900  42.261  48.742  1.00  0.00    +0.000 H 
ATOM    119  H29 UNL A   1      29.129  34.058  42.994  1.00  0.00    +0.000 H 
ATOM    120  H30 UNL A   1      26.692  33.774  43.727  1.00  0.00    +0.000 H 
ENDROOT
BRANCH   19   18
ATOM     76  C53 UNL A   1      24.906  33.395  46.309  1.00  0.00    +0.000 C 
ATOM    109  H19 UNL A   1      22.160  33.809  43.676  1.00  0.00    +0.000 H 
ATOM     77  C54 UNL A   1      23.967  32.384  46.118  1.00  0.00    +0.000 C 
ATOM     15  C11 UNL A   1      22.930  32.562  45.198  1.00  0.00    +0.000 C 
ATOM     16  C12 UNL A   1      22.900  33.700  44.386  1.00  0.00    +0.000 C 
ATOM     17  C13 UNL A   1      23.876  34.687  44.538  1.00  0.00    +0.000 C 
ATOM    110  H20 UNL A   1      23.867  35.517  43.925  1.00  0.00    +0.000 H 
ATOM     18  C14 UNL A   1      24.870  34.555  45.521  1.00  0.00    +0.000 C 
ATOM    121  H31 UNL A   1      25.633  33.290  47.034  1.00  0.00    +0.000 H 
ATOM    122  H32 UNL A   1      24.037  31.505  46.654  1.00  0.00    +0.000 H 
BRANCH   15   13
ATOM     13  C10 UNL A   1      21.860  31.551  45.047  1.00  0.00    +0.000 C 
ATOM     14  O2  UNL A   1      22.032  30.593  44.299  1.00  0.00    +0.000 O 
BRANCH   13   12
ATOM    108  H18 UNL A   1      20.613  31.203  46.575  1.00  0.00    +0.000 H 
ATOM     12  N2  UNL A   1      20.676  31.695  45.724  1.00  0.00    +0.000 N 
BRANCH   12   11
ATOM    106  H16 UNL A   1      18.628  31.951  45.710  1.00  0.00    +0.000 H 
ATOM     11  C9  UNL A   1      19.499  32.470  45.365  1.00  0.00    +0.000 C 
ATOM    107  H17 UNL A   1      19.589  33.432  45.826  1.00  0.00    +0.000 H 
BRANCH   11   10
ATOM    105  H15 UNL A   1      20.366  32.576  43.463  1.00  0.00    +0.000 H 
ATOM     10  C8  UNL A   1      19.378  32.683  43.859  1.00  0.00    +0.000 C 
ATOM    104  H14 UNL A   1      18.956  33.652  43.694  1.00  0.00    +0.000 H 
BRANCH   10    9
ATOM      9  C7  UNL A   1      18.510  31.656  43.128  1.00  0.00    +0.000 C 
ATOM    102  H12 UNL A   1      17.739  32.186  42.608  1.00  0.00    +0.000 H 
ATOM    103  H13 UNL A   1      19.169  31.116  42.482  1.00  0.00    +0.000 H 
BRANCH    9    8
ATOM    100  H10 UNL A   1      18.409  29.704  43.955  1.00  0.00    +0.000 H 
ATOM    101  H11 UNL A   1      17.828  31.032  45.009  1.00  0.00    +0.000 H 
ATOM      8  C6  UNL A   1      17.843  30.610  44.026  1.00  0.00    +0.000 C 
BRANCH    8    7
ATOM     98  H8  UNL A   1      15.867  30.070  44.595  1.00  0.00    +0.000 H 
ATOM     99  H9  UNL A   1      15.997  31.141  43.170  1.00  0.00    +0.000 H 
ATOM      7  C5  UNL A   1      16.383  30.285  43.683  1.00  0.00    +0.000 C 
BRANCH    7    6
ATOM     97  H7  UNL A   1      16.655  29.332  41.800  1.00  0.00    +0.000 H 
ATOM      6  C4  UNL A   1      16.196  29.091  42.735  1.00  0.00    +0.000 C 
ATOM     96  H6  UNL A   1      15.148  28.908  42.611  1.00  0.00    +0.000 H 
BRANCH    6    5
ATOM      5  N1  UNL A   1      16.826  27.889  43.256  1.00  0.00    +0.000 N 
ATOM     95  H5  UNL A   1      17.791  27.911  43.452  1.00  0.00    +0.000 H 
BRANCH    5    3
ATOM      3  C3  UNL A   1      16.133  26.722  43.487  1.00  0.00    +0.000 C 
ATOM      4  O1  UNL A   1      16.605  25.935  44.306  1.00  0.00    +0.000 O 
BRANCH    3    2
ATOM      2  C2  UNL A   1      14.787  26.537  42.780  1.00  0.00    +0.000 C 
ATOM     94  H4  UNL A   1      14.576  27.475  42.311  1.00  0.00    +0.000 H 
BRANCH    2    1
ATOM      1  C1  UNL A   1      13.765  26.131  43.855  1.00  0.00    +0.000 C 
ATOM     91  H1  UNL A   1      13.597  26.955  44.517  1.00  0.00    +0.000 H 
ATOM     92  H2  UNL A   1      14.143  25.298  44.409  1.00  0.00    +0.000 H 
ATOM     93  H3  UNL A   1      12.843  25.858  43.386  1.00  0.00    +0.000 H 
ENDBRANCH    2    1
BRANCH    2   78
ATOM    130  H40 UNL A   1      14.499  22.332  40.692  1.00  0.00    +0.000 H 
ATOM     78  C55 UNL A   1      14.729  25.566  41.602  1.00  0.00    +0.000 C 
ATOM     79  C56 UNL A   1      14.656  26.111  40.304  1.00  0.00    +0.000 C 
ATOM     80  C57 UNL A   1      14.485  25.302  39.177  1.00  0.00    +0.000 C 
ATOM     81  C58 UNL A   1      14.376  23.915  39.305  1.00  0.00    +0.000 C 
ATOM     88  C64 UNL A   1      14.532  23.356  40.577  1.00  0.00    +0.000 C 
ATOM     89  C65 UNL A   1      14.732  24.171  41.697  1.00  0.00    +0.000 C 
ATOM     90  F16 UNL A   1      14.951  23.548  42.860  1.00  0.00    +0.000 F 
ATOM    123  H33 UNL A   1      14.730  27.134  40.182  1.00  0.00    +0.000 H 
ATOM    124  H34 UNL A   1      14.439  25.734  38.241  1.00  0.00    +0.000 H 
BRANCH   81   82
ATOM     82  C59 UNL A   1      14.093  23.045  38.100  1.00  0.00    +0.000 C 
ATOM    125  H35 UNL A   1      13.139  23.319  37.700  1.00  0.00    +0.000 H 
ATOM    126  H36 UNL A   1      14.114  22.028  38.432  1.00  0.00    +0.000 H 
BRANCH   82   83
ATOM    129  H39 UNL A   1      18.100  22.783  35.235  1.00  0.00    +0.000 H 
ATOM     83  C60 UNL A   1      15.126  23.181  37.011  1.00  0.00    +0.000 C 
ATOM     84  C61 UNL A   1      15.080  23.960  35.869  1.00  0.00    +0.000 C 
ATOM     85  C62 UNL A   1      16.258  23.844  35.077  1.00  0.00    +0.000 C 
ATOM     86  C63 UNL A   1      17.177  22.993  35.646  1.00  0.00    +0.000 C 
ATOM     87  S1  UNL A   1      16.609  22.324  37.113  1.00  0.00    +0.000 S 
ATOM    127  H37 UNL A   1      14.279  24.561  35.619  1.00  0.00    +0.000 H 
ATOM    128  H38 UNL A   1      16.404  24.339  34.183  1.00  0.00    +0.000 H 
ENDBRANCH   82   83
ENDBRANCH   81   82
ENDBRANCH    2   78
ENDBRANCH    3    2
ENDBRANCH    5    3
ENDBRANCH    6    5
ENDBRANCH    7    6
ENDBRANCH    8    7
ENDBRANCH    9    8
ENDBRANCH   10    9
ENDBRANCH   11   10
ENDBRANCH   12   11
ENDBRANCH   13   12
ENDBRANCH   15   13
ENDBRANCH   19   18
BRANCH   23   24
ATOM     33  C24 UNL A   1      31.318  36.001  41.642  1.00  0.00    +0.000 C 
ATOM     34  F5  UNL A   1      30.648  37.087  41.229  1.00  0.00    +0.000 F 
ATOM     24  C19 UNL A   1      31.255  35.599  42.984  1.00  0.00    +0.000 C 
ATOM     25  C20 UNL A   1      31.971  34.454  43.363  1.00  0.00    +0.000 C 
ATOM     26  F1  UNL A   1      31.952  34.037  44.637  1.00  0.00    +0.000 F 
ATOM     27  C21 UNL A   1      32.741  33.753  42.438  1.00  0.00    +0.000 C 
ATOM     28  F2  UNL A   1      33.453  32.688  42.831  1.00  0.00    +0.000 F 
ATOM     29  C22 UNL A   1      32.785  34.165  41.115  1.00  0.00    +0.000 C 
ATOM     30  F3  UNL A   1      33.524  33.488  40.225  1.00  0.00    +0.000 F 
ATOM     31  C23 UNL A   1      32.069  35.284  40.714  1.00  0.00    +0.000 C 
ATOM     32  F4  UNL A   1      32.102  35.676  39.434  1.00  0.00    +0.000 F 
ENDBRANCH   23   24
BRANCH   40   41
ATOM     41  C30 UNL A   1      31.774  41.503  47.085  1.00  0.00    +0.000 C 
ATOM     42  C31 UNL A   1      31.574  42.797  46.585  1.00  0.00    +0.000 C 
ATOM     43  F6  UNL A   1      30.506  43.068  45.819  1.00  0.00    +0.000 F 
ATOM     44  C32 UNL A   1      32.490  43.813  46.844  1.00  0.00    +0.000 C 
ATOM     45  F7  UNL A   1      32.299  45.034  46.325  1.00  0.00    +0.000 F 
ATOM     46  C33 UNL A   1      33.606  43.560  47.627  1.00  0.00    +0.000 C 
ATOM     47  F8  UNL A   1      34.485  44.540  47.880  1.00  0.00    +0.000 F 
ATOM     48  C34 UNL A   1      33.817  42.290  48.142  1.00  0.00    +0.000 C 
ATOM     49  F9  UNL A   1      34.891  42.046  48.907  1.00  0.00    +0.000 F 
ATOM     50  C35 UNL A   1      32.915  41.266  47.866  1.00  0.00    +0.000 C 
ATOM     51  F10 UNL A   1      33.148  40.046  48.370  1.00  0.00    +0.000 F 
ENDBRANCH   40   41
BRANCH   55   56
ATOM     65  C44 UNL A   1      25.497  39.766  51.047  1.00  0.00    +0.000 C 
ATOM     66  F15 UNL A   1      26.305  38.768  51.435  1.00  0.00    +0.000 F 
ATOM     56  C39 UNL A   1      25.464  40.160  49.703  1.00  0.00    +0.000 C 
ATOM     57  C40 UNL A   1      24.601  41.205  49.347  1.00  0.00    +0.000 C 
ATOM     58  F11 UNL A   1      24.552  41.629  48.076  1.00  0.00    +0.000 F 
ATOM     59  C41 UNL A   1      23.812  41.843  50.302  1.00  0.00    +0.000 C 
ATOM     60  F12 UNL A   1      23.023  42.863  49.942  1.00  0.00    +0.000 F 
ATOM     61  C42 UNL A   1      23.854  41.431  51.626  1.00  0.00    +0.000 C 
ATOM     62  F13 UNL A   1      23.093  42.041  52.544  1.00  0.00    +0.000 F 
ATOM     63  C43 UNL A   1      24.692  40.389  51.998  1.00  0.00    +0.000 C 
ATOM     64  F14 UNL A   1      24.726  39.982  53.273  1.00  0.00    +0.000 F 
ENDBRANCH   55   56
TORSDOF 19
ENDMDL
