MODEL 1
REMARK VINA RESULT:     -10.5      0.000      0.000
ROOT
ATOM     28  C20 UNL A   1      41.440  26.101  27.865  1.00  0.00    +0.000 C 
ATOM     29  C21 UNL A   1      42.829  26.402  27.367  1.00  0.00    +0.000 C 
ATOM     30  N4  UNL A   1      43.552  27.482  27.534  1.00  0.00    +0.000 N 
ATOM     31  C22 UNL A   1      44.758  27.237  26.889  1.00  0.00    +0.000 C 
ATOM     32  C23 UNL A   1      45.824  28.060  26.748  1.00  0.00    +0.000 C 
ATOM     44  C30 UNL A   1      45.891  29.404  27.259  1.00  0.00    +0.000 C 
ATOM     45  C31 UNL A   1      46.926  30.318  27.150  1.00  0.00    +0.000 C 
ATOM     46  C32 UNL A   1      46.550  31.486  27.820  1.00  0.00    +0.000 C 
ATOM     47  C33 UNL A   1      45.269  31.313  28.317  1.00  0.00    +0.000 C 
ATOM     48  N5  UNL A   1      44.878  30.029  27.969  1.00  0.00    +0.000 N 
ATOM     49  C34 UNL A   1      44.460  32.243  29.061  1.00  0.00    +0.000 C 
ATOM     61  C41 UNL A   1      43.190  32.014  29.471  1.00  0.00    +0.000 C 
ATOM     62  N6  UNL A   1      42.412  30.879  29.298  1.00  0.00    +0.000 N 
ATOM     63  C42 UNL A   1      41.274  31.129  29.898  1.00  0.00    +0.000 C 
ATOM     64  C43 UNL A   1      40.061  30.252  30.031  1.00  0.00    +0.000 C 
ATOM     76  C50 UNL A   1      40.094  28.997  29.545  1.00  0.00    +0.000 C 
ATOM     77  C51 UNL A   1      38.999  28.035  29.617  1.00  0.00    +0.000 C 
ATOM     78  C52 UNL A   1      39.395  26.879  29.061  1.00  0.00    +0.000 C 
ATOM     79  C53 UNL A   1      40.756  27.039  28.547  1.00  0.00    +0.000 C 
ATOM     80  N7  UNL A   1      41.100  28.319  28.902  1.00  0.00    +0.000 N 
ATOM     81  C54 UNL A   1      41.201  32.458  30.521  1.00  0.00    +0.000 C 
ATOM     82  C55 UNL A   1      42.385  32.967  30.209  1.00  0.00    +0.000 C 
ATOM     83  C56 UNL A   1      44.683  25.898  26.347  1.00  0.00    +0.000 C 
ATOM     84  C57 UNL A   1      43.496  25.354  26.578  1.00  0.00    +0.000 C 
ATOM    109  H23 UNL A   1      47.819  30.164  26.658  1.00  0.00    +0.000 H 
ATOM    110  H24 UNL A   1      47.129  32.334  27.927  1.00  0.00    +0.000 H 
ATOM    111  H25 UNL A   1      44.009  29.623  28.191  1.00  0.00    +0.000 H 
ATOM    112  H26 UNL A   1      38.070  28.214  30.027  1.00  0.00    +0.000 H 
ATOM    113  H27 UNL A   1      38.831  26.018  29.005  1.00  0.00    +0.000 H 
ATOM    114  H28 UNL A   1      41.982  28.713  28.713  1.00  0.00    +0.000 H 
ATOM    115  H29 UNL A   1      40.431  32.883  31.061  1.00  0.00    +0.000 H 
ATOM    116  H30 UNL A   1      42.694  33.919  30.459  1.00  0.00    +0.000 H 
ATOM    117  H31 UNL A   1      45.454  25.428  25.847  1.00  0.00    +0.000 H 
ATOM    118  H32 UNL A   1      43.133  24.435  26.280  1.00  0.00    +0.000 H 
ENDROOT
BRANCH   28   27
ATOM     27  C19 UNL A   1      40.791  24.803  27.544  1.00  0.00    +0.000 C 
ATOM    107  H21 UNL A   1      38.274  23.553  25.699  1.00  0.00    +0.000 H 
ATOM    108  H22 UNL A   1      39.287  25.664  26.329  1.00  0.00    +0.000 H 
ATOM     85  C58 UNL A   1      41.292  23.594  28.048  1.00  0.00    +0.000 C 
ATOM     86  C59 UNL A   1      40.776  22.376  27.596  1.00  0.00    +0.000 C 
ATOM    120  H34 UNL A   1      41.167  21.486  27.944  1.00  0.00    +0.000 H 
ATOM     24  C16 UNL A   1      39.730  22.368  26.670  1.00  0.00    +0.000 C 
ATOM     25  C17 UNL A   1      39.127  23.566  26.279  1.00  0.00    +0.000 C 
ATOM     26  C18 UNL A   1      39.687  24.778  26.675  1.00  0.00    +0.000 C 
ATOM    119  H33 UNL A   1      42.043  23.603  28.756  1.00  0.00    +0.000 H 
BRANCH   24   22
ATOM     22  C15 UNL A   1      39.319  21.084  26.062  1.00  0.00    +0.000 C 
ATOM     23  O3  UNL A   1      39.968  20.067  26.284  1.00  0.00    +0.000 O 
BRANCH   22   21
ATOM    106  H20 UNL A   1      38.454  20.993  24.251  1.00  0.00    +0.000 H 
ATOM     21  N3  UNL A   1      38.239  21.056  25.209  1.00  0.00    +0.000 N 
BRANCH   21   20
ATOM    105  H19 UNL A   1      36.707  21.807  26.336  1.00  0.00    +0.000 H 
ATOM     20  C14 UNL A   1      36.821  21.108  25.534  1.00  0.00    +0.000 C 
ATOM    104  H18 UNL A   1      36.499  20.124  25.805  1.00  0.00    +0.000 H 
BRANCH   20   19
ATOM     19  C13 UNL A   1      35.950  21.601  24.384  1.00  0.00    +0.000 C 
ATOM    102  H16 UNL A   1      36.085  20.932  23.558  1.00  0.00    +0.000 H 
ATOM    103  H17 UNL A   1      34.950  21.624  24.762  1.00  0.00    +0.000 H 
BRANCH   19   18
ATOM     18  C12 UNL A   1      36.245  23.018  23.894  1.00  0.00    +0.000 C 
ATOM    100  H14 UNL A   1      37.111  23.373  24.414  1.00  0.00    +0.000 H 
ATOM    101  H15 UNL A   1      36.377  22.940  22.835  1.00  0.00    +0.000 H 
BRANCH   18   17
ATOM     17  C11 UNL A   1      35.122  24.040  24.100  1.00  0.00    +0.000 C 
ATOM     98  H12 UNL A   1      35.336  24.890  23.486  1.00  0.00    +0.000 H 
ATOM     99  H13 UNL A   1      34.219  23.530  23.843  1.00  0.00    +0.000 H 
BRANCH   17   16
ATOM     97  H11 UNL A   1      35.792  25.116  25.774  1.00  0.00    +0.000 H 
ATOM     96  H10 UNL A   1      34.791  23.685  26.168  1.00  0.00    +0.000 H 
ATOM     16  C10 UNL A   1      34.922  24.539  25.537  1.00  0.00    +0.000 C 
BRANCH   16   15
ATOM     95  H9  UNL A   1      34.083  26.478  25.708  1.00  0.00    +0.000 H 
ATOM     94  H8  UNL A   1      33.282  25.253  26.693  1.00  0.00    +0.000 H 
ATOM     15  C9  UNL A   1      33.729  25.469  25.745  1.00  0.00    +0.000 C 
BRANCH   15   14
ATOM     93  H7  UNL A   1      32.917  25.665  23.812  1.00  0.00    +0.000 H 
ATOM     14  N2  UNL A   1      32.732  25.301  24.708  1.00  0.00    +0.000 N 
BRANCH   14    2
ATOM      1  O1  UNL A   1      30.846  24.799  25.928  1.00  0.00    +0.000 O 
ATOM      2  C1  UNL A   1      31.534  24.651  24.924  1.00  0.00    +0.000 C 
BRANCH    2    3
ATOM      3  C2  UNL A   1      31.142  23.689  23.802  1.00  0.00    +0.000 C 
ATOM     87  H1  UNL A   1      31.455  24.114  22.872  1.00  0.00    +0.000 H 
ATOM     88  H2  UNL A   1      30.082  23.559  23.864  1.00  0.00    +0.000 H 
BRANCH    3    4
ATOM      4  C3  UNL A   1      31.757  22.313  23.927  1.00  0.00    +0.000 C 
ATOM      5  C4  UNL A   1      31.841  21.522  22.714  1.00  0.00    +0.000 C 
ATOM      6  C5  UNL A   1      32.319  20.272  22.750  1.00  0.00    +0.000 C 
ATOM      7  N1  UNL A   1      32.750  19.705  23.935  1.00  0.00    +0.000 N 
ATOM     11  C7  UNL A   1      32.721  20.387  25.140  1.00  0.00    +0.000 C 
ATOM     12  O2  UNL A   1      33.057  19.935  26.229  1.00  0.00    +0.000 O 
ATOM     13  C8  UNL A   1      32.203  21.782  25.079  1.00  0.00    +0.000 C 
ATOM     89  H3  UNL A   1      31.532  21.926  21.816  1.00  0.00    +0.000 H 
ATOM     90  H4  UNL A   1      32.366  19.721  21.878  1.00  0.00    +0.000 H 
ATOM     92  H6  UNL A   1      32.187  22.354  25.938  1.00  0.00    +0.000 H 
BRANCH    7    8
ATOM      9  F1  UNL A   1      32.857  17.673  22.845  1.00  0.00    +0.000 F 
ATOM     10  F2  UNL A   1      34.559  18.290  24.085  1.00  0.00    +0.000 F 
ATOM     91  H5  UNL A   1      32.748  17.879  24.818  1.00  0.00    +0.000 H 
ATOM      8  C6  UNL A   1      33.209  18.341  23.970  1.00  0.00    +0.000 C 
ENDBRANCH    7    8
ENDBRANCH    3    4
ENDBRANCH    2    3
ENDBRANCH   14    2
ENDBRANCH   15   14
ENDBRANCH   16   15
ENDBRANCH   17   16
ENDBRANCH   18   17
ENDBRANCH   19   18
ENDBRANCH   20   19
ENDBRANCH   21   20
ENDBRANCH   22   21
ENDBRANCH   24   22
ENDBRANCH   28   27
BRANCH   32   33
ATOM     33  C24 UNL A   1      47.020  27.533  26.012  1.00  0.00    +0.000 C 
ATOM     34  C25 UNL A   1      47.161  27.703  24.627  1.00  0.00    +0.000 C 
ATOM     35  F3  UNL A   1      46.182  28.282  23.916  1.00  0.00    +0.000 F 
ATOM     36  C26 UNL A   1      48.302  27.258  23.965  1.00  0.00    +0.000 C 
ATOM     37  F4  UNL A   1      48.404  27.408  22.636  1.00  0.00    +0.000 F 
ATOM     38  C27 UNL A   1      49.331  26.657  24.676  1.00  0.00    +0.000 C 
ATOM     39  F5  UNL A   1      50.434  26.242  24.037  1.00  0.00    +0.000 F 
ATOM     40  C28 UNL A   1      49.215  26.486  26.047  1.00  0.00    +0.000 C 
ATOM     41  F6  UNL A   1      50.213  25.914  26.735  1.00  0.00    +0.000 F 
ATOM     42  C29 UNL A   1      48.066  26.911  26.709  1.00  0.00    +0.000 C 
ATOM     43  F7  UNL A   1      47.982  26.729  28.035  1.00  0.00    +0.000 F 
ENDBRANCH   32   33
BRANCH   49   50
ATOM     50  C35 UNL A   1      45.064  33.572  29.403  1.00  0.00    +0.000 C 
ATOM     51  C36 UNL A   1      45.811  33.749  30.576  1.00  0.00    +0.000 C 
ATOM     52  F8  UNL A   1      45.944  32.740  31.449  1.00  0.00    +0.000 F 
ATOM     53  C37 UNL A   1      46.401  34.976  30.869  1.00  0.00    +0.000 C 
ATOM     54  F9  UNL A   1      47.083  35.133  32.011  1.00  0.00    +0.000 F 
ATOM     55  C38 UNL A   1      46.275  36.037  29.984  1.00  0.00    +0.000 C 
ATOM     56  F10 UNL A   1      46.851  37.214  30.264  1.00  0.00    +0.000 F 
ATOM     57  C39 UNL A   1      45.549  35.880  28.813  1.00  0.00    +0.000 C 
ATOM     58  F11 UNL A   1      45.435  36.901  27.954  1.00  0.00    +0.000 F 
ATOM     59  C40 UNL A   1      44.940  34.661  28.528  1.00  0.00    +0.000 C 
ATOM     60  F12 UNL A   1      44.239  34.538  27.391  1.00  0.00    +0.000 F 
ENDBRANCH   49   50
BRANCH   64   65
ATOM     65  C44 UNL A   1      38.829  30.749  30.691  1.00  0.00    +0.000 C 
ATOM     66  C45 UNL A   1      38.680  30.677  32.082  1.00  0.00    +0.000 C 
ATOM     67  F13 UNL A   1      39.639  30.113  32.830  1.00  0.00    +0.000 F 
ATOM     68  C46 UNL A   1      37.533  31.162  32.707  1.00  0.00    +0.000 C 
ATOM     69  F14 UNL A   1      37.402  31.058  34.036  1.00  0.00    +0.000 F 
ATOM     70  C47 UNL A   1      36.526  31.748  31.954  1.00  0.00    +0.000 C 
ATOM     71  F15 UNL A   1      35.429  32.225  32.557  1.00  0.00    +0.000 F 
ATOM     72  C48 UNL A   1      36.654  31.833  30.576  1.00  0.00    +0.000 C 
ATOM     73  F16 UNL A   1      35.688  32.408  29.847  1.00  0.00    +0.000 F 
ATOM     74  C49 UNL A   1      37.789  31.327  29.948  1.00  0.00    +0.000 C 
ATOM     75  F17 UNL A   1      37.886  31.416  28.615  1.00  0.00    +0.000 F 
ENDBRANCH   64   65
TORSDOF 17
ENDMDL
MODEL 2
REMARK VINA RESULT:     -10.4      4.513      7.104
ROOT
ATOM     28  C20 UNL A   1      38.075  29.969  29.845  1.00  0.00    +0.000 C 
ATOM     29  C21 UNL A   1      39.154  29.088  29.275  1.00  0.00    +0.000 C 
ATOM     30  N4  UNL A   1      40.244  28.639  29.848  1.00  0.00    +0.000 N 
ATOM     31  C22 UNL A   1      40.883  27.859  28.893  1.00  0.00    +0.000 C 
ATOM     32  C23 UNL A   1      42.064  27.203  28.989  1.00  0.00    +0.000 C 
ATOM     44  C30 UNL A   1      42.910  27.211  30.154  1.00  0.00    +0.000 C 
ATOM     45  C31 UNL A   1      44.133  26.588  30.335  1.00  0.00    +0.000 C 
ATOM     46  C32 UNL A   1      44.573  26.858  31.635  1.00  0.00    +0.000 C 
ATOM     47  C33 UNL A   1      43.641  27.678  32.251  1.00  0.00    +0.000 C 
ATOM     48  N5  UNL A   1      42.624  27.883  31.332  1.00  0.00    +0.000 N 
ATOM     49  C34 UNL A   1      43.669  28.229  33.581  1.00  0.00    +0.000 C 
ATOM     61  C41 UNL A   1      42.737  29.067  34.094  1.00  0.00    +0.000 C 
ATOM     62  N6  UNL A   1      41.582  29.553  33.499  1.00  0.00    +0.000 N 
ATOM     63  C42 UNL A   1      40.998  30.298  34.404  1.00  0.00    +0.000 C 
ATOM     64  C43 UNL A   1      39.712  31.070  34.309  1.00  0.00    +0.000 C 
ATOM     76  C50 UNL A   1      38.969  30.985  33.190  1.00  0.00    +0.000 C 
ATOM     77  C51 UNL A   1      37.698  31.666  32.966  1.00  0.00    +0.000 C 
ATOM     78  C52 UNL A   1      37.226  31.328  31.756  1.00  0.00    +0.000 C 
ATOM     79  C53 UNL A   1      38.191  30.445  31.098  1.00  0.00    +0.000 C 
ATOM     80  N7  UNL A   1      39.181  30.276  32.033  1.00  0.00    +0.000 N 
ATOM     81  C54 UNL A   1      41.719  30.369  35.683  1.00  0.00    +0.000 C 
ATOM     82  C55 UNL A   1      42.786  29.623  35.431  1.00  0.00    +0.000 C 
ATOM     83  C56 UNL A   1      40.051  27.872  27.710  1.00  0.00    +0.000 C 
ATOM     84  C57 UNL A   1      38.992  28.652  27.879  1.00  0.00    +0.000 C 
ATOM    109  H23 UNL A   1      44.635  26.023  29.634  1.00  0.00    +0.000 H 
ATOM    110  H24 UNL A   1      45.444  26.508  32.064  1.00  0.00    +0.000 H 
ATOM    111  H25 UNL A   1      41.818  28.426  31.491  1.00  0.00    +0.000 H 
ATOM    112  H26 UNL A   1      37.236  32.306  33.631  1.00  0.00    +0.000 H 
ATOM    113  H27 UNL A   1      36.329  31.639  31.355  1.00  0.00    +0.000 H 
ATOM    114  H28 UNL A   1      39.968  29.702  31.888  1.00  0.00    +0.000 H 
ATOM    115  H29 UNL A   1      41.463  30.869  36.548  1.00  0.00    +0.000 H 
ATOM    116  H30 UNL A   1      43.552  29.458  36.102  1.00  0.00    +0.000 H 
ATOM    117  H31 UNL A   1      40.255  27.344  26.847  1.00  0.00    +0.000 H 
ATOM    118  H32 UNL A   1      38.248  28.892  27.206  1.00  0.00    +0.000 H 
ENDROOT
BRANCH   28   27
ATOM     27  C19 UNL A   1      36.918  30.379  29.006  1.00  0.00    +0.000 C 
ATOM    107  H21 UNL A   1      34.235  29.057  27.471  1.00  0.00    +0.000 H 
ATOM    108  H22 UNL A   1      36.190  28.408  28.749  1.00  0.00    +0.000 H 
ATOM     85  C58 UNL A   1      36.685  31.727  28.695  1.00  0.00    +0.000 C 
ATOM     86  C59 UNL A   1      35.502  32.106  28.055  1.00  0.00    +0.000 C 
ATOM    120  H34 UNL A   1      35.317  33.102  27.855  1.00  0.00    +0.000 H 
ATOM     24  C16 UNL A   1      34.569  31.132  27.688  1.00  0.00    +0.000 C 
ATOM     25  C17 UNL A   1      34.863  29.778  27.860  1.00  0.00    +0.000 C 
ATOM     26  C18 UNL A   1      36.008  29.407  28.559  1.00  0.00    +0.000 C 
ATOM    119  H33 UNL A   1      37.390  32.441  28.938  1.00  0.00    +0.000 H 
BRANCH   24   22
ATOM     22  C15 UNL A   1      33.247  31.559  27.182  1.00  0.00    +0.000 C 
ATOM     23  O3  UNL A   1      32.842  32.695  27.411  1.00  0.00    +0.000 O 
BRANCH   22   21
ATOM    106  H20 UNL A   1      32.427  30.770  25.526  1.00  0.00    +0.000 H 
ATOM     21  N3  UNL A   1      32.461  30.656  26.503  1.00  0.00    +0.000 N 
BRANCH   21   20
ATOM    105  H19 UNL A   1      30.684  29.925  27.201  1.00  0.00    +0.000 H 
ATOM     20  C14 UNL A   1      31.674  29.554  27.036  1.00  0.00    +0.000 C 
ATOM    104  H18 UNL A   1      32.135  29.213  27.939  1.00  0.00    +0.000 H 
BRANCH   20   19
ATOM     19  C13 UNL A   1      31.555  28.373  26.079  1.00  0.00    +0.000 C 
ATOM    102  H16 UNL A   1      30.976  27.614  26.563  1.00  0.00    +0.000 H 
ATOM    103  H17 UNL A   1      31.103  28.760  25.190  1.00  0.00    +0.000 H 
BRANCH   19   18
ATOM     18  C12 UNL A   1      32.877  27.745  25.638  1.00  0.00    +0.000 C 
ATOM    100  H14 UNL A   1      32.975  27.894  24.582  1.00  0.00    +0.000 H 
ATOM    101  H15 UNL A   1      33.636  28.228  26.217  1.00  0.00    +0.000 H 
BRANCH   18   17
ATOM     17  C11 UNL A   1      33.028  26.247  25.918  1.00  0.00    +0.000 C 
ATOM     98  H12 UNL A   1      33.073  26.115  26.979  1.00  0.00    +0.000 H 
ATOM     99  H13 UNL A   1      32.185  25.781  25.454  1.00  0.00    +0.000 H 
BRANCH   17   16
ATOM     97  H11 UNL A   1      35.111  26.087  25.705  1.00  0.00    +0.000 H 
ATOM     96  H10 UNL A   1      34.182  25.634  24.243  1.00  0.00    +0.000 H 
ATOM     16  C10 UNL A   1      34.263  25.570  25.308  1.00  0.00    +0.000 C 
BRANCH   16   15
ATOM     95  H9  UNL A   1      34.240  23.992  26.723  1.00  0.00    +0.000 H 
ATOM     94  H8  UNL A   1      35.460  23.814  25.460  1.00  0.00    +0.000 H 
ATOM     15  C9  UNL A   1      34.452  24.101  25.680  1.00  0.00    +0.000 C 
BRANCH   15   14
ATOM     93  H7  UNL A   1      32.881  22.719  25.445  1.00  0.00    +0.000 H 
ATOM     14  N2  UNL A   1      33.549  23.241  24.944  1.00  0.00    +0.000 N 
BRANCH   14    2
ATOM      1  O1  UNL A   1      34.620  23.033  22.917  1.00  0.00    +0.000 O 
ATOM      2  C1  UNL A   1      33.585  23.124  23.569  1.00  0.00    +0.000 C 
BRANCH    2    3
ATOM      3  C2  UNL A   1      32.206  23.152  22.910  1.00  0.00    +0.000 C 
ATOM     87  H1  UNL A   1      31.574  22.462  23.427  1.00  0.00    +0.000 H 
ATOM     88  H2  UNL A   1      32.351  22.892  21.882  1.00  0.00    +0.000 H 
BRANCH    3    4
ATOM      4  C3  UNL A   1      31.541  24.510  22.926  1.00  0.00    +0.000 C 
ATOM      5  C4  UNL A   1      32.172  25.557  22.145  1.00  0.00    +0.000 C 
ATOM      6  C5  UNL A   1      31.678  26.801  22.154  1.00  0.00    +0.000 C 
ATOM      7  N1  UNL A   1      30.555  27.121  22.896  1.00  0.00    +0.000 N 
ATOM     11  C7  UNL A   1      29.878  26.185  23.661  1.00  0.00    +0.000 C 
ATOM     12  O2  UNL A   1      28.899  26.407  24.364  1.00  0.00    +0.000 O 
ATOM     13  C8  UNL A   1      30.431  24.802  23.627  1.00  0.00    +0.000 C 
ATOM     89  H3  UNL A   1      33.006  25.341  21.579  1.00  0.00    +0.000 H 
ATOM     90  H4  UNL A   1      32.143  27.536  21.597  1.00  0.00    +0.000 H 
ATOM     92  H6  UNL A   1      29.951  24.053  24.150  1.00  0.00    +0.000 H 
BRANCH    7    8
ATOM      9  F1  UNL A   1      31.005  29.351  22.506  1.00  0.00    +0.000 F 
ATOM     10  F2  UNL A   1      28.967  28.615  22.162  1.00  0.00    +0.000 F 
ATOM     91  H5  UNL A   1      29.828  28.685  23.962  1.00  0.00    +0.000 H 
ATOM      8  C6  UNL A   1      30.068  28.474  22.941  1.00  0.00    +0.000 C 
ENDBRANCH    7    8
ENDBRANCH    3    4
ENDBRANCH    2    3
ENDBRANCH   14    2
ENDBRANCH   15   14
ENDBRANCH   16   15
ENDBRANCH   17   16
ENDBRANCH   18   17
ENDBRANCH   19   18
ENDBRANCH   20   19
ENDBRANCH   21   20
ENDBRANCH   22   21
ENDBRANCH   24   22
ENDBRANCH   28   27
BRANCH   32   33
ATOM     33  C24 UNL A   1      42.521  26.409  27.801  1.00  0.00    +0.000 C 
ATOM     34  C25 UNL A   1      43.393  26.955  26.848  1.00  0.00    +0.000 C 
ATOM     35  F3  UNL A   1      43.782  28.235  26.944  1.00  0.00    +0.000 F 
ATOM     36  C26 UNL A   1      43.853  26.189  25.779  1.00  0.00    +0.000 C 
ATOM     37  F4  UNL A   1      44.667  26.738  24.866  1.00  0.00    +0.000 F 
ATOM     38  C27 UNL A   1      43.469  24.862  25.656  1.00  0.00    +0.000 C 
ATOM     39  F5  UNL A   1      43.924  24.124  24.634  1.00  0.00    +0.000 F 
ATOM     40  C28 UNL A   1      42.612  24.301  26.591  1.00  0.00    +0.000 C 
ATOM     41  F6  UNL A   1      42.248  23.016  26.478  1.00  0.00    +0.000 F 
ATOM     42  C29 UNL A   1      42.134  25.070  27.649  1.00  0.00    +0.000 C 
ATOM     43  F7  UNL A   1      41.305  24.500  28.536  1.00  0.00    +0.000 F 
ENDBRANCH   32   33
BRANCH   49   50
ATOM     50  C35 UNL A   1      44.819  27.855  34.466  1.00  0.00    +0.000 C 
ATOM     51  C36 UNL A   1      44.778  26.701  35.261  1.00  0.00    +0.000 C 
ATOM     52  F8  UNL A   1      43.673  25.943  35.292  1.00  0.00    +0.000 F 
ATOM     53  C37 UNL A   1      45.865  26.340  36.052  1.00  0.00    +0.000 C 
ATOM     54  F9  UNL A   1      45.793  25.252  36.830  1.00  0.00    +0.000 F 
ATOM     55  C38 UNL A   1      47.019  27.110  36.042  1.00  0.00    +0.000 C 
ATOM     56  F10 UNL A   1      48.068  26.756  36.797  1.00  0.00    +0.000 F 
ATOM     57  C39 UNL A   1      47.085  28.250  35.253  1.00  0.00    +0.000 C 
ATOM     58  F11 UNL A   1      48.202  28.988  35.236  1.00  0.00    +0.000 F 
ATOM     59  C40 UNL A   1      45.991  28.626  34.479  1.00  0.00    +0.000 C 
ATOM     60  F12 UNL A   1      46.079  29.735  33.730  1.00  0.00    +0.000 F 
ENDBRANCH   49   50
BRANCH   64   65
ATOM     65  C44 UNL A   1      39.249  31.923  35.431  1.00  0.00    +0.000 C 
ATOM     66  C45 UNL A   1      38.387  31.416  36.411  1.00  0.00    +0.000 C 
ATOM     67  F13 UNL A   1      37.934  30.157  36.318  1.00  0.00    +0.000 F 
ATOM     68  C46 UNL A   1      37.968  32.207  37.479  1.00  0.00    +0.000 C 
ATOM     69  F14 UNL A   1      37.122  31.708  38.390  1.00  0.00    +0.000 F 
ATOM     70  C47 UNL A   1      38.421  33.514  37.595  1.00  0.00    +0.000 C 
ATOM     71  F15 UNL A   1      38.028  34.271  38.628  1.00  0.00    +0.000 F 
ATOM     72  C48 UNL A   1      39.278  34.035  36.639  1.00  0.00    +0.000 C 
ATOM     73  F16 UNL A   1      39.728  35.292  36.754  1.00  0.00    +0.000 F 
ATOM     74  C49 UNL A   1      39.679  33.252  35.559  1.00  0.00    +0.000 C 
ATOM     75  F17 UNL A   1      40.503  33.782  34.645  1.00  0.00    +0.000 F 
ENDBRANCH   64   65
TORSDOF 17
ENDMDL
MODEL 3
REMARK VINA RESULT:     -10.4     38.115     43.280
ROOT
ATOM     28  C20 UNL A   1      13.884  53.500   5.733  1.00  0.00    +0.000 C 
ATOM     29  C21 UNL A   1      13.387  52.082   5.640  1.00  0.00    +0.000 C 
ATOM     30  N4  UNL A   1      13.690  51.155   4.765  1.00  0.00    +0.000 N 
ATOM     31  C22 UNL A   1      12.971  50.027   5.140  1.00  0.00    +0.000 C 
ATOM     32  C23 UNL A   1      12.918  48.817   4.534  1.00  0.00    +0.000 C 
ATOM     44  C30 UNL A   1      13.626  48.477   3.327  1.00  0.00    +0.000 C 
ATOM     45  C31 UNL A   1      13.619  47.280   2.631  1.00  0.00    +0.000 C 
ATOM     46  C32 UNL A   1      14.474  47.409   1.532  1.00  0.00    +0.000 C 
ATOM     47  C33 UNL A   1      14.985  48.696   1.523  1.00  0.00    +0.000 C 
ATOM     48  N5  UNL A   1      14.460  49.340   2.632  1.00  0.00    +0.000 N 
ATOM     49  C34 UNL A   1      15.892  49.296   0.579  1.00  0.00    +0.000 C 
ATOM     61  C41 UNL A   1      16.309  50.584   0.613  1.00  0.00    +0.000 C 
ATOM     62  N6  UNL A   1      15.994  51.576   1.529  1.00  0.00    +0.000 N 
ATOM     63  C42 UNL A   1      16.665  52.637   1.156  1.00  0.00    +0.000 C 
ATOM     64  C43 UNL A   1      16.708  54.001   1.784  1.00  0.00    +0.000 C 
ATOM     76  C50 UNL A   1      16.035  54.225   2.928  1.00  0.00    +0.000 C 
ATOM     77  C51 UNL A   1      15.999  55.491   3.653  1.00  0.00    +0.000 C 
ATOM     78  C52 UNL A   1      15.259  55.340   4.763  1.00  0.00    +0.000 C 
ATOM     79  C53 UNL A   1      14.725  53.978   4.798  1.00  0.00    +0.000 C 
ATOM     80  N7  UNL A   1      15.259  53.381   3.683  1.00  0.00    +0.000 N 
ATOM     81  C54 UNL A   1      17.487  52.437  -0.046  1.00  0.00    +0.000 C 
ATOM     82  C55 UNL A   1      17.212  51.176  -0.353  1.00  0.00    +0.000 C 
ATOM     83  C56 UNL A   1      12.234  50.373   6.336  1.00  0.00    +0.000 C 
ATOM     84  C57 UNL A   1      12.423  51.645   6.662  1.00  0.00    +0.000 C 
ATOM    109  H23 UNL A   1      13.077  46.439   2.880  1.00  0.00    +0.000 H 
ATOM    110  H24 UNL A   1      14.688  46.670   0.843  1.00  0.00    +0.000 H 
ATOM    111  H25 UNL A   1      14.650  50.271   2.888  1.00  0.00    +0.000 H 
ATOM    112  H26 UNL A   1      16.466  56.363   3.360  1.00  0.00    +0.000 H 
ATOM    113  H27 UNL A   1      15.093  56.067   5.475  1.00  0.00    +0.000 H 
ATOM    114  H28 UNL A   1      15.100  52.438   3.448  1.00  0.00    +0.000 H 
ATOM    115  H29 UNL A   1      18.113  53.102  -0.526  1.00  0.00    +0.000 H 
ATOM    116  H30 UNL A   1      17.594  50.680  -1.173  1.00  0.00    +0.000 H 
ATOM    117  H31 UNL A   1      11.640  49.716   6.865  1.00  0.00    +0.000 H 
ATOM    118  H32 UNL A   1      12.002  52.187   7.433  1.00  0.00    +0.000 H 
ENDROOT
BRANCH   28   27
ATOM     27  C19 UNL A   1      13.392  54.400   6.810  1.00  0.00    +0.000 C 
ATOM    107  H21 UNL A   1      10.769  56.371   7.540  1.00  0.00    +0.000 H 
ATOM    108  H22 UNL A   1      11.651  54.983   5.758  1.00  0.00    +0.000 H 
ATOM     85  C58 UNL A   1      14.105  54.560   8.008  1.00  0.00    +0.000 C 
ATOM     86  C59 UNL A   1      13.541  55.270   9.071  1.00  0.00    +0.000 C 
ATOM    120  H34 UNL A   1      14.052  55.359   9.964  1.00  0.00    +0.000 H 
ATOM     24  C16 UNL A   1      12.281  55.856   8.923  1.00  0.00    +0.000 C 
ATOM     25  C17 UNL A   1      11.634  55.829   7.685  1.00  0.00    +0.000 C 
ATOM     26  C18 UNL A   1      12.164  55.063   6.650  1.00  0.00    +0.000 C 
ATOM    119  H33 UNL A   1      15.049  54.152   8.103  1.00  0.00    +0.000 H 
BRANCH   24   22
ATOM     22  C15 UNL A   1      11.619  56.443  10.107  1.00  0.00    +0.000 C 
ATOM     23  O3  UNL A   1      11.280  57.622  10.098  1.00  0.00    +0.000 O 
BRANCH   22   21
ATOM    106  H20 UNL A   1      11.786  56.046  12.070  1.00  0.00    +0.000 H 
ATOM     21  N3  UNL A   1      11.437  55.669  11.231  1.00  0.00    +0.000 N 
BRANCH   21   20
ATOM    105  H19 UNL A   1      10.283  54.187  10.424  1.00  0.00    +0.000 H 
ATOM     20  C14 UNL A   1      10.797  54.366  11.345  1.00  0.00    +0.000 C 
ATOM    104  H18 UNL A   1      10.132  54.388  12.183  1.00  0.00    +0.000 H 
BRANCH   20   19
ATOM     19  C13 UNL A   1      11.782  53.219  11.540  1.00  0.00    +0.000 C 
ATOM    102  H16 UNL A   1      11.267  52.425  12.041  1.00  0.00    +0.000 H 
ATOM    103  H17 UNL A   1      12.128  52.960  10.562  1.00  0.00    +0.000 H 
BRANCH   19   18
ATOM     18  C12 UNL A   1      13.033  53.554  12.352  1.00  0.00    +0.000 C 
ATOM    100  H14 UNL A   1      13.109  54.620  12.413  1.00  0.00    +0.000 H 
ATOM    101  H15 UNL A   1      12.904  53.073  13.298  1.00  0.00    +0.000 H 
BRANCH   18   17
ATOM     17  C11 UNL A   1      14.353  53.020  11.789  1.00  0.00    +0.000 C 
ATOM     98  H12 UNL A   1      14.128  52.448  10.912  1.00  0.00    +0.000 H 
ATOM     99  H13 UNL A   1      14.958  53.882  11.606  1.00  0.00    +0.000 H 
BRANCH   17   16
ATOM     97  H11 UNL A   1      14.468  51.518  13.253  1.00  0.00    +0.000 H 
ATOM     96  H10 UNL A   1      15.747  52.766  13.372  1.00  0.00    +0.000 H 
ATOM     16  C10 UNL A   1      15.175  52.129  12.730  1.00  0.00    +0.000 C 
BRANCH   16   15
ATOM     95  H9  UNL A   1      15.700  50.189  12.058  1.00  0.00    +0.000 H 
ATOM     94  H8  UNL A   1      17.073  51.176  12.563  1.00  0.00    +0.000 H 
ATOM     15  C9  UNL A   1      16.138  51.165  12.041  1.00  0.00    +0.000 C 
BRANCH   15   14
ATOM     93  H7  UNL A   1      16.436  52.488  10.431  1.00  0.00    +0.000 H 
ATOM     14  N2  UNL A   1      16.368  51.533  10.660  1.00  0.00    +0.000 N 
BRANCH   14    2
ATOM      1  O1  UNL A   1      17.534  49.991   9.409  1.00  0.00    +0.000 O 
ATOM      2  C1  UNL A   1      16.497  50.599   9.651  1.00  0.00    +0.000 C 
BRANCH    2    3
ATOM      3  C2  UNL A   1      15.226  50.404   8.824  1.00  0.00    +0.000 C 
ATOM     87  H1  UNL A   1      15.511  50.103   7.838  1.00  0.00    +0.000 H 
ATOM     88  H2  UNL A   1      14.704  51.338   8.838  1.00  0.00    +0.000 H 
BRANCH    3    4
ATOM      4  C3  UNL A   1      14.278  49.367   9.383  1.00  0.00    +0.000 C 
ATOM      5  C4  UNL A   1      14.657  47.977   9.215  1.00  0.00    +0.000 C 
ATOM      6  C5  UNL A   1      13.844  46.998   9.630  1.00  0.00    +0.000 C 
ATOM      7  N1  UNL A   1      12.632  47.280  10.233  1.00  0.00    +0.000 N 
ATOM     11  C7  UNL A   1      12.192  48.576  10.448  1.00  0.00    +0.000 C 
ATOM     12  O2  UNL A   1      11.119  48.896  10.947  1.00  0.00    +0.000 O 
ATOM     13  C8  UNL A   1      13.116  49.653   9.996  1.00  0.00    +0.000 C 
ATOM     89  H3  UNL A   1      15.559  47.741   8.774  1.00  0.00    +0.000 H 
ATOM     90  H4  UNL A   1      14.126  46.013   9.497  1.00  0.00    +0.000 H 
ATOM     92  H6  UNL A   1      12.860  50.640  10.159  1.00  0.00    +0.000 H 
BRANCH    7    8
ATOM      9  F1  UNL A   1      10.808  45.982   9.671  1.00  0.00    +0.000 F 
ATOM     10  F2  UNL A   1      12.429  45.067  10.831  1.00  0.00    +0.000 F 
ATOM     91  H5  UNL A   1      11.262  46.530  11.527  1.00  0.00    +0.000 H 
ATOM      8  C6  UNL A   1      11.742  46.217  10.623  1.00  0.00    +0.000 C 
ENDBRANCH    7    8
ENDBRANCH    3    4
ENDBRANCH    2    3
ENDBRANCH   14    2
ENDBRANCH   15   14
ENDBRANCH   16   15
ENDBRANCH   17   16
ENDBRANCH   18   17
ENDBRANCH   19   18
ENDBRANCH   20   19
ENDBRANCH   21   20
ENDBRANCH   22   21
ENDBRANCH   24   22
ENDBRANCH   28   27
BRANCH   32   33
ATOM     33  C24 UNL A   1      12.067  47.756   5.165  1.00  0.00    +0.000 C 
ATOM     34  C25 UNL A   1      10.710  47.617   4.840  1.00  0.00    +0.000 C 
ATOM     35  F3  UNL A   1      10.125  48.486   4.003  1.00  0.00    +0.000 F 
ATOM     36  C26 UNL A   1       9.945  46.592   5.392  1.00  0.00    +0.000 C 
ATOM     37  F4  UNL A   1       8.643  46.493   5.087  1.00  0.00    +0.000 F 
ATOM     38  C27 UNL A   1      10.525  45.678   6.259  1.00  0.00    +0.000 C 
ATOM     39  F5  UNL A   1       9.789  44.686   6.778  1.00  0.00    +0.000 F 
ATOM     40  C28 UNL A   1      11.867  45.794   6.588  1.00  0.00    +0.000 C 
ATOM     41  F6  UNL A   1      12.431  44.905   7.418  1.00  0.00    +0.000 F 
ATOM     42  C29 UNL A   1      12.630  46.829   6.055  1.00  0.00    +0.000 C 
ATOM     43  F7  UNL A   1      13.925  46.916   6.393  1.00  0.00    +0.000 F 
ENDBRANCH   32   33
BRANCH   49   50
ATOM     50  C35 UNL A   1      16.411  48.435  -0.533  1.00  0.00    +0.000 C 
ATOM     51  C36 UNL A   1      17.694  47.873  -0.477  1.00  0.00    +0.000 C 
ATOM     52  F8  UNL A   1      18.508  48.153   0.551  1.00  0.00    +0.000 F 
ATOM     53  C37 UNL A   1      18.155  47.043  -1.495  1.00  0.00    +0.000 C 
ATOM     54  F9  UNL A   1      19.396  46.543  -1.439  1.00  0.00    +0.000 F 
ATOM     55  C38 UNL A   1      17.334  46.741  -2.572  1.00  0.00    +0.000 C 
ATOM     56  F10 UNL A   1      17.776  45.935  -3.546  1.00  0.00    +0.000 F 
ATOM     57  C39 UNL A   1      16.057  47.277  -2.641  1.00  0.00    +0.000 C 
ATOM     58  F11 UNL A   1      15.260  46.978  -3.675  1.00  0.00    +0.000 F 
ATOM     59  C40 UNL A   1      15.601  48.125  -1.636  1.00  0.00    +0.000 C 
ATOM     60  F12 UNL A   1      14.364  48.635  -1.730  1.00  0.00    +0.000 F 
ENDBRANCH   49   50
BRANCH   64   65
ATOM     65  C44 UNL A   1      17.481  55.104   1.163  1.00  0.00    +0.000 C 
ATOM     66  C45 UNL A   1      16.942  55.856   0.112  1.00  0.00    +0.000 C 
ATOM     67  F13 UNL A   1      15.729  55.554  -0.374  1.00  0.00    +0.000 F 
ATOM     68  C46 UNL A   1      17.657  56.907  -0.460  1.00  0.00    +0.000 C 
ATOM     69  F14 UNL A   1      17.131  57.595  -1.482  1.00  0.00    +0.000 F 
ATOM     70  C47 UNL A   1      18.914  57.237   0.024  1.00  0.00    +0.000 C 
ATOM     71  F15 UNL A   1      19.596  58.255  -0.518  1.00  0.00    +0.000 F 
ATOM     72  C48 UNL A   1      19.467  56.508   1.066  1.00  0.00    +0.000 C 
ATOM     73  F16 UNL A   1      20.676  56.831   1.545  1.00  0.00    +0.000 F 
ATOM     74  C49 UNL A   1      18.763  55.443   1.622  1.00  0.00    +0.000 C 
ATOM     75  F17 UNL A   1      19.321  54.750   2.625  1.00  0.00    +0.000 F 
ENDBRANCH   64   65
TORSDOF 17
ENDMDL
MODEL 4
REMARK VINA RESULT:     -10.3     38.375     43.421
ROOT
ATOM     28  C20 UNL A   1      13.765  53.495   6.087  1.00  0.00    +0.000 C 
ATOM     29  C21 UNL A   1      13.293  52.071   5.959  1.00  0.00    +0.000 C 
ATOM     30  N4  UNL A   1      13.605  51.173   5.057  1.00  0.00    +0.000 N 
ATOM     31  C22 UNL A   1      12.909  50.023   5.407  1.00  0.00    +0.000 C 
ATOM     32  C23 UNL A   1      12.873  48.829   4.769  1.00  0.00    +0.000 C 
ATOM     44  C30 UNL A   1      13.576  48.535   3.547  1.00  0.00    +0.000 C 
ATOM     45  C31 UNL A   1      13.585  47.357   2.820  1.00  0.00    +0.000 C 
ATOM     46  C32 UNL A   1      14.428  47.530   1.717  1.00  0.00    +0.000 C 
ATOM     47  C33 UNL A   1      14.916  48.826   1.739  1.00  0.00    +0.000 C 
ATOM     48  N5  UNL A   1      14.389  49.430   2.870  1.00  0.00    +0.000 N 
ATOM     49  C34 UNL A   1      15.804  49.468   0.804  1.00  0.00    +0.000 C 
ATOM     61  C41 UNL A   1      16.197  50.762   0.869  1.00  0.00    +0.000 C 
ATOM     62  N6  UNL A   1      15.872  51.723   1.815  1.00  0.00    +0.000 N 
ATOM     63  C42 UNL A   1      16.522  52.806   1.465  1.00  0.00    +0.000 C 
ATOM     64  C43 UNL A   1      16.546  54.153   2.130  1.00  0.00    +0.000 C 
ATOM     76  C50 UNL A   1      15.879  54.333   3.285  1.00  0.00    +0.000 C 
ATOM     77  C51 UNL A   1      15.826  55.579   4.044  1.00  0.00    +0.000 C 
ATOM     78  C52 UNL A   1      15.098  55.385   5.155  1.00  0.00    +0.000 C 
ATOM     79  C53 UNL A   1      14.590  54.012   5.158  1.00  0.00    +0.000 C 
ATOM     80  N7  UNL A   1      15.124  53.455   4.023  1.00  0.00    +0.000 N 
ATOM     81  C54 UNL A   1      17.337  52.653   0.251  1.00  0.00    +0.000 C 
ATOM     82  C55 UNL A   1      17.082  51.396  -0.087  1.00  0.00    +0.000 C 
ATOM     83  C56 UNL A   1      12.177  50.323   6.618  1.00  0.00    +0.000 C 
ATOM     84  C57 UNL A   1      12.345  51.589   6.977  1.00  0.00    +0.000 C 
ATOM    109  H23 UNL A   1      13.061  46.499   3.050  1.00  0.00    +0.000 H 
ATOM    110  H24 UNL A   1      14.649  46.814   1.007  1.00  0.00    +0.000 H 
ATOM    111  H25 UNL A   1      14.564  50.358   3.149  1.00  0.00    +0.000 H 
ATOM    112  H26 UNL A   1      16.275  56.467   3.771  1.00  0.00    +0.000 H 
ATOM    113  H27 UNL A   1      14.925  56.089   5.888  1.00  0.00    +0.000 H 
ATOM    114  H28 UNL A   1      14.981  52.516   3.764  1.00  0.00    +0.000 H 
ATOM    115  H29 UNL A   1      17.946  53.342  -0.216  1.00  0.00    +0.000 H 
ATOM    116  H30 UNL A   1      17.465  50.929  -0.923  1.00  0.00    +0.000 H 
ATOM    117  H31 UNL A   1      11.599  49.641   7.134  1.00  0.00    +0.000 H 
ATOM    118  H32 UNL A   1      11.921  52.102   7.765  1.00  0.00    +0.000 H 
ENDROOT
BRANCH   28   27
ATOM     27  C19 UNL A   1      13.266  54.356   7.191  1.00  0.00    +0.000 C 
ATOM    107  H21 UNL A   1      10.768  56.498   7.879  1.00  0.00    +0.000 H 
ATOM    108  H22 UNL A   1      11.670  55.167   6.064  1.00  0.00    +0.000 H 
ATOM     85  C58 UNL A   1      13.892  54.366   8.447  1.00  0.00    +0.000 C 
ATOM     86  C59 UNL A   1      13.307  55.046   9.518  1.00  0.00    +0.000 C 
ATOM    120  H34 UNL A   1      13.752  55.025  10.450  1.00  0.00    +0.000 H 
ATOM     24  C16 UNL A   1      12.117  55.752   9.324  1.00  0.00    +0.000 C 
ATOM     25  C17 UNL A   1      11.571  55.871   8.044  1.00  0.00    +0.000 C 
ATOM     26  C18 UNL A   1      12.115  55.136   6.994  1.00  0.00    +0.000 C 
ATOM    119  H33 UNL A   1      14.788  53.869   8.579  1.00  0.00    +0.000 H 
BRANCH   24   22
ATOM     22  C15 UNL A   1      11.414  56.310  10.499  1.00  0.00    +0.000 C 
ATOM     23  O3  UNL A   1      11.041  57.478  10.491  1.00  0.00    +0.000 O 
BRANCH   22   21
ATOM    106  H20 UNL A   1      11.122  54.560  11.443  1.00  0.00    +0.000 H 
ATOM     21  N3  UNL A   1      11.233  55.522  11.614  1.00  0.00    +0.000 N 
BRANCH   21   20
ATOM    105  H19 UNL A   1      10.188  55.745  13.357  1.00  0.00    +0.000 H 
ATOM     20  C14 UNL A   1      11.186  55.923  13.013  1.00  0.00    +0.000 C 
ATOM    104  H18 UNL A   1      11.461  56.954  13.080  1.00  0.00    +0.000 H 
BRANCH   20   19
ATOM     19  C13 UNL A   1      12.118  55.115  13.909  1.00  0.00    +0.000 C 
ATOM    102  H16 UNL A   1      12.506  55.772  14.659  1.00  0.00    +0.000 H 
ATOM    103  H17 UNL A   1      11.528  54.313  14.300  1.00  0.00    +0.000 H 
BRANCH   19   18
ATOM     18  C12 UNL A   1      13.304  54.456  13.204  1.00  0.00    +0.000 C 
ATOM    100  H14 UNL A   1      13.288  54.763  12.178  1.00  0.00    +0.000 H 
ATOM    101  H15 UNL A   1      14.174  54.773  13.738  1.00  0.00    +0.000 H 
BRANCH   18   17
ATOM     17  C11 UNL A   1      13.329  52.925  13.236  1.00  0.00    +0.000 C 
ATOM     98  H12 UNL A   1      13.751  52.585  12.312  1.00  0.00    +0.000 H 
ATOM     99  H13 UNL A   1      13.901  52.665  14.100  1.00  0.00    +0.000 H 
BRANCH   17   16
ATOM     97  H11 UNL A   1      11.355  52.923  13.953  1.00  0.00    +0.000 H 
ATOM     96  H10 UNL A   1      12.135  51.311  13.930  1.00  0.00    +0.000 H 
ATOM     16  C10 UNL A   1      11.971  52.233  13.413  1.00  0.00    +0.000 C 
BRANCH   16   15
ATOM     95  H9  UNL A   1      11.845  52.211  11.298  1.00  0.00    +0.000 H 
ATOM     94  H8  UNL A   1      10.301  52.467  12.112  1.00  0.00    +0.000 H 
ATOM     15  C9  UNL A   1      11.223  51.923  12.119  1.00  0.00    +0.000 C 
BRANCH   15   14
ATOM     93  H7  UNL A   1      10.247  50.114  12.576  1.00  0.00    +0.000 H 
ATOM     14  N2  UNL A   1      10.934  50.509  11.993  1.00  0.00    +0.000 N 
BRANCH   14    2
ATOM      1  O1  UNL A   1      11.108  49.352  10.010  1.00  0.00    +0.000 O 
ATOM      2  C1  UNL A   1      11.583  49.694  11.087  1.00  0.00    +0.000 C 
BRANCH    2    3
ATOM      3  C2  UNL A   1      12.957  49.217  11.560  1.00  0.00    +0.000 C 
ATOM     87  H1  UNL A   1      12.899  48.165  11.747  1.00  0.00    +0.000 H 
ATOM     88  H2  UNL A   1      13.193  49.782  12.437  1.00  0.00    +0.000 H 
BRANCH    3    4
ATOM      4  C3  UNL A   1      14.072  49.464  10.569  1.00  0.00    +0.000 C 
ATOM      5  C4  UNL A   1      14.311  50.841  10.184  1.00  0.00    +0.000 C 
ATOM      6  C5  UNL A   1      15.241  51.138   9.267  1.00  0.00    +0.000 C 
ATOM      7  N1  UNL A   1      16.001  50.148   8.672  1.00  0.00    +0.000 N 
ATOM     11  C7  UNL A   1      15.853  48.807   8.986  1.00  0.00    +0.000 C 
ATOM     12  O2  UNL A   1      16.469  47.878   8.475  1.00  0.00    +0.000 O 
ATOM     13  C8  UNL A   1      14.826  48.496  10.019  1.00  0.00    +0.000 C 
ATOM     89  H3  UNL A   1      13.761  51.598  10.619  1.00  0.00    +0.000 H 
ATOM     90  H4  UNL A   1      15.394  52.123   9.000  1.00  0.00    +0.000 H 
ATOM     92  H6  UNL A   1      14.692  47.518  10.321  1.00  0.00    +0.000 H 
BRANCH    7    8
ATOM      9  F1  UNL A   1      16.421  51.300   6.716  1.00  0.00    +0.000 F 
ATOM     10  F2  UNL A   1      18.041  51.091   8.180  1.00  0.00    +0.000 F 
ATOM     91  H5  UNL A   1      17.245  49.554   7.185  1.00  0.00    +0.000 H 
ATOM      8  C6  UNL A   1      16.957  50.475   7.647  1.00  0.00    +0.000 C 
ENDBRANCH    7    8
ENDBRANCH    3    4
ENDBRANCH    2    3
ENDBRANCH   14    2
ENDBRANCH   15   14
ENDBRANCH   16   15
ENDBRANCH   17   16
ENDBRANCH   18   17
ENDBRANCH   19   18
ENDBRANCH   20   19
ENDBRANCH   21   20
ENDBRANCH   22   21
ENDBRANCH   24   22
ENDBRANCH   28   27
BRANCH   32   33
ATOM     33  C24 UNL A   1      12.047  47.736   5.378  1.00  0.00    +0.000 C 
ATOM     34  C25 UNL A   1      10.772  47.422   4.886  1.00  0.00    +0.000 C 
ATOM     35  F3  UNL A   1      10.232  48.150   3.897  1.00  0.00    +0.000 F 
ATOM     36  C26 UNL A   1      10.038  46.368   5.425  1.00  0.00    +0.000 C 
ATOM     37  F4  UNL A   1       8.810  46.101   4.957  1.00  0.00    +0.000 F 
ATOM     38  C27 UNL A   1      10.572  45.597   6.447  1.00  0.00    +0.000 C 
ATOM     39  F5  UNL A   1       9.868  44.576   6.956  1.00  0.00    +0.000 F 
ATOM     40  C28 UNL A   1      11.834  45.887   6.944  1.00  0.00    +0.000 C 
ATOM     41  F6  UNL A   1      12.355  45.136   7.925  1.00  0.00    +0.000 F 
ATOM     42  C29 UNL A   1      12.562  46.953   6.421  1.00  0.00    +0.000 C 
ATOM     43  F7  UNL A   1      13.779  47.210   6.923  1.00  0.00    +0.000 F 
ENDBRANCH   32   33
BRANCH   49   50
ATOM     50  C35 UNL A   1      16.328  48.646  -0.334  1.00  0.00    +0.000 C 
ATOM     51  C36 UNL A   1      15.553  48.415  -1.479  1.00  0.00    +0.000 C 
ATOM     52  F8  UNL A   1      14.295  48.875  -1.546  1.00  0.00    +0.000 F 
ATOM     53  C37 UNL A   1      16.060  47.682  -2.549  1.00  0.00    +0.000 C 
ATOM     54  F9  UNL A   1      15.292  47.444  -3.620  1.00  0.00    +0.000 F 
ATOM     55  C38 UNL A   1      17.357  47.192  -2.504  1.00  0.00    +0.000 C 
ATOM     56  F10 UNL A   1      17.847  46.495  -3.538  1.00  0.00    +0.000 F 
ATOM     57  C39 UNL A   1      18.145  47.419  -1.384  1.00  0.00    +0.000 C 
ATOM     58  F11 UNL A   1      19.400  46.954  -1.344  1.00  0.00    +0.000 F 
ATOM     59  C40 UNL A   1      17.633  48.132  -0.304  1.00  0.00    +0.000 C 
ATOM     60  F12 UNL A   1      18.414  48.332   0.768  1.00  0.00    +0.000 F 
ENDBRANCH   49   50
BRANCH   64   65
ATOM     65  C44 UNL A   1      17.293  55.286   1.532  1.00  0.00    +0.000 C 
ATOM     66  C45 UNL A   1      16.689  56.130   0.593  1.00  0.00    +0.000 C 
ATOM     67  F13 UNL A   1      15.432  55.892   0.190  1.00  0.00    +0.000 F 
ATOM     68  C46 UNL A   1      17.381  57.209   0.046  1.00  0.00    +0.000 C 
ATOM     69  F14 UNL A   1      16.790  57.987  -0.871  1.00  0.00    +0.000 F 
ATOM     70  C47 UNL A   1      18.683  57.473   0.445  1.00  0.00    +0.000 C 
ATOM     71  F15 UNL A   1      19.344  58.518  -0.073  1.00  0.00    +0.000 F 
ATOM     72  C48 UNL A   1      19.301  56.653   1.376  1.00  0.00    +0.000 C 
ATOM     73  F16 UNL A   1      20.554  56.912   1.772  1.00  0.00    +0.000 F 
ATOM     74  C49 UNL A   1      18.618  55.561   1.905  1.00  0.00    +0.000 C 
ATOM     75  F17 UNL A   1      19.239  54.780   2.800  1.00  0.00    +0.000 F 
ENDBRANCH   64   65
TORSDOF 17
ENDMDL
MODEL 5
REMARK VINA RESULT:     -10.2     25.928     30.506
ROOT
ATOM     28  C20 UNL A   1      21.443  35.684  47.485  1.00  0.00    +0.000 C 
ATOM     29  C21 UNL A   1      22.525  36.728  47.401  1.00  0.00    +0.000 C 
ATOM     30  N4  UNL A   1      22.531  37.953  47.866  1.00  0.00    +0.000 N 
ATOM     31  C22 UNL A   1      23.772  38.481  47.533  1.00  0.00    +0.000 C 
ATOM     32  C23 UNL A   1      24.251  39.727  47.765  1.00  0.00    +0.000 C 
ATOM     44  C30 UNL A   1      23.514  40.776  48.420  1.00  0.00    +0.000 C 
ATOM     45  C31 UNL A   1      23.913  42.075  48.683  1.00  0.00    +0.000 C 
ATOM     46  C32 UNL A   1      22.874  42.724  49.357  1.00  0.00    +0.000 C 
ATOM     47  C33 UNL A   1      21.815  41.840  49.482  1.00  0.00    +0.000 C 
ATOM     48  N5  UNL A   1      22.223  40.647  48.907  1.00  0.00    +0.000 N 
ATOM     49  C34 UNL A   1      20.527  42.061  50.088  1.00  0.00    +0.000 C 
ATOM     61  C41 UNL A   1      19.521  41.155  50.126  1.00  0.00    +0.000 C 
ATOM     62  N6  UNL A   1      19.499  39.859  49.635  1.00  0.00    +0.000 N 
ATOM     63  C42 UNL A   1      18.319  39.378  49.941  1.00  0.00    +0.000 C 
ATOM     64  C43 UNL A   1      17.749  38.017  49.659  1.00  0.00    +0.000 C 
ATOM     76  C50 UNL A   1      18.518  37.087  49.064  1.00  0.00    +0.000 C 
ATOM     77  C51 UNL A   1      18.100  35.725  48.743  1.00  0.00    +0.000 C 
ATOM     78  C52 UNL A   1      19.131  35.070  48.186  1.00  0.00    +0.000 C 
ATOM     79  C53 UNL A   1      20.267  35.985  48.064  1.00  0.00    +0.000 C 
ATOM     80  N7  UNL A   1      19.819  37.151  48.634  1.00  0.00    +0.000 N 
ATOM     81  C54 UNL A   1      17.456  40.320  50.666  1.00  0.00    +0.000 C 
ATOM     82  C55 UNL A   1      18.226  41.398  50.729  1.00  0.00    +0.000 C 
ATOM     83  C56 UNL A   1      24.506  37.439  46.848  1.00  0.00    +0.000 C 
ATOM     84  C57 UNL A   1      23.764  36.350  46.702  1.00  0.00    +0.000 C 
ATOM    109  H23 UNL A   1      24.821  42.494  48.427  1.00  0.00    +0.000 H 
ATOM    110  H24 UNL A   1      22.892  43.697  49.702  1.00  0.00    +0.000 H 
ATOM    111  H25 UNL A   1      21.676  39.830  48.850  1.00  0.00    +0.000 H 
ATOM    112  H26 UNL A   1      17.163  35.329  48.916  1.00  0.00    +0.000 H 
ATOM    113  H27 UNL A   1      19.124  34.082  47.892  1.00  0.00    +0.000 H 
ATOM    114  H28 UNL A   1      20.379  37.956  48.725  1.00  0.00    +0.000 H 
ATOM    115  H29 UNL A   1      16.500  40.181  51.030  1.00  0.00    +0.000 H 
ATOM    116  H30 UNL A   1      17.941  42.294  51.154  1.00  0.00    +0.000 H 
ATOM    117  H31 UNL A   1      25.479  37.533  46.517  1.00  0.00    +0.000 H 
ATOM    118  H32 UNL A   1      23.996  35.466  46.222  1.00  0.00    +0.000 H 
ENDROOT
BRANCH   28   27
ATOM     27  C19 UNL A   1      21.639  34.347  46.866  1.00  0.00    +0.000 C 
ATOM    107  H21 UNL A   1      22.157  31.141  47.737  1.00  0.00    +0.000 H 
ATOM    108  H22 UNL A   1      21.943  33.352  48.709  1.00  0.00    +0.000 H 
ATOM     85  C58 UNL A   1      21.566  34.170  45.476  1.00  0.00    +0.000 C 
ATOM     86  C59 UNL A   1      21.579  32.883  44.930  1.00  0.00    +0.000 C 
ATOM    120  H34 UNL A   1      21.492  32.752  43.910  1.00  0.00    +0.000 H 
ATOM     24  C16 UNL A   1      21.707  31.775  45.771  1.00  0.00    +0.000 C 
ATOM     25  C17 UNL A   1      21.932  31.951  47.138  1.00  0.00    +0.000 C 
ATOM     26  C18 UNL A   1      21.849  33.228  47.689  1.00  0.00    +0.000 C 
ATOM    119  H33 UNL A   1      21.503  34.992  44.856  1.00  0.00    +0.000 H 
BRANCH   24   22
ATOM     22  C15 UNL A   1      21.535  30.420  45.204  1.00  0.00    +0.000 C 
ATOM     23  O3  UNL A   1      22.507  29.683  45.074  1.00  0.00    +0.000 O 
BRANCH   22   21
ATOM    106  H20 UNL A   1      20.248  29.139  44.343  1.00  0.00    +0.000 H 
ATOM     21  N3  UNL A   1      20.288  30.021  44.778  1.00  0.00    +0.000 N 
BRANCH   21   20
ATOM    105  H19 UNL A   1      19.209  31.631  45.428  1.00  0.00    +0.000 H 
ATOM     20  C14 UNL A   1      19.020  30.729  44.885  1.00  0.00    +0.000 C 
ATOM    104  H18 UNL A   1      18.318  30.093  45.382  1.00  0.00    +0.000 H 
BRANCH   20   19
ATOM     19  C13 UNL A   1      18.434  31.133  43.537  1.00  0.00    +0.000 C 
ATOM    102  H16 UNL A   1      18.293  32.194  43.543  1.00  0.00    +0.000 H 
ATOM    103  H17 UNL A   1      19.131  30.794  42.799  1.00  0.00    +0.000 H 
BRANCH   19   18
ATOM     18  C12 UNL A   1      17.097  30.484  43.177  1.00  0.00    +0.000 C 
ATOM    100  H14 UNL A   1      16.427  31.261  42.869  1.00  0.00    +0.000 H 
ATOM    101  H15 UNL A   1      17.315  29.770  42.412  1.00  0.00    +0.000 H 
BRANCH   18   17
ATOM     17  C11 UNL A   1      16.417  29.697  44.301  1.00  0.00    +0.000 C 
ATOM     98  H12 UNL A   1      17.018  29.797  45.181  1.00  0.00    +0.000 H 
ATOM     99  H13 UNL A   1      15.436  30.112  44.391  1.00  0.00    +0.000 H 
BRANCH   17   16
ATOM     97  H11 UNL A   1      15.950  27.767  44.988  1.00  0.00    +0.000 H 
ATOM     96  H10 UNL A   1      17.118  27.807  43.631  1.00  0.00    +0.000 H 
ATOM     16  C10 UNL A   1      16.211  28.198  44.043  1.00  0.00    +0.000 C 
BRANCH   16   15
ATOM     95  H9  UNL A   1      15.046  28.588  42.316  1.00  0.00    +0.000 H 
ATOM     94  H8  UNL A   1      14.151  27.841  43.640  1.00  0.00    +0.000 H 
ATOM     15  C9  UNL A   1      15.070  27.851  43.091  1.00  0.00    +0.000 C 
BRANCH   15   14
ATOM     93  H7  UNL A   1      16.051  26.415  41.903  1.00  0.00    +0.000 H 
ATOM     14  N2  UNL A   1      15.261  26.554  42.474  1.00  0.00    +0.000 N 
BRANCH   14    2
ATOM      1  O1  UNL A   1      13.178  25.645  42.839  1.00  0.00    +0.000 O 
ATOM      2  C1  UNL A   1      14.383  25.505  42.656  1.00  0.00    +0.000 C 
BRANCH    2    3
ATOM      3  C2  UNL A   1      15.051  24.130  42.643  1.00  0.00    +0.000 C 
ATOM     87  H1  UNL A   1      15.052  23.749  43.643  1.00  0.00    +0.000 H 
ATOM     88  H2  UNL A   1      16.036  24.271  42.252  1.00  0.00    +0.000 H 
BRANCH    3    4
ATOM      4  C3  UNL A   1      14.367  23.120  41.750  1.00  0.00    +0.000 C 
ATOM      5  C4  UNL A   1      13.822  21.940  42.394  1.00  0.00    +0.000 C 
ATOM      6  C5  UNL A   1      13.254  20.971  41.666  1.00  0.00    +0.000 C 
ATOM      7  N1  UNL A   1      13.162  21.069  40.290  1.00  0.00    +0.000 N 
ATOM     11  C7  UNL A   1      13.642  22.163  39.589  1.00  0.00    +0.000 C 
ATOM     12  O2  UNL A   1      13.622  22.300  38.371  1.00  0.00    +0.000 O 
ATOM     13  C8  UNL A   1      14.256  23.240  40.415  1.00  0.00    +0.000 C 
ATOM     89  H3  UNL A   1      13.873  21.847  43.420  1.00  0.00    +0.000 H 
ATOM     90  H4  UNL A   1      12.877  20.135  42.141  1.00  0.00    +0.000 H 
ATOM     92  H6  UNL A   1      14.602  24.096  39.954  1.00  0.00    +0.000 H 
BRANCH    7    8
ATOM      9  F1  UNL A   1      13.558  19.330  38.824  1.00  0.00    +0.000 F 
ATOM     10  F2  UNL A   1      11.966  19.104  40.316  1.00  0.00    +0.000 F 
ATOM     91  H5  UNL A   1      11.906  20.435  38.830  1.00  0.00    +0.000 H 
ATOM      8  C6  UNL A   1      12.600  19.994  39.515  1.00  0.00    +0.000 C 
ENDBRANCH    7    8
ENDBRANCH    3    4
ENDBRANCH    2    3
ENDBRANCH   14    2
ENDBRANCH   15   14
ENDBRANCH   16   15
ENDBRANCH   17   16
ENDBRANCH   18   17
ENDBRANCH   19   18
ENDBRANCH   20   19
ENDBRANCH   21   20
ENDBRANCH   22   21
ENDBRANCH   24   22
ENDBRANCH   28   27
BRANCH   32   33
ATOM     33  C24 UNL A   1      25.648  40.033  47.312  1.00  0.00    +0.000 C 
ATOM     34  C25 UNL A   1      25.928  40.369  45.980  1.00  0.00    +0.000 C 
ATOM     35  F3  UNL A   1      24.951  40.350  45.060  1.00  0.00    +0.000 F 
ATOM     36  C26 UNL A   1      27.220  40.706  45.584  1.00  0.00    +0.000 C 
ATOM     37  F4  UNL A   1      27.470  40.998  44.300  1.00  0.00    +0.000 F 
ATOM     38  C27 UNL A   1      28.248  40.735  46.514  1.00  0.00    +0.000 C 
ATOM     39  F5  UNL A   1      29.488  41.072  46.133  1.00  0.00    +0.000 F 
ATOM     40  C28 UNL A   1      27.992  40.413  47.838  1.00  0.00    +0.000 C 
ATOM     41  F6  UNL A   1      28.983  40.451  48.740  1.00  0.00    +0.000 F 
ATOM     42  C29 UNL A   1      26.705  40.056  48.233  1.00  0.00    +0.000 C 
ATOM     43  F7  UNL A   1      26.488  39.748  49.520  1.00  0.00    +0.000 F 
ENDBRANCH   32   33
BRANCH   49   50
ATOM     50  C35 UNL A   1      20.274  43.397  50.718  1.00  0.00    +0.000 C 
ATOM     51  C36 UNL A   1      20.607  43.642  52.058  1.00  0.00    +0.000 C 
ATOM     52  F8  UNL A   1      21.103  42.657  52.820  1.00  0.00    +0.000 F 
ATOM     53  C37 UNL A   1      20.404  44.897  52.626  1.00  0.00    +0.000 C 
ATOM     54  F9  UNL A   1      20.699  45.102  53.916  1.00  0.00    +0.000 F 
ATOM     55  C38 UNL A   1      19.889  45.933  51.859  1.00  0.00    +0.000 C 
ATOM     56  F10 UNL A   1      19.703  47.142  52.406  1.00  0.00    +0.000 F 
ATOM     57  C39 UNL A   1      19.563  45.714  50.529  1.00  0.00    +0.000 C 
ATOM     58  F11 UNL A   1      19.074  46.716  49.786  1.00  0.00    +0.000 F 
ATOM     59  C40 UNL A   1      19.744  44.455  49.964  1.00  0.00    +0.000 C 
ATOM     60  F12 UNL A   1      19.415  44.269  48.677  1.00  0.00    +0.000 F 
ENDBRANCH   49   50
BRANCH   64   65
ATOM     65  C44 UNL A   1      16.351  37.685  50.027  1.00  0.00    +0.000 C 
ATOM     66  C45 UNL A   1      15.976  37.537  51.368  1.00  0.00    +0.000 C 
ATOM     67  F13 UNL A   1      16.896  37.653  52.337  1.00  0.00    +0.000 F 
ATOM     68  C46 UNL A   1      14.659  37.247  51.718  1.00  0.00    +0.000 C 
ATOM     69  F14 UNL A   1      14.330  37.084  53.007  1.00  0.00    +0.000 F 
ATOM     70  C47 UNL A   1      13.690  37.120  50.734  1.00  0.00    +0.000 C 
ATOM     71  F15 UNL A   1      12.421  36.853  51.072  1.00  0.00    +0.000 F 
ATOM     72  C48 UNL A   1      14.037  37.266  49.399  1.00  0.00    +0.000 C 
ATOM     73  F16 UNL A   1      13.102  37.156  48.446  1.00  0.00    +0.000 F 
ATOM     74  C49 UNL A   1      15.357  37.532  49.047  1.00  0.00    +0.000 C 
ATOM     75  F17 UNL A   1      15.669  37.663  47.750  1.00  0.00    +0.000 F 
ENDBRANCH   64   65
TORSDOF 17
ENDMDL
MODEL 6
REMARK VINA RESULT:     -10.1     25.326     29.776
ROOT
ATOM     28  C20 UNL A   1      23.009  35.816  47.253  1.00  0.00    +0.000 C 
ATOM     29  C21 UNL A   1      24.029  36.918  47.153  1.00  0.00    +0.000 C 
ATOM     30  N4  UNL A   1      23.930  38.173  47.518  1.00  0.00    +0.000 N 
ATOM     31  C22 UNL A   1      25.157  38.754  47.223  1.00  0.00    +0.000 C 
ATOM     32  C23 UNL A   1      25.543  40.042  47.384  1.00  0.00    +0.000 C 
ATOM     44  C30 UNL A   1      24.701  41.088  47.905  1.00  0.00    +0.000 C 
ATOM     45  C31 UNL A   1      25.003  42.427  48.088  1.00  0.00    +0.000 C 
ATOM     46  C32 UNL A   1      23.883  43.056  48.641  1.00  0.00    +0.000 C 
ATOM     47  C33 UNL A   1      22.873  42.116  48.770  1.00  0.00    +0.000 C 
ATOM     48  N5  UNL A   1      23.390  40.912  48.319  1.00  0.00    +0.000 N 
ATOM     49  C34 UNL A   1      21.536  42.298  49.274  1.00  0.00    +0.000 C 
ATOM     61  C41 UNL A   1      20.586  41.334  49.321  1.00  0.00    +0.000 C 
ATOM     62  N6  UNL A   1      20.676  40.005  48.935  1.00  0.00    +0.000 N 
ATOM     63  C42 UNL A   1      19.509  39.473  49.205  1.00  0.00    +0.000 C 
ATOM     64  C43 UNL A   1      19.041  38.061  48.997  1.00  0.00    +0.000 C 
ATOM     76  C50 UNL A   1      19.903  37.140  48.528  1.00  0.00    +0.000 C 
ATOM     77  C51 UNL A   1      19.591  35.733  48.291  1.00  0.00    +0.000 C 
ATOM     78  C52 UNL A   1      20.695  35.107  47.854  1.00  0.00    +0.000 C 
ATOM     79  C53 UNL A   1      21.779  36.082  47.730  1.00  0.00    +0.000 C 
ATOM     80  N7  UNL A   1      21.225  37.256  48.176  1.00  0.00    +0.000 N 
ATOM     81  C54 UNL A   1      18.543  40.409  49.796  1.00  0.00    +0.000 C 
ATOM     82  C55 UNL A   1      19.241  41.537  49.821  1.00  0.00    +0.000 C 
ATOM     83  C56 UNL A   1      25.996  37.713  46.671  1.00  0.00    +0.000 C 
ATOM     84  C57 UNL A   1      25.333  36.569  46.566  1.00  0.00    +0.000 C 
ATOM    109  H23 UNL A   1      25.899  42.883  47.856  1.00  0.00    +0.000 H 
ATOM    110  H24 UNL A   1      23.819  44.050  48.908  1.00  0.00    +0.000 H 
ATOM    111  H25 UNL A   1      22.899  40.060  48.293  1.00  0.00    +0.000 H 
ATOM    112  H26 UNL A   1      18.670  35.291  48.435  1.00  0.00    +0.000 H 
ATOM    113  H27 UNL A   1      20.767  34.101  47.640  1.00  0.00    +0.000 H 
ATOM    114  H28 UNL A   1      21.728  38.101  48.237  1.00  0.00    +0.000 H 
ATOM    115  H29 UNL A   1      17.575  40.236  50.109  1.00  0.00    +0.000 H 
ATOM    116  H30 UNL A   1      18.874  42.442  50.153  1.00  0.00    +0.000 H 
ATOM    117  H31 UNL A   1      26.982  37.845  46.395  1.00  0.00    +0.000 H 
ATOM    118  H32 UNL A   1      25.649  35.669  46.174  1.00  0.00    +0.000 H 
ENDROOT
BRANCH   28   27
ATOM     27  C19 UNL A   1      23.326  34.451  46.756  1.00  0.00    +0.000 C 
ATOM    107  H21 UNL A   1      24.710  31.571  47.803  1.00  0.00    +0.000 H 
ATOM    108  H22 UNL A   1      24.277  33.838  48.545  1.00  0.00    +0.000 H 
ATOM     85  C58 UNL A   1      22.953  34.039  45.468  1.00  0.00    +0.000 C 
ATOM     86  C59 UNL A   1      23.104  32.704  45.085  1.00  0.00    +0.000 C 
ATOM    120  H34 UNL A   1      22.800  32.395  44.148  1.00  0.00    +0.000 H 
ATOM     24  C16 UNL A   1      23.668  31.787  45.977  1.00  0.00    +0.000 C 
ATOM     25  C17 UNL A   1      24.178  32.221  47.202  1.00  0.00    +0.000 C 
ATOM     26  C18 UNL A   1      23.963  33.535  47.609  1.00  0.00    +0.000 C 
ATOM    119  H33 UNL A   1      22.567  34.725  44.800  1.00  0.00    +0.000 H 
BRANCH   24   22
ATOM     22  C15 UNL A   1      23.653  30.349  45.632  1.00  0.00    +0.000 C 
ATOM     23  O3  UNL A   1      24.644  29.831  45.128  1.00  0.00    +0.000 O 
BRANCH   22   21
ATOM    106  H20 UNL A   1      22.436  29.160  46.701  1.00  0.00    +0.000 H 
ATOM     21  N3  UNL A   1      22.504  29.619  45.834  1.00  0.00    +0.000 N 
BRANCH   21   20
ATOM    105  H19 UNL A   1      21.121  28.396  44.955  1.00  0.00    +0.000 H 
ATOM     20  C14 UNL A   1      21.373  29.435  44.935  1.00  0.00    +0.000 C 
ATOM    104  H18 UNL A   1      21.659  29.765  43.958  1.00  0.00    +0.000 H 
BRANCH   20   19
ATOM     19  C13 UNL A   1      20.128  30.206  45.359  1.00  0.00    +0.000 C 
ATOM    102  H16 UNL A   1      19.273  29.605  45.126  1.00  0.00    +0.000 H 
ATOM    103  H17 UNL A   1      20.246  30.403  46.404  1.00  0.00    +0.000 H 
BRANCH   19   18
ATOM     18  C12 UNL A   1      19.938  31.570  44.695  1.00  0.00    +0.000 C 
ATOM    100  H14 UNL A   1      20.856  32.113  44.790  1.00  0.00    +0.000 H 
ATOM    101  H15 UNL A   1      19.657  31.366  43.684  1.00  0.00    +0.000 H 
BRANCH   18   17
ATOM     17  C11 UNL A   1      18.816  32.439  45.272  1.00  0.00    +0.000 C 
ATOM     98  H12 UNL A   1      17.899  31.896  45.177  1.00  0.00    +0.000 H 
ATOM     99  H13 UNL A   1      19.102  32.645  46.281  1.00  0.00    +0.000 H 
BRANCH   17   16
ATOM     97  H11 UNL A   1      19.250  33.815  43.745  1.00  0.00    +0.000 H 
ATOM     96  H10 UNL A   1      18.872  34.562  45.327  1.00  0.00    +0.000 H 
ATOM     16  C10 UNL A   1      18.620  33.810  44.610  1.00  0.00    +0.000 C 
BRANCH   16   15
ATOM     95  H9  UNL A   1      17.083  35.154  44.039  1.00  0.00    +0.000 H 
ATOM     94  H8  UNL A   1      16.502  33.665  44.786  1.00  0.00    +0.000 H 
ATOM     15  C9  UNL A   1      17.207  34.093  44.104  1.00  0.00    +0.000 C 
BRANCH   15   14
ATOM     93  H7  UNL A   1      17.564  33.826  42.046  1.00  0.00    +0.000 H 
ATOM     14  N2  UNL A   1      16.987  33.532  42.787  1.00  0.00    +0.000 N 
BRANCH   14    2
ATOM      1  O1  UNL A   1      14.852  32.687  42.949  1.00  0.00    +0.000 O 
ATOM      2  C1  UNL A   1      16.001  32.601  42.529  1.00  0.00    +0.000 C 
BRANCH    2    3
ATOM      3  C2  UNL A   1      16.475  31.415  41.689  1.00  0.00    +0.000 C 
ATOM     87  H1  UNL A   1      17.523  31.532  41.507  1.00  0.00    +0.000 H 
ATOM     88  H2  UNL A   1      15.895  31.424  40.790  1.00  0.00    +0.000 H 
BRANCH    3    4
ATOM      4  C3  UNL A   1      16.252  30.069  42.338  1.00  0.00    +0.000 C 
ATOM      5  C4  UNL A   1      16.759  29.901  43.687  1.00  0.00    +0.000 C 
ATOM      6  C5  UNL A   1      16.654  28.721  44.310  1.00  0.00    +0.000 C 
ATOM      7  N1  UNL A   1      16.055  27.637  43.694  1.00  0.00    +0.000 N 
ATOM     11  C7  UNL A   1      15.530  27.706  42.414  1.00  0.00    +0.000 C 
ATOM     12  O2  UNL A   1      15.016  26.778  41.799  1.00  0.00    +0.000 O 
ATOM     13  C8  UNL A   1      15.640  29.030  41.742  1.00  0.00    +0.000 C 
ATOM     89  H3  UNL A   1      17.204  30.697  44.170  1.00  0.00    +0.000 H 
ATOM     90  H4  UNL A   1      17.026  28.617  45.267  1.00  0.00    +0.000 H 
ATOM     92  H6  UNL A   1      15.238  29.155  40.799  1.00  0.00    +0.000 H 
BRANCH    7    8
ATOM      9  F1  UNL A   1      17.180  25.702  44.257  1.00  0.00    +0.000 F 
ATOM     10  F2  UNL A   1      15.707  26.508  45.668  1.00  0.00    +0.000 F 
ATOM     91  H5  UNL A   1      15.234  25.791  43.866  1.00  0.00    +0.000 H 
ATOM      8  C6  UNL A   1      15.999  26.359  44.353  1.00  0.00    +0.000 C 
ENDBRANCH    7    8
ENDBRANCH    3    4
ENDBRANCH    2    3
ENDBRANCH   14    2
ENDBRANCH   15   14
ENDBRANCH   16   15
ENDBRANCH   17   16
ENDBRANCH   18   17
ENDBRANCH   19   18
ENDBRANCH   20   19
ENDBRANCH   21   20
ENDBRANCH   22   21
ENDBRANCH   24   22
ENDBRANCH   28   27
BRANCH   32   33
ATOM     33  C24 UNL A   1      26.946  40.404  46.996  1.00  0.00    +0.000 C 
ATOM     34  C25 UNL A   1      27.261  40.821  45.695  1.00  0.00    +0.000 C 
ATOM     35  F3  UNL A   1      26.316  40.833  44.744  1.00  0.00    +0.000 F 
ATOM     36  C26 UNL A   1      28.557  41.207  45.363  1.00  0.00    +0.000 C 
ATOM     37  F4  UNL A   1      28.842  41.578  44.106  1.00  0.00    +0.000 F 
ATOM     38  C27 UNL A   1      29.554  41.206  46.328  1.00  0.00    +0.000 C 
ATOM     39  F5  UNL A   1      30.797  41.590  46.008  1.00  0.00    +0.000 F 
ATOM     40  C28 UNL A   1      29.262  40.803  47.622  1.00  0.00    +0.000 C 
ATOM     41  F6  UNL A   1      30.222  40.811  48.557  1.00  0.00    +0.000 F 
ATOM     42  C29 UNL A   1      27.972  40.397  47.953  1.00  0.00    +0.000 C 
ATOM     43  F7  UNL A   1      27.720  40.011  49.212  1.00  0.00    +0.000 F 
ENDBRANCH   32   33
BRANCH   49   50
ATOM     50  C35 UNL A   1      21.161  43.659  49.778  1.00  0.00    +0.000 C 
ATOM     51  C36 UNL A   1      20.584  44.613  48.929  1.00  0.00    +0.000 C 
ATOM     52  F8  UNL A   1      20.416  44.343  47.626  1.00  0.00    +0.000 F 
ATOM     53  C37 UNL A   1      20.202  45.862  49.413  1.00  0.00    +0.000 C 
ATOM     54  F9  UNL A   1      19.683  46.771  48.578  1.00  0.00    +0.000 F 
ATOM     55  C38 UNL A   1      20.369  46.168  50.756  1.00  0.00    +0.000 C 
ATOM     56  F10 UNL A   1      19.993  47.367  51.221  1.00  0.00    +0.000 F 
ATOM     57  C39 UNL A   1      20.928  45.234  51.615  1.00  0.00    +0.000 C 
ATOM     58  F11 UNL A   1      21.080  45.526  52.913  1.00  0.00    +0.000 F 
ATOM     59  C40 UNL A   1      21.331  43.993  51.130  1.00  0.00    +0.000 C 
ATOM     60  F12 UNL A   1      21.874  43.110  51.981  1.00  0.00    +0.000 F 
ENDBRANCH   49   50
BRANCH   64   65
ATOM     65  C44 UNL A   1      17.644  37.667  49.301  1.00  0.00    +0.000 C 
ATOM     66  C45 UNL A   1      17.183  37.620  50.623  1.00  0.00    +0.000 C 
ATOM     67  F13 UNL A   1      18.020  37.890  51.634  1.00  0.00    +0.000 F 
ATOM     68  C46 UNL A   1      15.865  37.271  50.911  1.00  0.00    +0.000 C 
ATOM     69  F14 UNL A   1      15.453  37.208  52.185  1.00  0.00    +0.000 F 
ATOM     70  C47 UNL A   1      14.980  36.985  49.881  1.00  0.00    +0.000 C 
ATOM     71  F15 UNL A   1      13.710  36.662  50.159  1.00  0.00    +0.000 F 
ATOM     72  C48 UNL A   1      15.414  37.029  48.565  1.00  0.00    +0.000 C 
ATOM     73  F16 UNL A   1      14.560  36.764  47.568  1.00  0.00    +0.000 F 
ATOM     74  C49 UNL A   1      16.737  37.353  48.278  1.00  0.00    +0.000 C 
ATOM     75  F17 UNL A   1      17.134  37.384  46.998  1.00  0.00    +0.000 F 
ENDBRANCH   64   65
TORSDOF 17
ENDMDL
MODEL 7
REMARK VINA RESULT:     -10.0     38.639     43.546
ROOT
ATOM     28  C20 UNL A   1      25.652 -12.050  30.285  1.00  0.00    +0.000 C 
ATOM     29  C21 UNL A   1      26.830 -12.908  30.665  1.00  0.00    +0.000 C 
ATOM     30  N4  UNL A   1      27.132 -13.431  31.828  1.00  0.00    +0.000 N 
ATOM     31  C22 UNL A   1      28.307 -14.145  31.631  1.00  0.00    +0.000 C 
ATOM     32  C23 UNL A   1      29.038 -14.837  32.538  1.00  0.00    +0.000 C 
ATOM     44  C30 UNL A   1      28.713 -14.946  33.936  1.00  0.00    +0.000 C 
ATOM     45  C31 UNL A   1      29.406 -15.613  34.932  1.00  0.00    +0.000 C 
ATOM     46  C32 UNL A   1      28.701 -15.462  36.131  1.00  0.00    +0.000 C 
ATOM     47  C33 UNL A   1      27.589 -14.673  35.888  1.00  0.00    +0.000 C 
ATOM     48  N5  UNL A   1      27.606 -14.367  34.536  1.00  0.00    +0.000 N 
ATOM     49  C34 UNL A   1      26.579 -14.234  36.815  1.00  0.00    +0.000 C 
ATOM     61  C41 UNL A   1      25.543 -13.418  36.507  1.00  0.00    +0.000 C 
ATOM     62  N6  UNL A   1      25.213 -12.855  35.284  1.00  0.00    +0.000 N 
ATOM     63  C42 UNL A   1      24.113 -12.173  35.486  1.00  0.00    +0.000 C 
ATOM     64  C43 UNL A   1      23.307 -11.364  34.510  1.00  0.00    +0.000 C 
ATOM     76  C50 UNL A   1      23.669 -11.337  33.214  1.00  0.00    +0.000 C 
ATOM     77  C51 UNL A   1      22.974 -10.608  32.158  1.00  0.00    +0.000 C 
ATOM     78  C52 UNL A   1      23.593 -10.833  30.989  1.00  0.00    +0.000 C 
ATOM     79  C53 UNL A   1      24.762 -11.682  31.224  1.00  0.00    +0.000 C 
ATOM     80  N7  UNL A   1      24.713 -11.953  32.569  1.00  0.00    +0.000 N 
ATOM     81  C54 UNL A   1      23.618 -12.226  36.869  1.00  0.00    +0.000 C 
ATOM     82  C55 UNL A   1      24.541 -12.976  37.457  1.00  0.00    +0.000 C 
ATOM     83  C56 UNL A   1      28.653 -14.013  30.233  1.00  0.00    +0.000 C 
ATOM     84  C57 UNL A   1      27.797 -13.223  29.600  1.00  0.00    +0.000 C 
ATOM    109  H23 UNL A   1      30.290 -16.131  34.813  1.00  0.00    +0.000 H 
ATOM    110  H24 UNL A   1      28.965 -15.869  37.042  1.00  0.00    +0.000 H 
ATOM    111  H25 UNL A   1      26.934 -13.818  34.071  1.00  0.00    +0.000 H 
ATOM    112  H26 UNL A   1      22.140 -10.013  32.289  1.00  0.00    +0.000 H 
ATOM    113  H27 UNL A   1      23.294 -10.467  30.072  1.00  0.00    +0.000 H 
ATOM    114  H28 UNL A   1      25.364 -12.533  33.026  1.00  0.00    +0.000 H 
ATOM    115  H29 UNL A   1      22.775 -11.793  37.276  1.00  0.00    +0.000 H 
ATOM    116  H30 UNL A   1      24.545 -13.215  38.460  1.00  0.00    +0.000 H 
ATOM    117  H31 UNL A   1      29.462 -14.474  29.787  1.00  0.00    +0.000 H 
ATOM    118  H32 UNL A   1      27.806 -12.909  28.617  1.00  0.00    +0.000 H 
ENDROOT
BRANCH   28   27
ATOM     27  C19 UNL A   1      25.509 -11.543  28.895  1.00  0.00    +0.000 C 
ATOM    107  H21 UNL A   1      26.393  -8.917  26.992  1.00  0.00    +0.000 H 
ATOM    108  H22 UNL A   1      26.515  -9.721  29.276  1.00  0.00    +0.000 H 
ATOM     85  C58 UNL A   1      24.866 -12.303  27.906  1.00  0.00    +0.000 C 
ATOM     86  C59 UNL A   1      24.895 -11.888  26.571  1.00  0.00    +0.000 C 
ATOM    120  H34 UNL A   1      24.449 -12.463  25.839  1.00  0.00    +0.000 H 
ATOM     24  C16 UNL A   1      25.532 -10.691  26.232  1.00  0.00    +0.000 C 
ATOM     25  C17 UNL A   1      26.041  -9.857  27.230  1.00  0.00    +0.000 C 
ATOM     26  C18 UNL A   1      26.073 -10.305  28.548  1.00  0.00    +0.000 C 
ATOM    119  H33 UNL A   1      24.369 -13.170  28.164  1.00  0.00    +0.000 H 
BRANCH   24   22
ATOM     22  C15 UNL A   1      25.716 -10.357  24.803  1.00  0.00    +0.000 C 
ATOM     23  O3  UNL A   1      24.765 -10.427  24.031  1.00  0.00    +0.000 O 
BRANCH   22   21
ATOM    106  H20 UNL A   1      27.144  -9.057  24.246  1.00  0.00    +0.000 H 
ATOM     21  N3  UNL A   1      26.970 -10.021  24.345  1.00  0.00    +0.000 N 
BRANCH   21   20
ATOM    105  H19 UNL A   1      28.845 -10.284  23.575  1.00  0.00    +0.000 H 
ATOM     20  C14 UNL A   1      28.074 -10.899  23.989  1.00  0.00    +0.000 C 
ATOM    104  H18 UNL A   1      27.717 -11.627  23.291  1.00  0.00    +0.000 H 
BRANCH   20   19
ATOM     19  C13 UNL A   1      28.679 -11.631  25.182  1.00  0.00    +0.000 C 
ATOM    102  H16 UNL A   1      27.875 -12.028  25.767  1.00  0.00    +0.000 H 
ATOM    103  H17 UNL A   1      29.325 -12.378  24.772  1.00  0.00    +0.000 H 
BRANCH   19   18
ATOM     18  C12 UNL A   1      29.555 -10.781  26.103  1.00  0.00    +0.000 C 
ATOM    100  H14 UNL A   1      28.912 -10.281  26.798  1.00  0.00    +0.000 H 
ATOM    101  H15 UNL A   1      30.244 -11.460  26.559  1.00  0.00    +0.000 H 
BRANCH   18   17
ATOM     17  C11 UNL A   1      30.413  -9.719  25.409  1.00  0.00    +0.000 C 
ATOM     98  H12 UNL A   1      31.123 -10.226  24.789  1.00  0.00    +0.000 H 
ATOM     99  H13 UNL A   1      29.727  -9.099  24.873  1.00  0.00    +0.000 H 
BRANCH   17   16
ATOM     97  H11 UNL A   1      30.477  -8.065  26.703  1.00  0.00    +0.000 H 
ATOM     96  H10 UNL A   1      31.979  -8.328  25.764  1.00  0.00    +0.000 H 
ATOM     16  C10 UNL A   1      31.191  -8.773  26.334  1.00  0.00    +0.000 C 
BRANCH   16   15
ATOM     95  H9  UNL A   1      32.825  -9.678  27.336  1.00  0.00    +0.000 H 
ATOM     94  H8  UNL A   1      31.246 -10.303  27.815  1.00  0.00    +0.000 H 
ATOM     15  C9  UNL A   1      31.810  -9.428  27.566  1.00  0.00    +0.000 C 
BRANCH   15   14
ATOM     93  H7  UNL A   1      32.292  -7.677  28.631  1.00  0.00    +0.000 H 
ATOM     14  N2  UNL A   1      31.813  -8.533  28.705  1.00  0.00    +0.000 N 
BRANCH   14    2
ATOM      1  O1  UNL A   1      31.528  -8.416  30.987  1.00  0.00    +0.000 O 
ATOM      2  C1  UNL A   1      31.172  -8.833  29.890  1.00  0.00    +0.000 C 
BRANCH    2    3
ATOM      3  C2  UNL A   1      29.977  -9.773  29.724  1.00  0.00    +0.000 C 
ATOM     87  H1  UNL A   1      30.344 -10.777  29.686  1.00  0.00    +0.000 H 
ATOM     88  H2  UNL A   1      29.477  -9.479  28.825  1.00  0.00    +0.000 H 
BRANCH    3    4
ATOM      4  C3  UNL A   1      28.959  -9.681  30.839  1.00  0.00    +0.000 C 
ATOM      5  C4  UNL A   1      27.949  -8.647  30.719  1.00  0.00    +0.000 C 
ATOM      6  C5  UNL A   1      27.048  -8.462  31.692  1.00  0.00    +0.000 C 
ATOM      7  N1  UNL A   1      27.049  -9.251  32.827  1.00  0.00    +0.000 N 
ATOM     11  C7  UNL A   1      27.965 -10.270  33.024  1.00  0.00    +0.000 C 
ATOM     12  O2  UNL A   1      28.042 -10.984  34.018  1.00  0.00    +0.000 O 
ATOM     13  C8  UNL A   1      28.950 -10.474  31.925  1.00  0.00    +0.000 C 
ATOM     89  H3  UNL A   1      27.924  -8.050  29.878  1.00  0.00    +0.000 H 
ATOM     90  H4  UNL A   1      26.340  -7.717  31.593  1.00  0.00    +0.000 H 
ATOM     92  H6  UNL A   1      29.638 -11.240  31.997  1.00  0.00    +0.000 H 
BRANCH    7    8
ATOM      9  F1  UNL A   1      26.675  -8.285  34.890  1.00  0.00    +0.000 F 
ATOM     10  F2  UNL A   1      25.035  -8.317  33.433  1.00  0.00    +0.000 F 
ATOM     91  H5  UNL A   1      25.807  -9.960  34.266  1.00  0.00    +0.000 H 
ATOM      8  C6  UNL A   1      26.110  -9.004  33.891  1.00  0.00    +0.000 C 
ENDBRANCH    7    8
ENDBRANCH    3    4
ENDBRANCH    2    3
ENDBRANCH   14    2
ENDBRANCH   15   14
ENDBRANCH   16   15
ENDBRANCH   17   16
ENDBRANCH   18   17
ENDBRANCH   19   18
ENDBRANCH   20   19
ENDBRANCH   21   20
ENDBRANCH   22   21
ENDBRANCH   24   22
ENDBRANCH   28   27
BRANCH   32   33
ATOM     33  C24 UNL A   1      30.269 -15.541  32.050  1.00  0.00    +0.000 C 
ATOM     34  C25 UNL A   1      31.545 -14.979  32.209  1.00  0.00    +0.000 C 
ATOM     35  F3  UNL A   1      31.681 -13.754  32.739  1.00  0.00    +0.000 F 
ATOM     36  C26 UNL A   1      32.685 -15.668  31.802  1.00  0.00    +0.000 C 
ATOM     37  F4  UNL A   1      33.892 -15.101  31.939  1.00  0.00    +0.000 F 
ATOM     38  C27 UNL A   1      32.573 -16.936  31.252  1.00  0.00    +0.000 C 
ATOM     39  F5  UNL A   1      33.673 -17.602  30.873  1.00  0.00    +0.000 F 
ATOM     40  C28 UNL A   1      31.322 -17.513  31.092  1.00  0.00    +0.000 C 
ATOM     41  F6  UNL A   1      31.215 -18.743  30.570  1.00  0.00    +0.000 F 
ATOM     42  C29 UNL A   1      30.179 -16.818  31.479  1.00  0.00    +0.000 C 
ATOM     43  F7  UNL A   1      28.983 -17.401  31.311  1.00  0.00    +0.000 F 
ENDBRANCH   32   33
BRANCH   49   50
ATOM     50  C35 UNL A   1      26.682 -14.709  38.234  1.00  0.00    +0.000 C 
ATOM     51  C36 UNL A   1      27.472 -14.028  39.171  1.00  0.00    +0.000 C 
ATOM     52  F8  UNL A   1      28.203 -12.969  38.794  1.00  0.00    +0.000 F 
ATOM     53  C37 UNL A   1      27.533 -14.452  40.496  1.00  0.00    +0.000 C 
ATOM     54  F9  UNL A   1      28.319 -13.807  41.367  1.00  0.00    +0.000 F 
ATOM     55  C38 UNL A   1      26.789 -15.546  40.911  1.00  0.00    +0.000 C 
ATOM     56  F10 UNL A   1      26.842 -15.948  42.188  1.00  0.00    +0.000 F 
ATOM     57  C39 UNL A   1      25.993 -16.228  40.001  1.00  0.00    +0.000 C 
ATOM     58  F11 UNL A   1      25.267 -17.279  40.404  1.00  0.00    +0.000 F 
ATOM     59  C40 UNL A   1      25.946 -15.820  38.672  1.00  0.00    +0.000 C 
ATOM     60  F12 UNL A   1      25.173 -16.500  37.812  1.00  0.00    +0.000 F 
ENDBRANCH   49   50
BRANCH   64   65
ATOM     65  C44 UNL A   1      22.119 -10.595  34.954  1.00  0.00    +0.000 C 
ATOM     66  C45 UNL A   1      22.259  -9.334  35.546  1.00  0.00    +0.000 C 
ATOM     67  F13 UNL A   1      23.482  -8.826  35.758  1.00  0.00    +0.000 F 
ATOM     68  C46 UNL A   1      21.144  -8.599  35.944  1.00  0.00    +0.000 C 
ATOM     69  F14 UNL A   1      21.305  -7.406  36.532  1.00  0.00    +0.000 F 
ATOM     70  C47 UNL A   1      19.869  -9.105  35.738  1.00  0.00    +0.000 C 
ATOM     71  F15 UNL A   1      18.796  -8.393  36.110  1.00  0.00    +0.000 F 
ATOM     72  C48 UNL A   1      19.706 -10.350  35.151  1.00  0.00    +0.000 C 
ATOM     73  F16 UNL A   1      18.476 -10.837  34.939  1.00  0.00    +0.000 F 
ATOM     74  C49 UNL A   1      20.820 -11.095  34.774  1.00  0.00    +0.000 C 
ATOM     75  F17 UNL A   1      20.637 -12.298  34.213  1.00  0.00    +0.000 F 
ENDBRANCH   64   65
TORSDOF 17
ENDMDL
MODEL 8
REMARK VINA RESULT:     -10.0     19.885     25.914
ROOT
ATOM     28  C20 UNL A   1      25.909  36.539  45.445  1.00  0.00    +0.000 C 
ATOM     29  C21 UNL A   1      25.897  37.635  46.478  1.00  0.00    +0.000 C 
ATOM     30  N4  UNL A   1      26.865  38.438  46.843  1.00  0.00    +0.000 N 
ATOM     31  C22 UNL A   1      26.324  39.270  47.816  1.00  0.00    +0.000 C 
ATOM     32  C23 UNL A   1      26.934  40.248  48.526  1.00  0.00    +0.000 C 
ATOM     44  C30 UNL A   1      28.323  40.607  48.398  1.00  0.00    +0.000 C 
ATOM     45  C31 UNL A   1      29.031  41.575  49.089  1.00  0.00    +0.000 C 
ATOM     46  C32 UNL A   1      30.346  41.579  48.612  1.00  0.00    +0.000 C 
ATOM     47  C33 UNL A   1      30.464  40.590  47.649  1.00  0.00    +0.000 C 
ATOM     48  N5  UNL A   1      29.215  40.004  47.525  1.00  0.00    +0.000 N 
ATOM     49  C34 UNL A   1      31.628  40.210  46.892  1.00  0.00    +0.000 C 
ATOM     61  C41 UNL A   1      31.676  39.193  45.998  1.00  0.00    +0.000 C 
ATOM     62  N6  UNL A   1      30.662  38.333  45.606  1.00  0.00    +0.000 N 
ATOM     63  C42 UNL A   1      31.188  37.545  44.700  1.00  0.00    +0.000 C 
ATOM     64  C43 UNL A   1      30.548  36.427  43.929  1.00  0.00    +0.000 C 
ATOM     76  C50 UNL A   1      29.235  36.176  44.093  1.00  0.00    +0.000 C 
ATOM     77  C51 UNL A   1      28.482  35.134  43.402  1.00  0.00    +0.000 C 
ATOM     78  C52 UNL A   1      27.197  35.195  43.786  1.00  0.00    +0.000 C 
ATOM     79  C53 UNL A   1      27.049  36.249  44.791  1.00  0.00    +0.000 C 
ATOM     80  N7  UNL A   1      28.305  36.794  44.891  1.00  0.00    +0.000 N 
ATOM     81  C54 UNL A   1      32.604  37.820  44.415  1.00  0.00    +0.000 C 
ATOM     82  C55 UNL A   1      32.860  38.815  45.253  1.00  0.00    +0.000 C 
ATOM     83  C56 UNL A   1      24.936  38.893  47.970  1.00  0.00    +0.000 C 
ATOM     84  C57 UNL A   1      24.633  37.859  47.197  1.00  0.00    +0.000 C 
ATOM    109  H23 UNL A   1      28.655  42.188  49.829  1.00  0.00    +0.000 H 
ATOM    110  H24 UNL A   1      31.099  42.211  48.924  1.00  0.00    +0.000 H 
ATOM    111  H25 UNL A   1      28.994  39.269  46.909  1.00  0.00    +0.000 H 
ATOM    112  H26 UNL A   1      28.873  34.458  42.728  1.00  0.00    +0.000 H 
ATOM    113  H27 UNL A   1      26.437  34.596  43.431  1.00  0.00    +0.000 H 
ATOM    114  H28 UNL A   1      28.517  37.555  45.479  1.00  0.00    +0.000 H 
ATOM    115  H29 UNL A   1      33.234  37.358  43.740  1.00  0.00    +0.000 H 
ATOM    116  H30 UNL A   1      33.782  39.265  45.359  1.00  0.00    +0.000 H 
ATOM    117  H31 UNL A   1      24.270  39.367  48.599  1.00  0.00    +0.000 H 
ATOM    118  H32 UNL A   1      23.741  37.345  47.120  1.00  0.00    +0.000 H 
ENDROOT
BRANCH   28   27
ATOM     27  C19 UNL A   1      24.690  35.726  45.197  1.00  0.00    +0.000 C 
ATOM    107  H21 UNL A   1      23.160  32.946  46.308  1.00  0.00    +0.000 H 
ATOM    108  H22 UNL A   1      25.192  34.235  46.611  1.00  0.00    +0.000 H 
ATOM     85  C58 UNL A   1      23.724  36.128  44.262  1.00  0.00    +0.000 C 
ATOM     86  C59 UNL A   1      22.508  35.446  44.170  1.00  0.00    +0.000 C 
ATOM    120  H34 UNL A   1      21.785  35.762  43.504  1.00  0.00    +0.000 H 
ATOM     24  C16 UNL A   1      22.274  34.334  44.984  1.00  0.00    +0.000 C 
ATOM     25  C17 UNL A   1      23.288  33.839  45.807  1.00  0.00    +0.000 C 
ATOM     26  C18 UNL A   1      24.470  34.561  45.949  1.00  0.00    +0.000 C 
ATOM    119  H33 UNL A   1      23.913  36.930  43.639  1.00  0.00    +0.000 H 
BRANCH   24   22
ATOM     22  C15 UNL A   1      20.922  33.736  45.010  1.00  0.00    +0.000 C 
ATOM     23  O3  UNL A   1      19.937  34.440  44.807  1.00  0.00    +0.000 O 
BRANCH   22   21
ATOM    106  H20 UNL A   1      20.639  32.193  46.266  1.00  0.00    +0.000 H 
ATOM     21  N3  UNL A   1      20.780  32.401  45.315  1.00  0.00    +0.000 N 
BRANCH   21   20
ATOM    105  H19 UNL A   1      21.839  31.060  44.192  1.00  0.00    +0.000 H 
ATOM     20  C14 UNL A   1      20.811  31.255  44.418  1.00  0.00    +0.000 C 
ATOM    104  H18 UNL A   1      20.241  31.492  43.544  1.00  0.00    +0.000 H 
BRANCH   20   19
ATOM     19  C13 UNL A   1      20.241  29.983  45.036  1.00  0.00    +0.000 C 
ATOM    102  H16 UNL A   1      20.993  29.224  44.981  1.00  0.00    +0.000 H 
ATOM    103  H17 UNL A   1      19.961  30.243  46.035  1.00  0.00    +0.000 H 
BRANCH   19   18
ATOM     18  C12 UNL A   1      18.974  29.439  44.375  1.00  0.00    +0.000 C 
ATOM    100  H14 UNL A   1      19.271  28.832  43.545  1.00  0.00    +0.000 H 
ATOM    101  H15 UNL A   1      18.452  28.904  45.140  1.00  0.00    +0.000 H 
BRANCH   18   17
ATOM     17  C11 UNL A   1      17.990  30.492  43.857  1.00  0.00    +0.000 C 
ATOM     98  H12 UNL A   1      18.254  31.432  44.297  1.00  0.00    +0.000 H 
ATOM     99  H13 UNL A   1      18.076  30.467  42.792  1.00  0.00    +0.000 H 
BRANCH   17   16
ATOM     97  H11 UNL A   1      15.967  31.037  43.702  1.00  0.00    +0.000 H 
ATOM     96  H10 UNL A   1      16.390  30.189  45.222  1.00  0.00    +0.000 H 
ATOM     16  C10 UNL A   1      16.507  30.234  44.159  1.00  0.00    +0.000 C 
BRANCH   16   15
ATOM     95  H9  UNL A   1      16.626  28.583  42.835  1.00  0.00    +0.000 H 
ATOM     94  H8  UNL A   1      14.985  29.164  43.123  1.00  0.00    +0.000 H 
ATOM     15  C9  UNL A   1      15.935  28.949  43.566  1.00  0.00    +0.000 C 
BRANCH   15   14
ATOM     93  H7  UNL A   1      15.613  28.200  45.507  1.00  0.00    +0.000 H 
ATOM     14  N2  UNL A   1      15.760  27.924  44.575  1.00  0.00    +0.000 N 
BRANCH   14    2
ATOM      1  O1  UNL A   1      16.797  25.878  44.370  1.00  0.00    +0.000 O 
ATOM      2  C1  UNL A   1      15.792  26.576  44.280  1.00  0.00    +0.000 C 
BRANCH    2    3
ATOM      3  C2  UNL A   1      14.454  26.019  43.792  1.00  0.00    +0.000 C 
ATOM     87  H1  UNL A   1      13.743  26.818  43.781  1.00  0.00    +0.000 H 
ATOM     88  H2  UNL A   1      14.185  25.232  44.465  1.00  0.00    +0.000 H 
BRANCH    3    4
ATOM      4  C3  UNL A   1      14.506  25.410  42.409  1.00  0.00    +0.000 C 
ATOM      5  C4  UNL A   1      14.588  23.964  42.333  1.00  0.00    +0.000 C 
ATOM      6  C5  UNL A   1      14.697  23.352  41.148  1.00  0.00    +0.000 C 
ATOM      7  N1  UNL A   1      14.726  24.073  39.969  1.00  0.00    +0.000 N 
ATOM     11  C7  UNL A   1      14.640  25.455  39.941  1.00  0.00    +0.000 C 
ATOM     12  O2  UNL A   1      14.690  26.157  38.937  1.00  0.00    +0.000 O 
ATOM     13  C8  UNL A   1      14.502  26.120  41.267  1.00  0.00    +0.000 C 
ATOM     89  H3  UNL A   1      14.562  23.403  43.199  1.00  0.00    +0.000 H 
ATOM     90  H4  UNL A   1      14.761  22.321  41.113  1.00  0.00    +0.000 H 
ATOM     92  H6  UNL A   1      14.400  27.147  41.310  1.00  0.00    +0.000 H 
BRANCH    7    8
ATOM      9  F1  UNL A   1      16.161  23.560  38.235  1.00  0.00    +0.000 F 
ATOM     10  F2  UNL A   1      14.655  22.078  38.825  1.00  0.00    +0.000 F 
ATOM     91  H5  UNL A   1      14.207  23.849  38.021  1.00  0.00    +0.000 H 
ATOM      8  C6  UNL A   1      14.900  23.406  38.705  1.00  0.00    +0.000 C 
ENDBRANCH    7    8
ENDBRANCH    3    4
ENDBRANCH    2    3
ENDBRANCH   14    2
ENDBRANCH   15   14
ENDBRANCH   16   15
ENDBRANCH   17   16
ENDBRANCH   18   17
ENDBRANCH   19   18
ENDBRANCH   20   19
ENDBRANCH   21   20
ENDBRANCH   22   21
ENDBRANCH   24   22
ENDBRANCH   28   27
BRANCH   32   33
ATOM     33  C24 UNL A   1      26.104  41.015  49.513  1.00  0.00    +0.000 C 
ATOM     34  C25 UNL A   1      25.389  42.160  49.134  1.00  0.00    +0.000 C 
ATOM     35  F3  UNL A   1      25.494  42.638  47.885  1.00  0.00    +0.000 F 
ATOM     36  C26 UNL A   1      24.578  42.830  50.047  1.00  0.00    +0.000 C 
ATOM     37  F4  UNL A   1      23.923  43.938  49.670  1.00  0.00    +0.000 F 
ATOM     38  C27 UNL A   1      24.450  42.357  51.344  1.00  0.00    +0.000 C 
ATOM     39  F5  UNL A   1      23.659  42.997  52.217  1.00  0.00    +0.000 F 
ATOM     40  C28 UNL A   1      25.143  41.223  51.738  1.00  0.00    +0.000 C 
ATOM     41  F6  UNL A   1      25.012  40.759  52.988  1.00  0.00    +0.000 F 
ATOM     42  C29 UNL A   1      25.971  40.562  50.833  1.00  0.00    +0.000 C 
ATOM     43  F7  UNL A   1      26.630  39.468  51.243  1.00  0.00    +0.000 F 
ENDBRANCH   32   33
BRANCH   49   50
ATOM     50  C35 UNL A   1      32.888  40.992  47.111  1.00  0.00    +0.000 C 
ATOM     51  C36 UNL A   1      33.888  40.528  47.977  1.00  0.00    +0.000 C 
ATOM     52  F8  UNL A   1      33.703  39.400  48.678  1.00  0.00    +0.000 F 
ATOM     53  C37 UNL A   1      35.073  41.240  48.147  1.00  0.00    +0.000 C 
ATOM     54  F9  UNL A   1      36.001  40.797  49.004  1.00  0.00    +0.000 F 
ATOM     55  C38 UNL A   1      35.287  42.412  47.437  1.00  0.00    +0.000 C 
ATOM     56  F10 UNL A   1      36.431  43.092  47.595  1.00  0.00    +0.000 F 
ATOM     57  C39 UNL A   1      34.315  42.883  46.567  1.00  0.00    +0.000 C 
ATOM     58  F11 UNL A   1      34.526  44.010  45.874  1.00  0.00    +0.000 F 
ATOM     59  C40 UNL A   1      33.121  42.185  46.411  1.00  0.00    +0.000 C 
ATOM     60  F12 UNL A   1      32.195  42.665  45.568  1.00  0.00    +0.000 F 
ENDBRANCH   49   50
BRANCH   64   65
ATOM     65  C44 UNL A   1      31.340  35.595  42.991  1.00  0.00    +0.000 C 
ATOM     66  C45 UNL A   1      31.442  35.938  41.637  1.00  0.00    +0.000 C 
ATOM     67  F13 UNL A   1      30.783  37.007  41.166  1.00  0.00    +0.000 F 
ATOM     68  C46 UNL A   1      32.204  35.172  40.757  1.00  0.00    +0.000 C 
ATOM     69  F14 UNL A   1      32.265  35.506  39.461  1.00  0.00    +0.000 F 
ATOM     70  C47 UNL A   1      32.892  34.060  41.221  1.00  0.00    +0.000 C 
ATOM     71  F15 UNL A   1      33.634  33.330  40.376  1.00  0.00    +0.000 F 
ATOM     72  C48 UNL A   1      32.808  33.703  42.558  1.00  0.00    +0.000 C 
ATOM     73  F16 UNL A   1      33.481  32.637  43.011  1.00  0.00    +0.000 F 
ATOM     74  C49 UNL A   1      32.028  34.455  43.433  1.00  0.00    +0.000 C 
ATOM     75  F17 UNL A   1      31.959  34.086  44.719  1.00  0.00    +0.000 F 
ENDBRANCH   64   65
TORSDOF 17
ENDMDL
MODEL 9
REMARK VINA RESULT:     -10.0      4.040      9.223
ROOT
ATOM     28  C20 UNL A   1      38.670  30.034  29.360  1.00  0.00    +0.000 C 
ATOM     29  C21 UNL A   1      38.831  30.560  30.762  1.00  0.00    +0.000 C 
ATOM     30  N4  UNL A   1      39.859  30.463  31.568  1.00  0.00    +0.000 N 
ATOM     31  C22 UNL A   1      39.496  31.132  32.731  1.00  0.00    +0.000 C 
ATOM     32  C23 UNL A   1      40.204  31.285  33.875  1.00  0.00    +0.000 C 
ATOM     44  C30 UNL A   1      41.518  30.742  34.100  1.00  0.00    +0.000 C 
ATOM     45  C31 UNL A   1      42.306  30.833  35.235  1.00  0.00    +0.000 C 
ATOM     46  C32 UNL A   1      43.512  30.172  34.985  1.00  0.00    +0.000 C 
ATOM     47  C33 UNL A   1      43.462  29.640  33.707  1.00  0.00    +0.000 C 
ATOM     48  N5  UNL A   1      42.235  30.001  33.174  1.00  0.00    +0.000 N 
ATOM     49  C34 UNL A   1      44.461  28.866  33.017  1.00  0.00    +0.000 C 
ATOM     61  C41 UNL A   1      44.315  28.337  31.779  1.00  0.00    +0.000 C 
ATOM     62  N6  UNL A   1      43.233  28.427  30.916  1.00  0.00    +0.000 N 
ATOM     63  C42 UNL A   1      43.583  27.781  29.831  1.00  0.00    +0.000 C 
ATOM     64  C43 UNL A   1      42.802  27.560  28.567  1.00  0.00    +0.000 C 
ATOM     76  C50 UNL A   1      41.588  28.126  28.431  1.00  0.00    +0.000 C 
ATOM     77  C51 UNL A   1      40.728  28.008  27.257  1.00  0.00    +0.000 C 
ATOM     78  C52 UNL A   1      39.611  28.725  27.458  1.00  0.00    +0.000 C 
ATOM     79  C53 UNL A   1      39.656  29.311  28.799  1.00  0.00    +0.000 C 
ATOM     80  N7  UNL A   1      40.877  28.923  29.293  1.00  0.00    +0.000 N 
ATOM     81  C54 UNL A   1      44.933  27.204  29.884  1.00  0.00    +0.000 C 
ATOM     82  C55 UNL A   1      45.326  27.549  31.102  1.00  0.00    +0.000 C 
ATOM     83  C56 UNL A   1      38.163  31.653  32.520  1.00  0.00    +0.000 C 
ATOM     84  C57 UNL A   1      37.689  31.290  31.335  1.00  0.00    +0.000 C 
ATOM    109  H23 UNL A   1      42.047  31.306  36.115  1.00  0.00    +0.000 H 
ATOM    110  H24 UNL A   1      44.305  30.093  35.641  1.00  0.00    +0.000 H 
ATOM    111  H25 UNL A   1      41.918  29.765  32.272  1.00  0.00    +0.000 H 
ATOM    112  H26 UNL A   1      40.943  27.460  26.409  1.00  0.00    +0.000 H 
ATOM    113  H27 UNL A   1      38.846  28.844  26.778  1.00  0.00    +0.000 H 
ATOM    114  H28 UNL A   1      41.209  29.191  30.180  1.00  0.00    +0.000 H 
ATOM    115  H29 UNL A   1      45.442  26.670  29.162  1.00  0.00    +0.000 H 
ATOM    116  H30 UNL A   1      46.235  27.291  31.516  1.00  0.00    +0.000 H 
ATOM    117  H31 UNL A   1      37.648  32.231  33.203  1.00  0.00    +0.000 H 
ATOM    118  H32 UNL A   1      36.761  31.473  30.923  1.00  0.00    +0.000 H 
ENDROOT
BRANCH   28   27
ATOM     27  C19 UNL A   1      37.397  30.243  28.620  1.00  0.00    +0.000 C 
ATOM    107  H21 UNL A   1      34.877  28.487  27.254  1.00  0.00    +0.000 H 
ATOM    108  H22 UNL A   1      37.009  28.178  28.365  1.00  0.00    +0.000 H 
ATOM     85  C58 UNL A   1      36.907  31.533  28.364  1.00  0.00    +0.000 C 
ATOM     86  C59 UNL A   1      35.630  31.705  27.824  1.00  0.00    +0.000 C 
ATOM    120  H34 UNL A   1      35.258  32.654  27.666  1.00  0.00    +0.000 H 
ATOM     24  C16 UNL A   1      34.857  30.586  27.502  1.00  0.00    +0.000 C 
ATOM     25  C17 UNL A   1      35.397  29.302  27.614  1.00  0.00    +0.000 C 
ATOM     26  C18 UNL A   1      36.640  29.131  28.216  1.00  0.00    +0.000 C 
ATOM    119  H33 UNL A   1      37.493  32.356  28.574  1.00  0.00    +0.000 H 
BRANCH   24   22
ATOM     22  C15 UNL A   1      33.445  30.778  27.107  1.00  0.00    +0.000 C 
ATOM     23  O3  UNL A   1      32.828  31.762  27.503  1.00  0.00    +0.000 O 
BRANCH   22   21
ATOM    106  H20 UNL A   1      33.004  29.862  25.374  1.00  0.00    +0.000 H 
ATOM     21  N3  UNL A   1      32.823  29.820  26.340  1.00  0.00    +0.000 N 
BRANCH   21   20
ATOM    105  H19 UNL A   1      30.934  29.133  26.715  1.00  0.00    +0.000 H 
ATOM     20  C14 UNL A   1      31.932  28.750  26.767  1.00  0.00    +0.000 C 
ATOM    104  H18 UNL A   1      32.204  28.459  27.760  1.00  0.00    +0.000 H 
BRANCH   20   19
ATOM     19  C13 UNL A   1      31.987  27.519  25.870  1.00  0.00    +0.000 C 
ATOM    102  H16 UNL A   1      31.402  26.749  26.331  1.00  0.00    +0.000 H 
ATOM    103  H17 UNL A   1      31.614  27.832  24.917  1.00  0.00    +0.000 H 
BRANCH   19   18
ATOM     18  C12 UNL A   1      33.383  26.955  25.608  1.00  0.00    +0.000 C 
ATOM    100  H14 UNL A   1      33.571  27.019  24.556  1.00  0.00    +0.000 H 
ATOM    101  H15 UNL A   1      34.051  27.540  26.204  1.00  0.00    +0.000 H 
BRANCH   18   17
ATOM     17  C11 UNL A   1      33.605  25.501  26.037  1.00  0.00    +0.000 C 
ATOM     98  H12 UNL A   1      33.777  25.494  27.093  1.00  0.00    +0.000 H 
ATOM     99  H13 UNL A   1      32.726  24.974  25.733  1.00  0.00    +0.000 H 
BRANCH   17   16
ATOM     97  H11 UNL A   1      35.611  25.442  25.417  1.00  0.00    +0.000 H 
ATOM     96  H10 UNL A   1      34.485  24.529  24.366  1.00  0.00    +0.000 H 
ATOM     16  C10 UNL A   1      34.777  24.773  25.366  1.00  0.00    +0.000 C 
BRANCH   16   15
ATOM     95  H9  UNL A   1      35.515  23.728  27.056  1.00  0.00    +0.000 H 
ATOM     94  H8  UNL A   1      36.046  23.068  25.508  1.00  0.00    +0.000 H 
ATOM     15  C9  UNL A   1      35.226  23.486  26.055  1.00  0.00    +0.000 C 
BRANCH   15   14
ATOM     93  H7  UNL A   1      33.450  22.627  26.791  1.00  0.00    +0.000 H 
ATOM     14  N2  UNL A   1      34.157  22.510  26.116  1.00  0.00    +0.000 N 
BRANCH   14    2
ATOM      1  O1  UNL A   1      35.005  20.624  25.106  1.00  0.00    +0.000 O 
ATOM      2  C1  UNL A   1      34.090  21.424  25.267  1.00  0.00    +0.000 C 
BRANCH    2    3
ATOM      3  C2  UNL A   1      32.769  21.317  24.505  1.00  0.00    +0.000 C 
ATOM     87  H1  UNL A   1      32.001  21.055  25.202  1.00  0.00    +0.000 H 
ATOM     88  H2  UNL A   1      32.911  20.576  23.747  1.00  0.00    +0.000 H 
BRANCH    3    4
ATOM      4  C3  UNL A   1      32.358  22.589  23.800  1.00  0.00    +0.000 C 
ATOM      5  C4  UNL A   1      33.191  23.023  22.695  1.00  0.00    +0.000 C 
ATOM      6  C5  UNL A   1      32.927  24.170  22.056  1.00  0.00    +0.000 C 
ATOM      7  N1  UNL A   1      31.857  24.965  22.423  1.00  0.00    +0.000 N 
ATOM     11  C7  UNL A   1      30.998  24.625  23.456  1.00  0.00    +0.000 C 
ATOM     12  O2  UNL A   1      30.052  25.296  23.852  1.00  0.00    +0.000 O 
ATOM     13  C8  UNL A   1      31.295  23.338  24.145  1.00  0.00    +0.000 C 
ATOM     89  H3  UNL A   1      33.992  22.445  22.398  1.00  0.00    +0.000 H 
ATOM     90  H4  UNL A   1      33.535  24.468  21.276  1.00  0.00    +0.000 H 
ATOM     92  H6  UNL A   1      30.672  23.013  24.901  1.00  0.00    +0.000 H 
BRANCH    7    8
ATOM      9  F1  UNL A   1      32.543  27.147  22.119  1.00  0.00    +0.000 F 
ATOM     10  F2  UNL A   1      31.664  26.077  20.418  1.00  0.00    +0.000 F 
ATOM     91  H5  UNL A   1      30.647  26.554  22.069  1.00  0.00    +0.000 H 
ATOM      8  C6  UNL A   1      31.619  26.223  21.765  1.00  0.00    +0.000 C 
ENDBRANCH    7    8
ENDBRANCH    3    4
ENDBRANCH    2    3
ENDBRANCH   14    2
ENDBRANCH   15   14
ENDBRANCH   16   15
ENDBRANCH   17   16
ENDBRANCH   18   17
ENDBRANCH   19   18
ENDBRANCH   20   19
ENDBRANCH   21   20
ENDBRANCH   22   21
ENDBRANCH   24   22
ENDBRANCH   28   27
BRANCH   32   33
ATOM     33  C24 UNL A   1      39.577  32.077  34.983  1.00  0.00    +0.000 C 
ATOM     34  C25 UNL A   1      39.660  33.477  35.020  1.00  0.00    +0.000 C 
ATOM     35  F3  UNL A   1      40.374  34.134  34.094  1.00  0.00    +0.000 F 
ATOM     36  C26 UNL A   1      39.027  34.204  36.025  1.00  0.00    +0.000 C 
ATOM     37  F4  UNL A   1      39.141  35.539  36.055  1.00  0.00    +0.000 F 
ATOM     38  C27 UNL A   1      38.281  33.550  36.994  1.00  0.00    +0.000 C 
ATOM     39  F5  UNL A   1      37.662  34.253  37.952  1.00  0.00    +0.000 F 
ATOM     40  C28 UNL A   1      38.180  32.167  36.972  1.00  0.00    +0.000 C 
ATOM     41  F6  UNL A   1      37.451  31.535  37.903  1.00  0.00    +0.000 F 
ATOM     42  C29 UNL A   1      38.830  31.435  35.981  1.00  0.00    +0.000 C 
ATOM     43  F7  UNL A   1      38.715  30.099  35.987  1.00  0.00    +0.000 F 
ENDBRANCH   32   33
BRANCH   49   50
ATOM     50  C35 UNL A   1      45.760  28.617  33.722  1.00  0.00    +0.000 C 
ATOM     51  C36 UNL A   1      45.946  27.478  34.518  1.00  0.00    +0.000 C 
ATOM     52  F8  UNL A   1      44.935  26.619  34.714  1.00  0.00    +0.000 F 
ATOM     53  C37 UNL A   1      47.168  27.233  35.140  1.00  0.00    +0.000 C 
ATOM     54  F9  UNL A   1      47.315  26.157  35.922  1.00  0.00    +0.000 F 
ATOM     55  C38 UNL A   1      48.229  28.108  34.957  1.00  0.00    +0.000 C 
ATOM     56  F10 UNL A   1      49.406  27.867  35.549  1.00  0.00    +0.000 F 
ATOM     57  C39 UNL A   1      48.069  29.236  34.164  1.00  0.00    +0.000 C 
ATOM     58  F11 UNL A   1      49.096  30.075  33.980  1.00  0.00    +0.000 F 
ATOM     59  C40 UNL A   1      46.842  29.494  33.560  1.00  0.00    +0.000 C 
ATOM     60  F12 UNL A   1      46.713  30.594  32.803  1.00  0.00    +0.000 F 
ENDBRANCH   49   50
BRANCH   64   65
ATOM     65  C44 UNL A   1      43.349  26.728  27.468  1.00  0.00    +0.000 C 
ATOM     66  C45 UNL A   1      44.218  27.276  26.516  1.00  0.00    +0.000 C 
ATOM     67  F13 UNL A   1      44.531  28.579  26.567  1.00  0.00    +0.000 F 
ATOM     68  C46 UNL A   1      44.752  26.493  25.495  1.00  0.00    +0.000 C 
ATOM     69  F14 UNL A   1      45.561  27.046  24.581  1.00  0.00    +0.000 F 
ATOM     70  C47 UNL A   1      44.441  25.143  25.420  1.00  0.00    +0.000 C 
ATOM     71  F15 UNL A   1      44.963  24.387  24.445  1.00  0.00    +0.000 F 
ATOM     72  C48 UNL A   1      43.585  24.578  26.353  1.00  0.00    +0.000 C 
ATOM     73  F16 UNL A   1      43.291  23.272  26.291  1.00  0.00    +0.000 F 
ATOM     74  C49 UNL A   1      43.033  25.365  27.360  1.00  0.00    +0.000 C 
ATOM     75  F17 UNL A   1      42.204  24.797  28.246  1.00  0.00    +0.000 F 
ENDBRANCH   64   65
TORSDOF 17
ENDMDL
MODEL 10
REMARK VINA RESULT:      -9.9     20.259     25.222
ROOT
ATOM     28  C20 UNL A   1      25.913  36.548  45.550  1.00  0.00    +0.000 C 
ATOM     29  C21 UNL A   1      27.247  36.316  44.891  1.00  0.00    +0.000 C 
ATOM     30  N4  UNL A   1      28.381  36.948  45.073  1.00  0.00    +0.000 N 
ATOM     31  C22 UNL A   1      29.300  36.331  44.234  1.00  0.00    +0.000 C 
ATOM     32  C23 UNL A   1      30.604  36.640  44.034  1.00  0.00    +0.000 C 
ATOM     44  C30 UNL A   1      31.293  37.726  44.681  1.00  0.00    +0.000 C 
ATOM     45  C31 UNL A   1      32.610  38.124  44.527  1.00  0.00    +0.000 C 
ATOM     46  C32 UNL A   1      32.840  39.212  45.376  1.00  0.00    +0.000 C 
ATOM     47  C33 UNL A   1      31.658  39.512  46.032  1.00  0.00    +0.000 C 
ATOM     48  N5  UNL A   1      30.718  38.590  45.600  1.00  0.00    +0.000 N 
ATOM     49  C34 UNL A   1      31.402  40.558  46.988  1.00  0.00    +0.000 C 
ATOM     61  C41 UNL A   1      30.198  40.818  47.551  1.00  0.00    +0.000 C 
ATOM     62  N6  UNL A   1      28.991  40.162  47.365  1.00  0.00    +0.000 N 
ATOM     63  C42 UNL A   1      28.130  40.762  48.150  1.00  0.00    +0.000 C 
ATOM     64  C43 UNL A   1      26.672  40.467  48.358  1.00  0.00    +0.000 C 
ATOM     76  C50 UNL A   1      26.113  39.415  47.731  1.00  0.00    +0.000 C 
ATOM     77  C51 UNL A   1      24.717  39.005  47.851  1.00  0.00    +0.000 C 
ATOM     78  C52 UNL A   1      24.520  37.901  47.114  1.00  0.00    +0.000 C 
ATOM     79  C53 UNL A   1      25.767  37.557  46.427  1.00  0.00    +0.000 C 
ATOM     80  N7  UNL A   1      26.663  38.496  46.873  1.00  0.00    +0.000 N 
ATOM     81  C54 UNL A   1      28.698  41.873  48.926  1.00  0.00    +0.000 C 
ATOM     82  C55 UNL A   1      29.955  41.883  48.504  1.00  0.00    +0.000 C 
ATOM     83  C56 UNL A   1      28.603  35.258  43.559  1.00  0.00    +0.000 C 
ATOM     84  C57 UNL A   1      27.321  35.233  43.897  1.00  0.00    +0.000 C 
ATOM    109  H23 UNL A   1      33.303  37.694  43.895  1.00  0.00    +0.000 H 
ATOM    110  H24 UNL A   1      33.738  39.707  45.493  1.00  0.00    +0.000 H 
ATOM    111  H25 UNL A   1      29.781  38.555  45.899  1.00  0.00    +0.000 H 
ATOM    112  H26 UNL A   1      23.997  39.486  48.412  1.00  0.00    +0.000 H 
ATOM    113  H27 UNL A   1      23.634  37.379  47.042  1.00  0.00    +0.000 H 
ATOM    114  H28 UNL A   1      27.610  38.508  46.604  1.00  0.00    +0.000 H 
ATOM    115  H29 UNL A   1      28.239  42.486  49.618  1.00  0.00    +0.000 H 
ATOM    116  H30 UNL A   1      30.669  42.560  48.814  1.00  0.00    +0.000 H 
ATOM    117  H31 UNL A   1      29.047  34.599  42.900  1.00  0.00    +0.000 H 
ATOM    118  H32 UNL A   1      26.570  34.615  43.552  1.00  0.00    +0.000 H 
ENDROOT
BRANCH   28   27
ATOM     27  C19 UNL A   1      24.738  35.717  45.180  1.00  0.00    +0.000 C 
ATOM    107  H21 UNL A   1      23.165  32.895  46.110  1.00  0.00    +0.000 H 
ATOM    108  H22 UNL A   1      25.134  34.215  46.617  1.00  0.00    +0.000 H 
ATOM     85  C58 UNL A   1      23.855  36.114  44.164  1.00  0.00    +0.000 C 
ATOM     86  C59 UNL A   1      22.666  35.412  43.951  1.00  0.00    +0.000 C 
ATOM    120  H34 UNL A   1      22.002  35.724  43.225  1.00  0.00    +0.000 H 
ATOM     24  C16 UNL A   1      22.379  34.285  44.726  1.00  0.00    +0.000 C 
ATOM     25  C17 UNL A   1      23.321  33.797  45.634  1.00  0.00    +0.000 C 
ATOM     26  C18 UNL A   1      24.471  34.537  45.894  1.00  0.00    +0.000 C 
ATOM    119  H33 UNL A   1      24.085  36.928  43.572  1.00  0.00    +0.000 H 
BRANCH   24   22
ATOM     22  C15 UNL A   1      21.042  33.662  44.619  1.00  0.00    +0.000 C 
ATOM     23  O3  UNL A   1      20.063  34.356  44.361  1.00  0.00    +0.000 O 
BRANCH   22   21
ATOM    106  H20 UNL A   1      21.509  31.725  44.357  1.00  0.00    +0.000 H 
ATOM     21  N3  UNL A   1      20.904  32.315  44.862  1.00  0.00    +0.000 N 
BRANCH   21   20
ATOM    105  H19 UNL A   1      19.848  32.287  46.613  1.00  0.00    +0.000 H 
ATOM     20  C14 UNL A   1      19.983  31.643  45.769  1.00  0.00    +0.000 C 
ATOM    104  H18 UNL A   1      20.404  30.699  46.042  1.00  0.00    +0.000 H 
BRANCH   20   19
ATOM     19  C13 UNL A   1      18.604  31.401  45.165  1.00  0.00    +0.000 C 
ATOM    102  H16 UNL A   1      17.943  31.117  45.958  1.00  0.00    +0.000 H 
ATOM    103  H17 UNL A   1      18.331  32.314  44.680  1.00  0.00    +0.000 H 
BRANCH   19   18
ATOM     18  C12 UNL A   1      18.537  30.319  44.087  1.00  0.00    +0.000 C 
ATOM    100  H14 UNL A   1      19.362  30.467  43.421  1.00  0.00    +0.000 H 
ATOM    101  H15 UNL A   1      18.562  29.385  44.608  1.00  0.00    +0.000 H 
BRANCH   18   17
ATOM     17  C11 UNL A   1      17.255  30.294  43.249  1.00  0.00    +0.000 C 
ATOM     98  H12 UNL A   1      16.963  31.308  43.068  1.00  0.00    +0.000 H 
ATOM     99  H13 UNL A   1      17.499  29.743  42.366  1.00  0.00    +0.000 H 
BRANCH   17   16
ATOM     97  H11 UNL A   1      15.189  29.935  43.368  1.00  0.00    +0.000 H 
ATOM     96  H10 UNL A   1      16.058  29.771  44.925  1.00  0.00    +0.000 H 
ATOM     16  C10 UNL A   1      16.057  29.567  43.874  1.00  0.00    +0.000 C 
BRANCH   16   15
ATOM     95  H9  UNL A   1      16.256  27.597  44.632  1.00  0.00    +0.000 H 
ATOM     94  H8  UNL A   1      16.781  27.785  42.958  1.00  0.00    +0.000 H 
ATOM     15  C9  UNL A   1      16.043  28.051  43.687  1.00  0.00    +0.000 C 
BRANCH   15   14
ATOM     93  H7  UNL A   1      14.168  28.196  42.740  1.00  0.00    +0.000 H 
ATOM     14  N2  UNL A   1      14.750  27.578  43.240  1.00  0.00    +0.000 N 
BRANCH   14    2
ATOM      1  O1  UNL A   1      13.231  26.038  44.027  1.00  0.00    +0.000 O 
ATOM      2  C1  UNL A   1      14.300  26.296  43.484  1.00  0.00    +0.000 C 
BRANCH    2    3
ATOM      3  C2  UNL A   1      15.276  25.205  43.045  1.00  0.00    +0.000 C 
ATOM     87  H1  UNL A   1      15.674  24.739  43.922  1.00  0.00    +0.000 H 
ATOM     88  H2  UNL A   1      16.027  25.684  42.453  1.00  0.00    +0.000 H 
BRANCH    3    4
ATOM      4  C3  UNL A   1      14.656  24.133  42.178  1.00  0.00    +0.000 C 
ATOM      5  C4  UNL A   1      14.138  22.961  42.856  1.00  0.00    +0.000 C 
ATOM      6  C5  UNL A   1      13.626  21.942  42.155  1.00  0.00    +0.000 C 
ATOM      7  N1  UNL A   1      13.569  21.980  40.774  1.00  0.00    +0.000 N 
ATOM     11  C7  UNL A   1      14.026  23.062  40.040  1.00  0.00    +0.000 C 
ATOM     12  O2  UNL A   1      14.034  23.149  38.818  1.00  0.00    +0.000 O 
ATOM     13  C8  UNL A   1      14.577  24.195  40.836  1.00  0.00    +0.000 C 
ATOM     89  H3  UNL A   1      14.164  22.912  43.886  1.00  0.00    +0.000 H 
ATOM     90  H4  UNL A   1      13.268  21.111  42.654  1.00  0.00    +0.000 H 
ATOM     92  H6  UNL A   1      14.903  25.045  40.349  1.00  0.00    +0.000 H 
BRANCH    7    8
ATOM      9  F1  UNL A   1      12.809  19.801  40.842  1.00  0.00    +0.000 F 
ATOM     10  F2  UNL A   1      11.922  21.177  39.382  1.00  0.00    +0.000 F 
ATOM     91  H5  UNL A   1      13.828  20.584  39.326  1.00  0.00    +0.000 H 
ATOM      8  C6  UNL A   1      13.068  20.854  40.030  1.00  0.00    +0.000 C 
ENDBRANCH    7    8
ENDBRANCH    3    4
ENDBRANCH    2    3
ENDBRANCH   14    2
ENDBRANCH   15   14
ENDBRANCH   16   15
ENDBRANCH   17   16
ENDBRANCH   18   17
ENDBRANCH   19   18
ENDBRANCH   20   19
ENDBRANCH   21   20
ENDBRANCH   22   21
ENDBRANCH   24   22
ENDBRANCH   28   27
BRANCH   32   33
ATOM     33  C24 UNL A   1      31.383  35.791  43.075  1.00  0.00    +0.000 C 
ATOM     34  C25 UNL A   1      32.012  34.608  43.489  1.00  0.00    +0.000 C 
ATOM     35  F3  UNL A   1      31.989  34.249  44.781  1.00  0.00    +0.000 F 
ATOM     36  C26 UNL A   1      32.686  33.800  42.577  1.00  0.00    +0.000 C 
ATOM     37  F4  UNL A   1      33.302  32.687  42.999  1.00  0.00    +0.000 F 
ATOM     38  C27 UNL A   1      32.725  34.147  41.234  1.00  0.00    +0.000 C 
ATOM     39  F5  UNL A   1      33.364  33.360  40.357  1.00  0.00    +0.000 F 
ATOM     40  C28 UNL A   1      32.104  35.309  40.802  1.00  0.00    +0.000 C 
ATOM     41  F6  UNL A   1      32.133  35.639  39.504  1.00  0.00    +0.000 F 
ATOM     42  C29 UNL A   1      31.447  36.130  41.715  1.00  0.00    +0.000 C 
ATOM     43  F7  UNL A   1      30.857  37.248  41.268  1.00  0.00    +0.000 F 
ENDBRANCH   32   33
BRANCH   49   50
ATOM     50  C35 UNL A   1      32.552  41.432  47.389  1.00  0.00    +0.000 C 
ATOM     51  C36 UNL A   1      33.445  41.040  48.396  1.00  0.00    +0.000 C 
ATOM     52  F8  UNL A   1      33.245  39.896  49.067  1.00  0.00    +0.000 F 
ATOM     53  C37 UNL A   1      34.533  41.839  48.737  1.00  0.00    +0.000 C 
ATOM     54  F9  UNL A   1      35.355  41.462  49.724  1.00  0.00    +0.000 F 
ATOM     55  C38 UNL A   1      34.760  43.029  48.061  1.00  0.00    +0.000 C 
ATOM     56  F10 UNL A   1      35.812  43.793  48.385  1.00  0.00    +0.000 F 
ATOM     57  C39 UNL A   1      33.894  43.430  47.054  1.00  0.00    +0.000 C 
ATOM     58  F11 UNL A   1      34.119  44.575  46.395  1.00  0.00    +0.000 F 
ATOM     59  C40 UNL A   1      32.794  42.644  46.726  1.00  0.00    +0.000 C 
ATOM     60  F12 UNL A   1      31.970  43.058  45.753  1.00  0.00    +0.000 F 
ENDBRANCH   49   50
BRANCH   64   65
ATOM     65  C44 UNL A   1      25.841  41.317  49.244  1.00  0.00    +0.000 C 
ATOM     66  C45 UNL A   1      25.696  41.013  50.604  1.00  0.00    +0.000 C 
ATOM     67  F13 UNL A   1      26.278  39.915  51.109  1.00  0.00    +0.000 F 
ATOM     68  C46 UNL A   1      24.933  41.821  51.444  1.00  0.00    +0.000 C 
ATOM     69  F14 UNL A   1      24.789  41.495  52.735  1.00  0.00    +0.000 F 
ATOM     70  C47 UNL A   1      24.320  42.960  50.943  1.00  0.00    +0.000 C 
ATOM     71  F15 UNL A   1      23.596  43.744  51.754  1.00  0.00    +0.000 F 
ATOM     72  C48 UNL A   1      24.452  43.283  49.601  1.00  0.00    +0.000 C 
ATOM     73  F16 UNL A   1      23.870  44.389  49.117  1.00  0.00    +0.000 F 
ATOM     74  C49 UNL A   1      25.194  42.463  48.756  1.00  0.00    +0.000 C 
ATOM     75  F17 UNL A   1      25.302  42.794  47.462  1.00  0.00    +0.000 F 
ENDBRANCH   64   65
TORSDOF 17
ENDMDL
