MODEL 1
REMARK VINA RESULT:     -11.2      0.000      0.000
ROOT
ATOM    129  H35 UNL A   1      40.854  27.473  27.453  1.00  0.00    +0.000 H 
ATOM    130  H36 UNL A   1      41.084  29.150  31.249  1.00  0.00    +0.000 H 
ATOM    131  H37 UNL A   1      37.088  32.160  31.680  1.00  0.00    +0.000 H 
ATOM    132  H38 UNL A   1      37.897  32.660  34.057  1.00  0.00    +0.000 H 
ATOM    133  H39 UNL A   1      45.318  25.962  33.070  1.00  0.00    +0.000 H 
ATOM    134  H40 UNL A   1      44.826  25.810  30.561  1.00  0.00    +0.000 H 
ATOM     36  C30 UNL A   1      42.488  27.228  29.778  1.00  0.00    +0.000 C 
ATOM     37  C31 UNL A   1      43.152  27.234  31.122  1.00  0.00    +0.000 C 
ATOM     38  N4  UNL A   1      42.812  27.875  32.211  1.00  0.00    +0.000 N 
ATOM     39  C32 UNL A   1      43.721  27.473  33.180  1.00  0.00    +0.000 C 
ATOM     40  C33 UNL A   1      43.828  27.899  34.461  1.00  0.00    +0.000 C 
ATOM     52  C40 UNL A   1      42.974  28.895  35.052  1.00  0.00    +0.000 C 
ATOM     53  C41 UNL A   1      43.043  29.453  36.316  1.00  0.00    +0.000 C 
ATOM     54  C42 UNL A   1      41.978  30.352  36.454  1.00  0.00    +0.000 C 
ATOM     55  C43 UNL A   1      41.270  30.381  35.263  1.00  0.00    +0.000 C 
ATOM     56  N5  UNL A   1      41.890  29.481  34.414  1.00  0.00    +0.000 N 
ATOM     57  C44 UNL A   1      40.114  31.172  34.926  1.00  0.00    +0.000 C 
ATOM     69  C51 UNL A   1      39.487  31.173  33.724  1.00  0.00    +0.000 C 
ATOM     70  N6  UNL A   1      39.785  30.440  32.585  1.00  0.00    +0.000 N 
ATOM     71  C52 UNL A   1      38.884  30.777  31.694  1.00  0.00    +0.000 C 
ATOM     72  C53 UNL A   1      38.729  30.296  30.279  1.00  0.00    +0.000 C 
ATOM     84  C60 UNL A   1      39.649  29.456  29.771  1.00  0.00    +0.000 C 
ATOM     85  C61 UNL A   1      39.627  28.895  28.424  1.00  0.00    +0.000 C 
ATOM     86  C62 UNL A   1      40.647  28.032  28.295  1.00  0.00    +0.000 C 
ATOM     87  C63 UNL A   1      41.417  28.010  29.540  1.00  0.00    +0.000 C 
ATOM     88  N7  UNL A   1      40.772  28.913  30.346  1.00  0.00    +0.000 N 
ATOM     89  C64 UNL A   1      37.900  31.757  32.173  1.00  0.00    +0.000 C 
ATOM     90  C65 UNL A   1      38.331  31.987  33.406  1.00  0.00    +0.000 C 
ATOM     91  C66 UNL A   1      44.591  26.494  32.566  1.00  0.00    +0.000 C 
ATOM     92  C67 UNL A   1      44.331  26.368  31.273  1.00  0.00    +0.000 C 
ATOM    125  H31 UNL A   1      43.755  29.243  37.033  1.00  0.00    +0.000 H 
ATOM    126  H32 UNL A   1      41.759  30.901  37.300  1.00  0.00    +0.000 H 
ATOM    127  H33 UNL A   1      41.604  29.285  33.491  1.00  0.00    +0.000 H 
ATOM    128  H34 UNL A   1      38.939  29.125  27.690  1.00  0.00    +0.000 H 
ENDROOT
BRANCH   36   35
ATOM     33  C27 UNL A   1      43.955  25.736  26.620  1.00  0.00    +0.000 C 
ATOM     34  C28 UNL A   1      43.718  26.636  27.659  1.00  0.00    +0.000 C 
ATOM     35  C29 UNL A   1      42.917  26.254  28.747  1.00  0.00    +0.000 C 
ATOM    135  H41 UNL A   1      41.907  24.634  29.662  1.00  0.00    +0.000 H 
ATOM    136  H42 UNL A   1      42.521  23.016  27.965  1.00  0.00    +0.000 H 
ATOM    123  H29 UNL A   1      44.513  26.023  25.800  1.00  0.00    +0.000 H 
ATOM    124  H30 UNL A   1      44.129  27.581  27.628  1.00  0.00    +0.000 H 
ATOM     93  C68 UNL A   1      42.469  24.928  28.847  1.00  0.00    +0.000 C 
ATOM     94  C69 UNL A   1      42.775  24.010  27.853  1.00  0.00    +0.000 C 
ATOM     32  C26 UNL A   1      43.432  24.444  26.700  1.00  0.00    +0.000 C 
BRANCH   32   30
ATOM     30  C25 UNL A   1      43.511  23.566  25.516  1.00  0.00    +0.000 C 
ATOM     31  O3  UNL A   1      42.487  23.153  24.992  1.00  0.00    +0.000 O 
BRANCH   30   29
ATOM    122  H28 UNL A   1      45.002  23.579  24.179  1.00  0.00    +0.000 H 
ATOM     29  N3  UNL A   1      44.752  23.194  25.050  1.00  0.00    +0.000 N 
BRANCH   29   28
ATOM    121  H27 UNL A   1      45.334  21.942  26.562  1.00  0.00    +0.000 H 
ATOM     28  C24 UNL A   1      45.750  22.317  25.651  1.00  0.00    +0.000 C 
ATOM    120  H26 UNL A   1      46.643  22.885  25.817  1.00  0.00    +0.000 H 
BRANCH   28   27
ATOM     27  C23 UNL A   1      46.100  21.111  24.785  1.00  0.00    +0.000 C 
ATOM    118  H24 UNL A   1      46.580  21.464  23.896  1.00  0.00    +0.000 H 
ATOM    119  H25 UNL A   1      46.733  20.482  25.378  1.00  0.00    +0.000 H 
BRANCH   27   26
ATOM     26  C22 UNL A   1      44.904  20.262  24.376  1.00  0.00    +0.000 C 
ATOM    116  H22 UNL A   1      44.015  20.820  24.587  1.00  0.00    +0.000 H 
ATOM    117  H23 UNL A   1      45.039  20.046  23.336  1.00  0.00    +0.000 H 
BRANCH   26   25
ATOM     25  C21 UNL A   1      44.786  18.909  25.073  1.00  0.00    +0.000 C 
ATOM    114  H20 UNL A   1      45.018  18.145  24.362  1.00  0.00    +0.000 H 
ATOM    115  H21 UNL A   1      45.466  18.933  25.899  1.00  0.00    +0.000 H 
BRANCH   25   24
ATOM    113  H19 UNL A   1      43.546  17.881  26.425  1.00  0.00    +0.000 H 
ATOM    112  H18 UNL A   1      42.770  18.273  24.865  1.00  0.00    +0.000 H 
ATOM     24  C20 UNL A   1      43.402  18.614  25.658  1.00  0.00    +0.000 C 
BRANCH   24   23
ATOM    111  H17 UNL A   1      43.226  20.702  26.008  1.00  0.00    +0.000 H 
ATOM    110  H16 UNL A   1      42.786  19.700  27.388  1.00  0.00    +0.000 H 
ATOM     23  C19 UNL A   1      42.725  19.813  26.326  1.00  0.00    +0.000 C 
BRANCH   23   22
ATOM    109  H15 UNL A   1      40.995  19.321  25.234  1.00  0.00    +0.000 H 
ATOM     22  N2  UNL A   1      41.330  19.915  25.944  1.00  0.00    +0.000 N 
BRANCH   22    2
ATOM      1  O1  UNL A   1      40.627  21.307  27.625  1.00  0.00    +0.000 O 
ATOM      2  C1  UNL A   1      40.457  20.798  26.522  1.00  0.00    +0.000 C 
BRANCH    2    3
ATOM      3  C2  UNL A   1      39.228  21.091  25.688  1.00  0.00    +0.000 C 
ATOM     95  H1  UNL A   1      38.477  20.363  25.913  1.00  0.00    +0.000 H 
ATOM     96  H2  UNL A   1      39.515  21.050  24.657  1.00  0.00    +0.000 H 
BRANCH    3    4
ATOM     97  H3  UNL A   1      39.129  23.157  25.274  1.00  0.00    +0.000 H 
ATOM     98  H4  UNL A   1      38.870  22.675  26.987  1.00  0.00    +0.000 H 
ATOM      4  C3  UNL A   1      38.663  22.477  25.957  1.00  0.00    +0.000 C 
BRANCH    4    5
ATOM      5  C4  UNL A   1      37.183  22.628  25.811  1.00  0.00    +0.000 C 
ATOM      6  N1  UNL A   1      36.459  23.667  26.184  1.00  0.00    +0.000 N 
ATOM      7  C5  UNL A   1      35.178  23.314  25.849  1.00  0.00    +0.000 C 
ATOM     14  C12 UNL A   1      35.170  22.079  25.229  1.00  0.00    +0.000 C 
ATOM     21  O2  UNL A   1      36.462  21.615  25.219  1.00  0.00    +0.000 O 
BRANCH    7    8
ATOM     99  H5  UNL A   1      32.957  22.807  27.266  1.00  0.00    +0.000 H 
ATOM    100  H6  UNL A   1      30.847  23.997  27.150  1.00  0.00    +0.000 H 
ATOM    101  H7  UNL A   1      30.686  26.049  25.866  1.00  0.00    +0.000 H 
ATOM    102  H8  UNL A   1      32.652  26.952  24.769  1.00  0.00    +0.000 H 
ATOM    103  H9  UNL A   1      34.760  25.753  24.863  1.00  0.00    +0.000 H 
ATOM      8  C6  UNL A   1      34.007  24.150  26.014  1.00  0.00    +0.000 C 
ATOM      9  C7  UNL A   1      32.885  23.673  26.710  1.00  0.00    +0.000 C 
ATOM     10  C8  UNL A   1      31.674  24.363  26.654  1.00  0.00    +0.000 C 
ATOM     11  C9  UNL A   1      31.587  25.548  25.928  1.00  0.00    +0.000 C 
ATOM     12  C10 UNL A   1      32.714  26.059  25.283  1.00  0.00    +0.000 C 
ATOM     13  C11 UNL A   1      33.926  25.367  25.331  1.00  0.00    +0.000 C 
ENDBRANCH    7    8
BRANCH   14   15
ATOM    104  H10 UNL A   1      33.267  22.853  23.474  1.00  0.00    +0.000 H 
ATOM    105  H11 UNL A   1      31.683  21.441  22.297  1.00  0.00    +0.000 H 
ATOM    106  H12 UNL A   1      31.640  19.050  22.698  1.00  0.00    +0.000 H 
ATOM    107  H13 UNL A   1      33.137  18.069  24.335  1.00  0.00    +0.000 H 
ATOM    108  H14 UNL A   1      34.702  19.476  25.530  1.00  0.00    +0.000 H 
ATOM     15  C13 UNL A   1      34.138  21.281  24.581  1.00  0.00    +0.000 C 
ATOM     16  C14 UNL A   1      33.250  21.838  23.656  1.00  0.00    +0.000 C 
ATOM     17  C15 UNL A   1      32.336  21.023  22.978  1.00  0.00    +0.000 C 
ATOM     18  C16 UNL A   1      32.304  19.648  23.215  1.00  0.00    +0.000 C 
ATOM     19  C17 UNL A   1      33.166  19.084  24.148  1.00  0.00    +0.000 C 
ATOM     20  C18 UNL A   1      34.071  19.897  24.830  1.00  0.00    +0.000 C 
ENDBRANCH   14   15
ENDBRANCH    4    5
ENDBRANCH    3    4
ENDBRANCH    2    3
ENDBRANCH   22    2
ENDBRANCH   23   22
ENDBRANCH   24   23
ENDBRANCH   25   24
ENDBRANCH   26   25
ENDBRANCH   27   26
ENDBRANCH   28   27
ENDBRANCH   29   28
ENDBRANCH   30   29
ENDBRANCH   32   30
ENDBRANCH   36   35
BRANCH   40   41
ATOM     41  C34 UNL A   1      44.913  27.288  35.298  1.00  0.00    +0.000 C 
ATOM     42  C35 UNL A   1      44.694  26.120  36.045  1.00  0.00    +0.000 C 
ATOM     43  F1  UNL A   1      43.490  25.527  36.033  1.00  0.00    +0.000 F 
ATOM     44  C36 UNL A   1      45.696  25.585  36.850  1.00  0.00    +0.000 C 
ATOM     45  F2  UNL A   1      45.444  24.504  37.602  1.00  0.00    +0.000 F 
ATOM     46  C37 UNL A   1      46.946  26.183  36.894  1.00  0.00    +0.000 C 
ATOM     47  F3  UNL A   1      47.908  25.669  37.673  1.00  0.00    +0.000 F 
ATOM     48  C38 UNL A   1      47.195  27.320  36.141  1.00  0.00    +0.000 C 
ATOM     49  F4  UNL A   1      48.406  27.893  36.176  1.00  0.00    +0.000 F 
ATOM     50  C39 UNL A   1      46.186  27.875  35.357  1.00  0.00    +0.000 C 
ATOM     51  F5  UNL A   1      46.450  28.991  34.661  1.00  0.00    +0.000 F 
ENDBRANCH   40   41
BRANCH   57   58
ATOM     65  C49 UNL A   1      37.933  32.527  37.731  1.00  0.00    +0.000 C 
ATOM     66  F9  UNL A   1      36.892  32.124  38.471  1.00  0.00    +0.000 F 
ATOM     67  C50 UNL A   1      38.485  31.671  36.784  1.00  0.00    +0.000 C 
ATOM     68  F10 UNL A   1      37.965  30.443  36.639  1.00  0.00    +0.000 F 
ATOM     58  C45 UNL A   1      39.561  32.081  35.983  1.00  0.00    +0.000 C 
ATOM     59  C46 UNL A   1      40.069  33.375  36.169  1.00  0.00    +0.000 C 
ATOM     60  F6  UNL A   1      41.108  33.805  35.437  1.00  0.00    +0.000 F 
ATOM     61  C47 UNL A   1      39.528  34.221  37.133  1.00  0.00    +0.000 C 
ATOM     62  F7  UNL A   1      40.051  35.441  37.321  1.00  0.00    +0.000 F 
ATOM     63  C48 UNL A   1      38.457  33.799  37.908  1.00  0.00    +0.000 C 
ATOM     64  F8  UNL A   1      37.933  34.618  38.830  1.00  0.00    +0.000 F 
ENDBRANCH   57   58
BRANCH   72   73
ATOM     73  C54 UNL A   1      37.601  30.749  29.428  1.00  0.00    +0.000 C 
ATOM     74  C55 UNL A   1      36.525  29.896  29.151  1.00  0.00    +0.000 C 
ATOM     75  F11 UNL A   1      36.533  28.637  29.615  1.00  0.00    +0.000 F 
ATOM     76  C56 UNL A   1      35.447  30.323  28.379  1.00  0.00    +0.000 C 
ATOM     77  F12 UNL A   1      34.443  29.479  28.107  1.00  0.00    +0.000 F 
ATOM     78  C57 UNL A   1      35.414  31.619  27.887  1.00  0.00    +0.000 C 
ATOM     79  F13 UNL A   1      34.372  32.035  27.155  1.00  0.00    +0.000 F 
ATOM     80  C58 UNL A   1      36.465  32.484  28.153  1.00  0.00    +0.000 C 
ATOM     81  F14 UNL A   1      36.430  33.742  27.693  1.00  0.00    +0.000 F 
ATOM     82  C59 UNL A   1      37.554  32.051  28.907  1.00  0.00    +0.000 C 
ATOM     83  F15 UNL A   1      38.555  32.908  29.152  1.00  0.00    +0.000 F 
ENDBRANCH   72   73
TORSDOF 19
ENDMDL
MODEL 2
REMARK VINA RESULT:     -11.1      0.552      2.217
ROOT
ATOM    129  H35 UNL A   1      40.859  27.682  27.405  1.00  0.00    +0.000 H 
ATOM    130  H36 UNL A   1      41.001  29.334  31.217  1.00  0.00    +0.000 H 
ATOM    131  H37 UNL A   1      36.905  32.209  31.635  1.00  0.00    +0.000 H 
ATOM    132  H38 UNL A   1      37.676  32.716  34.023  1.00  0.00    +0.000 H 
ATOM    133  H39 UNL A   1      45.321  26.272  33.050  1.00  0.00    +0.000 H 
ATOM    134  H40 UNL A   1      44.856  26.124  30.536  1.00  0.00    +0.000 H 
ATOM     36  C30 UNL A   1      42.480  27.471  29.743  1.00  0.00    +0.000 C 
ATOM     37  C31 UNL A   1      43.131  27.488  31.093  1.00  0.00    +0.000 C 
ATOM     38  N4  UNL A   1      42.762  28.109  32.184  1.00  0.00    +0.000 N 
ATOM     39  C32 UNL A   1      43.674  27.729  33.158  1.00  0.00    +0.000 C 
ATOM     40  C33 UNL A   1      43.757  28.148  34.443  1.00  0.00    +0.000 C 
ATOM     52  C40 UNL A   1      42.865  29.110  35.035  1.00  0.00    +0.000 C 
ATOM     53  C41 UNL A   1      42.905  29.660  36.304  1.00  0.00    +0.000 C 
ATOM     54  C42 UNL A   1      41.810  30.523  36.439  1.00  0.00    +0.000 C 
ATOM     55  C43 UNL A   1      41.111  30.539  35.241  1.00  0.00    +0.000 C 
ATOM     56  N5  UNL A   1      41.768  29.666  34.391  1.00  0.00    +0.000 N 
ATOM     57  C44 UNL A   1      39.933  31.294  34.900  1.00  0.00    +0.000 C 
ATOM     69  C51 UNL A   1      39.317  31.285  33.692  1.00  0.00    +0.000 C 
ATOM     70  N6  UNL A   1      39.649  30.571  32.550  1.00  0.00    +0.000 N 
ATOM     71  C52 UNL A   1      38.745  30.886  31.654  1.00  0.00    +0.000 C 
ATOM     72  C53 UNL A   1      38.618  30.411  30.234  1.00  0.00    +0.000 C 
ATOM     84  C60 UNL A   1      39.570  29.605  29.728  1.00  0.00    +0.000 C 
ATOM     85  C61 UNL A   1      39.578  29.055  28.376  1.00  0.00    +0.000 C 
ATOM     86  C62 UNL A   1      40.626  28.227  28.250  1.00  0.00    +0.000 C 
ATOM     87  C63 UNL A   1      41.386  28.219  29.502  1.00  0.00    +0.000 C 
ATOM     88  N7  UNL A   1      40.705  29.095  30.309  1.00  0.00    +0.000 N 
ATOM     89  C64 UNL A   1      37.726  31.829  32.132  1.00  0.00    +0.000 C 
ATOM     90  C65 UNL A   1      38.137  32.063  33.371  1.00  0.00    +0.000 C 
ATOM     91  C66 UNL A   1      44.581  26.783  32.544  1.00  0.00    +0.000 C 
ATOM     92  C67 UNL A   1      44.337  26.660  31.248  1.00  0.00    +0.000 C 
ATOM    125  H31 UNL A   1      43.616  29.468  37.025  1.00  0.00    +0.000 H 
ATOM    126  H32 UNL A   1      41.565  31.058  37.287  1.00  0.00    +0.000 H 
ATOM    127  H33 UNL A   1      41.497  29.469  33.464  1.00  0.00    +0.000 H 
ATOM    128  H34 UNL A   1      38.889  29.268  27.638  1.00  0.00    +0.000 H 
ENDROOT
BRANCH   36   35
ATOM     33  C27 UNL A   1      44.043  26.052  26.598  1.00  0.00    +0.000 C 
ATOM     34  C28 UNL A   1      43.767  26.932  27.644  1.00  0.00    +0.000 C 
ATOM     35  C29 UNL A   1      42.950  26.520  28.709  1.00  0.00    +0.000 C 
ATOM    135  H41 UNL A   1      41.950  24.869  29.578  1.00  0.00    +0.000 H 
ATOM    136  H42 UNL A   1      42.631  23.287  27.873  1.00  0.00    +0.000 H 
ATOM    123  H29 UNL A   1      44.614  26.360  25.795  1.00  0.00    +0.000 H 
ATOM    124  H30 UNL A   1      44.161  27.885  27.635  1.00  0.00    +0.000 H 
ATOM     93  C68 UNL A   1      42.524  25.185  28.780  1.00  0.00    +0.000 C 
ATOM     94  C69 UNL A   1      42.869  24.286  27.781  1.00  0.00    +0.000 C 
ATOM     32  C26 UNL A   1      43.544  24.749  26.649  1.00  0.00    +0.000 C 
BRANCH   32   30
ATOM     30  C25 UNL A   1      43.664  23.890  25.454  1.00  0.00    +0.000 C 
ATOM     31  O3  UNL A   1      42.676  23.634  24.783  1.00  0.00    +0.000 O 
BRANCH   30   29
ATOM    122  H28 UNL A   1      45.284  23.668  24.298  1.00  0.00    +0.000 H 
ATOM     29  N3  UNL A   1      44.895  23.356  25.147  1.00  0.00    +0.000 N 
BRANCH   29   28
ATOM    121  H27 UNL A   1      45.174  22.152  26.779  1.00  0.00    +0.000 H 
ATOM     28  C24 UNL A   1      45.709  22.399  25.887  1.00  0.00    +0.000 C 
ATOM    120  H26 UNL A   1      46.657  22.851  26.096  1.00  0.00    +0.000 H 
BRANCH   28   27
ATOM     27  C23 UNL A   1      45.953  21.095  25.132  1.00  0.00    +0.000 C 
ATOM    118  H24 UNL A   1      46.585  21.306  24.295  1.00  0.00    +0.000 H 
ATOM    119  H25 UNL A   1      46.398  20.417  25.830  1.00  0.00    +0.000 H 
BRANCH   27   26
ATOM     26  C22 UNL A   1      44.688  20.422  24.616  1.00  0.00    +0.000 C 
ATOM    116  H22 UNL A   1      43.853  21.034  24.888  1.00  0.00    +0.000 H 
ATOM    117  H23 UNL A   1      44.820  20.319  23.559  1.00  0.00    +0.000 H 
BRANCH   26   25
ATOM     25  C21 UNL A   1      44.429  19.013  25.145  1.00  0.00    +0.000 C 
ATOM    114  H20 UNL A   1      44.707  18.314  24.385  1.00  0.00    +0.000 H 
ATOM    115  H21 UNL A   1      45.009  18.913  26.039  1.00  0.00    +0.000 H 
BRANCH   25   24
ATOM    113  H19 UNL A   1      42.942  17.733  25.902  1.00  0.00    +0.000 H 
ATOM    112  H18 UNL A   1      42.361  18.892  24.674  1.00  0.00    +0.000 H 
ATOM     24  C20 UNL A   1      42.974  18.739  25.537  1.00  0.00    +0.000 C 
BRANCH   24   23
ATOM    111  H17 UNL A   1      43.275  19.989  27.229  1.00  0.00    +0.000 H 
ATOM    110  H16 UNL A   1      41.787  19.048  27.283  1.00  0.00    +0.000 H 
ATOM     23  C19 UNL A   1      42.442  19.626  26.665  1.00  0.00    +0.000 C 
BRANCH   23   22
ATOM    109  H15 UNL A   1      41.982  21.133  25.272  1.00  0.00    +0.000 H 
ATOM     22  N2  UNL A   1      41.714  20.765  26.145  1.00  0.00    +0.000 N 
BRANCH   22    2
ATOM      1  O1  UNL A   1      40.704  21.675  27.992  1.00  0.00    +0.000 O 
ATOM      2  C1  UNL A   1      40.670  21.356  26.808  1.00  0.00    +0.000 C 
BRANCH    2    3
ATOM      3  C2  UNL A   1      39.437  21.571  25.957  1.00  0.00    +0.000 C 
ATOM     95  H1  UNL A   1      38.812  20.706  26.031  1.00  0.00    +0.000 H 
ATOM     96  H2  UNL A   1      39.759  21.736  24.949  1.00  0.00    +0.000 H 
BRANCH    3    4
ATOM     97  H3  UNL A   1      39.176  23.661  26.082  1.00  0.00    +0.000 H 
ATOM     98  H4  UNL A   1      38.530  22.695  27.454  1.00  0.00    +0.000 H 
ATOM      4  C3  UNL A   1      38.638  22.789  26.394  1.00  0.00    +0.000 C 
BRANCH    4    5
ATOM      5  C4  UNL A   1      37.247  22.897  25.857  1.00  0.00    +0.000 C 
ATOM      6  N1  UNL A   1      36.661  22.062  25.020  1.00  0.00    +0.000 N 
ATOM      7  C5  UNL A   1      35.416  22.602  24.831  1.00  0.00    +0.000 C 
ATOM     14  C12 UNL A   1      35.265  23.735  25.609  1.00  0.00    +0.000 C 
ATOM     21  O2  UNL A   1      36.455  23.949  26.261  1.00  0.00    +0.000 O 
BRANCH    7    8
ATOM     99  H5  UNL A   1      34.269  23.604  22.622  1.00  0.00    +0.000 H 
ATOM    100  H6  UNL A   1      32.217  22.848  21.572  1.00  0.00    +0.000 H 
ATOM    101  H7  UNL A   1      31.147  20.810  22.338  1.00  0.00    +0.000 H 
ATOM    102  H8  UNL A   1      32.171  19.487  24.093  1.00  0.00    +0.000 H 
ATOM    103  H9  UNL A   1      34.211  20.250  25.163  1.00  0.00    +0.000 H 
ATOM      8  C6  UNL A   1      34.363  22.022  24.025  1.00  0.00    +0.000 C 
ATOM      9  C7  UNL A   1      33.806  22.743  22.956  1.00  0.00    +0.000 C 
ATOM     10  C8  UNL A   1      32.634  22.303  22.343  1.00  0.00    +0.000 C 
ATOM     11  C9  UNL A   1      32.028  21.126  22.775  1.00  0.00    +0.000 C 
ATOM     12  C10 UNL A   1      32.608  20.373  23.796  1.00  0.00    +0.000 C 
ATOM     13  C11 UNL A   1      33.778  20.814  24.417  1.00  0.00    +0.000 C 
ENDBRANCH    7    8
BRANCH   14   15
ATOM    104  H10 UNL A   1      35.036  26.381  25.116  1.00  0.00    +0.000 H 
ATOM    105  H11 UNL A   1      33.080  27.780  25.447  1.00  0.00    +0.000 H 
ATOM    106  H12 UNL A   1      31.051  26.845  26.389  1.00  0.00    +0.000 H 
ATOM    107  H13 UNL A   1      30.993  24.518  27.073  1.00  0.00    +0.000 H 
ATOM    108  H14 UNL A   1      32.948  23.125  26.768  1.00  0.00    +0.000 H 
ATOM     15  C13 UNL A   1      34.148  24.627  25.887  1.00  0.00    +0.000 C 
ATOM     16  C14 UNL A   1      34.179  25.978  25.525  1.00  0.00    +0.000 C 
ATOM     17  C15 UNL A   1      33.050  26.784  25.716  1.00  0.00    +0.000 C 
ATOM     18  C16 UNL A   1      31.885  26.249  26.267  1.00  0.00    +0.000 C 
ATOM     19  C17 UNL A   1      31.849  24.914  26.654  1.00  0.00    +0.000 C 
ATOM     20  C18 UNL A   1      32.975  24.113  26.471  1.00  0.00    +0.000 C 
ENDBRANCH   14   15
ENDBRANCH    4    5
ENDBRANCH    3    4
ENDBRANCH    2    3
ENDBRANCH   22    2
ENDBRANCH   23   22
ENDBRANCH   24   23
ENDBRANCH   25   24
ENDBRANCH   26   25
ENDBRANCH   27   26
ENDBRANCH   28   27
ENDBRANCH   29   28
ENDBRANCH   30   29
ENDBRANCH   32   30
ENDBRANCH   36   35
BRANCH   40   41
ATOM     41  C34 UNL A   1      44.853  27.566  35.285  1.00  0.00    +0.000 C 
ATOM     42  C35 UNL A   1      44.612  26.509  36.178  1.00  0.00    +0.000 C 
ATOM     43  F1  UNL A   1      43.376  26.003  36.305  1.00  0.00    +0.000 F 
ATOM     44  C36 UNL A   1      45.629  26.005  36.983  1.00  0.00    +0.000 C 
ATOM     45  F2  UNL A   1      45.359  25.038  37.873  1.00  0.00    +0.000 F 
ATOM     46  C37 UNL A   1      46.913  26.518  36.886  1.00  0.00    +0.000 C 
ATOM     47  F3  UNL A   1      47.890  26.033  37.666  1.00  0.00    +0.000 F 
ATOM     48  C38 UNL A   1      47.181  27.540  35.989  1.00  0.00    +0.000 C 
ATOM     49  F4  UNL A   1      48.425  28.030  35.887  1.00  0.00    +0.000 F 
ATOM     50  C39 UNL A   1      46.160  28.068  35.202  1.00  0.00    +0.000 C 
ATOM     51  F5  UNL A   1      46.447  29.075  34.364  1.00  0.00    +0.000 F 
ENDBRANCH   40   41
BRANCH   57   58
ATOM     65  C49 UNL A   1      39.266  34.314  37.113  1.00  0.00    +0.000 C 
ATOM     66  F9  UNL A   1      39.706  35.572  37.244  1.00  0.00    +0.000 F 
ATOM     67  C50 UNL A   1      39.771  33.504  36.101  1.00  0.00    +0.000 C 
ATOM     68  F10 UNL A   1      40.689  34.011  35.264  1.00  0.00    +0.000 F 
ATOM     58  C45 UNL A   1      39.342  32.176  35.959  1.00  0.00    +0.000 C 
ATOM     59  C46 UNL A   1      38.383  31.692  36.860  1.00  0.00    +0.000 C 
ATOM     60  F6  UNL A   1      37.930  30.433  36.752  1.00  0.00    +0.000 F 
ATOM     61  C47 UNL A   1      37.863  32.512  37.857  1.00  0.00    +0.000 C 
ATOM     62  F7  UNL A   1      36.921  32.041  38.686  1.00  0.00    +0.000 F 
ATOM     63  C48 UNL A   1      38.310  33.819  37.987  1.00  0.00    +0.000 C 
ATOM     64  F8  UNL A   1      37.813  34.605  38.953  1.00  0.00    +0.000 F 
ENDBRANCH   57   58
BRANCH   72   73
ATOM     73  C54 UNL A   1      37.483  30.834  29.376  1.00  0.00    +0.000 C 
ATOM     74  C55 UNL A   1      36.466  29.932  29.040  1.00  0.00    +0.000 C 
ATOM     75  F11 UNL A   1      36.538  28.657  29.451  1.00  0.00    +0.000 F 
ATOM     76  C56 UNL A   1      35.381  30.329  28.261  1.00  0.00    +0.000 C 
ATOM     77  F12 UNL A   1      34.435  29.440  27.930  1.00  0.00    +0.000 F 
ATOM     78  C57 UNL A   1      35.282  31.641  27.823  1.00  0.00    +0.000 C 
ATOM     79  F13 UNL A   1      34.233  32.026  27.084  1.00  0.00    +0.000 F 
ATOM     80  C58 UNL A   1      36.275  32.553  28.149  1.00  0.00    +0.000 C 
ATOM     81  F14 UNL A   1      36.175  33.826  27.740  1.00  0.00    +0.000 F 
ATOM     82  C59 UNL A   1      37.371  32.152  28.910  1.00  0.00    +0.000 C 
ATOM     83  F15 UNL A   1      38.315  33.054  29.212  1.00  0.00    +0.000 F 
ENDBRANCH   72   73
TORSDOF 19
ENDMDL
MODEL 3
REMARK VINA RESULT:     -10.9     37.713     42.256
ROOT
ATOM    129  H35 UNL A   1      12.405  27.790  -0.225  1.00  0.00    +0.000 H 
ATOM    130  H36 UNL A   1      11.723  24.517   2.246  1.00  0.00    +0.000 H 
ATOM    131  H37 UNL A   1      14.402  20.737   0.310  1.00  0.00    +0.000 H 
ATOM    132  H38 UNL A   1      13.548  19.318   2.263  1.00  0.00    +0.000 H 
ATOM    133  H39 UNL A   1       8.961  27.326   6.232  1.00  0.00    +0.000 H 
ATOM    134  H40 UNL A   1       9.390  28.625   4.067  1.00  0.00    +0.000 H 
ATOM     36  C30 UNL A   1      11.045  27.232   2.220  1.00  0.00    +0.000 C 
ATOM     37  C31 UNL A   1      10.468  26.711   3.501  1.00  0.00    +0.000 C 
ATOM     38  N4  UNL A   1      10.594  25.528   4.046  1.00  0.00    +0.000 N 
ATOM     39  C32 UNL A   1       9.921  25.601   5.258  1.00  0.00    +0.000 C 
ATOM     40  C33 UNL A   1       9.712  24.617   6.165  1.00  0.00    +0.000 C 
ATOM     52  C40 UNL A   1      10.176  23.264   6.006  1.00  0.00    +0.000 C 
ATOM     53  C41 UNL A   1       9.957  22.173   6.827  1.00  0.00    +0.000 C 
ATOM     54  C42 UNL A   1      10.637  21.075   6.284  1.00  0.00    +0.000 C 
ATOM     55  C43 UNL A   1      11.248  21.475   5.106  1.00  0.00    +0.000 C 
ATOM     56  N5  UNL A   1      10.959  22.820   4.949  1.00  0.00    +0.000 N 
ATOM     57  C44 UNL A   1      12.036  20.688   4.192  1.00  0.00    +0.000 C 
ATOM     69  C51 UNL A   1      12.580  21.139   3.035  1.00  0.00    +0.000 C 
ATOM     70  N6  UNL A   1      12.523  22.410   2.483  1.00  0.00    +0.000 N 
ATOM     71  C52 UNL A   1      13.215  22.351   1.371  1.00  0.00    +0.000 C 
ATOM     72  C53 UNL A   1      13.483  23.435   0.366  1.00  0.00    +0.000 C 
ATOM     84  C60 UNL A   1      12.905  24.639   0.535  1.00  0.00    +0.000 C 
ATOM     85  C61 UNL A   1      13.079  25.789  -0.345  1.00  0.00    +0.000 C 
ATOM     86  C62 UNL A   1      12.429  26.840   0.178  1.00  0.00    +0.000 C 
ATOM     87  C63 UNL A   1      11.759  26.424   1.412  1.00  0.00    +0.000 C 
ATOM     88  N7  UNL A   1      12.067  25.092   1.525  1.00  0.00    +0.000 N 
ATOM     89  C64 UNL A   1      13.803  21.033   1.096  1.00  0.00    +0.000 C 
ATOM     90  C65 UNL A   1      13.360  20.323   2.126  1.00  0.00    +0.000 C 
ATOM     91  C66 UNL A   1       9.435  26.957   5.392  1.00  0.00    +0.000 C 
ATOM     92  C67 UNL A   1       9.679  27.662   4.298  1.00  0.00    +0.000 C 
ATOM    125  H31 UNL A   1       9.391  22.168   7.689  1.00  0.00    +0.000 H 
ATOM    126  H32 UNL A   1      10.675  20.128   6.692  1.00  0.00    +0.000 H 
ATOM    127  H33 UNL A   1      11.265  23.380   4.198  1.00  0.00    +0.000 H 
ATOM    128  H34 UNL A   1      13.615  25.794  -1.227  1.00  0.00    +0.000 H 
ENDROOT
BRANCH   36   35
ATOM     33  C27 UNL A   1      10.224  30.494   0.478  1.00  0.00    +0.000 C 
ATOM     34  C28 UNL A   1      10.148  29.154   0.858  1.00  0.00    +0.000 C 
ATOM     35  C29 UNL A   1      10.954  28.677   1.903  1.00  0.00    +0.000 C 
ATOM    135  H41 UNL A   1      12.304  29.235   3.435  1.00  0.00    +0.000 H 
ATOM    136  H42 UNL A   1      12.249  31.601   2.914  1.00  0.00    +0.000 H 
ATOM    123  H29 UNL A   1       9.660  30.844  -0.313  1.00  0.00    +0.000 H 
ATOM    124  H30 UNL A   1       9.501  28.515   0.372  1.00  0.00    +0.000 H 
ATOM     93  C68 UNL A   1      11.735  29.577   2.645  1.00  0.00    +0.000 C 
ATOM     94  C69 UNL A   1      11.745  30.926   2.320  1.00  0.00    +0.000 C 
ATOM     32  C26 UNL A   1      11.067  31.359   1.179  1.00  0.00    +0.000 C 
BRANCH   32   30
ATOM     30  C25 UNL A   1      11.298  32.718   0.649  1.00  0.00    +0.000 C 
ATOM     31  O3  UNL A   1      10.927  33.693   1.284  1.00  0.00    +0.000 O 
BRANCH   30   29
ATOM    122  H28 UNL A   1      11.325  32.623  -1.351  1.00  0.00    +0.000 H 
ATOM     29  N3  UNL A   1      11.896  32.853  -0.583  1.00  0.00    +0.000 N 
BRANCH   29   28
ATOM    121  H27 UNL A   1      13.191  34.316  -1.198  1.00  0.00    +0.000 H 
ATOM     28  C24 UNL A   1      13.248  33.283  -0.923  1.00  0.00    +0.000 C 
ATOM    120  H26 UNL A   1      13.607  32.670  -1.723  1.00  0.00    +0.000 H 
BRANCH   28   27
ATOM     27  C23 UNL A   1      14.229  33.182   0.241  1.00  0.00    +0.000 C 
ATOM    118  H24 UNL A   1      15.033  33.865   0.063  1.00  0.00    +0.000 H 
ATOM    119  H25 UNL A   1      13.676  33.413   1.128  1.00  0.00    +0.000 H 
BRANCH   27   26
ATOM     26  C22 UNL A   1      14.820  31.793   0.446  1.00  0.00    +0.000 C 
ATOM    116  H22 UNL A   1      15.804  31.909   0.852  1.00  0.00    +0.000 H 
ATOM    117  H23 UNL A   1      14.143  31.280   1.099  1.00  0.00    +0.000 H 
BRANCH   26   25
ATOM     25  C21 UNL A   1      14.927  30.930  -0.809  1.00  0.00    +0.000 C 
ATOM    114  H20 UNL A   1      14.676  31.536  -1.654  1.00  0.00    +0.000 H 
ATOM    115  H21 UNL A   1      15.932  30.563  -0.840  1.00  0.00    +0.000 H 
BRANCH   25   24
ATOM    113  H19 UNL A   1      13.487  29.710   0.116  1.00  0.00    +0.000 H 
ATOM    112  H18 UNL A   1      14.624  28.832  -0.943  1.00  0.00    +0.000 H 
ATOM     24  C20 UNL A   1      14.014  29.701  -0.815  1.00  0.00    +0.000 C 
BRANCH   24   23
ATOM    111  H17 UNL A   1      12.159  30.358  -1.617  1.00  0.00    +0.000 H 
ATOM    110  H16 UNL A   1      12.588  28.707  -2.052  1.00  0.00    +0.000 H 
ATOM     23  C19 UNL A   1      12.950  29.704  -1.916  1.00  0.00    +0.000 C 
BRANCH   23   22
ATOM    109  H15 UNL A   1      14.367  30.630  -3.165  1.00  0.00    +0.000 H 
ATOM     22  N2  UNL A   1      13.489  30.185  -3.172  1.00  0.00    +0.000 N 
BRANCH   22    2
ATOM      1  O1  UNL A   1      12.496  28.973  -4.846  1.00  0.00    +0.000 O 
ATOM      2  C1  UNL A   1      12.836  30.050  -4.369  1.00  0.00    +0.000 C 
BRANCH    2    3
ATOM      3  C2  UNL A   1      12.576  31.359  -5.084  1.00  0.00    +0.000 C 
ATOM     95  H1  UNL A   1      13.324  31.495  -5.836  1.00  0.00    +0.000 H 
ATOM     96  H2  UNL A   1      12.607  32.142  -4.355  1.00  0.00    +0.000 H 
BRANCH    3    4
ATOM     97  H3  UNL A   1      10.869  30.384  -5.851  1.00  0.00    +0.000 H 
ATOM     98  H4  UNL A   1      11.349  31.911  -6.671  1.00  0.00    +0.000 H 
ATOM      4  C3  UNL A   1      11.207  31.395  -5.745  1.00  0.00    +0.000 C 
BRANCH    4    5
ATOM      5  C4  UNL A   1      10.142  32.156  -5.023  1.00  0.00    +0.000 C 
ATOM      6  N1  UNL A   1       9.422  33.151  -5.505  1.00  0.00    +0.000 N 
ATOM      7  C5  UNL A   1       8.609  33.509  -4.462  1.00  0.00    +0.000 C 
ATOM     14  C12 UNL A   1       8.828  32.676  -3.380  1.00  0.00    +0.000 C 
ATOM     21  O2  UNL A   1       9.836  31.810  -3.725  1.00  0.00    +0.000 O 
BRANCH    7    8
ATOM     99  H5  UNL A   1       5.957  33.206  -4.727  1.00  0.00    +0.000 H 
ATOM    100  H6  UNL A   1       4.337  34.930  -5.263  1.00  0.00    +0.000 H 
ATOM    101  H7  UNL A   1       5.020  37.257  -5.312  1.00  0.00    +0.000 H 
ATOM    102  H8  UNL A   1       7.299  37.866  -4.746  1.00  0.00    +0.000 H 
ATOM    103  H9  UNL A   1       8.929  36.143  -4.232  1.00  0.00    +0.000 H 
ATOM      8  C6  UNL A   1       7.589  34.535  -4.507  1.00  0.00    +0.000 C 
ATOM      9  C7  UNL A   1       6.250  34.195  -4.760  1.00  0.00    +0.000 C 
ATOM     10  C8  UNL A   1       5.315  35.186  -5.056  1.00  0.00    +0.000 C 
ATOM     11  C9  UNL A   1       5.705  36.523  -5.071  1.00  0.00    +0.000 C 
ATOM     12  C10 UNL A   1       7.021  36.872  -4.762  1.00  0.00    +0.000 C 
ATOM     13  C11 UNL A   1       7.961  35.882  -4.471  1.00  0.00    +0.000 C 
ENDBRANCH    7    8
BRANCH   14   15
ATOM    104  H10 UNL A   1       8.889  34.335  -1.249  1.00  0.00    +0.000 H 
ATOM    105  H11 UNL A   1       7.666  34.106   0.835  1.00  0.00    +0.000 H 
ATOM    106  H12 UNL A   1       6.244  32.179   1.215  1.00  0.00    +0.000 H 
ATOM    107  H13 UNL A   1       6.096  30.433  -0.463  1.00  0.00    +0.000 H 
ATOM    108  H14 UNL A   1       7.332  30.644  -2.532  1.00  0.00    +0.000 H 
ATOM     15  C13 UNL A   1       8.192  32.523  -2.079  1.00  0.00    +0.000 C 
ATOM     16  C14 UNL A   1       8.293  33.508  -1.092  1.00  0.00    +0.000 C 
ATOM     17  C15 UNL A   1       7.587  33.375   0.110  1.00  0.00    +0.000 C 
ATOM     18  C16 UNL A   1       6.776  32.262   0.334  1.00  0.00    +0.000 C 
ATOM     19  C17 UNL A   1       6.685  31.264  -0.630  1.00  0.00    +0.000 C 
ATOM     20  C18 UNL A   1       7.394  31.392  -1.823  1.00  0.00    +0.000 C 
ENDBRANCH   14   15
ENDBRANCH    4    5
ENDBRANCH    3    4
ENDBRANCH    2    3
ENDBRANCH   22    2
ENDBRANCH   23   22
ENDBRANCH   24   23
ENDBRANCH   25   24
ENDBRANCH   26   25
ENDBRANCH   27   26
ENDBRANCH   28   27
ENDBRANCH   29   28
ENDBRANCH   30   29
ENDBRANCH   32   30
ENDBRANCH   36   35
BRANCH   40   41
ATOM     41  C34 UNL A   1       8.944  24.977   7.402  1.00  0.00    +0.000 C 
ATOM     42  C35 UNL A   1       7.542  24.907   7.442  1.00  0.00    +0.000 C 
ATOM     43  F1  UNL A   1       6.855  24.524   6.356  1.00  0.00    +0.000 F 
ATOM     44  C36 UNL A   1       6.839  25.284   8.583  1.00  0.00    +0.000 C 
ATOM     45  F2  UNL A   1       5.498  25.268   8.577  1.00  0.00    +0.000 F 
ATOM     46  C37 UNL A   1       7.521  25.698   9.717  1.00  0.00    +0.000 C 
ATOM     47  F3  UNL A   1       6.841  26.064  10.812  1.00  0.00    +0.000 F 
ATOM     48  C38 UNL A   1       8.906  25.745   9.710  1.00  0.00    +0.000 C 
ATOM     49  F4  UNL A   1       9.567  26.137  10.809  1.00  0.00    +0.000 F 
ATOM     50  C39 UNL A   1       9.613  25.398   8.561  1.00  0.00    +0.000 C 
ATOM     51  F5  UNL A   1      10.952  25.480   8.578  1.00  0.00    +0.000 F 
ENDBRANCH   40   41
BRANCH   57   58
ATOM     65  C49 UNL A   1      11.543  16.927   4.456  1.00  0.00    +0.000 C 
ATOM     66  F9  UNL A   1      10.663  16.003   4.047  1.00  0.00    +0.000 F 
ATOM     67  C50 UNL A   1      11.367  18.260   4.099  1.00  0.00    +0.000 C 
ATOM     68  F10 UNL A   1      10.315  18.592   3.336  1.00  0.00    +0.000 F 
ATOM     58  C45 UNL A   1      12.264  19.246   4.535  1.00  0.00    +0.000 C 
ATOM     59  C46 UNL A   1      13.347  18.849   5.332  1.00  0.00    +0.000 C 
ATOM     60  F6  UNL A   1      14.240  19.756   5.758  1.00  0.00    +0.000 F 
ATOM     61  C47 UNL A   1      13.533  17.511   5.668  1.00  0.00    +0.000 C 
ATOM     62  F7  UNL A   1      14.594  17.148   6.401  1.00  0.00    +0.000 F 
ATOM     63  C48 UNL A   1      12.628  16.553   5.236  1.00  0.00    +0.000 C 
ATOM     64  F8  UNL A   1      12.804  15.266   5.567  1.00  0.00    +0.000 F 
ENDBRANCH   57   58
BRANCH   72   73
ATOM     73  C54 UNL A   1      14.347  23.197  -0.817  1.00  0.00    +0.000 C 
ATOM     74  C55 UNL A   1      13.792  22.808  -2.043  1.00  0.00    +0.000 C 
ATOM     75  F11 UNL A   1      12.471  22.597  -2.142  1.00  0.00    +0.000 F 
ATOM     76  C56 UNL A   1      14.593  22.612  -3.166  1.00  0.00    +0.000 C 
ATOM     77  F12 UNL A   1      14.041  22.215  -4.319  1.00  0.00    +0.000 F 
ATOM     78  C57 UNL A   1      15.961  22.824  -3.090  1.00  0.00    +0.000 C 
ATOM     79  F13 UNL A   1      16.730  22.648  -4.173  1.00  0.00    +0.000 F 
ATOM     80  C58 UNL A   1      16.533  23.215  -1.888  1.00  0.00    +0.000 C 
ATOM     81  F14 UNL A   1      17.852  23.435  -1.815  1.00  0.00    +0.000 F 
ATOM     82  C59 UNL A   1      15.735  23.390  -0.758  1.00  0.00    +0.000 C 
ATOM     83  F15 UNL A   1      16.313  23.771   0.390  1.00  0.00    +0.000 F 
ENDBRANCH   72   73
TORSDOF 19
ENDMDL
MODEL 4
REMARK VINA RESULT:     -10.9     25.988     33.522
ROOT
ATOM    129  H35 UNL A   1      22.361  19.578   3.860  1.00  0.00    +0.000 H 
ATOM    130  H36 UNL A   1      18.434  20.402   4.946  1.00  0.00    +0.000 H 
ATOM    131  H37 UNL A   1      16.567  23.305   1.298  1.00  0.00    +0.000 H 
ATOM    132  H38 UNL A   1      14.361  23.275   2.597  1.00  0.00    +0.000 H 
ATOM    133  H39 UNL A   1      18.235  16.843   9.270  1.00  0.00    +0.000 H 
ATOM    134  H40 UNL A   1      20.562  17.236   8.275  1.00  0.00    +0.000 H 
ATOM     36  C30 UNL A   1      20.530  18.820   5.912  1.00  0.00    +0.000 C 
ATOM     37  C31 UNL A   1      19.382  18.530   6.832  1.00  0.00    +0.000 C 
ATOM     38  N4  UNL A   1      18.138  18.928   6.757  1.00  0.00    +0.000 N 
ATOM     39  C32 UNL A   1      17.485  18.316   7.817  1.00  0.00    +0.000 C 
ATOM     40  C33 UNL A   1      16.195  18.458   8.205  1.00  0.00    +0.000 C 
ATOM     52  C40 UNL A   1      15.246  19.316   7.546  1.00  0.00    +0.000 C 
ATOM     53  C41 UNL A   1      13.937  19.590   7.900  1.00  0.00    +0.000 C 
ATOM     54  C42 UNL A   1      13.398  20.454   6.938  1.00  0.00    +0.000 C 
ATOM     55  C43 UNL A   1      14.383  20.746   6.007  1.00  0.00    +0.000 C 
ATOM     56  N5  UNL A   1      15.509  20.040   6.391  1.00  0.00    +0.000 N 
ATOM     57  C44 UNL A   1      14.300  21.606   4.854  1.00  0.00    +0.000 C 
ATOM     69  C51 UNL A   1      15.318  21.873   3.999  1.00  0.00    +0.000 C 
ATOM     70  N6  UNL A   1      16.620  21.396   4.019  1.00  0.00    +0.000 N 
ATOM     71  C52 UNL A   1      17.214  21.927   2.978  1.00  0.00    +0.000 C 
ATOM     72  C53 UNL A   1      18.633  21.761   2.514  1.00  0.00    +0.000 C 
ATOM     84  C60 UNL A   1      19.484  21.036   3.263  1.00  0.00    +0.000 C 
ATOM     85  C61 UNL A   1      20.883  20.776   2.938  1.00  0.00    +0.000 C 
ATOM     86  C62 UNL A   1      21.397  19.947   3.860  1.00  0.00    +0.000 C 
ATOM     87  C63 UNL A   1      20.373  19.649   4.862  1.00  0.00    +0.000 C 
ATOM     88  N7  UNL A   1      19.281  20.368   4.446  1.00  0.00    +0.000 N 
ATOM     89  C64 UNL A   1      16.349  22.795   2.169  1.00  0.00    +0.000 C 
ATOM     90  C65 UNL A   1      15.213  22.751   2.851  1.00  0.00    +0.000 C 
ATOM     91  C66 UNL A   1      18.456  17.479   8.488  1.00  0.00    +0.000 C 
ATOM     92  C67 UNL A   1      19.663  17.636   7.966  1.00  0.00    +0.000 C 
ATOM    125  H31 UNL A   1      13.444  19.223   8.728  1.00  0.00    +0.000 H 
ATOM    126  H32 UNL A   1      12.430  20.813   6.926  1.00  0.00    +0.000 H 
ATOM    127  H33 UNL A   1      16.372  20.049   5.914  1.00  0.00    +0.000 H 
ATOM    128  H34 UNL A   1      21.394  21.167   2.130  1.00  0.00    +0.000 H 
ENDROOT
BRANCH   36   35
ATOM     33  C27 UNL A   1      23.212  16.159   5.628  1.00  0.00    +0.000 C 
ATOM     34  C28 UNL A   1      22.083  16.922   5.329  1.00  0.00    +0.000 C 
ATOM     35  C29 UNL A   1      21.806  18.083   6.069  1.00  0.00    +0.000 C 
ATOM    135  H41 UNL A   1      22.549  19.410   7.540  1.00  0.00    +0.000 H 
ATOM    136  H42 UNL A   1      24.621  18.201   7.889  1.00  0.00    +0.000 H 
ATOM    123  H29 UNL A   1      23.403  15.286   5.112  1.00  0.00    +0.000 H 
ATOM    124  H30 UNL A   1      21.452  16.634   4.565  1.00  0.00    +0.000 H 
ATOM     93  C68 UNL A   1      22.734  18.539   7.017  1.00  0.00    +0.000 C 
ATOM     94  C69 UNL A   1      23.899  17.825   7.256  1.00  0.00    +0.000 C 
ATOM     32  C26 UNL A   1      24.083  16.590   6.631  1.00  0.00    +0.000 C 
BRANCH   32   30
ATOM     30  C25 UNL A   1      25.157  15.683   7.083  1.00  0.00    +0.000 C 
ATOM     31  O3  UNL A   1      25.064  15.113   8.159  1.00  0.00    +0.000 O 
BRANCH   30   29
ATOM    122  H28 UNL A   1      26.090  15.478   5.322  1.00  0.00    +0.000 H 
ATOM     29  N3  UNL A   1      26.272  15.533   6.288  1.00  0.00    +0.000 N 
BRANCH   29   28
ATOM    121  H27 UNL A   1      28.249  15.487   5.758  1.00  0.00    +0.000 H 
ATOM     28  C24 UNL A   1      27.679  15.441   6.662  1.00  0.00    +0.000 C 
ATOM    120  H26 UNL A   1      27.829  14.522   7.189  1.00  0.00    +0.000 H 
BRANCH   28   27
ATOM     27  C23 UNL A   1      28.149  16.590   7.549  1.00  0.00    +0.000 C 
ATOM    118  H24 UNL A   1      27.731  17.499   7.170  1.00  0.00    +0.000 H 
ATOM    119  H25 UNL A   1      27.818  16.363   8.543  1.00  0.00    +0.000 H 
BRANCH   27   26
ATOM     26  C22 UNL A   1      29.661  16.752   7.620  1.00  0.00    +0.000 C 
ATOM    116  H22 UNL A   1      29.931  16.888   8.647  1.00  0.00    +0.000 H 
ATOM    117  H23 UNL A   1      30.072  15.867   7.180  1.00  0.00    +0.000 H 
BRANCH   26   25
ATOM     25  C21 UNL A   1      30.236  17.922   6.824  1.00  0.00    +0.000 C 
ATOM    114  H20 UNL A   1      29.642  18.787   7.026  1.00  0.00    +0.000 H 
ATOM    115  H21 UNL A   1      31.254  18.029   7.136  1.00  0.00    +0.000 H 
BRANCH   25   24
ATOM    113  H19 UNL A   1      30.073  16.665   5.146  1.00  0.00    +0.000 H 
ATOM    112  H18 UNL A   1      31.224  18.015   4.946  1.00  0.00    +0.000 H 
ATOM     24  C20 UNL A   1      30.267  17.705   5.308  1.00  0.00    +0.000 C 
BRANCH   24   23
ATOM    111  H17 UNL A   1      28.408  17.789   4.283  1.00  0.00    +0.000 H 
ATOM    110  H16 UNL A   1      29.630  18.890   3.653  1.00  0.00    +0.000 H 
ATOM     23  C19 UNL A   1      29.192  18.472   4.534  1.00  0.00    +0.000 C 
BRANCH   23   22
ATOM    109  H15 UNL A   1      29.217  20.026   5.952  1.00  0.00    +0.000 H 
ATOM     22  N2  UNL A   1      28.626  19.541   5.332  1.00  0.00    +0.000 N 
BRANCH   22    2
ATOM      1  O1  UNL A   1      26.787  20.414   4.276  1.00  0.00    +0.000 O 
ATOM      2  C1  UNL A   1      27.308  19.910   5.265  1.00  0.00    +0.000 C 
BRANCH    2    3
ATOM      3  C2  UNL A   1      26.530  19.661   6.540  1.00  0.00    +0.000 C 
ATOM     95  H1  UNL A   1      26.293  18.620   6.601  1.00  0.00    +0.000 H 
ATOM     96  H2  UNL A   1      25.644  20.262   6.506  1.00  0.00    +0.000 H 
BRANCH    3    4
ATOM     97  H3  UNL A   1      27.789  20.995   7.581  1.00  0.00    +0.000 H 
ATOM     98  H4  UNL A   1      27.988  19.250   7.965  1.00  0.00    +0.000 H 
ATOM      4  C3  UNL A   1      27.312  20.059   7.782  1.00  0.00    +0.000 C 
BRANCH    4    5
ATOM      5  C4  UNL A   1      26.522  20.212   9.041  1.00  0.00    +0.000 C 
ATOM      6  N1  UNL A   1      26.207  21.346   9.639  1.00  0.00    +0.000 N 
ATOM      7  C5  UNL A   1      25.500  20.953  10.745  1.00  0.00    +0.000 C 
ATOM     14  C12 UNL A   1      25.361  19.577  10.757  1.00  0.00    +0.000 C 
ATOM     21  O2  UNL A   1      26.040  19.085   9.670  1.00  0.00    +0.000 O 
BRANCH    7    8
ATOM     99  H5  UNL A   1      22.889  21.317  11.244  1.00  0.00    +0.000 H 
ATOM    100  H6  UNL A   1      21.884  23.124  12.513  1.00  0.00    +0.000 H 
ATOM    101  H7  UNL A   1      23.294  24.668  13.742  1.00  0.00    +0.000 H 
ATOM    102  H8  UNL A   1      25.699  24.357  13.770  1.00  0.00    +0.000 H 
ATOM    103  H9  UNL A   1      26.712  22.564  12.485  1.00  0.00    +0.000 H 
ATOM      8  C6  UNL A   1      24.886  21.842  11.708  1.00  0.00    +0.000 C 
ATOM      9  C7  UNL A   1      23.489  21.982  11.758  1.00  0.00    +0.000 C 
ATOM     10  C8  UNL A   1      22.909  23.012  12.496  1.00  0.00    +0.000 C 
ATOM     11  C9  UNL A   1      23.720  23.890  13.213  1.00  0.00    +0.000 C 
ATOM     12  C10 UNL A   1      25.105  23.721  13.215  1.00  0.00    +0.000 C 
ATOM     13  C11 UNL A   1      25.689  22.694  12.472  1.00  0.00    +0.000 C 
ENDBRANCH    7    8
BRANCH   14   15
ATOM    104  H10 UNL A   1      25.641  19.105  13.402  1.00  0.00    +0.000 H 
ATOM    105  H11 UNL A   1      24.279  17.658  14.795  1.00  0.00    +0.000 H 
ATOM    106  H12 UNL A   1      22.470  16.371  13.822  1.00  0.00    +0.000 H 
ATOM    107  H13 UNL A   1      22.060  16.470  11.433  1.00  0.00    +0.000 H 
ATOM    108  H14 UNL A   1      23.431  17.893  10.036  1.00  0.00    +0.000 H 
ATOM     15  C13 UNL A   1      24.633  18.644  11.605  1.00  0.00    +0.000 C 
ATOM     16  C14 UNL A   1      24.879  18.555  12.979  1.00  0.00    +0.000 C 
ATOM     17  C15 UNL A   1      24.093  17.720  13.782  1.00  0.00    +0.000 C 
ATOM     18  C16 UNL A   1      23.057  16.970  13.222  1.00  0.00    +0.000 C 
ATOM     19  C17 UNL A   1      22.818  17.032  11.854  1.00  0.00    +0.000 C 
ATOM     20  C18 UNL A   1      23.605  17.857  11.053  1.00  0.00    +0.000 C 
ENDBRANCH   14   15
ENDBRANCH    4    5
ENDBRANCH    3    4
ENDBRANCH    2    3
ENDBRANCH   22    2
ENDBRANCH   23   22
ENDBRANCH   24   23
ENDBRANCH   25   24
ENDBRANCH   26   25
ENDBRANCH   27   26
ENDBRANCH   28   27
ENDBRANCH   29   28
ENDBRANCH   30   29
ENDBRANCH   32   30
ENDBRANCH   36   35
BRANCH   40   41
ATOM     41  C34 UNL A   1      15.747  17.668   9.399  1.00  0.00    +0.000 C 
ATOM     42  C35 UNL A   1      15.334  16.331   9.282  1.00  0.00    +0.000 C 
ATOM     43  F1  UNL A   1      15.320  15.732   8.082  1.00  0.00    +0.000 F 
ATOM     44  C36 UNL A   1      14.882  15.621  10.391  1.00  0.00    +0.000 C 
ATOM     45  F2  UNL A   1      14.433  14.366  10.243  1.00  0.00    +0.000 F 
ATOM     46  C37 UNL A   1      14.871  16.218  11.642  1.00  0.00    +0.000 C 
ATOM     47  F3  UNL A   1      14.431  15.533  12.707  1.00  0.00    +0.000 F 
ATOM     48  C38 UNL A   1      15.304  17.527  11.786  1.00  0.00    +0.000 C 
ATOM     49  F4  UNL A   1      15.303  18.101  12.998  1.00  0.00    +0.000 F 
ATOM     50  C39 UNL A   1      15.729  18.251  10.675  1.00  0.00    +0.000 C 
ATOM     51  F5  UNL A   1      16.116  19.524  10.843  1.00  0.00    +0.000 F 
ENDBRANCH   40   41
BRANCH   57   58
ATOM     65  C49 UNL A   1      11.451  24.123   4.950  1.00  0.00    +0.000 C 
ATOM     66  F9  UNL A   1      11.176  25.298   5.530  1.00  0.00    +0.000 F 
ATOM     67  C50 UNL A   1      12.687  23.518   5.158  1.00  0.00    +0.000 C 
ATOM     68  F10 UNL A   1      13.588  24.138   5.934  1.00  0.00    +0.000 F 
ATOM     58  C45 UNL A   1      12.987  22.276   4.579  1.00  0.00    +0.000 C 
ATOM     59  C46 UNL A   1      12.011  21.667   3.778  1.00  0.00    +0.000 C 
ATOM     60  F6  UNL A   1      12.260  20.487   3.189  1.00  0.00    +0.000 F 
ATOM     61  C47 UNL A   1      10.784  22.286   3.553  1.00  0.00    +0.000 C 
ATOM     62  F7  UNL A   1       9.879  21.704   2.755  1.00  0.00    +0.000 F 
ATOM     63  C48 UNL A   1      10.503  23.509   4.145  1.00  0.00    +0.000 C 
ATOM     64  F8  UNL A   1       9.319  24.099   3.934  1.00  0.00    +0.000 F 
ENDBRANCH   57   58
BRANCH   72   73
ATOM     73  C54 UNL A   1      19.118  22.400   1.265  1.00  0.00    +0.000 C 
ATOM     74  C55 UNL A   1      19.871  23.581   1.311  1.00  0.00    +0.000 C 
ATOM     75  F11 UNL A   1      20.116  24.173   2.489  1.00  0.00    +0.000 F 
ATOM     76  C56 UNL A   1      20.356  24.171   0.146  1.00  0.00    +0.000 C 
ATOM     77  F12 UNL A   1      21.051  25.314   0.214  1.00  0.00    +0.000 F 
ATOM     78  C57 UNL A   1      20.116  23.579  -1.085  1.00  0.00    +0.000 C 
ATOM     79  F13 UNL A   1      20.593  24.139  -2.205  1.00  0.00    +0.000 F 
ATOM     80  C58 UNL A   1      19.378  22.406  -1.155  1.00  0.00    +0.000 C 
ATOM     81  F14 UNL A   1      19.158  21.823  -2.341  1.00  0.00    +0.000 F 
ATOM     82  C59 UNL A   1      18.874  21.828   0.009  1.00  0.00    +0.000 C 
ATOM     83  F15 UNL A   1      18.166  20.693  -0.087  1.00  0.00    +0.000 F 
ENDBRANCH   72   73
TORSDOF 19
ENDMDL
MODEL 5
REMARK VINA RESULT:     -10.8     21.130     27.189
ROOT
ATOM    129  H35 UNL A   1      25.679  36.947  45.513  1.00  0.00    +0.000 H 
ATOM    130  H36 UNL A   1      23.474  39.914  47.413  1.00  0.00    +0.000 H 
ATOM    131  H37 UNL A   1      19.103  37.795  48.684  1.00  0.00    +0.000 H 
ATOM    132  H38 UNL A   1      18.478  40.045  49.734  1.00  0.00    +0.000 H 
ATOM    133  H39 UNL A   1      27.624  43.670  47.701  1.00  0.00    +0.000 H 
ATOM    134  H40 UNL A   1      28.092  41.623  46.235  1.00  0.00    +0.000 H 
ATOM     36  C30 UNL A   1      26.060  39.638  46.379  1.00  0.00    +0.000 C 
ATOM     37  C31 UNL A   1      26.035  41.014  46.973  1.00  0.00    +0.000 C 
ATOM     38  N4  UNL A   1      25.098  41.597  47.677  1.00  0.00    +0.000 N 
ATOM     39  C32 UNL A   1      25.615  42.833  48.036  1.00  0.00    +0.000 C 
ATOM     40  C33 UNL A   1      25.008  43.833  48.719  1.00  0.00    +0.000 C 
ATOM     52  C40 UNL A   1      23.654  43.771  49.202  1.00  0.00    +0.000 C 
ATOM     53  C41 UNL A   1      22.917  44.753  49.839  1.00  0.00    +0.000 C 
ATOM     54  C42 UNL A   1      21.660  44.220  50.154  1.00  0.00    +0.000 C 
ATOM     55  C43 UNL A   1      21.603  42.919  49.679  1.00  0.00    +0.000 C 
ATOM     56  N5  UNL A   1      22.833  42.656  49.100  1.00  0.00    +0.000 N 
ATOM     57  C44 UNL A   1      20.507  41.986  49.749  1.00  0.00    +0.000 C 
ATOM     69  C51 UNL A   1      20.509  40.732  49.232  1.00  0.00    +0.000 C 
ATOM     70  N6  UNL A   1      21.523  40.071  48.554  1.00  0.00    +0.000 N 
ATOM     71  C52 UNL A   1      21.050  38.880  48.274  1.00  0.00    +0.000 C 
ATOM     72  C53 UNL A   1      21.716  37.748  47.545  1.00  0.00    +0.000 C 
ATOM     84  C60 UNL A   1      22.940  37.940  47.020  1.00  0.00    +0.000 C 
ATOM     85  C61 UNL A   1      23.716  36.937  46.298  1.00  0.00    +0.000 C 
ATOM     86  C62 UNL A   1      24.920  37.449  46.000  1.00  0.00    +0.000 C 
ATOM     87  C63 UNL A   1      24.985  38.832  46.476  1.00  0.00    +0.000 C 
ATOM     88  N7  UNL A   1      23.751  39.049  47.036  1.00  0.00    +0.000 N 
ATOM     89  C64 UNL A   1      19.683  38.646  48.755  1.00  0.00    +0.000 C 
ATOM     90  C65 UNL A   1      19.389  39.816  49.306  1.00  0.00    +0.000 C 
ATOM     91  C66 UNL A   1      26.966  42.895  47.521  1.00  0.00    +0.000 C 
ATOM     92  C67 UNL A   1      27.246  41.828  46.789  1.00  0.00    +0.000 C 
ATOM    125  H31 UNL A   1      23.236  45.711  50.046  1.00  0.00    +0.000 H 
ATOM    126  H32 UNL A   1      20.904  44.714  50.654  1.00  0.00    +0.000 H 
ATOM    127  H33 UNL A   1      23.088  41.803  48.678  1.00  0.00    +0.000 H 
ATOM    128  H34 UNL A   1      23.391  35.987  46.057  1.00  0.00    +0.000 H 
ENDROOT
BRANCH   36   35
ATOM     33  C27 UNL A   1      29.104  39.179  44.172  1.00  0.00    +0.000 C 
ATOM     34  C28 UNL A   1      28.025  39.792  44.810  1.00  0.00    +0.000 C 
ATOM     35  C29 UNL A   1      27.317  39.104  45.807  1.00  0.00    +0.000 C 
ATOM    135  H41 UNL A   1      27.279  37.358  47.003  1.00  0.00    +0.000 H 
ATOM    136  H42 UNL A   1      29.293  36.404  46.050  1.00  0.00    +0.000 H 
ATOM    123  H29 UNL A   1      29.607  39.666  43.413  1.00  0.00    +0.000 H 
ATOM    124  H30 UNL A   1      27.748  40.751  44.548  1.00  0.00    +0.000 H 
ATOM     93  C68 UNL A   1      27.778  37.854  46.248  1.00  0.00    +0.000 C 
ATOM     94  C69 UNL A   1      28.902  37.280  45.671  1.00  0.00    +0.000 C 
ATOM     32  C26 UNL A   1      29.499  37.900  44.572  1.00  0.00    +0.000 C 
BRANCH   32   30
ATOM     30  C25 UNL A   1      30.501  37.177  43.764  1.00  0.00    +0.000 C 
ATOM     31  O3  UNL A   1      30.995  37.709  42.783  1.00  0.00    +0.000 O 
BRANCH   30   29
ATOM    122  H28 UNL A   1      31.478  35.807  44.851  1.00  0.00    +0.000 H 
ATOM     29  N3  UNL A   1      30.826  35.887  44.118  1.00  0.00    +0.000 N 
BRANCH   29   28
ATOM    121  H27 UNL A   1      31.216  34.042  43.318  1.00  0.00    +0.000 H 
ATOM     28  C24 UNL A   1      30.352  34.621  43.570  1.00  0.00    +0.000 C 
ATOM    120  H26 UNL A   1      29.742  34.829  42.716  1.00  0.00    +0.000 H 
BRANCH   28   27
ATOM     27  C23 UNL A   1      29.532  33.799  44.560  1.00  0.00    +0.000 C 
ATOM    118  H24 UNL A   1      29.808  32.770  44.451  1.00  0.00    +0.000 H 
ATOM    119  H25 UNL A   1      29.750  34.187  45.534  1.00  0.00    +0.000 H 
BRANCH   27   26
ATOM     26  C22 UNL A   1      28.025  33.910  44.374  1.00  0.00    +0.000 C 
ATOM    116  H22 UNL A   1      27.749  34.935  44.514  1.00  0.00    +0.000 H 
ATOM    117  H23 UNL A   1      27.822  33.541  43.389  1.00  0.00    +0.000 H 
BRANCH   26   25
ATOM     25  C21 UNL A   1      27.179  33.062  45.321  1.00  0.00    +0.000 C 
ATOM    114  H20 UNL A   1      26.838  32.202  44.784  1.00  0.00    +0.000 H 
ATOM    115  H21 UNL A   1      27.808  32.816  46.151  1.00  0.00    +0.000 H 
BRANCH   25   24
ATOM    113  H19 UNL A   1      26.102  34.824  45.711  1.00  0.00    +0.000 H 
ATOM    112  H18 UNL A   1      25.893  33.547  46.940  1.00  0.00    +0.000 H 
ATOM     24  C20 UNL A   1      25.957  33.781  45.898  1.00  0.00    +0.000 C 
BRANCH   24   23
ATOM    111  H17 UNL A   1      24.838  32.853  44.348  1.00  0.00    +0.000 H 
ATOM    110  H16 UNL A   1      24.082  34.296  45.020  1.00  0.00    +0.000 H 
ATOM     23  C19 UNL A   1      24.627  33.403  45.241  1.00  0.00    +0.000 C 
BRANCH   23   22
ATOM    109  H15 UNL A   1      23.520  32.940  46.969  1.00  0.00    +0.000 H 
ATOM     22  N2  UNL A   1      23.825  32.566  46.111  1.00  0.00    +0.000 N 
BRANCH   22    2
ATOM      1  O1  UNL A   1      24.219  30.479  45.246  1.00  0.00    +0.000 O 
ATOM      2  C1  UNL A   1      23.471  31.280  45.798  1.00  0.00    +0.000 C 
BRANCH    2    3
ATOM      3  C2  UNL A   1      22.050  30.919  46.173  1.00  0.00    +0.000 C 
ATOM     95  H1  UNL A   1      21.424  31.770  46.009  1.00  0.00    +0.000 H 
ATOM     96  H2  UNL A   1      22.048  30.625  47.203  1.00  0.00    +0.000 H 
BRANCH    3    4
ATOM     97  H3  UNL A   1      21.518  28.886  45.986  1.00  0.00    +0.000 H 
ATOM     98  H4  UNL A   1      22.157  29.681  44.505  1.00  0.00    +0.000 H 
ATOM      4  C3  UNL A   1      21.515  29.752  45.358  1.00  0.00    +0.000 C 
BRANCH    4    5
ATOM      5  C4  UNL A   1      20.134  29.908  44.806  1.00  0.00    +0.000 C 
ATOM      6  N1  UNL A   1      19.545  31.040  44.469  1.00  0.00    +0.000 N 
ATOM      7  C5  UNL A   1      18.304  30.652  44.038  1.00  0.00    +0.000 C 
ATOM     14  C12 UNL A   1      18.194  29.274  44.078  1.00  0.00    +0.000 C 
ATOM     21  O2  UNL A   1      19.367  28.783  44.597  1.00  0.00    +0.000 O 
BRANCH    7    8
ATOM     99  H5  UNL A   1      18.130  31.705  41.576  1.00  0.00    +0.000 H 
ATOM    100  H6  UNL A   1      16.693  33.526  40.866  1.00  0.00    +0.000 H 
ATOM    101  H7  UNL A   1      14.993  34.380  42.369  1.00  0.00    +0.000 H 
ATOM    102  H8  UNL A   1      14.674  33.362  44.547  1.00  0.00    +0.000 H 
ATOM    103  H9  UNL A   1      16.124  31.555  45.272  1.00  0.00    +0.000 H 
ATOM      8  C6  UNL A   1      17.285  31.535  43.509  1.00  0.00    +0.000 C 
ATOM      9  C7  UNL A   1      17.414  32.077  42.220  1.00  0.00    +0.000 C 
ATOM     10  C8  UNL A   1      16.581  33.115  41.805  1.00  0.00    +0.000 C 
ATOM     11  C9  UNL A   1      15.596  33.596  42.665  1.00  0.00    +0.000 C 
ATOM     12  C10 UNL A   1      15.424  33.021  43.925  1.00  0.00    +0.000 C 
ATOM     13  C11 UNL A   1      16.261  31.986  44.345  1.00  0.00    +0.000 C 
ENDBRANCH    7    8
BRANCH   14   15
ATOM    104  H10 UNL A   1      17.481  26.915  45.185  1.00  0.00    +0.000 H 
ATOM    105  H11 UNL A   1      15.652  25.466  44.518  1.00  0.00    +0.000 H 
ATOM    106  H12 UNL A   1      14.269  26.038  42.612  1.00  0.00    +0.000 H 
ATOM    107  H13 UNL A   1      14.755  28.031  41.316  1.00  0.00    +0.000 H 
ATOM    108  H14 UNL A   1      16.592  29.467  41.962  1.00  0.00    +0.000 H 
ATOM     15  C13 UNL A   1      17.174  28.329  43.647  1.00  0.00    +0.000 C 
ATOM     16  C14 UNL A   1      16.902  27.162  44.368  1.00  0.00    +0.000 C 
ATOM     17  C15 UNL A   1      15.847  26.326  43.983  1.00  0.00    +0.000 C 
ATOM     18  C16 UNL A   1      15.056  26.649  42.879  1.00  0.00    +0.000 C 
ATOM     19  C17 UNL A   1      15.330  27.794  42.140  1.00  0.00    +0.000 C 
ATOM     20  C18 UNL A   1      16.385  28.623  42.519  1.00  0.00    +0.000 C 
ENDBRANCH   14   15
ENDBRANCH    4    5
ENDBRANCH    3    4
ENDBRANCH    2    3
ENDBRANCH   22    2
ENDBRANCH   23   22
ENDBRANCH   24   23
ENDBRANCH   25   24
ENDBRANCH   26   25
ENDBRANCH   27   26
ENDBRANCH   28   27
ENDBRANCH   29   28
ENDBRANCH   30   29
ENDBRANCH   32   30
ENDBRANCH   36   35
BRANCH   40   41
ATOM     41  C34 UNL A   1      25.809  45.075  48.973  1.00  0.00    +0.000 C 
ATOM     42  C35 UNL A   1      26.642  45.195  50.097  1.00  0.00    +0.000 C 
ATOM     43  F1  UNL A   1      26.727  44.191  50.983  1.00  0.00    +0.000 F 
ATOM     44  C36 UNL A   1      27.349  46.368  50.344  1.00  0.00    +0.000 C 
ATOM     45  F2  UNL A   1      28.088  46.481  51.457  1.00  0.00    +0.000 F 
ATOM     46  C37 UNL A   1      27.269  47.429  49.454  1.00  0.00    +0.000 C 
ATOM     47  F3  UNL A   1      27.948  48.559  49.696  1.00  0.00    +0.000 F 
ATOM     48  C38 UNL A   1      26.478  47.322  48.322  1.00  0.00    +0.000 C 
ATOM     49  F4  UNL A   1      26.408  48.343  47.456  1.00  0.00    +0.000 F 
ATOM     50  C39 UNL A   1      25.745  46.161  48.086  1.00  0.00    +0.000 C 
ATOM     51  F5  UNL A   1      24.967  46.099  46.995  1.00  0.00    +0.000 F 
ENDBRANCH   40   41
BRANCH   57   58
ATOM     65  C49 UNL A   1      17.856  42.518  52.422  1.00  0.00    +0.000 C 
ATOM     66  F9  UNL A   1      17.664  42.216  53.713  1.00  0.00    +0.000 F 
ATOM     67  C50 UNL A   1      19.040  42.150  51.791  1.00  0.00    +0.000 C 
ATOM     68  F10 UNL A   1      19.976  41.502  52.500  1.00  0.00    +0.000 F 
ATOM     58  C45 UNL A   1      19.252  42.437  50.435  1.00  0.00    +0.000 C 
ATOM     59  C46 UNL A   1      18.242  43.114  49.736  1.00  0.00    +0.000 C 
ATOM     60  F6  UNL A   1      18.408  43.425  48.442  1.00  0.00    +0.000 F 
ATOM     61  C47 UNL A   1      17.069  43.501  50.377  1.00  0.00    +0.000 C 
ATOM     62  F7  UNL A   1      16.131  44.179  49.701  1.00  0.00    +0.000 F 
ATOM     63  C48 UNL A   1      16.874  43.198  51.717  1.00  0.00    +0.000 C 
ATOM     64  F8  UNL A   1      15.740  43.565  52.330  1.00  0.00    +0.000 F 
ENDBRANCH   57   58
BRANCH   72   73
ATOM     73  C54 UNL A   1      21.041  36.438  47.370  1.00  0.00    +0.000 C 
ATOM     74  C55 UNL A   1      20.221  36.197  46.261  1.00  0.00    +0.000 C 
ATOM     75  F11 UNL A   1      19.996  37.174  45.370  1.00  0.00    +0.000 F 
ATOM     76  C56 UNL A   1      19.608  34.959  46.073  1.00  0.00    +0.000 C 
ATOM     77  F12 UNL A   1      18.807  34.763  45.019  1.00  0.00    +0.000 F 
ATOM     78  C57 UNL A   1      19.823  33.933  46.981  1.00  0.00    +0.000 C 
ATOM     79  F13 UNL A   1      19.244  32.739  46.794  1.00  0.00    +0.000 F 
ATOM     80  C58 UNL A   1      20.637  34.146  48.084  1.00  0.00    +0.000 C 
ATOM     81  F14 UNL A   1      20.859  33.151  48.954  1.00  0.00    +0.000 F 
ATOM     82  C59 UNL A   1      21.232  35.390  48.283  1.00  0.00    +0.000 C 
ATOM     83  F15 UNL A   1      22.016  35.569  49.356  1.00  0.00    +0.000 F 
ENDBRANCH   72   73
TORSDOF 19
ENDMDL
MODEL 6
REMARK VINA RESULT:     -10.7     16.760     22.064
ROOT
ATOM    129  H35 UNL A   1      47.974  16.158  44.021  1.00  0.00    +0.000 H 
ATOM    130  H36 UNL A   1      45.844  16.207  47.590  1.00  0.00    +0.000 H 
ATOM    131  H37 UNL A   1      42.757  12.251  47.416  1.00  0.00    +0.000 H 
ATOM    132  H38 UNL A   1      41.976  12.936  49.757  1.00  0.00    +0.000 H 
ATOM    133  H39 UNL A   1      48.833  20.273  50.030  1.00  0.00    +0.000 H 
ATOM    134  H40 UNL A   1      49.288  19.919  47.534  1.00  0.00    +0.000 H 
ATOM     36  C30 UNL A   1      47.951  17.655  46.449  1.00  0.00    +0.000 C 
ATOM     37  C31 UNL A   1      47.786  18.243  47.819  1.00  0.00    +0.000 C 
ATOM     38  N4  UNL A   1      47.011  17.855  48.800  1.00  0.00    +0.000 N 
ATOM     39  C32 UNL A   1      47.301  18.700  49.861  1.00  0.00    +0.000 C 
ATOM     40  C33 UNL A   1      46.721  18.744  51.084  1.00  0.00    +0.000 C 
ATOM     52  C40 UNL A   1      45.650  17.877  51.499  1.00  0.00    +0.000 C 
ATOM     53  C41 UNL A   1      44.941  17.886  52.687  1.00  0.00    +0.000 C 
ATOM     54  C42 UNL A   1      44.019  16.832  52.651  1.00  0.00    +0.000 C 
ATOM     55  C43 UNL A   1      44.129  16.192  51.426  1.00  0.00    +0.000 C 
ATOM     56  N5  UNL A   1      45.134  16.842  50.731  1.00  0.00    +0.000 N 
ATOM     57  C44 UNL A   1      43.372  15.072  50.929  1.00  0.00    +0.000 C 
ATOM     69  C51 UNL A   1      43.512  14.514  49.701  1.00  0.00    +0.000 C 
ATOM     70  N6  UNL A   1      44.383  14.861  48.680  1.00  0.00    +0.000 N 
ATOM     71  C52 UNL A   1      44.148  14.017  47.704  1.00  0.00    +0.000 C 
ATOM     72  C53 UNL A   1      44.799  13.933  46.352  1.00  0.00    +0.000 C 
ATOM     84  C60 UNL A   1      45.706  14.863  46.005  1.00  0.00    +0.000 C 
ATOM     85  C61 UNL A   1      46.429  14.907  44.738  1.00  0.00    +0.000 C 
ATOM     86  C62 UNL A   1      47.313  15.915  44.775  1.00  0.00    +0.000 C 
ATOM     87  C63 UNL A   1      47.191  16.614  46.056  1.00  0.00    +0.000 C 
ATOM     88  N7  UNL A   1      46.187  15.943  46.706  1.00  0.00    +0.000 N 
ATOM     89  C64 UNL A   1      43.105  13.027  48.001  1.00  0.00    +0.000 C 
ATOM     90  C65 UNL A   1      42.729  13.392  49.219  1.00  0.00    +0.000 C 
ATOM     91  C66 UNL A   1      48.359  19.585  49.423  1.00  0.00    +0.000 C 
ATOM     92  C67 UNL A   1      48.640  19.395  48.143  1.00  0.00    +0.000 C 
ATOM    125  H31 UNL A   1      45.069  18.552  53.463  1.00  0.00    +0.000 H 
ATOM    126  H32 UNL A   1      43.367  16.577  53.409  1.00  0.00    +0.000 H 
ATOM    127  H33 UNL A   1      45.439  16.604  49.825  1.00  0.00    +0.000 H 
ATOM    128  H34 UNL A   1      46.284  14.265  43.943  1.00  0.00    +0.000 H 
ENDROOT
BRANCH   36   35
ATOM     33  C27 UNL A   1      51.399  18.231  44.990  1.00  0.00    +0.000 C 
ATOM     34  C28 UNL A   1      50.360  17.641  45.712  1.00  0.00    +0.000 C 
ATOM     35  C29 UNL A   1      49.049  18.123  45.573  1.00  0.00    +0.000 C 
ATOM    135  H41 UNL A   1      47.801  19.441  44.484  1.00  0.00    +0.000 H 
ATOM    136  H42 UNL A   1      49.576  20.295  43.071  1.00  0.00    +0.000 H 
ATOM    123  H29 UNL A   1      52.370  17.905  45.115  1.00  0.00    +0.000 H 
ATOM    124  H30 UNL A   1      50.556  16.853  46.347  1.00  0.00    +0.000 H 
ATOM     93  C68 UNL A   1      48.770  19.107  44.612  1.00  0.00    +0.000 C 
ATOM     94  C69 UNL A   1      49.790  19.635  43.835  1.00  0.00    +0.000 C 
ATOM     32  C26 UNL A   1      51.111  19.264  44.096  1.00  0.00    +0.000 C 
BRANCH   32   30
ATOM     30  C25 UNL A   1      52.227  20.018  43.492  1.00  0.00    +0.000 C 
ATOM     31  O3  UNL A   1      52.529  19.831  42.323  1.00  0.00    +0.000 O 
BRANCH   30   29
ATOM    122  H28 UNL A   1      53.833  20.585  44.545  1.00  0.00    +0.000 H 
ATOM     29  N3  UNL A   1      52.936  20.894  44.282  1.00  0.00    +0.000 N 
BRANCH   29   28
ATOM    121  H27 UNL A   1      52.063  22.724  43.995  1.00  0.00    +0.000 H 
ATOM     28  C24 UNL A   1      52.560  22.209  44.789  1.00  0.00    +0.000 C 
ATOM    120  H26 UNL A   1      53.448  22.715  45.107  1.00  0.00    +0.000 H 
BRANCH   28   27
ATOM     27  C23 UNL A   1      51.590  22.152  45.966  1.00  0.00    +0.000 C 
ATOM    118  H24 UNL A   1      51.424  21.124  46.214  1.00  0.00    +0.000 H 
ATOM    119  H25 UNL A   1      52.044  22.704  46.763  1.00  0.00    +0.000 H 
BRANCH   27   26
ATOM     26  C22 UNL A   1      50.240  22.803  45.699  1.00  0.00    +0.000 C 
ATOM    116  H22 UNL A   1      50.333  23.851  45.898  1.00  0.00    +0.000 H 
ATOM    117  H23 UNL A   1      50.000  22.578  44.681  1.00  0.00    +0.000 H 
BRANCH   26   25
ATOM     25  C21 UNL A   1      49.075  22.269  46.531  1.00  0.00    +0.000 C 
ATOM    114  H20 UNL A   1      48.524  21.578  45.929  1.00  0.00    +0.000 H 
ATOM    115  H21 UNL A   1      49.505  21.818  47.401  1.00  0.00    +0.000 H 
BRANCH   25   24
ATOM    113  H19 UNL A   1      47.486  23.605  46.200  1.00  0.00    +0.000 H 
ATOM    112  H18 UNL A   1      48.682  24.168  47.400  1.00  0.00    +0.000 H 
ATOM     24  C20 UNL A   1      48.106  23.344  47.031  1.00  0.00    +0.000 C 
BRANCH   24   23
ATOM    111  H17 UNL A   1      47.056  23.684  48.847  1.00  0.00    +0.000 H 
ATOM    110  H16 UNL A   1      47.583  22.019  48.619  1.00  0.00    +0.000 H 
ATOM     23  C19 UNL A   1      47.165  22.883  48.147  1.00  0.00    +0.000 C 
BRANCH   23   22
ATOM    109  H15 UNL A   1      45.267  23.282  47.333  1.00  0.00    +0.000 H 
ATOM     22  N2  UNL A   1      45.853  22.549  47.630  1.00  0.00    +0.000 N 
BRANCH   22    2
ATOM      1  O1  UNL A   1      44.830  20.667  48.446  1.00  0.00    +0.000 O 
ATOM      2  C1  UNL A   1      45.390  21.263  47.533  1.00  0.00    +0.000 C 
BRANCH    2    3
ATOM      3  C2  UNL A   1      45.645  20.612  46.190  1.00  0.00    +0.000 C 
ATOM     95  H1  UNL A   1      46.551  20.045  46.249  1.00  0.00    +0.000 H 
ATOM     96  H2  UNL A   1      45.718  21.389  45.458  1.00  0.00    +0.000 H 
BRANCH    3    4
ATOM     97  H3  UNL A   1      43.627  20.277  45.678  1.00  0.00    +0.000 H 
ATOM     98  H4  UNL A   1      44.464  18.934  46.533  1.00  0.00    +0.000 H 
ATOM      4  C3  UNL A   1      44.514  19.686  45.773  1.00  0.00    +0.000 C 
BRANCH    4    5
ATOM      5  C4  UNL A   1      44.705  18.944  44.489  1.00  0.00    +0.000 C 
ATOM      6  N1  UNL A   1      43.889  18.044  43.972  1.00  0.00    +0.000 N 
ATOM      7  C5  UNL A   1      44.512  17.659  42.814  1.00  0.00    +0.000 C 
ATOM     14  C12 UNL A   1      45.676  18.382  42.635  1.00  0.00    +0.000 C 
ATOM     21  O2  UNL A   1      45.823  19.202  43.728  1.00  0.00    +0.000 O 
BRANCH    7    8
ATOM     99  H5  UNL A   1      44.474  17.854  40.139  1.00  0.00    +0.000 H 
ATOM    100  H6  UNL A   1      43.185  16.499  38.594  1.00  0.00    +0.000 H 
ATOM    101  H7  UNL A   1      41.985  14.553  39.405  1.00  0.00    +0.000 H 
ATOM    102  H8  UNL A   1      42.140  13.917  41.740  1.00  0.00    +0.000 H 
ATOM    103  H9  UNL A   1      43.409  15.282  43.294  1.00  0.00    +0.000 H 
ATOM      8  C6  UNL A   1      43.984  16.714  41.852  1.00  0.00    +0.000 C 
ATOM      9  C7  UNL A   1      43.953  17.033  40.485  1.00  0.00    +0.000 C 
ATOM     10  C8  UNL A   1      43.223  16.248  39.594  1.00  0.00    +0.000 C 
ATOM     11  C9  UNL A   1      42.545  15.123  40.059  1.00  0.00    +0.000 C 
ATOM     12  C10 UNL A   1      42.621  14.767  41.406  1.00  0.00    +0.000 C 
ATOM     13  C11 UNL A   1      43.345  15.554  42.302  1.00  0.00    +0.000 C 
ENDBRANCH    7    8
BRANCH   14   15
ATOM    104  H10 UNL A   1      45.809  20.148  40.595  1.00  0.00    +0.000 H 
ATOM    105  H11 UNL A   1      47.564  20.350  38.931  1.00  0.00    +0.000 H 
ATOM    106  H12 UNL A   1      49.439  18.813  38.936  1.00  0.00    +0.000 H 
ATOM    107  H13 UNL A   1      49.529  17.017  40.563  1.00  0.00    +0.000 H 
ATOM    108  H14 UNL A   1      47.769  16.795  42.209  1.00  0.00    +0.000 H 
ATOM     15  C13 UNL A   1      46.655  18.471  41.561  1.00  0.00    +0.000 C 
ATOM     16  C14 UNL A   1      46.599  19.485  40.598  1.00  0.00    +0.000 C 
ATOM     17  C15 UNL A   1      47.612  19.601  39.639  1.00  0.00    +0.000 C 
ATOM     18  C16 UNL A   1      48.687  18.710  39.634  1.00  0.00    +0.000 C 
ATOM     19  C17 UNL A   1      48.742  17.685  40.571  1.00  0.00    +0.000 C 
ATOM     20  C18 UNL A   1      47.730  17.564  41.522  1.00  0.00    +0.000 C 
ENDBRANCH   14   15
ENDBRANCH    4    5
ENDBRANCH    3    4
ENDBRANCH    2    3
ENDBRANCH   22    2
ENDBRANCH   23   22
ENDBRANCH   24   23
ENDBRANCH   25   24
ENDBRANCH   26   25
ENDBRANCH   27   26
ENDBRANCH   28   27
ENDBRANCH   29   28
ENDBRANCH   30   29
ENDBRANCH   32   30
ENDBRANCH   36   35
BRANCH   40   41
ATOM     41  C34 UNL A   1      47.237  19.769  52.051  1.00  0.00    +0.000 C 
ATOM     42  C35 UNL A   1      46.708  21.068  52.095  1.00  0.00    +0.000 C 
ATOM     43  F1  UNL A   1      45.726  21.426  51.254  1.00  0.00    +0.000 F 
ATOM     44  C36 UNL A   1      47.223  22.022  52.969  1.00  0.00    +0.000 C 
ATOM     45  F2  UNL A   1      46.743  23.275  52.949  1.00  0.00    +0.000 F 
ATOM     46  C37 UNL A   1      48.247  21.687  53.840  1.00  0.00    +0.000 C 
ATOM     47  F3  UNL A   1      48.744  22.609  54.677  1.00  0.00    +0.000 F 
ATOM     48  C38 UNL A   1      48.764  20.401  53.836  1.00  0.00    +0.000 C 
ATOM     49  F4  UNL A   1      49.749  20.073  54.685  1.00  0.00    +0.000 F 
ATOM     50  C39 UNL A   1      48.273  19.451  52.943  1.00  0.00    +0.000 C 
ATOM     51  F5  UNL A   1      48.812  18.224  52.945  1.00  0.00    +0.000 F 
ENDBRANCH   40   41
BRANCH   57   58
ATOM     65  C49 UNL A   1      41.684  12.821  53.486  1.00  0.00    +0.000 C 
ATOM     66  F9  UNL A   1      42.007  11.788  54.276  1.00  0.00    +0.000 F 
ATOM     67  C50 UNL A   1      42.654  13.411  52.684  1.00  0.00    +0.000 C 
ATOM     68  F10 UNL A   1      43.908  12.936  52.727  1.00  0.00    +0.000 F 
ATOM     58  C45 UNL A   1      42.332  14.479  51.832  1.00  0.00    +0.000 C 
ATOM     59  C46 UNL A   1      41.008  14.938  51.820  1.00  0.00    +0.000 C 
ATOM     60  F6  UNL A   1      40.657  15.968  51.034  1.00  0.00    +0.000 F 
ATOM     61  C47 UNL A   1      40.045  14.360  52.641  1.00  0.00    +0.000 C 
ATOM     62  F7  UNL A   1      38.792  14.838  52.642  1.00  0.00    +0.000 F 
ATOM     63  C48 UNL A   1      40.382  13.298  53.468  1.00  0.00    +0.000 C 
ATOM     64  F8  UNL A   1      39.451  12.737  54.253  1.00  0.00    +0.000 F 
ENDBRANCH   57   58
BRANCH   72   73
ATOM     73  C54 UNL A   1      44.441  12.863  45.388  1.00  0.00    +0.000 C 
ATOM     74  C55 UNL A   1      45.309  11.788  45.157  1.00  0.00    +0.000 C 
ATOM     75  F11 UNL A   1      46.501  11.746  45.771  1.00  0.00    +0.000 F 
ATOM     76  C56 UNL A   1      44.968  10.763  44.276  1.00  0.00    +0.000 C 
ATOM     77  F12 UNL A   1      45.827   9.760  44.053  1.00  0.00    +0.000 F 
ATOM     78  C57 UNL A   1      43.742  10.782  43.628  1.00  0.00    +0.000 C 
ATOM     79  F13 UNL A   1      43.408   9.791  42.791  1.00  0.00    +0.000 F 
ATOM     80  C58 UNL A   1      42.864  11.833  43.846  1.00  0.00    +0.000 C 
ATOM     81  F14 UNL A   1      41.672  11.847  43.234  1.00  0.00    +0.000 F 
ATOM     82  C59 UNL A   1      43.214  12.870  44.710  1.00  0.00    +0.000 C 
ATOM     83  F15 UNL A   1      42.345  13.872  44.904  1.00  0.00    +0.000 F 
ENDBRANCH   72   73
TORSDOF 19
ENDMDL
MODEL 7
REMARK VINA RESULT:     -10.7     23.326     29.836
ROOT
ATOM    129  H35 UNL A   1      54.508  18.632  10.409  1.00  0.00    +0.000 H 
ATOM    130  H36 UNL A   1      57.936  16.365  11.027  1.00  0.00    +0.000 H 
ATOM    131  H37 UNL A   1      59.514  17.475  15.663  1.00  0.00    +0.000 H 
ATOM    132  H38 UNL A   1      61.397  15.784  15.275  1.00  0.00    +0.000 H 
ATOM    133  H39 UNL A   1      57.476  13.279   6.372  1.00  0.00    +0.000 H 
ATOM    134  H40 UNL A   1      55.888  15.282   6.526  1.00  0.00    +0.000 H 
ATOM     36  C30 UNL A   1      55.984  16.613   9.037  1.00  0.00    +0.000 C 
ATOM     37  C31 UNL A   1      56.882  15.516   8.551  1.00  0.00    +0.000 C 
ATOM     38  N4  UNL A   1      57.886  14.936   9.158  1.00  0.00    +0.000 N 
ATOM     39  C32 UNL A   1      58.321  13.941   8.294  1.00  0.00    +0.000 C 
ATOM     40  C33 UNL A   1      59.374  13.101   8.439  1.00  0.00    +0.000 C 
ATOM     52  C40 UNL A   1      60.260  13.111   9.573  1.00  0.00    +0.000 C 
ATOM     53  C41 UNL A   1      61.399  12.355   9.787  1.00  0.00    +0.000 C 
ATOM     54  C42 UNL A   1      61.910  12.685  11.048  1.00  0.00    +0.000 C 
ATOM     55  C43 UNL A   1      61.110  13.672  11.603  1.00  0.00    +0.000 C 
ATOM     56  N5  UNL A   1      60.101  13.921  10.689  1.00  0.00    +0.000 N 
ATOM     57  C44 UNL A   1      61.257  14.336  12.873  1.00  0.00    +0.000 C 
ATOM     69  C51 UNL A   1      60.451  15.321  13.341  1.00  0.00    +0.000 C 
ATOM     70  N6  UNL A   1      59.336  15.892  12.745  1.00  0.00    +0.000 N 
ATOM     71  C52 UNL A   1      58.892  16.785  13.596  1.00  0.00    +0.000 C 
ATOM     72  C53 UNL A   1      57.711  17.706  13.467  1.00  0.00    +0.000 C 
ATOM     84  C60 UNL A   1      57.011  17.714  12.317  1.00  0.00    +0.000 C 
ATOM     85  C61 UNL A   1      55.839  18.539  12.048  1.00  0.00    +0.000 C 
ATOM     86  C62 UNL A   1      55.350  18.220  10.840  1.00  0.00    +0.000 C 
ATOM     87  C63 UNL A   1      56.200  17.194  10.233  1.00  0.00    +0.000 C 
ATOM     88  N7  UNL A   1      57.182  16.982  11.167  1.00  0.00    +0.000 N 
ATOM     89  C64 UNL A   1      59.670  16.875  14.838  1.00  0.00    +0.000 C 
ATOM     90  C65 UNL A   1      60.626  15.983  14.619  1.00  0.00    +0.000 C 
ATOM     91  C66 UNL A   1      57.440  13.960   7.146  1.00  0.00    +0.000 C 
ATOM     92  C67 UNL A   1      56.583  14.967   7.220  1.00  0.00    +0.000 C 
ATOM    125  H31 UNL A   1      61.802  11.669   9.131  1.00  0.00    +0.000 H 
ATOM    126  H32 UNL A   1      62.743  12.264  11.490  1.00  0.00    +0.000 H 
ATOM    127  H33 UNL A   1      59.377  14.578  10.812  1.00  0.00    +0.000 H 
ATOM    128  H34 UNL A   1      55.449  19.252  12.685  1.00  0.00    +0.000 H 
ENDROOT
BRANCH   36   35
ATOM     33  C27 UNL A   1      52.441  16.611   7.697  1.00  0.00    +0.000 C 
ATOM     34  C28 UNL A   1      53.522  16.388   8.550  1.00  0.00    +0.000 C 
ATOM     35  C29 UNL A   1      54.769  16.968   8.268  1.00  0.00    +0.000 C 
ATOM    135  H41 UNL A   1      55.795  18.326   7.010  1.00  0.00    +0.000 H 
ATOM    136  H42 UNL A   1      53.853  18.886   5.673  1.00  0.00    +0.000 H 
ATOM    123  H29 UNL A   1      51.531  16.159   7.879  1.00  0.00    +0.000 H 
ATOM    124  H30 UNL A   1      53.405  15.797   9.388  1.00  0.00    +0.000 H 
ATOM     93  C68 UNL A   1      54.888  17.872   7.202  1.00  0.00    +0.000 C 
ATOM     94  C69 UNL A   1      53.791  18.159   6.402  1.00  0.00    +0.000 C 
ATOM     32  C26 UNL A   1      52.602  17.453   6.594  1.00  0.00    +0.000 C 
BRANCH   32   30
ATOM     30  C25 UNL A   1      51.525  17.525   5.587  1.00  0.00    +0.000 C 
ATOM     31  O3  UNL A   1      51.562  18.376   4.712  1.00  0.00    +0.000 O 
BRANCH   30   29
ATOM    122  H28 UNL A   1      50.678  15.793   6.130  1.00  0.00    +0.000 H 
ATOM     29  N3  UNL A   1      50.470  16.646   5.684  1.00  0.00    +0.000 N 
BRANCH   29   28
ATOM    121  H27 UNL A   1      48.537  15.971   5.640  1.00  0.00    +0.000 H 
ATOM     28  C24 UNL A   1      49.093  16.786   5.226  1.00  0.00    +0.000 C 
ATOM    120  H26 UNL A   1      49.089  16.776   4.156  1.00  0.00    +0.000 H 
BRANCH   28   27
ATOM     27  C23 UNL A   1      48.423  18.074   5.699  1.00  0.00    +0.000 C 
ATOM    118  H24 UNL A   1      47.652  17.815   6.394  1.00  0.00    +0.000 H 
ATOM    119  H25 UNL A   1      49.193  18.676   6.136  1.00  0.00    +0.000 H 
BRANCH   27   26
ATOM     26  C22 UNL A   1      47.801  18.905   4.584  1.00  0.00    +0.000 C 
ATOM    116  H22 UNL A   1      48.588  19.223   3.931  1.00  0.00    +0.000 H 
ATOM    117  H23 UNL A   1      47.080  18.270   4.112  1.00  0.00    +0.000 H 
BRANCH   26   25
ATOM     25  C21 UNL A   1      47.035  20.146   5.037  1.00  0.00    +0.000 C 
ATOM    114  H20 UNL A   1      46.768  20.018   6.064  1.00  0.00    +0.000 H 
ATOM    115  H21 UNL A   1      47.685  20.980   4.873  1.00  0.00    +0.000 H 
BRANCH   25   24
ATOM    113  H19 UNL A   1      45.994  21.210   3.552  1.00  0.00    +0.000 H 
ATOM    112  H18 UNL A   1      44.986  20.698   4.934  1.00  0.00    +0.000 H 
ATOM     24  C20 UNL A   1      45.756  20.428   4.242  1.00  0.00    +0.000 C 
BRANCH   24   23
ATOM    111  H17 UNL A   1      44.370  18.861   3.867  1.00  0.00    +0.000 H 
ATOM    110  H16 UNL A   1      46.019  18.502   3.362  1.00  0.00    +0.000 H 
ATOM     23  C19 UNL A   1      45.254  19.248   3.406  1.00  0.00    +0.000 C 
BRANCH   23   22
ATOM    109  H15 UNL A   1      45.563  19.467   1.336  1.00  0.00    +0.000 H 
ATOM     22  N2  UNL A   1      44.920  19.660   2.057  1.00  0.00    +0.000 N 
BRANCH   22    2
ATOM      1  O1  UNL A   1      43.673  21.508   1.520  1.00  0.00    +0.000 O 
ATOM      2  C1  UNL A   1      43.754  20.303   1.736  1.00  0.00    +0.000 C 
BRANCH    2    3
ATOM      3  C2  UNL A   1      42.541  19.399   1.686  1.00  0.00    +0.000 C 
ATOM     95  H1  UNL A   1      42.003  19.494   2.606  1.00  0.00    +0.000 H 
ATOM     96  H2  UNL A   1      42.885  18.397   1.536  1.00  0.00    +0.000 H 
BRANCH    3    4
ATOM     97  H3  UNL A   1      41.538  18.887  -0.098  1.00  0.00    +0.000 H 
ATOM     98  H4  UNL A   1      42.038  20.607   0.068  1.00  0.00    +0.000 H 
ATOM      4  C3  UNL A   1      41.608  19.746   0.537  1.00  0.00    +0.000 C 
BRANCH    4    5
ATOM      5  C4  UNL A   1      40.217  20.149   0.910  1.00  0.00    +0.000 C 
ATOM      6  N1  UNL A   1      39.606  19.896   2.052  1.00  0.00    +0.000 N 
ATOM      7  C5  UNL A   1      38.365  20.456   1.895  1.00  0.00    +0.000 C 
ATOM     14  C12 UNL A   1      38.278  21.084   0.666  1.00  0.00    +0.000 C 
ATOM     21  O2  UNL A   1      39.466  20.871   0.010  1.00  0.00    +0.000 O 
BRANCH    7    8
ATOM     99  H5  UNL A   1      37.335  22.591   3.152  1.00  0.00    +0.000 H 
ATOM    100  H6  UNL A   1      35.948  22.584   5.141  1.00  0.00    +0.000 H 
ATOM    101  H7  UNL A   1      35.102  20.487   6.018  1.00  0.00    +0.000 H 
ATOM    102  H8  UNL A   1      35.574  18.408   4.861  1.00  0.00    +0.000 H 
ATOM    103  H9  UNL A   1      36.981  18.406   2.883  1.00  0.00    +0.000 H 
ATOM      8  C6  UNL A   1      37.326  20.490   2.902  1.00  0.00    +0.000 C 
ATOM      9  C7  UNL A   1      36.985  21.697   3.532  1.00  0.00    +0.000 C 
ATOM     10  C8  UNL A   1      36.177  21.697   4.669  1.00  0.00    +0.000 C 
ATOM     11  C9  UNL A   1      35.681  20.492   5.164  1.00  0.00    +0.000 C 
ATOM     12  C10 UNL A   1      35.967  19.295   4.507  1.00  0.00    +0.000 C 
ATOM     13  C11 UNL A   1      36.781  19.291   3.373  1.00  0.00    +0.000 C 
ENDBRANCH    7    8
BRANCH   14   15
ATOM    104  H10 UNL A   1      38.602  23.281  -0.872  1.00  0.00    +0.000 H 
ATOM    105  H11 UNL A   1      36.883  24.520  -2.055  1.00  0.00    +0.000 H 
ATOM    106  H12 UNL A   1      34.555  23.868  -1.868  1.00  0.00    +0.000 H 
ATOM    107  H13 UNL A   1      33.927  22.013  -0.436  1.00  0.00    +0.000 H 
ATOM    108  H14 UNL A   1      35.635  20.790   0.765  1.00  0.00    +0.000 H 
ATOM     15  C13 UNL A   1      37.267  21.913   0.025  1.00  0.00    +0.000 C 
ATOM     16  C14 UNL A   1      37.613  23.002  -0.781  1.00  0.00    +0.000 C 
ATOM     17  C15 UNL A   1      36.621  23.717  -1.463  1.00  0.00    +0.000 C 
ATOM     18  C16 UNL A   1      35.279  23.348  -1.348  1.00  0.00    +0.000 C 
ATOM     19  C17 UNL A   1      34.920  22.282  -0.533  1.00  0.00    +0.000 C 
ATOM     20  C18 UNL A   1      35.906  21.575   0.153  1.00  0.00    +0.000 C 
ENDBRANCH   14   15
ENDBRANCH    4    5
ENDBRANCH    3    4
ENDBRANCH    2    3
ENDBRANCH   22    2
ENDBRANCH   23   22
ENDBRANCH   24   23
ENDBRANCH   25   24
ENDBRANCH   26   25
ENDBRANCH   27   26
ENDBRANCH   28   27
ENDBRANCH   29   28
ENDBRANCH   30   29
ENDBRANCH   32   30
ENDBRANCH   36   35
BRANCH   40   41
ATOM     41  C34 UNL A   1      59.618  12.112   7.339  1.00  0.00    +0.000 C 
ATOM     42  C35 UNL A   1      60.306  12.470   6.169  1.00  0.00    +0.000 C 
ATOM     43  F1  UNL A   1      60.752  13.724   6.006  1.00  0.00    +0.000 F 
ATOM     44  C36 UNL A   1      60.491  11.553   5.137  1.00  0.00    +0.000 C 
ATOM     45  F2  UNL A   1      61.096  11.936   4.003  1.00  0.00    +0.000 F 
ATOM     46  C37 UNL A   1      60.028  10.253   5.270  1.00  0.00    +0.000 C 
ATOM     47  F3  UNL A   1      60.204   9.374   4.274  1.00  0.00    +0.000 F 
ATOM     48  C38 UNL A   1      59.373   9.869   6.430  1.00  0.00    +0.000 C 
ATOM     49  F4  UNL A   1      58.934   8.609   6.563  1.00  0.00    +0.000 F 
ATOM     50  C39 UNL A   1      59.160  10.790   7.452  1.00  0.00    +0.000 C 
ATOM     51  F5  UNL A   1      58.500  10.395   8.550  1.00  0.00    +0.000 F 
ENDBRANCH   40   41
BRANCH   57   58
ATOM     65  C49 UNL A   1      64.699  14.215  14.484  1.00  0.00    +0.000 C 
ATOM     66  F9  UNL A   1      65.856  14.887  14.421  1.00  0.00    +0.000 F 
ATOM     67  C50 UNL A   1      63.615  14.624  13.715  1.00  0.00    +0.000 C 
ATOM     68  F10 UNL A   1      63.750  15.702  12.927  1.00  0.00    +0.000 F 
ATOM     58  C45 UNL A   1      62.402  13.921  13.748  1.00  0.00    +0.000 C 
ATOM     59  C46 UNL A   1      62.311  12.799  14.584  1.00  0.00    +0.000 C 
ATOM     60  F6  UNL A   1      61.165  12.106  14.661  1.00  0.00    +0.000 F 
ATOM     61  C47 UNL A   1      63.390  12.406  15.370  1.00  0.00    +0.000 C 
ATOM     62  F7  UNL A   1      63.271  11.352  16.190  1.00  0.00    +0.000 F 
ATOM     63  C48 UNL A   1      64.585  13.109  15.314  1.00  0.00    +0.000 C 
ATOM     64  F8  UNL A   1      65.626  12.724  16.065  1.00  0.00    +0.000 F 
ENDBRANCH   57   58
BRANCH   72   73
ATOM     73  C54 UNL A   1      57.320  18.620  14.568  1.00  0.00    +0.000 C 
ATOM     74  C55 UNL A   1      56.406  18.212  15.548  1.00  0.00    +0.000 C 
ATOM     75  F11 UNL A   1      55.835  17.001  15.467  1.00  0.00    +0.000 F 
ATOM     76  C56 UNL A   1      56.057  19.052  16.603  1.00  0.00    +0.000 C 
ATOM     77  F12 UNL A   1      55.160  18.648  17.512  1.00  0.00    +0.000 F 
ATOM     78  C57 UNL A   1      56.633  20.309  16.710  1.00  0.00    +0.000 C 
ATOM     79  F13 UNL A   1      56.307  21.114  17.731  1.00  0.00    +0.000 F 
ATOM     80  C58 UNL A   1      57.545  20.733  15.755  1.00  0.00    +0.000 C 
ATOM     81  F14 UNL A   1      58.115  21.941  15.864  1.00  0.00    +0.000 F 
ATOM     82  C59 UNL A   1      57.878  19.901  14.688  1.00  0.00    +0.000 C 
ATOM     83  F15 UNL A   1      58.764  20.335  13.781  1.00  0.00    +0.000 F 
ENDBRANCH   72   73
TORSDOF 19
ENDMDL
MODEL 8
REMARK VINA RESULT:     -10.7     25.813     33.601
ROOT
ATOM    129  H35 UNL A   1      13.137  18.997   9.591  1.00  0.00    +0.000 H 
ATOM    130  H36 UNL A   1      16.164  19.418   6.774  1.00  0.00    +0.000 H 
ATOM    131  H37 UNL A   1      15.404  23.869   4.577  1.00  0.00    +0.000 H 
ATOM    132  H38 UNL A   1      17.509  23.391   3.201  1.00  0.00    +0.000 H 
ATOM    133  H39 UNL A   1      19.113  14.928   8.369  1.00  0.00    +0.000 H 
ATOM    134  H40 UNL A   1      16.780  15.137   9.406  1.00  0.00    +0.000 H 
ATOM     36  C30 UNL A   1      15.475  17.584   8.772  1.00  0.00    +0.000 C 
ATOM     37  C31 UNL A   1      16.766  17.067   8.212  1.00  0.00    +0.000 C 
ATOM     38  N4  UNL A   1      17.565  17.611   7.330  1.00  0.00    +0.000 N 
ATOM     39  C32 UNL A   1      18.649  16.751   7.226  1.00  0.00    +0.000 C 
ATOM     40  C33 UNL A   1      19.718  16.841   6.399  1.00  0.00    +0.000 C 
ATOM     52  C40 UNL A   1      19.908  17.898   5.442  1.00  0.00    +0.000 C 
ATOM     53  C41 UNL A   1      20.916  18.046   4.506  1.00  0.00    +0.000 C 
ATOM     54  C42 UNL A   1      20.702  19.250   3.823  1.00  0.00    +0.000 C 
ATOM     55  C43 UNL A   1      19.541  19.832   4.308  1.00  0.00    +0.000 C 
ATOM     56  N5  UNL A   1      19.067  18.994   5.302  1.00  0.00    +0.000 N 
ATOM     57  C44 UNL A   1      18.914  21.061   3.895  1.00  0.00    +0.000 C 
ATOM     69  C51 UNL A   1      17.755  21.557   4.395  1.00  0.00    +0.000 C 
ATOM     70  N6  UNL A   1      16.939  21.033   5.386  1.00  0.00    +0.000 N 
ATOM     71  C52 UNL A   1      15.951  21.884   5.525  1.00  0.00    +0.000 C 
ATOM     72  C53 UNL A   1      14.772  21.818   6.455  1.00  0.00    +0.000 C 
ATOM     84  C60 UNL A   1      14.611  20.730   7.228  1.00  0.00    +0.000 C 
ATOM     85  C61 UNL A   1      13.528  20.527   8.185  1.00  0.00    +0.000 C 
ATOM     86  C62 UNL A   1      13.736  19.374   8.840  1.00  0.00    +0.000 C 
ATOM     87  C63 UNL A   1      14.947  18.737   8.320  1.00  0.00    +0.000 C 
ATOM     88  N7  UNL A   1      15.379  19.596   7.341  1.00  0.00    +0.000 N 
ATOM     89  C64 UNL A   1      16.035  23.056   4.644  1.00  0.00    +0.000 C 
ATOM     90  C65 UNL A   1      17.138  22.792   3.954  1.00  0.00    +0.000 C 
ATOM     91  C66 UNL A   1      18.432  15.678   8.172  1.00  0.00    +0.000 C 
ATOM     92  C67 UNL A   1      17.245  15.784   8.750  1.00  0.00    +0.000 C 
ATOM    125  H31 UNL A   1      21.689  17.385   4.339  1.00  0.00    +0.000 H 
ATOM    126  H32 UNL A   1      21.307  19.638   3.082  1.00  0.00    +0.000 H 
ATOM    127  H33 UNL A   1      18.252  19.151   5.833  1.00  0.00    +0.000 H 
ATOM    128  H34 UNL A   1      12.732  21.167   8.334  1.00  0.00    +0.000 H 
ENDROOT
BRANCH   36   35
ATOM     33  C27 UNL A   1      14.765  16.374  12.291  1.00  0.00    +0.000 C 
ATOM     34  C28 UNL A   1      15.255  17.159  11.246  1.00  0.00    +0.000 C 
ATOM     35  C29 UNL A   1      14.847  16.903   9.928  1.00  0.00    +0.000 C 
ATOM    135  H41 UNL A   1      13.524  15.777   8.718  1.00  0.00    +0.000 H 
ATOM    136  H42 UNL A   1      12.512  14.581  10.568  1.00  0.00    +0.000 H 
ATOM    123  H29 UNL A   1      15.088  16.534  13.258  1.00  0.00    +0.000 H 
ATOM    124  H30 UNL A   1      15.916  17.925  11.443  1.00  0.00    +0.000 H 
ATOM     93  C68 UNL A   1      13.850  15.945   9.683  1.00  0.00    +0.000 C 
ATOM     94  C69 UNL A   1      13.302  15.223  10.733  1.00  0.00    +0.000 C 
ATOM     32  C26 UNL A   1      13.832  15.372  12.016  1.00  0.00    +0.000 C 
BRANCH   32   30
ATOM     30  C25 UNL A   1      13.473  14.417  13.083  1.00  0.00    +0.000 C 
ATOM     31  O3  UNL A   1      12.979  13.338  12.796  1.00  0.00    +0.000 O 
BRANCH   30   29
ATOM    122  H28 UNL A   1      13.503  15.739  14.587  1.00  0.00    +0.000 H 
ATOM     29  N3  UNL A   1      13.668  14.788  14.394  1.00  0.00    +0.000 N 
BRANCH   29   28
ATOM    121  H27 UNL A   1      15.068  13.625  15.333  1.00  0.00    +0.000 H 
ATOM     28  C24 UNL A   1      14.083  13.986  15.540  1.00  0.00    +0.000 C 
ATOM    120  H26 UNL A   1      13.378  13.191  15.669  1.00  0.00    +0.000 H 
BRANCH   28   27
ATOM     27  C23 UNL A   1      14.157  14.779  16.842  1.00  0.00    +0.000 C 
ATOM    118  H24 UNL A   1      14.779  15.635  16.678  1.00  0.00    +0.000 H 
ATOM    119  H25 UNL A   1      13.151  15.039  17.099  1.00  0.00    +0.000 H 
BRANCH   27   26
ATOM     26  C22 UNL A   1      14.721  13.999  18.022  1.00  0.00    +0.000 C 
ATOM    116  H22 UNL A   1      14.141  13.106  18.135  1.00  0.00    +0.000 H 
ATOM    117  H23 UNL A   1      15.750  13.817  17.790  1.00  0.00    +0.000 H 
BRANCH   26   25
ATOM     25  C21 UNL A   1      14.717  14.734  19.360  1.00  0.00    +0.000 C 
ATOM    114  H20 UNL A   1      15.146  15.702  19.211  1.00  0.00    +0.000 H 
ATOM    115  H21 UNL A   1      13.697  14.773  19.682  1.00  0.00    +0.000 H 
BRANCH   25   24
ATOM    113  H19 UNL A   1      16.268  13.463  19.993  1.00  0.00    +0.000 H 
ATOM    112  H18 UNL A   1      14.815  13.425  21.031  1.00  0.00    +0.000 H 
ATOM     24  C20 UNL A   1      15.499  14.031  20.474  1.00  0.00    +0.000 C 
BRANCH   24   23
ATOM    111  H17 UNL A   1      15.475  15.646  21.855  1.00  0.00    +0.000 H 
ATOM    110  H16 UNL A   1      16.966  15.513  20.926  1.00  0.00    +0.000 H 
ATOM     23  C19 UNL A   1      16.204  14.976  21.450  1.00  0.00    +0.000 C 
BRANCH   23   22
ATOM    109  H15 UNL A   1      16.221  13.819  23.208  1.00  0.00    +0.000 H 
ATOM     22  N2  UNL A   1      16.811  14.248  22.547  1.00  0.00    +0.000 N 
BRANCH   22    2
ATOM      1  O1  UNL A   1      18.860  13.323  22.096  1.00  0.00    +0.000 O 
ATOM      2  C1  UNL A   1      18.166  14.128  22.708  1.00  0.00    +0.000 C 
BRANCH    2    3
ATOM      3  C2  UNL A   1      18.754  15.070  23.736  1.00  0.00    +0.000 C 
ATOM     95  H1  UNL A   1      19.426  14.521  24.362  1.00  0.00    +0.000 H 
ATOM     96  H2  UNL A   1      17.945  15.485  24.301  1.00  0.00    +0.000 H 
BRANCH    3    4
ATOM     97  H3  UNL A   1      19.738  15.945  22.088  1.00  0.00    +0.000 H 
ATOM     98  H4  UNL A   1      20.373  16.377  23.714  1.00  0.00    +0.000 H 
ATOM      4  C3  UNL A   1      19.513  16.223  23.097  1.00  0.00    +0.000 C 
BRANCH    4    5
ATOM      5  C4  UNL A   1      18.807  17.540  23.059  1.00  0.00    +0.000 C 
ATOM      6  N1  UNL A   1      18.316  18.138  21.989  1.00  0.00    +0.000 N 
ATOM      7  C5  UNL A   1      17.790  19.306  22.475  1.00  0.00    +0.000 C 
ATOM     14  C12 UNL A   1      17.933  19.358  23.849  1.00  0.00    +0.000 C 
ATOM     21  O2  UNL A   1      18.612  18.229  24.236  1.00  0.00    +0.000 O 
BRANCH    7    8
ATOM     99  H5  UNL A   1      18.812  21.152  20.818  1.00  0.00    +0.000 H 
ATOM    100  H6  UNL A   1      17.665  23.078  19.893  1.00  0.00    +0.000 H 
ATOM    101  H7  UNL A   1      15.271  23.319  20.195  1.00  0.00    +0.000 H 
ATOM    102  H8  UNL A   1      14.013  21.596  21.348  1.00  0.00    +0.000 H 
ATOM    103  H9  UNL A   1      15.158  19.678  22.296  1.00  0.00    +0.000 H 
ATOM      8  C6  UNL A   1      17.084  20.299  21.692  1.00  0.00    +0.000 C 
ATOM      9  C7  UNL A   1      17.795  21.261  20.957  1.00  0.00    +0.000 C 
ATOM     10  C8  UNL A   1      17.135  22.363  20.414  1.00  0.00    +0.000 C 
ATOM     11  C9  UNL A   1      15.758  22.493  20.576  1.00  0.00    +0.000 C 
ATOM     12  C10 UNL A   1      15.037  21.509  21.255  1.00  0.00    +0.000 C 
ATOM     13  C11 UNL A   1      15.695  20.409  21.805  1.00  0.00    +0.000 C 
ENDBRANCH    7    8
BRANCH   14   15
ATOM    104  H10 UNL A   1      15.606  19.365  25.222  1.00  0.00    +0.000 H 
ATOM    105  H11 UNL A   1      14.975  20.832  27.049  1.00  0.00    +0.000 H 
ATOM    106  H12 UNL A   1      16.477  22.588  27.784  1.00  0.00    +0.000 H 
ATOM    107  H13 UNL A   1      18.591  22.930  26.645  1.00  0.00    +0.000 H 
ATOM    108  H14 UNL A   1      19.215  21.485  24.807  1.00  0.00    +0.000 H 
ATOM     15  C13 UNL A   1      17.477  20.282  24.878  1.00  0.00    +0.000 C 
ATOM     16  C14 UNL A   1      16.247  20.114  25.523  1.00  0.00    +0.000 C 
ATOM     17  C15 UNL A   1      15.884  20.961  26.577  1.00  0.00    +0.000 C 
ATOM     18  C16 UNL A   1      16.743  21.979  26.995  1.00  0.00    +0.000 C 
ATOM     19  C17 UNL A   1      17.958  22.171  26.347  1.00  0.00    +0.000 C 
ATOM     20  C18 UNL A   1      18.317  21.333  25.293  1.00  0.00    +0.000 C 
ENDBRANCH   14   15
ENDBRANCH    4    5
ENDBRANCH    3    4
ENDBRANCH    2    3
ENDBRANCH   22    2
ENDBRANCH   23   22
ENDBRANCH   24   23
ENDBRANCH   25   24
ENDBRANCH   26   25
ENDBRANCH   27   26
ENDBRANCH   28   27
ENDBRANCH   29   28
ENDBRANCH   30   29
ENDBRANCH   32   30
ENDBRANCH   36   35
BRANCH   40   41
ATOM     41  C34 UNL A   1      20.754  15.760   6.498  1.00  0.00    +0.000 C 
ATOM     42  C35 UNL A   1      21.828  15.853   7.397  1.00  0.00    +0.000 C 
ATOM     43  F1  UNL A   1      21.956  16.931   8.186  1.00  0.00    +0.000 F 
ATOM     44  C36 UNL A   1      22.805  14.864   7.451  1.00  0.00    +0.000 C 
ATOM     45  F2  UNL A   1      23.855  15.005   8.273  1.00  0.00    +0.000 F 
ATOM     46  C37 UNL A   1      22.709  13.745   6.637  1.00  0.00    +0.000 C 
ATOM     47  F3  UNL A   1      23.654  12.796   6.688  1.00  0.00    +0.000 F 
ATOM     48  C38 UNL A   1      21.640  13.618   5.764  1.00  0.00    +0.000 C 
ATOM     49  F4  UNL A   1      21.541  12.532   4.984  1.00  0.00    +0.000 F 
ATOM     50  C39 UNL A   1      20.676  14.619   5.685  1.00  0.00    +0.000 C 
ATOM     51  F5  UNL A   1      19.669  14.478   4.811  1.00  0.00    +0.000 F 
ENDBRANCH   40   41
BRANCH   57   58
ATOM     65  C49 UNL A   1      20.940  23.753   2.132  1.00  0.00    +0.000 C 
ATOM     66  F9  UNL A   1      21.659  24.836   2.457  1.00  0.00    +0.000 F 
ATOM     67  C50 UNL A   1      20.359  22.980   3.132  1.00  0.00    +0.000 C 
ATOM     68  F10 UNL A   1      20.541  23.335   4.413  1.00  0.00    +0.000 F 
ATOM     58  C45 UNL A   1      19.583  21.855   2.814  1.00  0.00    +0.000 C 
ATOM     59  C46 UNL A   1      19.420  21.527   1.460  1.00  0.00    +0.000 C 
ATOM     60  F6  UNL A   1      18.701  20.450   1.109  1.00  0.00    +0.000 F 
ATOM     61  C47 UNL A   1      20.022  22.289   0.463  1.00  0.00    +0.000 C 
ATOM     62  F7  UNL A   1      19.883  21.937  -0.822  1.00  0.00    +0.000 F 
ATOM     63  C48 UNL A   1      20.776  23.405   0.800  1.00  0.00    +0.000 C 
ATOM     64  F8  UNL A   1      21.348  24.142  -0.162  1.00  0.00    +0.000 F 
ENDBRANCH   57   58
BRANCH   72   73
ATOM     73  C54 UNL A   1      13.773  22.915   6.515  1.00  0.00    +0.000 C 
ATOM     74  C55 UNL A   1      12.811  23.063   5.508  1.00  0.00    +0.000 C 
ATOM     75  F11 UNL A   1      12.818  22.240   4.449  1.00  0.00    +0.000 F 
ATOM     76  C56 UNL A   1      11.850  24.070   5.573  1.00  0.00    +0.000 C 
ATOM     77  F12 UNL A   1      10.957  24.207   4.584  1.00  0.00    +0.000 F 
ATOM     78  C57 UNL A   1      11.821  24.934   6.657  1.00  0.00    +0.000 C 
ATOM     79  F13 UNL A   1      10.890  25.895   6.726  1.00  0.00    +0.000 F 
ATOM     80  C58 UNL A   1      12.760  24.803   7.669  1.00  0.00    +0.000 C 
ATOM     81  F14 UNL A   1      12.725  25.626   8.726  1.00  0.00    +0.000 F 
ATOM     82  C59 UNL A   1      13.735  23.809   7.595  1.00  0.00    +0.000 C 
ATOM     83  F15 UNL A   1      14.629  23.703   8.588  1.00  0.00    +0.000 F 
ENDBRANCH   72   73
TORSDOF 19
ENDMDL
MODEL 9
REMARK VINA RESULT:     -10.6     27.058     35.348
ROOT
ATOM    129  H35 UNL A   1      19.604  20.103   2.261  1.00  0.00    +0.000 H 
ATOM    130  H36 UNL A   1      21.243  17.107   4.631  1.00  0.00    +0.000 H 
ATOM    131  H37 UNL A   1      18.855  12.875   3.366  1.00  0.00    +0.000 H 
ATOM    132  H38 UNL A   1      20.363  11.684   5.058  1.00  0.00    +0.000 H 
ATOM    133  H39 UNL A   1      25.412  20.206   6.737  1.00  0.00    +0.000 H 
ATOM    134  H40 UNL A   1      23.627  21.501   5.434  1.00  0.00    +0.000 H 
ATOM     36  C30 UNL A   1      21.716  19.825   4.158  1.00  0.00    +0.000 C 
ATOM     37  C31 UNL A   1      22.790  19.416   5.121  1.00  0.00    +0.000 C 
ATOM     38  N4  UNL A   1      23.085  18.226   5.578  1.00  0.00    +0.000 N 
ATOM     39  C32 UNL A   1      24.205  18.399   6.378  1.00  0.00    +0.000 C 
ATOM     40  C33 UNL A   1      24.857  17.476   7.125  1.00  0.00    +0.000 C 
ATOM     52  C40 UNL A   1      24.468  16.094   7.215  1.00  0.00    +0.000 C 
ATOM     53  C41 UNL A   1      25.013  15.092   7.998  1.00  0.00    +0.000 C 
ATOM     54  C42 UNL A   1      24.327  13.902   7.722  1.00  0.00    +0.000 C 
ATOM     55  C43 UNL A   1      23.332  14.173   6.796  1.00  0.00    +0.000 C 
ATOM     56  N5  UNL A   1      23.432  15.519   6.492  1.00  0.00    +0.000 N 
ATOM     57  C44 UNL A   1      22.363  13.268   6.231  1.00  0.00    +0.000 C 
ATOM     69  C51 UNL A   1      21.392  13.610   5.348  1.00  0.00    +0.000 C 
ATOM     70  N6  UNL A   1      21.117  14.850   4.792  1.00  0.00    +0.000 N 
ATOM     71  C52 UNL A   1      20.098  14.666   3.988  1.00  0.00    +0.000 C 
ATOM     72  C53 UNL A   1      19.378  15.668   3.130  1.00  0.00    +0.000 C 
ATOM     84  C60 UNL A   1      19.733  16.964   3.203  1.00  0.00    +0.000 C 
ATOM     85  C61 UNL A   1      19.139  18.047   2.428  1.00  0.00    +0.000 C 
ATOM     86  C62 UNL A   1      19.799  19.185   2.692  1.00  0.00    +0.000 C 
ATOM     87  C63 UNL A   1      20.839  18.918   3.687  1.00  0.00    +0.000 C 
ATOM     88  N7  UNL A   1      20.701  17.580   3.959  1.00  0.00    +0.000 N 
ATOM     89  C64 UNL A   1      19.617  13.279   3.932  1.00  0.00    +0.000 C 
ATOM     90  C65 UNL A   1      20.421  12.682   4.802  1.00  0.00    +0.000 C 
ATOM     91  C66 UNL A   1      24.569  19.798   6.302  1.00  0.00    +0.000 C 
ATOM     92  C67 UNL A   1      23.680  20.484   5.600  1.00  0.00    +0.000 C 
ATOM    125  H31 UNL A   1      25.788  15.201   8.669  1.00  0.00    +0.000 H 
ATOM    126  H32 UNL A   1      24.529  12.980   8.139  1.00  0.00    +0.000 H 
ATOM    127  H33 UNL A   1      22.852  16.000   5.856  1.00  0.00    +0.000 H 
ATOM    128  H34 UNL A   1      18.341  17.952   1.780  1.00  0.00    +0.000 H 
ENDROOT
BRANCH   36   35
ATOM     33  C27 UNL A   1      20.668  23.377   3.362  1.00  0.00    +0.000 C 
ATOM     34  C28 UNL A   1      20.763  22.153   4.026  1.00  0.00    +0.000 C 
ATOM     35  C29 UNL A   1      21.703  21.200   3.607  1.00  0.00    +0.000 C 
ATOM    135  H41 UNL A   1      23.345  20.845   2.320  1.00  0.00    +0.000 H 
ATOM    136  H42 UNL A   1      23.322  23.059   1.332  1.00  0.00    +0.000 H 
ATOM    123  H29 UNL A   1      19.955  24.068   3.642  1.00  0.00    +0.000 H 
ATOM    124  H30 UNL A   1      20.141  21.950   4.824  1.00  0.00    +0.000 H 
ATOM     93  C68 UNL A   1      22.631  21.532   2.608  1.00  0.00    +0.000 C 
ATOM     94  C69 UNL A   1      22.591  22.781   2.004  1.00  0.00    +0.000 C 
ATOM     32  C26 UNL A   1      21.550  23.658   2.316  1.00  0.00    +0.000 C 
BRANCH   32   30
ATOM     30  C25 UNL A   1      21.317  24.857   1.487  1.00  0.00    +0.000 C 
ATOM     31  O3  UNL A   1      20.180  25.265   1.308  1.00  0.00    +0.000 O 
BRANCH   30   29
ATOM    122  H28 UNL A   1      23.168  24.881   0.723  1.00  0.00    +0.000 H 
ATOM     29  N3  UNL A   1      22.398  25.470   0.895  1.00  0.00    +0.000 N 
BRANCH   29   28
ATOM    121  H27 UNL A   1      21.897  27.038  -0.323  1.00  0.00    +0.000 H 
ATOM     28  C24 UNL A   1      22.575  26.859   0.484  1.00  0.00    +0.000 C 
ATOM    120  H26 UNL A   1      23.596  26.998   0.195  1.00  0.00    +0.000 H 
BRANCH   28   27
ATOM     27  C23 UNL A   1      22.243  27.864   1.583  1.00  0.00    +0.000 C 
ATOM    118  H24 UNL A   1      21.267  27.639   1.960  1.00  0.00    +0.000 H 
ATOM    119  H25 UNL A   1      23.008  27.769   2.326  1.00  0.00    +0.000 H 
BRANCH   27   26
ATOM     26  C22 UNL A   1      22.255  29.318   1.130  1.00  0.00    +0.000 C 
ATOM    116  H22 UNL A   1      21.269  29.569   0.798  1.00  0.00    +0.000 H 
ATOM    117  H23 UNL A   1      22.583  29.887   1.976  1.00  0.00    +0.000 H 
BRANCH   26   25
ATOM     25  C21 UNL A   1      23.230  29.648   0.001  1.00  0.00    +0.000 C 
ATOM    114  H20 UNL A   1      23.895  30.411   0.347  1.00  0.00    +0.000 H 
ATOM    115  H21 UNL A   1      23.730  28.735  -0.245  1.00  0.00    +0.000 H 
BRANCH   25   24
ATOM    113  H19 UNL A   1      22.411  29.277  -1.899  1.00  0.00    +0.000 H 
ATOM    112  H18 UNL A   1      23.211  30.865  -1.740  1.00  0.00    +0.000 H 
ATOM     24  C20 UNL A   1      22.566  30.141  -1.288  1.00  0.00    +0.000 C 
BRANCH   24   23
ATOM    111  H17 UNL A   1      21.218  31.769  -1.508  1.00  0.00    +0.000 H 
ATOM    110  H16 UNL A   1      20.972  30.821  -0.044  1.00  0.00    +0.000 H 
ATOM     23  C19 UNL A   1      21.192  30.785  -1.090  1.00  0.00    +0.000 C 
BRANCH   23   22
ATOM    109  H15 UNL A   1      20.166  29.990  -2.746  1.00  0.00    +0.000 H 
ATOM     22  N2  UNL A   1      20.152  30.032  -1.762  1.00  0.00    +0.000 N 
BRANCH   22    2
ATOM      1  O1  UNL A   1      18.161  29.929  -0.630  1.00  0.00    +0.000 O 
ATOM      2  C1  UNL A   1      19.151  29.375  -1.096  1.00  0.00    +0.000 C 
BRANCH    2    3
ATOM      3  C2  UNL A   1      19.372  27.884  -0.958  1.00  0.00    +0.000 C 
ATOM     95  H1  UNL A   1      18.424  27.405  -0.834  1.00  0.00    +0.000 H 
ATOM     96  H2  UNL A   1      20.005  27.724  -0.110  1.00  0.00    +0.000 H 
BRANCH    3    4
ATOM     97  H3  UNL A   1      21.056  27.693  -2.215  1.00  0.00    +0.000 H 
ATOM     98  H4  UNL A   1      19.449  27.544  -3.009  1.00  0.00    +0.000 H 
ATOM      4  C3  UNL A   1      20.066  27.288  -2.173  1.00  0.00    +0.000 C 
BRANCH    4    5
ATOM      5  C4  UNL A   1      20.183  25.798  -2.204  1.00  0.00    +0.000 C 
ATOM      6  N1  UNL A   1      21.225  25.099  -2.615  1.00  0.00    +0.000 N 
ATOM      7  C5  UNL A   1      20.833  23.796  -2.458  1.00  0.00    +0.000 C 
ATOM     14  C12 UNL A   1      19.568  23.742  -1.902  1.00  0.00    +0.000 C 
ATOM     21  O2  UNL A   1      19.128  25.035  -1.755  1.00  0.00    +0.000 O 
BRANCH    7    8
ATOM     99  H5  UNL A   1      21.089  22.436  -4.757  1.00  0.00    +0.000 H 
ATOM    100  H6  UNL A   1      22.093  20.248  -5.054  1.00  0.00    +0.000 H 
ATOM    101  H7  UNL A   1      23.273  19.199  -3.212  1.00  0.00    +0.000 H 
ATOM    102  H8  UNL A   1      23.519  20.372  -1.103  1.00  0.00    +0.000 H 
ATOM    103  H9  UNL A   1      22.497  22.551  -0.792  1.00  0.00    +0.000 H 
ATOM      8  C6  UNL A   1      21.654  22.634  -2.727  1.00  0.00    +0.000 C 
ATOM      9  C7  UNL A   1      21.581  21.984  -3.970  1.00  0.00    +0.000 C 
ATOM     10  C8  UNL A   1      22.168  20.732  -4.146  1.00  0.00    +0.000 C 
ATOM     11  C9  UNL A   1      22.857  20.136  -3.091  1.00  0.00    +0.000 C 
ATOM     12  C10 UNL A   1      22.984  20.804  -1.872  1.00  0.00    +0.000 C 
ATOM     13  C11 UNL A   1      22.392  22.055  -1.690  1.00  0.00    +0.000 C 
ENDBRANCH    7    8
BRANCH   14   15
ATOM    104  H10 UNL A   1      19.603  22.475   0.484  1.00  0.00    +0.000 H 
ATOM    105  H11 UNL A   1      18.049  20.791   1.283  1.00  0.00    +0.000 H 
ATOM    106  H12 UNL A   1      16.252  20.008  -0.144  1.00  0.00    +0.000 H 
ATOM    107  H13 UNL A   1      16.045  20.855  -2.408  1.00  0.00    +0.000 H 
ATOM    108  H14 UNL A   1      17.607  22.516  -3.218  1.00  0.00    +0.000 H 
ATOM     15  C13 UNL A   1      18.720  22.659  -1.425  1.00  0.00    +0.000 C 
ATOM     16  C14 UNL A   1      18.846  22.141  -0.132  1.00  0.00    +0.000 C 
ATOM     17  C15 UNL A   1      17.949  21.170   0.328  1.00  0.00    +0.000 C 
ATOM     18  C16 UNL A   1      16.920  20.711  -0.496  1.00  0.00    +0.000 C 
ATOM     19  C17 UNL A   1      16.797  21.200  -1.791  1.00  0.00    +0.000 C 
ATOM     20  C18 UNL A   1      17.695  22.162  -2.252  1.00  0.00    +0.000 C 
ENDBRANCH   14   15
ENDBRANCH    4    5
ENDBRANCH    3    4
ENDBRANCH    2    3
ENDBRANCH   22    2
ENDBRANCH   23   22
ENDBRANCH   24   23
ENDBRANCH   25   24
ENDBRANCH   26   25
ENDBRANCH   27   26
ENDBRANCH   28   27
ENDBRANCH   29   28
ENDBRANCH   30   29
ENDBRANCH   32   30
ENDBRANCH   36   35
BRANCH   40   41
ATOM     41  C34 UNL A   1      26.053  17.943   7.901  1.00  0.00    +0.000 C 
ATOM     42  C35 UNL A   1      27.335  17.968   7.330  1.00  0.00    +0.000 C 
ATOM     43  F1  UNL A   1      27.519  17.557   6.066  1.00  0.00    +0.000 F 
ATOM     44  C36 UNL A   1      28.443  18.364   8.074  1.00  0.00    +0.000 C 
ATOM     45  F2  UNL A   1      29.666  18.320   7.526  1.00  0.00    +0.000 F 
ATOM     46  C37 UNL A   1      28.287  18.780   9.387  1.00  0.00    +0.000 C 
ATOM     47  F3  UNL A   1      29.356  19.157  10.102  1.00  0.00    +0.000 F 
ATOM     48  C38 UNL A   1      27.026  18.793   9.962  1.00  0.00    +0.000 C 
ATOM     49  F4  UNL A   1      26.873  19.204  11.229  1.00  0.00    +0.000 F 
ATOM     50  C39 UNL A   1      25.919  18.369   9.231  1.00  0.00    +0.000 C 
ATOM     51  F5  UNL A   1      24.716  18.368   9.825  1.00  0.00    +0.000 F 
ENDBRANCH   40   41
BRANCH   57   58
ATOM     65  C49 UNL A   1      23.022   9.524   6.206  1.00  0.00    +0.000 C 
ATOM     66  F9  UNL A   1      23.578   8.612   5.396  1.00  0.00    +0.000 F 
ATOM     67  C50 UNL A   1      23.014  10.865   5.839  1.00  0.00    +0.000 C 
ATOM     68  F10 UNL A   1      23.578  11.222   4.675  1.00  0.00    +0.000 F 
ATOM     58  C45 UNL A   1      22.417  11.833   6.661  1.00  0.00    +0.000 C 
ATOM     59  C46 UNL A   1      21.838  11.410   7.866  1.00  0.00    +0.000 C 
ATOM     60  F6  UNL A   1      21.271  12.303   8.692  1.00  0.00    +0.000 F 
ATOM     61  C47 UNL A   1      21.869  10.070   8.241  1.00  0.00    +0.000 C 
ATOM     62  F7  UNL A   1      21.342   9.692   9.414  1.00  0.00    +0.000 F 
ATOM     63  C48 UNL A   1      22.455   9.128   7.408  1.00  0.00    +0.000 C 
ATOM     64  F8  UNL A   1      22.476   7.837   7.767  1.00  0.00    +0.000 F 
ENDBRANCH   57   58
BRANCH   72   73
ATOM     73  C54 UNL A   1      18.272  15.261   2.229  1.00  0.00    +0.000 C 
ATOM     74  C55 UNL A   1      16.970  15.100   2.721  1.00  0.00    +0.000 C 
ATOM     75  F11 UNL A   1      16.724  15.263   4.029  1.00  0.00    +0.000 F 
ATOM     76  C56 UNL A   1      15.919  14.749   1.876  1.00  0.00    +0.000 C 
ATOM     77  F12 UNL A   1      14.689  14.575   2.376  1.00  0.00    +0.000 F 
ATOM     78  C57 UNL A   1      16.147  14.574   0.519  1.00  0.00    +0.000 C 
ATOM     79  F13 UNL A   1      15.135  14.248  -0.296  1.00  0.00    +0.000 F 
ATOM     80  C58 UNL A   1      17.427  14.734   0.008  1.00  0.00    +0.000 C 
ATOM     81  F14 UNL A   1      17.647  14.581  -1.305  1.00  0.00    +0.000 F 
ATOM     82  C59 UNL A   1      18.482  15.064   0.857  1.00  0.00    +0.000 C 
ATOM     83  F15 UNL A   1      19.708  15.215   0.336  1.00  0.00    +0.000 F 
ENDBRANCH   72   73
TORSDOF 19
ENDMDL
MODEL 10
REMARK VINA RESULT:     -10.6     37.101     41.988
ROOT
ATOM    129  H35 UNL A   1      24.625  -9.484  30.418  1.00  0.00    +0.000 H 
ATOM    130  H36 UNL A   1      26.236 -11.883  33.406  1.00  0.00    +0.000 H 
ATOM    131  H37 UNL A   1      22.933 -11.797  37.186  1.00  0.00    +0.000 H 
ATOM    132  H38 UNL A   1      24.509 -13.397  38.414  1.00  0.00    +0.000 H 
ATOM    133  H39 UNL A   1      30.467 -13.915  30.343  1.00  0.00    +0.000 H 
ATOM    134  H40 UNL A   1      29.184 -11.964  29.290  1.00  0.00    +0.000 H 
ATOM     36  C30 UNL A   1      26.883 -11.192  30.772  1.00  0.00    +0.000 C 
ATOM     37  C31 UNL A   1      27.939 -12.177  31.174  1.00  0.00    +0.000 C 
ATOM     38  N4  UNL A   1      28.037 -12.887  32.269  1.00  0.00    +0.000 N 
ATOM     39  C32 UNL A   1      29.159 -13.684  32.099  1.00  0.00    +0.000 C 
ATOM     40  C33 UNL A   1      29.717 -14.552  32.977  1.00  0.00    +0.000 C 
ATOM     52  C40 UNL A   1      29.208 -14.794  34.301  1.00  0.00    +0.000 C 
ATOM     53  C41 UNL A   1      29.737 -15.595  35.297  1.00  0.00    +0.000 C 
ATOM     54  C42 UNL A   1      28.874 -15.546  36.399  1.00  0.00    +0.000 C 
ATOM     55  C43 UNL A   1      27.829 -14.686  36.102  1.00  0.00    +0.000 C 
ATOM     56  N5  UNL A   1      28.045 -14.234  34.812  1.00  0.00    +0.000 N 
ATOM     57  C44 UNL A   1      26.716 -14.305  36.935  1.00  0.00    +0.000 C 
ATOM     69  C51 UNL A   1      25.741 -13.428  36.589  1.00  0.00    +0.000 C 
ATOM     70  N6  UNL A   1      25.579 -12.728  35.403  1.00  0.00    +0.000 N 
ATOM     71  C52 UNL A   1      24.481 -12.026  35.547  1.00  0.00    +0.000 C 
ATOM     72  C53 UNL A   1      23.831 -11.082  34.576  1.00  0.00    +0.000 C 
ATOM     84  C60 UNL A   1      24.444 -10.822  33.407  1.00  0.00    +0.000 C 
ATOM     85  C61 UNL A   1      23.933  -9.940  32.363  1.00  0.00    +0.000 C 
ATOM     86  C62 UNL A   1      24.760  -9.991  31.307  1.00  0.00    +0.000 C 
ATOM     87  C63 UNL A   1      25.882 -10.879  31.617  1.00  0.00    +0.000 C 
ATOM     88  N7  UNL A   1      25.629 -11.298  32.899  1.00  0.00    +0.000 N 
ATOM     89  C64 UNL A   1      23.812 -12.211  36.841  1.00  0.00    +0.000 C 
ATOM     90  C65 UNL A   1      24.637 -13.053  37.450  1.00  0.00    +0.000 C 
ATOM     91  C66 UNL A   1      29.677 -13.411  30.776  1.00  0.00    +0.000 C 
ATOM     92  C67 UNL A   1      29.005 -12.429  30.193  1.00  0.00    +0.000 C 
ATOM    125  H31 UNL A   1      30.614 -16.134  35.239  1.00  0.00    +0.000 H 
ATOM    126  H32 UNL A   1      28.997 -16.063  37.284  1.00  0.00    +0.000 H 
ATOM    127  H33 UNL A   1      27.459 -13.607  34.327  1.00  0.00    +0.000 H 
ATOM    128  H34 UNL A   1      23.074  -9.371  32.426  1.00  0.00    +0.000 H 
ENDROOT
BRANCH   36   35
ATOM     33  C27 UNL A   1      27.285  -8.907  27.777  1.00  0.00    +0.000 C 
ATOM     34  C28 UNL A   1      27.482  -9.458  29.044  1.00  0.00    +0.000 C 
ATOM     35  C29 UNL A   1      26.853 -10.666  29.388  1.00  0.00    +0.000 C 
ATOM    135  H41 UNL A   1      25.700 -12.281  28.653  1.00  0.00    +0.000 H 
ATOM    136  H42 UNL A   1      25.560 -11.429  26.388  1.00  0.00    +0.000 H 
ATOM    123  H29 UNL A   1      27.715  -8.002  27.530  1.00  0.00    +0.000 H 
ATOM    124  H30 UNL A   1      28.088  -8.979  29.727  1.00  0.00    +0.000 H 
ATOM     93  C68 UNL A   1      26.137 -11.377  28.413  1.00  0.00    +0.000 C 
ATOM     94  C69 UNL A   1      26.011 -10.870  27.128  1.00  0.00    +0.000 C 
ATOM     32  C26 UNL A   1      26.502  -9.593  26.846  1.00  0.00    +0.000 C 
BRANCH   32   30
ATOM     30  C25 UNL A   1      26.130  -8.916  25.588  1.00  0.00    +0.000 C 
ATOM     31  O3  UNL A   1      25.129  -8.218  25.542  1.00  0.00    +0.000 O 
BRANCH   30   29
ATOM    122  H28 UNL A   1      26.507  -9.712  23.789  1.00  0.00    +0.000 H 
ATOM     29  N3  UNL A   1      26.907  -9.125  24.471  1.00  0.00    +0.000 N 
BRANCH   29   28
ATOM    121  H27 UNL A   1      28.340  -7.673  24.649  1.00  0.00    +0.000 H 
ATOM     28  C24 UNL A   1      28.233  -8.610  24.146  1.00  0.00    +0.000 C 
ATOM    120  H26 UNL A   1      28.305  -8.510  23.083  1.00  0.00    +0.000 H 
BRANCH   28   27
ATOM     27  C23 UNL A   1      29.368  -9.510  24.624  1.00  0.00    +0.000 C 
ATOM    118  H24 UNL A   1      30.201  -9.378  23.965  1.00  0.00    +0.000 H 
ATOM    119  H25 UNL A   1      29.585  -9.219  25.632  1.00  0.00    +0.000 H 
BRANCH   27   26
ATOM     26  C22 UNL A   1      29.022 -10.992  24.664  1.00  0.00    +0.000 C 
ATOM    116  H22 UNL A   1      28.066 -11.096  25.135  1.00  0.00    +0.000 H 
ATOM    117  H23 UNL A   1      29.039 -11.326  23.647  1.00  0.00    +0.000 H 
BRANCH   26   25
ATOM     25  C21 UNL A   1      30.014 -11.881  25.413  1.00  0.00    +0.000 C 
ATOM    114  H20 UNL A   1      30.386 -12.615  24.730  1.00  0.00    +0.000 H 
ATOM    115  H21 UNL A   1      30.777 -11.233  25.790  1.00  0.00    +0.000 H 
BRANCH   25   24
ATOM    113  H19 UNL A   1      28.396 -12.323  26.680  1.00  0.00    +0.000 H 
ATOM    112  H18 UNL A   1      29.988 -12.329  27.489  1.00  0.00    +0.000 H 
ATOM     24  C20 UNL A   1      29.425 -12.610  26.624  1.00  0.00    +0.000 C 
BRANCH   24   23
ATOM    111  H17 UNL A   1      29.851 -14.403  25.565  1.00  0.00    +0.000 H 
ATOM    110  H16 UNL A   1      28.445 -14.506  26.620  1.00  0.00    +0.000 H 
ATOM     23  C19 UNL A   1      29.444 -14.137  26.517  1.00  0.00    +0.000 C 
BRANCH   23   22
ATOM    109  H15 UNL A   1      30.261 -14.328  28.447  1.00  0.00    +0.000 H 
ATOM     22  N2  UNL A   1      30.272 -14.730  27.548  1.00  0.00    +0.000 N 
BRANCH   22    2
ATOM      1  O1  UNL A   1      30.662 -16.893  26.895  1.00  0.00    +0.000 O 
ATOM      2  C1  UNL A   1      31.070 -15.823  27.333  1.00  0.00    +0.000 C 
BRANCH    2    3
ATOM      3  C2  UNL A   1      32.523 -15.612  27.703  1.00  0.00    +0.000 C 
ATOM     95  H1  UNL A   1      33.064 -15.326  26.826  1.00  0.00    +0.000 H 
ATOM     96  H2  UNL A   1      32.894 -16.531  28.109  1.00  0.00    +0.000 H 
BRANCH    3    4
ATOM     97  H3  UNL A   1      33.590 -14.758  29.309  1.00  0.00    +0.000 H 
ATOM     98  H4  UNL A   1      31.804 -14.557  29.346  1.00  0.00    +0.000 H 
ATOM      4  C3  UNL A   1      32.699 -14.534  28.760  1.00  0.00    +0.000 C 
BRANCH    4    5
ATOM      5  C4  UNL A   1      32.814 -13.129  28.261  1.00  0.00    +0.000 C 
ATOM      6  N1  UNL A   1      33.546 -12.714  27.245  1.00  0.00    +0.000 N 
ATOM      7  C5  UNL A   1      33.320 -11.363  27.205  1.00  0.00    +0.000 C 
ATOM     14  C12 UNL A   1      32.406 -11.003  28.178  1.00  0.00    +0.000 C 
ATOM     21  O2  UNL A   1      32.089 -12.137  28.884  1.00  0.00    +0.000 O 
BRANCH    7    8
ATOM     99  H5  UNL A   1      35.288  -9.566  27.514  1.00  0.00    +0.000 H 
ATOM    100  H6  UNL A   1      35.856  -7.750  26.010  1.00  0.00    +0.000 H 
ATOM    101  H7  UNL A   1      34.794  -7.606  23.834  1.00  0.00    +0.000 H 
ATOM    102  H8  UNL A   1      33.229  -9.319  23.130  1.00  0.00    +0.000 H 
ATOM    103  H9  UNL A   1      32.639 -11.126  24.640  1.00  0.00    +0.000 H 
ATOM      8  C6  UNL A   1      33.864 -10.449  26.222  1.00  0.00    +0.000 C 
ATOM      9  C7  UNL A   1      34.827  -9.497  26.593  1.00  0.00    +0.000 C 
ATOM     10  C8  UNL A   1      35.164  -8.460  25.724  1.00  0.00    +0.000 C 
ATOM     11  C9  UNL A   1      34.564  -8.386  24.470  1.00  0.00    +0.000 C 
ATOM     12  C10 UNL A   1      33.650  -9.363  24.072  1.00  0.00    +0.000 C 
ATOM     13  C11 UNL A   1      33.305 -10.399  24.942  1.00  0.00    +0.000 C 
ENDBRANCH    7    8
BRANCH   14   15
ATOM    104  H10 UNL A   1      31.839  -9.983  30.614  1.00  0.00    +0.000 H 
ATOM    105  H11 UNL A   1      30.861  -7.819  31.117  1.00  0.00    +0.000 H 
ATOM    106  H12 UNL A   1      30.200  -6.328  29.323  1.00  0.00    +0.000 H 
ATOM    107  H13 UNL A   1      30.448  -7.026  27.013  1.00  0.00    +0.000 H 
ATOM    108  H14 UNL A   1      31.401  -9.192  26.507  1.00  0.00    +0.000 H 
ATOM     15  C13 UNL A   1      31.729  -9.759  28.518  1.00  0.00    +0.000 C 
ATOM     16  C14 UNL A   1      31.553  -9.357  29.846  1.00  0.00    +0.000 C 
ATOM     17  C15 UNL A   1      30.989  -8.109  30.135  1.00  0.00    +0.000 C 
ATOM     18  C16 UNL A   1      30.599  -7.254  29.103  1.00  0.00    +0.000 C 
ATOM     19  C17 UNL A   1      30.747  -7.651  27.779  1.00  0.00    +0.000 C 
ATOM     20  C18 UNL A   1      31.302  -8.896  27.491  1.00  0.00    +0.000 C 
ENDBRANCH   14   15
ENDBRANCH    4    5
ENDBRANCH    3    4
ENDBRANCH    2    3
ENDBRANCH   22    2
ENDBRANCH   23   22
ENDBRANCH   24   23
ENDBRANCH   25   24
ENDBRANCH   26   25
ENDBRANCH   27   26
ENDBRANCH   28   27
ENDBRANCH   29   28
ENDBRANCH   30   29
ENDBRANCH   32   30
ENDBRANCH   36   35
BRANCH   40   41
ATOM     41  C34 UNL A   1      30.941 -15.292  32.526  1.00  0.00    +0.000 C 
ATOM     42  C35 UNL A   1      32.224 -14.738  32.660  1.00  0.00    +0.000 C 
ATOM     43  F1  UNL A   1      32.380 -13.516  33.189  1.00  0.00    +0.000 F 
ATOM     44  C36 UNL A   1      33.349 -15.418  32.200  1.00  0.00    +0.000 C 
ATOM     45  F2  UNL A   1      34.557 -14.842  32.282  1.00  0.00    +0.000 F 
ATOM     46  C37 UNL A   1      33.219 -16.677  31.635  1.00  0.00    +0.000 C 
ATOM     47  F3  UNL A   1      34.303 -17.327  31.189  1.00  0.00    +0.000 F 
ATOM     48  C38 UNL A   1      31.965 -17.256  31.521  1.00  0.00    +0.000 C 
ATOM     49  F4  UNL A   1      31.839 -18.478  30.984  1.00  0.00    +0.000 F 
ATOM     50  C39 UNL A   1      30.833 -16.568  31.952  1.00  0.00    +0.000 C 
ATOM     51  F5  UNL A   1      29.632 -17.144  31.804  1.00  0.00    +0.000 F 
ENDBRANCH   40   41
BRANCH   57   58
ATOM     65  C49 UNL A   1      25.677 -16.556  39.817  1.00  0.00    +0.000 C 
ATOM     66  F9  UNL A   1      24.864 -17.600  40.027  1.00  0.00    +0.000 F 
ATOM     67  C50 UNL A   1      25.803 -16.019  38.541  1.00  0.00    +0.000 C 
ATOM     68  F10 UNL A   1      25.106 -16.570  37.535  1.00  0.00    +0.000 F 
ATOM     58  C45 UNL A   1      26.631 -14.913  38.303  1.00  0.00    +0.000 C 
ATOM     59  C46 UNL A   1      27.337 -14.370  39.387  1.00  0.00    +0.000 C 
ATOM     60  F6  UNL A   1      28.155 -13.322  39.204  1.00  0.00    +0.000 F 
ATOM     61  C47 UNL A   1      27.227 -14.925  40.659  1.00  0.00    +0.000 C 
ATOM     62  F7  UNL A   1      27.937 -14.414  41.674  1.00  0.00    +0.000 F 
ATOM     63  C48 UNL A   1      26.392 -16.013  40.874  1.00  0.00    +0.000 C 
ATOM     64  F8  UNL A   1      26.282 -16.540  42.101  1.00  0.00    +0.000 F 
ENDBRANCH   57   58
BRANCH   72   73
ATOM     73  C54 UNL A   1      22.544 -10.413  34.893  1.00  0.00    +0.000 C 
ATOM     74  C55 UNL A   1      22.521  -9.109  35.403  1.00  0.00    +0.000 C 
ATOM     75  F11 UNL A   1      23.673  -8.470  35.659  1.00  0.00    +0.000 F 
ATOM     76  C56 UNL A   1      21.317  -8.462  35.674  1.00  0.00    +0.000 C 
ATOM     77  F12 UNL A   1      21.323  -7.225  36.186  1.00  0.00    +0.000 F 
ATOM     78  C57 UNL A   1      20.113  -9.100  35.418  1.00  0.00    +0.000 C 
ATOM     79  F13 UNL A   1      18.954  -8.475  35.666  1.00  0.00    +0.000 F 
ATOM     80  C58 UNL A   1      20.110 -10.390  34.907  1.00  0.00    +0.000 C 
ATOM     81  F14 UNL A   1      18.948 -11.003  34.644  1.00  0.00    +0.000 F 
ATOM     82  C59 UNL A   1      21.315 -11.045  34.656  1.00  0.00    +0.000 C 
ATOM     83  F15 UNL A   1      21.284 -12.290  34.160  1.00  0.00    +0.000 F 
ENDBRANCH   72   73
TORSDOF 19
ENDMDL
