MODEL 1
REMARK VINA RESULT:      -6.8      0.000      0.000
ROOT
ATOM    140  H40 UNL A   1      16.427  34.933  48.043  1.00  0.00    +0.000 H 
ATOM    141  H41 UNL A   1      15.335  36.031  50.142  1.00  0.00    +0.000 H 
ATOM    142  H42 UNL A   1      19.016  37.819  49.502  1.00  0.00    +0.000 H 
ATOM    143  H43 UNL A   1      23.435  42.107  51.174  1.00  0.00    +0.000 H 
ATOM    144  H44 UNL A   1      24.542  40.968  49.190  1.00  0.00    +0.000 H 
ATOM    145  H45 UNL A   1      20.836  39.178  49.781  1.00  0.00    +0.000 H 
ATOM    146  H46 UNL A   1      18.829  41.449  53.796  1.00  0.00    +0.000 H 
ATOM    147  H47 UNL A   1      16.906  39.768  53.629  1.00  0.00    +0.000 H 
ATOM    148  H48 UNL A   1      21.053  35.694  45.443  1.00  0.00    +0.000 H 
ATOM    149  H49 UNL A   1      23.208  37.003  45.889  1.00  0.00    +0.000 H 
ATOM     38  C31 UNL A   1      22.994  38.873  48.031  1.00  0.00    +0.000 C 
ATOM     39  C32 UNL A   1      21.967  37.871  47.578  1.00  0.00    +0.000 C 
ATOM     40  N4  UNL A   1      20.771  37.633  48.059  1.00  0.00    +0.000 N 
ATOM     41  C33 UNL A   1      20.225  36.649  47.246  1.00  0.00    +0.000 C 
ATOM     42  C34 UNL A   1      19.020  36.037  47.351  1.00  0.00    +0.000 C 
ATOM     54  C41 UNL A   1      18.064  36.294  48.395  1.00  0.00    +0.000 C 
ATOM     55  C42 UNL A   1      16.840  35.685  48.615  1.00  0.00    +0.000 C 
ATOM     56  C43 UNL A   1      16.258  36.268  49.748  1.00  0.00    +0.000 C 
ATOM     57  C44 UNL A   1      17.135  37.217  50.247  1.00  0.00    +0.000 C 
ATOM     58  N5  UNL A   1      18.232  37.230  49.402  1.00  0.00    +0.000 N 
ATOM     59  C45 UNL A   1      16.988  38.048  51.413  1.00  0.00    +0.000 C 
ATOM     71  C52 UNL A   1      17.873  38.995  51.808  1.00  0.00    +0.000 C 
ATOM     72  N6  UNL A   1      19.078  39.360  51.224  1.00  0.00    +0.000 N 
ATOM     73  C53 UNL A   1      19.558  40.328  51.965  1.00  0.00    +0.000 C 
ATOM     74  C54 UNL A   1      20.852  41.080  51.821  1.00  0.00    +0.000 C 
ATOM     86  C61 UNL A   1      21.718  40.730  50.852  1.00  0.00    +0.000 C 
ATOM     87  C62 UNL A   1      23.026  41.337  50.621  1.00  0.00    +0.000 C 
ATOM     88  C63 UNL A   1      23.614  40.733  49.575  1.00  0.00    +0.000 C 
ATOM     89  C64 UNL A   1      22.725  39.686  49.069  1.00  0.00    +0.000 C 
ATOM     90  N7  UNL A   1      21.622  39.762  49.883  1.00  0.00    +0.000 N 
ATOM     91  C65 UNL A   1      18.695  40.704  53.094  1.00  0.00    +0.000 C 
ATOM     92  C66 UNL A   1      17.702  39.836  52.974  1.00  0.00    +0.000 C 
ATOM     93  C67 UNL A   1      21.204  36.353  46.222  1.00  0.00    +0.000 C 
ATOM     94  C68 UNL A   1      22.321  37.040  46.416  1.00  0.00    +0.000 C 
ENDROOT
BRANCH   38   37
ATOM     34  C27 UNL A   1      26.780  39.264  46.039  1.00  0.00    +0.000 C 
ATOM     35  C28 UNL A   1      25.755  40.184  45.788  1.00  0.00    +0.000 C 
ATOM     36  C29 UNL A   1      24.520  40.054  46.429  1.00  0.00    +0.000 C 
ATOM     37  C30 UNL A   1      24.289  38.990  47.314  1.00  0.00    +0.000 C 
ATOM    138  H38 UNL A   1      25.911  40.961  45.126  1.00  0.00    +0.000 H 
ATOM    139  H39 UNL A   1      23.774  40.745  46.250  1.00  0.00    +0.000 H 
ATOM    150  H50 UNL A   1      25.147  37.260  48.175  1.00  0.00    +0.000 H 
ATOM    151  H51 UNL A   1      27.335  37.573  47.177  1.00  0.00    +0.000 H 
ATOM     95  C69 UNL A   1      25.316  38.064  47.551  1.00  0.00    +0.000 C 
ATOM     96  C70 UNL A   1      26.566  38.224  46.949  1.00  0.00    +0.000 C 
BRANCH   34   32
ATOM     33  O4  UNL A   1      28.648  40.590  45.543  1.00  0.00    +0.000 O 
ATOM     32  C26 UNL A   1      28.102  39.497  45.408  1.00  0.00    +0.000 C 
BRANCH   32   31
ATOM    137  H37 UNL A   1      28.504  38.495  43.729  1.00  0.00    +0.000 H 
ATOM     31  N3  UNL A   1      28.734  38.519  44.685  1.00  0.00    +0.000 N 
BRANCH   31   30
ATOM     30  C25 UNL A   1      29.691  37.513  45.110  1.00  0.00    +0.000 C 
ATOM    135  H35 UNL A   1      30.469  37.445  44.378  1.00  0.00    +0.000 H 
ATOM    136  H36 UNL A   1      30.081  37.809  46.062  1.00  0.00    +0.000 H 
BRANCH   30   29
ATOM    133  H33 UNL A   1      29.814  35.399  45.192  1.00  0.00    +0.000 H 
ATOM     29  C24 UNL A   1      29.044  36.138  45.272  1.00  0.00    +0.000 C 
ATOM    134  H34 UNL A   1      28.557  36.152  46.224  1.00  0.00    +0.000 H 
BRANCH   29   28
ATOM    131  H31 UNL A   1      27.561  36.720  43.872  1.00  0.00    +0.000 H 
ATOM     28  C23 UNL A   1      27.957  35.799  44.245  1.00  0.00    +0.000 C 
ATOM    132  H32 UNL A   1      28.438  35.197  43.503  1.00  0.00    +0.000 H 
BRANCH   28   27
ATOM    129  H29 UNL A   1      26.818  34.005  44.275  1.00  0.00    +0.000 H 
ATOM    130  H30 UNL A   1      26.903  34.904  45.824  1.00  0.00    +0.000 H 
ATOM     27  C22 UNL A   1      26.782  34.958  44.762  1.00  0.00    +0.000 C 
BRANCH   27   26
ATOM     26  C21 UNL A   1      25.390  35.555  44.527  1.00  0.00    +0.000 C 
ATOM    127  H27 UNL A   1      24.933  35.728  45.478  1.00  0.00    +0.000 H 
ATOM    128  H28 UNL A   1      25.531  36.456  43.966  1.00  0.00    +0.000 H 
BRANCH   26   25
ATOM     25  C20 UNL A   1      24.461  34.663  43.702  1.00  0.00    +0.000 C 
ATOM    125  H25 UNL A   1      23.953  35.269  42.980  1.00  0.00    +0.000 H 
ATOM    126  H26 UNL A   1      25.058  33.913  43.228  1.00  0.00    +0.000 H 
BRANCH   25   24
ATOM    124  H24 UNL A   1      22.796  34.593  44.916  1.00  0.00    +0.000 H 
ATOM     24  N2  UNL A   1      23.475  33.996  44.527  1.00  0.00    +0.000 N 
BRANCH   24   22
ATOM     22  C19 UNL A   1      23.334  32.684  44.857  1.00  0.00    +0.000 C 
ATOM     23  O3  UNL A   1      22.945  31.925  43.961  1.00  0.00    +0.000 O 
BRANCH   22   20
ATOM     20  C17 UNL A   1      23.620  32.130  46.260  1.00  0.00    +0.000 C 
ATOM    120  H20 UNL A   1      24.598  31.698  46.217  1.00  0.00    +0.000 H 
BRANCH   20   19
ATOM     97  C71 UNL A   1      22.638  33.610  48.035  1.00  0.00    +0.000 C 
ATOM     98  C72 UNL A   1      22.726  34.578  49.037  1.00  0.00    +0.000 C 
ATOM     99  F16 UNL A   1      21.584  34.936  49.646  1.00  0.00    +0.000 F 
ATOM     16  C13 UNL A   1      23.947  35.173  49.399  1.00  0.00    +0.000 C 
ATOM     17  C14 UNL A   1      25.075  34.781  48.659  1.00  0.00    +0.000 C 
ATOM     18  C15 UNL A   1      24.985  33.840  47.622  1.00  0.00    +0.000 C 
ATOM     19  C16 UNL A   1      23.771  33.217  47.311  1.00  0.00    +0.000 C 
ATOM    118  H18 UNL A   1      25.993  35.196  48.885  1.00  0.00    +0.000 H 
ATOM    119  H19 UNL A   1      25.830  33.602  47.077  1.00  0.00    +0.000 H 
ATOM    152  H52 UNL A   1      21.725  33.180  47.824  1.00  0.00    +0.000 H 
BRANCH   16   15
ATOM    100  C73 UNL A   1      22.943  36.430  51.333  1.00  0.00    +0.000 C 
ATOM     11  C8  UNL A   1      22.971  37.452  52.288  1.00  0.00    +0.000 C 
ATOM     12  C9  UNL A   1      24.135  38.204  52.451  1.00  0.00    +0.000 C 
ATOM     13  C10 UNL A   1      25.261  37.919  51.683  1.00  0.00    +0.000 C 
ATOM     14  C11 UNL A   1      25.210  36.921  50.705  1.00  0.00    +0.000 C 
ATOM     15  C12 UNL A   1      24.042  36.168  50.491  1.00  0.00    +0.000 C 
ATOM    115  H15 UNL A   1      24.161  38.970  53.141  1.00  0.00    +0.000 H 
ATOM    116  H16 UNL A   1      26.135  38.447  51.835  1.00  0.00    +0.000 H 
ATOM    117  H17 UNL A   1      26.045  36.732  50.130  1.00  0.00    +0.000 H 
ATOM    153  H53 UNL A   1      22.093  35.852  51.242  1.00  0.00    +0.000 H 
BRANCH   11   10
ATOM     10  N1  UNL A   1      21.832  37.842  53.010  1.00  0.00    +0.000 N 
ATOM    114  H14 UNL A   1      21.504  38.752  52.828  1.00  0.00    +0.000 H 
BRANCH   10    8
ATOM      9  O2  UNL A   1      19.894  37.131  53.920  1.00  0.00    +0.000 O 
ATOM      8  C7  UNL A   1      21.116  37.126  53.932  1.00  0.00    +0.000 C 
BRANCH    8    7
ATOM      7  O1  UNL A   1      21.889  36.551  54.889  1.00  0.00    +0.000 O 
BRANCH    7    6
ATOM    113  H13 UNL A   1      23.215  35.002  54.868  1.00  0.00    +0.000 H 
ATOM      6  C6  UNL A   1      22.159  35.144  54.770  1.00  0.00    +0.000 C 
ATOM    112  H12 UNL A   1      21.808  34.805  53.817  1.00  0.00    +0.000 H 
BRANCH    6    5
ATOM      5  C5  UNL A   1      21.469  34.328  55.869  1.00  0.00    +0.000 C 
ATOM    110  H10 UNL A   1      21.214  33.374  55.457  1.00  0.00    +0.000 H 
ATOM    111  H11 UNL A   1      22.169  34.281  56.677  1.00  0.00    +0.000 H 
BRANCH    5    4
ATOM    108  H8  UNL A   1      20.479  35.612  57.243  1.00  0.00    +0.000 H 
ATOM      4  C4  UNL A   1      20.193  34.942  56.459  1.00  0.00    +0.000 C 
ATOM    109  H9  UNL A   1      19.692  35.426  55.646  1.00  0.00    +0.000 H 
BRANCH    4    3
ATOM    106  H6  UNL A   1      19.316  33.007  56.518  1.00  0.00    +0.000 H 
ATOM      3  C3  UNL A   1      19.192  33.934  57.037  1.00  0.00    +0.000 C 
ATOM    107  H7  UNL A   1      19.404  33.865  58.083  1.00  0.00    +0.000 H 
BRANCH    3    2
ATOM    105  H5  UNL A   1      17.166  33.744  57.613  1.00  0.00    +0.000 H 
ATOM      2  C2  UNL A   1      17.722  34.347  56.926  1.00  0.00    +0.000 C 
ATOM    104  H4  UNL A   1      17.401  34.197  55.916  1.00  0.00    +0.000 H 
BRANCH    2    1
ATOM      1  C1  UNL A   1      17.489  35.802  57.299  1.00  0.00    +0.000 C 
ATOM    101  H1  UNL A   1      17.752  36.430  56.472  1.00  0.00    +0.000 H 
ATOM    102  H2  UNL A   1      18.094  36.055  58.145  1.00  0.00    +0.000 H 
ATOM    103  H3  UNL A   1      16.458  35.948  57.543  1.00  0.00    +0.000 H 
ENDBRANCH    2    1
ENDBRANCH    3    2
ENDBRANCH    4    3
ENDBRANCH    5    4
ENDBRANCH    6    5
ENDBRANCH    7    6
ENDBRANCH    8    7
ENDBRANCH   10    8
ENDBRANCH   11   10
ENDBRANCH   16   15
ENDBRANCH   20   19
BRANCH   20   21
ATOM    121  H21 UNL A   1      23.101  30.061  46.099  1.00  0.00    +0.000 H 
ATOM    122  H22 UNL A   1      21.742  31.117  46.404  1.00  0.00    +0.000 H 
ATOM    123  H23 UNL A   1      22.859  30.736  47.693  1.00  0.00    +0.000 H 
ATOM     21  C18 UNL A   1      22.767  30.920  46.642  1.00  0.00    +0.000 C 
ENDBRANCH   20   21
ENDBRANCH   22   20
ENDBRANCH   24   22
ENDBRANCH   25   24
ENDBRANCH   26   25
ENDBRANCH   27   26
ENDBRANCH   28   27
ENDBRANCH   29   28
ENDBRANCH   30   29
ENDBRANCH   31   30
ENDBRANCH   32   31
ENDBRANCH   34   32
ENDBRANCH   38   37
BRANCH   42   43
ATOM     43  C35 UNL A   1      18.670  35.018  46.308  1.00  0.00    +0.000 C 
ATOM     44  C36 UNL A   1      17.819  35.329  45.237  1.00  0.00    +0.000 C 
ATOM     45  F1  UNL A   1      17.256  36.543  45.153  1.00  0.00    +0.000 F 
ATOM     46  C37 UNL A   1      17.518  34.378  44.266  1.00  0.00    +0.000 C 
ATOM     47  F2  UNL A   1      16.673  34.683  43.271  1.00  0.00    +0.000 F 
ATOM     48  C38 UNL A   1      18.081  33.112  44.332  1.00  0.00    +0.000 C 
ATOM     49  F3  UNL A   1      17.795  32.200  43.393  1.00  0.00    +0.000 F 
ATOM     50  C39 UNL A   1      18.937  32.789  45.374  1.00  0.00    +0.000 C 
ATOM     51  F4  UNL A   1      19.488  31.569  45.434  1.00  0.00    +0.000 F 
ATOM     52  C40 UNL A   1      19.223  33.730  46.360  1.00  0.00    +0.000 C 
ATOM     53  F5  UNL A   1      20.046  33.387  47.362  1.00  0.00    +0.000 F 
ENDBRANCH   42   43
BRANCH   59   60
ATOM     65  C49 UNL A   1      13.489  37.514  53.863  1.00  0.00    +0.000 C 
ATOM     66  F8  UNL A   1      12.396  37.342  54.618  1.00  0.00    +0.000 F 
ATOM     67  C50 UNL A   1      13.392  38.156  52.637  1.00  0.00    +0.000 C 
ATOM     68  F9  UNL A   1      12.206  38.617  52.215  1.00  0.00    +0.000 F 
ATOM     69  C51 UNL A   1      14.522  38.316  51.842  1.00  0.00    +0.000 C 
ATOM     70  F10 UNL A   1      14.398  38.928  50.655  1.00  0.00    +0.000 F 
ATOM     60  C46 UNL A   1      15.775  37.848  52.268  1.00  0.00    +0.000 C 
ATOM     61  C47 UNL A   1      15.854  37.218  53.518  1.00  0.00    +0.000 C 
ATOM     62  F6  UNL A   1      17.028  36.742  53.959  1.00  0.00    +0.000 F 
ATOM     63  C48 UNL A   1      14.718  37.042  54.301  1.00  0.00    +0.000 C 
ATOM     64  F7  UNL A   1      14.808  36.400  55.475  1.00  0.00    +0.000 F 
ENDBRANCH   59   60
BRANCH   74   75
ATOM     75  C55 UNL A   1      21.201  42.173  52.762  1.00  0.00    +0.000 C 
ATOM     76  C56 UNL A   1      21.862  41.897  53.968  1.00  0.00    +0.000 C 
ATOM     77  F11 UNL A   1      22.171  40.631  54.286  1.00  0.00    +0.000 F 
ATOM     78  C57 UNL A   1      22.168  42.915  54.866  1.00  0.00    +0.000 C 
ATOM     79  F12 UNL A   1      22.764  42.620  56.030  1.00  0.00    +0.000 F 
ATOM     80  C58 UNL A   1      21.844  44.230  54.567  1.00  0.00    +0.000 C 
ATOM     81  F13 UNL A   1      22.139  45.209  55.432  1.00  0.00    +0.000 F 
ATOM     82  C59 UNL A   1      21.205  44.526  53.371  1.00  0.00    +0.000 C 
ATOM     83  F14 UNL A   1      20.899  45.797  53.074  1.00  0.00    +0.000 F 
ATOM     84  C60 UNL A   1      20.878  43.506  52.481  1.00  0.00    +0.000 C 
ATOM     85  F15 UNL A   1      20.250  43.819  51.338  1.00  0.00    +0.000 F 
ENDBRANCH   74   75
TORSDOF 27
ENDMDL
MODEL 2
REMARK VINA RESULT:      -6.4      1.052      2.226
ROOT
ATOM    140  H40 UNL A   1      16.339  35.419  48.378  1.00  0.00    +0.000 H 
ATOM    141  H41 UNL A   1      15.446  36.491  50.582  1.00  0.00    +0.000 H 
ATOM    142  H42 UNL A   1      19.230  38.000  49.840  1.00  0.00    +0.000 H 
ATOM    143  H43 UNL A   1      24.073  41.815  51.487  1.00  0.00    +0.000 H 
ATOM    144  H44 UNL A   1      24.983  40.694  49.395  1.00  0.00    +0.000 H 
ATOM    145  H45 UNL A   1      21.171  39.188  50.089  1.00  0.00    +0.000 H 
ATOM    146  H46 UNL A   1      19.558  41.401  54.309  1.00  0.00    +0.000 H 
ATOM    147  H47 UNL A   1      17.493  39.896  54.160  1.00  0.00    +0.000 H 
ATOM    148  H48 UNL A   1      20.884  35.931  45.582  1.00  0.00    +0.000 H 
ATOM    149  H49 UNL A   1      23.161  37.033  45.979  1.00  0.00    +0.000 H 
ATOM     38  C31 UNL A   1      23.210  38.798  48.217  1.00  0.00    +0.000 C 
ATOM     39  C32 UNL A   1      22.081  37.910  47.770  1.00  0.00    +0.000 C 
ATOM     40  N4  UNL A   1      20.894  37.746  48.300  1.00  0.00    +0.000 N 
ATOM     41  C33 UNL A   1      20.227  36.855  47.470  1.00  0.00    +0.000 C 
ATOM     42  C34 UNL A   1      18.981  36.340  47.607  1.00  0.00    +0.000 C 
ATOM     54  C41 UNL A   1      18.101  36.620  48.710  1.00  0.00    +0.000 C 
ATOM     55  C42 UNL A   1      16.841  36.103  48.964  1.00  0.00    +0.000 C 
ATOM     56  C43 UNL A   1      16.366  36.671  50.152  1.00  0.00    +0.000 C 
ATOM     57  C44 UNL A   1      17.343  37.517  50.651  1.00  0.00    +0.000 C 
ATOM     58  N5  UNL A   1      18.396  37.485  49.752  1.00  0.00    +0.000 N 
ATOM     59  C45 UNL A   1      17.323  38.295  51.862  1.00  0.00    +0.000 C 
ATOM     71  C52 UNL A   1      18.304  39.143  52.256  1.00  0.00    +0.000 C 
ATOM     72  N6  UNL A   1      19.506  39.438  51.629  1.00  0.00    +0.000 N 
ATOM     73  C53 UNL A   1      20.101  40.323  52.390  1.00  0.00    +0.000 C 
ATOM     74  C54 UNL A   1      21.446  40.972  52.216  1.00  0.00    +0.000 C 
ATOM     86  C61 UNL A   1      22.232  40.603  51.187  1.00  0.00    +0.000 C 
ATOM     87  C62 UNL A   1      23.574  41.111  50.919  1.00  0.00    +0.000 C 
ATOM     88  C63 UNL A   1      24.058  40.516  49.816  1.00  0.00    +0.000 C 
ATOM     89  C64 UNL A   1      23.061  39.575  49.307  1.00  0.00    +0.000 C 
ATOM     90  N7  UNL A   1      22.008  39.698  50.179  1.00  0.00    +0.000 N 
ATOM     91  C65 UNL A   1      19.328  40.709  53.580  1.00  0.00    +0.000 C 
ATOM     92  C66 UNL A   1      18.260  39.933  53.469  1.00  0.00    +0.000 C 
ATOM     93  C67 UNL A   1      21.128  36.534  46.384  1.00  0.00    +0.000 C 
ATOM     94  C68 UNL A   1      22.308  37.115  46.552  1.00  0.00    +0.000 C 
ENDROOT
BRANCH   38   37
ATOM     34  C27 UNL A   1      26.911  38.997  46.046  1.00  0.00    +0.000 C 
ATOM     35  C28 UNL A   1      25.866  39.877  45.737  1.00  0.00    +0.000 C 
ATOM     36  C29 UNL A   1      24.659  39.809  46.437  1.00  0.00    +0.000 C 
ATOM     37  C30 UNL A   1      24.475  38.846  47.441  1.00  0.00    +0.000 C 
ATOM    138  H38 UNL A   1      25.988  40.577  44.989  1.00  0.00    +0.000 H 
ATOM    139  H39 UNL A   1      23.899  40.471  46.214  1.00  0.00    +0.000 H 
ATOM    150  H50 UNL A   1      25.384  37.226  48.450  1.00  0.00    +0.000 H 
ATOM    151  H51 UNL A   1      27.528  37.443  47.337  1.00  0.00    +0.000 H 
ATOM     95  C69 UNL A   1      25.520  37.958  47.735  1.00  0.00    +0.000 C 
ATOM     96  C70 UNL A   1      26.745  38.061  47.071  1.00  0.00    +0.000 C 
BRANCH   34   32
ATOM     33  O4  UNL A   1      28.806  40.236  45.441  1.00  0.00    +0.000 O 
ATOM     32  C26 UNL A   1      28.204  39.169  45.341  1.00  0.00    +0.000 C 
BRANCH   32   31
ATOM    137  H37 UNL A   1      28.502  38.174  43.635  1.00  0.00    +0.000 H 
ATOM     31  N3  UNL A   1      28.750  38.162  44.588  1.00  0.00    +0.000 N 
BRANCH   31   30
ATOM     30  C25 UNL A   1      29.639  37.081  44.974  1.00  0.00    +0.000 C 
ATOM    135  H35 UNL A   1      30.414  36.991  44.242  1.00  0.00    +0.000 H 
ATOM    136  H36 UNL A   1      30.043  37.314  45.938  1.00  0.00    +0.000 H 
BRANCH   30   29
ATOM    133  H33 UNL A   1      29.592  34.967  44.823  1.00  0.00    +0.000 H 
ATOM     29  C24 UNL A   1      28.903  35.745  45.082  1.00  0.00    +0.000 C 
ATOM    134  H34 UNL A   1      28.546  35.686  46.088  1.00  0.00    +0.000 H 
BRANCH   29   28
ATOM    131  H31 UNL A   1      27.396  36.578  43.844  1.00  0.00    +0.000 H 
ATOM     28  C23 UNL A   1      27.668  35.602  44.184  1.00  0.00    +0.000 C 
ATOM    132  H32 UNL A   1      27.957  34.930  43.402  1.00  0.00    +0.000 H 
BRANCH   28   27
ATOM    129  H29 UNL A   1      26.298  33.994  44.415  1.00  0.00    +0.000 H 
ATOM    130  H30 UNL A   1      26.627  34.960  45.889  1.00  0.00    +0.000 H 
ATOM     27  C22 UNL A   1      26.433  34.969  44.837  1.00  0.00    +0.000 C 
BRANCH   27   26
ATOM     26  C21 UNL A   1      25.122  35.745  44.657  1.00  0.00    +0.000 C 
ATOM    127  H27 UNL A   1      24.701  35.922  45.623  1.00  0.00    +0.000 H 
ATOM    128  H28 UNL A   1      25.368  36.650  44.141  1.00  0.00    +0.000 H 
BRANCH   26   25
ATOM     25  C20 UNL A   1      24.081  35.020  43.803  1.00  0.00    +0.000 C 
ATOM    125  H25 UNL A   1      23.471  35.749  43.311  1.00  0.00    +0.000 H 
ATOM    126  H26 UNL A   1      24.601  34.409  43.096  1.00  0.00    +0.000 H 
BRANCH   25   24
ATOM    124  H24 UNL A   1      22.500  34.624  45.067  1.00  0.00    +0.000 H 
ATOM     24  N2  UNL A   1      23.231  34.159  44.599  1.00  0.00    +0.000 N 
BRANCH   24   22
ATOM     22  C19 UNL A   1      23.275  32.815  44.810  1.00  0.00    +0.000 C 
ATOM     23  O3  UNL A   1      23.283  32.095  43.804  1.00  0.00    +0.000 O 
BRANCH   22   20
ATOM     20  C17 UNL A   1      23.305  32.181  46.208  1.00  0.00    +0.000 C 
ATOM    120  H20 UNL A   1      24.211  31.614  46.261  1.00  0.00    +0.000 H 
BRANCH   20   19
ATOM     97  C71 UNL A   1      22.345  33.571  48.067  1.00  0.00    +0.000 C 
ATOM     98  C72 UNL A   1      22.449  34.476  49.125  1.00  0.00    +0.000 C 
ATOM     99  F16 UNL A   1      21.311  34.818  49.752  1.00  0.00    +0.000 F 
ATOM     16  C13 UNL A   1      23.679  35.024  49.523  1.00  0.00    +0.000 C 
ATOM     17  C14 UNL A   1      24.802  34.657  48.763  1.00  0.00    +0.000 C 
ATOM     18  C15 UNL A   1      24.698  33.781  47.672  1.00  0.00    +0.000 C 
ATOM     19  C16 UNL A   1      23.473  33.200  47.323  1.00  0.00    +0.000 C 
ATOM    118  H18 UNL A   1      25.726  35.040  49.015  1.00  0.00    +0.000 H 
ATOM    119  H19 UNL A   1      25.539  33.560  47.116  1.00  0.00    +0.000 H 
ATOM    152  H52 UNL A   1      21.425  33.171  47.829  1.00  0.00    +0.000 H 
BRANCH   16   15
ATOM    100  C73 UNL A   1      22.701  36.164  51.542  1.00  0.00    +0.000 C 
ATOM     11  C8  UNL A   1      22.742  37.126  52.557  1.00  0.00    +0.000 C 
ATOM     12  C9  UNL A   1      23.911  37.863  52.753  1.00  0.00    +0.000 C 
ATOM     13  C10 UNL A   1      25.027  37.622  51.956  1.00  0.00    +0.000 C 
ATOM     14  C11 UNL A   1      24.962  36.686  50.920  1.00  0.00    +0.000 C 
ATOM     15  C12 UNL A   1      23.789  35.951  50.674  1.00  0.00    +0.000 C 
ATOM    115  H15 UNL A   1      23.947  38.585  53.488  1.00  0.00    +0.000 H 
ATOM    116  H16 UNL A   1      25.904  38.138  52.131  1.00  0.00    +0.000 H 
ATOM    117  H17 UNL A   1      25.791  36.531  50.325  1.00  0.00    +0.000 H 
ATOM    153  H53 UNL A   1      21.848  35.595  51.425  1.00  0.00    +0.000 H 
BRANCH   11   10
ATOM     10  N1  UNL A   1      21.613  37.474  53.314  1.00  0.00    +0.000 N 
ATOM    114  H14 UNL A   1      21.062  38.201  52.947  1.00  0.00    +0.000 H 
BRANCH   10    8
ATOM      9  O2  UNL A   1      21.365  35.758  54.758  1.00  0.00    +0.000 O 
ATOM      8  C7  UNL A   1      21.174  36.936  54.495  1.00  0.00    +0.000 C 
BRANCH    8    7
ATOM      7  O1  UNL A   1      20.425  37.794  55.235  1.00  0.00    +0.000 O 
BRANCH    7    6
ATOM    113  H13 UNL A   1      20.672  36.581  56.855  1.00  0.00    +0.000 H 
ATOM      6  C6  UNL A   1      20.009  37.359  56.539  1.00  0.00    +0.000 C 
ATOM    112  H12 UNL A   1      18.999  37.008  56.480  1.00  0.00    +0.000 H 
BRANCH    6    5
ATOM      5  C5  UNL A   1      20.078  38.487  57.574  1.00  0.00    +0.000 C 
ATOM    110  H10 UNL A   1      21.110  38.693  57.768  1.00  0.00    +0.000 H 
ATOM    111  H11 UNL A   1      19.543  39.308  57.143  1.00  0.00    +0.000 H 
BRANCH    5    4
ATOM    108  H8  UNL A   1      20.001  37.512  59.461  1.00  0.00    +0.000 H 
ATOM      4  C4  UNL A   1      19.394  38.206  58.919  1.00  0.00    +0.000 C 
ATOM    109  H9  UNL A   1      19.292  39.155  59.405  1.00  0.00    +0.000 H 
BRANCH    4    3
ATOM    106  H6  UNL A   1      17.749  37.480  57.785  1.00  0.00    +0.000 H 
ATOM      3  C3  UNL A   1      17.978  37.624  58.821  1.00  0.00    +0.000 C 
ATOM    107  H7  UNL A   1      17.988  36.714  59.383  1.00  0.00    +0.000 H 
BRANCH    3    2
ATOM    105  H5  UNL A   1      17.074  38.568  60.483  1.00  0.00    +0.000 H 
ATOM      2  C2  UNL A   1      16.878  38.494  59.434  1.00  0.00    +0.000 C 
ATOM    104  H4  UNL A   1      15.932  38.036  59.238  1.00  0.00    +0.000 H 
BRANCH    2    1
ATOM      1  C1  UNL A   1      16.861  39.906  58.869  1.00  0.00    +0.000 C 
ATOM    101  H1  UNL A   1      17.041  40.607  59.658  1.00  0.00    +0.000 H 
ATOM    102  H2  UNL A   1      15.907  40.102  58.428  1.00  0.00    +0.000 H 
ATOM    103  H3  UNL A   1      17.625  40.003  58.126  1.00  0.00    +0.000 H 
ENDBRANCH    2    1
ENDBRANCH    3    2
ENDBRANCH    4    3
ENDBRANCH    5    4
ENDBRANCH    6    5
ENDBRANCH    7    6
ENDBRANCH    8    7
ENDBRANCH   10    8
ENDBRANCH   11   10
ENDBRANCH   16   15
ENDBRANCH   20   19
BRANCH   20   21
ATOM    121  H21 UNL A   1      22.419  30.617  47.367  1.00  0.00    +0.000 H 
ATOM    122  H22 UNL A   1      22.316  30.371  45.640  1.00  0.00    +0.000 H 
ATOM    123  H23 UNL A   1      21.276  31.538  46.420  1.00  0.00    +0.000 H 
ATOM     21  C18 UNL A   1      22.250  31.095  46.425  1.00  0.00    +0.000 C 
ENDBRANCH   20   21
ENDBRANCH   22   20
ENDBRANCH   24   22
ENDBRANCH   25   24
ENDBRANCH   26   25
ENDBRANCH   27   26
ENDBRANCH   28   27
ENDBRANCH   29   28
ENDBRANCH   30   29
ENDBRANCH   31   30
ENDBRANCH   32   31
ENDBRANCH   34   32
ENDBRANCH   38   37
BRANCH   42   43
ATOM     43  C35 UNL A   1      18.496  35.410  46.536  1.00  0.00    +0.000 C 
ATOM     44  C36 UNL A   1      18.931  34.079  46.469  1.00  0.00    +0.000 C 
ATOM     45  F1  UNL A   1      19.839  33.621  47.344  1.00  0.00    +0.000 F 
ATOM     46  C37 UNL A   1      18.457  33.221  45.480  1.00  0.00    +0.000 C 
ATOM     47  F2  UNL A   1      18.914  31.963  45.411  1.00  0.00    +0.000 F 
ATOM     48  C38 UNL A   1      17.522  33.670  44.559  1.00  0.00    +0.000 C 
ATOM     49  F3  UNL A   1      17.063  32.841  43.611  1.00  0.00    +0.000 F 
ATOM     50  C39 UNL A   1      17.068  34.978  44.616  1.00  0.00    +0.000 C 
ATOM     51  F4  UNL A   1      16.158  35.410  43.732  1.00  0.00    +0.000 F 
ATOM     52  C40 UNL A   1      17.556  35.845  45.590  1.00  0.00    +0.000 C 
ATOM     53  F5  UNL A   1      17.106  37.109  45.615  1.00  0.00    +0.000 F 
ENDBRANCH   42   43
BRANCH   59   60
ATOM     65  C49 UNL A   1      13.925  37.839  54.465  1.00  0.00    +0.000 C 
ATOM     66  F8  UNL A   1      12.872  37.701  55.282  1.00  0.00    +0.000 F 
ATOM     67  C50 UNL A   1      15.092  37.132  54.710  1.00  0.00    +0.000 C 
ATOM     68  F9  UNL A   1      15.162  36.298  55.758  1.00  0.00    +0.000 F 
ATOM     69  C51 UNL A   1      16.193  37.291  53.875  1.00  0.00    +0.000 C 
ATOM     70  F10 UNL A   1      17.314  36.605  54.143  1.00  0.00    +0.000 F 
ATOM     60  C46 UNL A   1      16.139  38.151  52.768  1.00  0.00    +0.000 C 
ATOM     61  C47 UNL A   1      14.943  38.843  52.527  1.00  0.00    +0.000 C 
ATOM     62  F6  UNL A   1      14.852  39.688  51.489  1.00  0.00    +0.000 F 
ATOM     63  C48 UNL A   1      13.852  38.697  53.377  1.00  0.00    +0.000 C 
ATOM     64  F7  UNL A   1      12.732  39.399  53.153  1.00  0.00    +0.000 F 
ENDBRANCH   59   60
BRANCH   74   75
ATOM     75  C55 UNL A   1      21.931  41.980  53.190  1.00  0.00    +0.000 C 
ATOM     76  C56 UNL A   1      21.799  43.352  52.929  1.00  0.00    +0.000 C 
ATOM     77  F11 UNL A   1      21.243  43.763  51.780  1.00  0.00    +0.000 F 
ATOM     78  C57 UNL A   1      22.276  44.302  53.828  1.00  0.00    +0.000 C 
ATOM     79  F12 UNL A   1      22.175  45.605  53.537  1.00  0.00    +0.000 F 
ATOM     80  C58 UNL A   1      22.870  43.900  55.015  1.00  0.00    +0.000 C 
ATOM     81  F13 UNL A   1      23.330  44.815  55.880  1.00  0.00    +0.000 F 
ATOM     82  C59 UNL A   1      22.995  42.548  55.301  1.00  0.00    +0.000 C 
ATOM     83  F14 UNL A   1      23.560  42.157  56.452  1.00  0.00    +0.000 F 
ATOM     84  C60 UNL A   1      22.538  41.596  54.393  1.00  0.00    +0.000 C 
ATOM     85  F15 UNL A   1      22.682  40.296  54.688  1.00  0.00    +0.000 F 
ENDBRANCH   74   75
TORSDOF 27
ENDMDL
MODEL 3
REMARK VINA RESULT:      -6.3     47.822     52.492
ROOT
ATOM    140  H40 UNL A   1      22.139  66.818   5.328  1.00  0.00    +0.000 H 
ATOM    141  H41 UNL A   1      24.454  67.865   5.920  1.00  0.00    +0.000 H 
ATOM    142  H42 UNL A   1      25.052  64.888   3.104  1.00  0.00    +0.000 H 
ATOM    143  H43 UNL A   1      28.989  61.537  -0.636  1.00  0.00    +0.000 H 
ATOM    144  H44 UNL A   1      26.747  60.450  -1.137  1.00  0.00    +0.000 H 
ATOM    145  H45 UNL A   1      26.106  63.458   1.661  1.00  0.00    +0.000 H 
ATOM    146  H46 UNL A   1      30.632  65.426   2.635  1.00  0.00    +0.000 H 
ATOM    147  H47 UNL A   1      29.486  66.857   4.422  1.00  0.00    +0.000 H 
ATOM    148  H48 UNL A   1      20.572  62.934   1.982  1.00  0.00    +0.000 H 
ATOM    149  H49 UNL A   1      21.749  61.148   0.573  1.00  0.00    +0.000 H 
ATOM     38  C31 UNL A   1      24.561  61.548   0.328  1.00  0.00    +0.000 C 
ATOM     39  C32 UNL A   1      23.590  62.333   1.166  1.00  0.00    +0.000 C 
ATOM     40  N4  UNL A   1      23.814  63.352   1.959  1.00  0.00    +0.000 N 
ATOM     41  C33 UNL A   1      22.571  63.731   2.449  1.00  0.00    +0.000 C 
ATOM     42  C34 UNL A   1      22.274  64.713   3.335  1.00  0.00    +0.000 C 
ATOM     54  C41 UNL A   1      23.248  65.554   3.976  1.00  0.00    +0.000 C 
ATOM     55  C42 UNL A   1      23.048  66.540   4.928  1.00  0.00    +0.000 C 
ATOM     56  C43 UNL A   1      24.292  67.095   5.253  1.00  0.00    +0.000 C 
ATOM     57  C44 UNL A   1      25.267  66.434   4.525  1.00  0.00    +0.000 C 
ATOM     58  N5  UNL A   1      24.612  65.500   3.738  1.00  0.00    +0.000 N 
ATOM     59  C45 UNL A   1      26.692  66.632   4.546  1.00  0.00    +0.000 C 
ATOM     71  C52 UNL A   1      27.580  65.975   3.761  1.00  0.00    +0.000 C 
ATOM     72  N6  UNL A   1      27.342  64.994   2.809  1.00  0.00    +0.000 N 
ATOM     73  C53 UNL A   1      28.514  64.685   2.311  1.00  0.00    +0.000 C 
ATOM     74  C54 UNL A   1      28.860  63.659   1.268  1.00  0.00    +0.000 C 
ATOM     86  C61 UNL A   1      27.892  62.869   0.767  1.00  0.00    +0.000 C 
ATOM     87  C62 UNL A   1      28.086  61.805  -0.213  1.00  0.00    +0.000 C 
ATOM     88  C63 UNL A   1      26.902  61.226  -0.475  1.00  0.00    +0.000 C 
ATOM     89  C64 UNL A   1      25.867  61.875   0.330  1.00  0.00    +0.000 C 
ATOM     90  N7  UNL A   1      26.545  62.842   1.031  1.00  0.00    +0.000 N 
ATOM     91  C65 UNL A   1      29.630  65.457   2.878  1.00  0.00    +0.000 C 
ATOM     92  C66 UNL A   1      29.010  66.200   3.783  1.00  0.00    +0.000 C 
ATOM     93  C67 UNL A   1      21.592  62.854   1.843  1.00  0.00    +0.000 C 
ATOM     94  C68 UNL A   1      22.175  61.936   1.086  1.00  0.00    +0.000 C 
ENDROOT
BRANCH   38   37
ATOM     34  C27 UNL A   1      23.065  58.348  -2.118  1.00  0.00    +0.000 C 
ATOM     35  C28 UNL A   1      23.524  58.087  -0.820  1.00  0.00    +0.000 C 
ATOM     36  C29 UNL A   1      24.018  59.125  -0.026  1.00  0.00    +0.000 C 
ATOM     37  C30 UNL A   1      24.078  60.434  -0.528  1.00  0.00    +0.000 C 
ATOM    138  H38 UNL A   1      23.498  57.124  -0.450  1.00  0.00    +0.000 H 
ATOM    139  H39 UNL A   1      24.340  58.927   0.934  1.00  0.00    +0.000 H 
ATOM    150  H50 UNL A   1      23.700  61.639  -2.223  1.00  0.00    +0.000 H 
ATOM    151  H51 UNL A   1      22.706  59.864  -3.543  1.00  0.00    +0.000 H 
ATOM     95  C69 UNL A   1      23.630  60.686  -1.833  1.00  0.00    +0.000 C 
ATOM     96  C70 UNL A   1      23.089  59.658  -2.607  1.00  0.00    +0.000 C 
BRANCH   34   32
ATOM     33  O4  UNL A   1      23.200  56.435  -3.466  1.00  0.00    +0.000 O 
ATOM     32  C26 UNL A   1      22.464  57.232  -2.887  1.00  0.00    +0.000 C 
BRANCH   32   31
ATOM    137  H37 UNL A   1      20.681  57.441  -3.761  1.00  0.00    +0.000 H 
ATOM     31  N3  UNL A   1      21.106  57.061  -2.959  1.00  0.00    +0.000 N 
BRANCH   31   30
ATOM     30  C25 UNL A   1      20.195  56.405  -2.038  1.00  0.00    +0.000 C 
ATOM    135  H35 UNL A   1      19.380  55.990  -2.594  1.00  0.00    +0.000 H 
ATOM    136  H36 UNL A   1      20.740  55.640  -1.523  1.00  0.00    +0.000 H 
BRANCH   30   29
ATOM    133  H33 UNL A   1      19.852  58.369  -1.321  1.00  0.00    +0.000 H 
ATOM     29  C24 UNL A   1      19.639  57.373  -0.994  1.00  0.00    +0.000 C 
ATOM    134  H34 UNL A   1      18.594  57.158  -0.919  1.00  0.00    +0.000 H 
BRANCH   29   28
ATOM    131  H31 UNL A   1      20.975  56.465   0.381  1.00  0.00    +0.000 H 
ATOM     28  C23 UNL A   1      20.208  57.209   0.421  1.00  0.00    +0.000 C 
ATOM    132  H32 UNL A   1      20.554  58.181   0.707  1.00  0.00    +0.000 H 
BRANCH   28   27
ATOM    129  H29 UNL A   1      19.531  57.208   2.435  1.00  0.00    +0.000 H 
ATOM    130  H30 UNL A   1      18.252  57.157   1.180  1.00  0.00    +0.000 H 
ATOM     27  C22 UNL A   1      19.205  56.792   1.504  1.00  0.00    +0.000 C 
BRANCH   27   26
ATOM     26  C21 UNL A   1      19.033  55.281   1.698  1.00  0.00    +0.000 C 
ATOM    127  H27 UNL A   1      19.871  54.787   1.254  1.00  0.00    +0.000 H 
ATOM    128  H28 UNL A   1      18.965  55.111   2.753  1.00  0.00    +0.000 H 
BRANCH   26   25
ATOM     25  C20 UNL A   1      17.755  54.714   1.078  1.00  0.00    +0.000 C 
ATOM    125  H25 UNL A   1      17.023  54.591   1.849  1.00  0.00    +0.000 H 
ATOM    126  H26 UNL A   1      17.419  55.400   0.330  1.00  0.00    +0.000 H 
BRANCH   25   24
ATOM    124  H24 UNL A   1      18.714  53.429  -0.220  1.00  0.00    +0.000 H 
ATOM     24  N2  UNL A   1      17.984  53.434   0.441  1.00  0.00    +0.000 N 
BRANCH   24   22
ATOM     22  C19 UNL A   1      17.357  52.237   0.601  1.00  0.00    +0.000 C 
ATOM     23  O3  UNL A   1      16.152  52.199   0.323  1.00  0.00    +0.000 O 
BRANCH   22   20
ATOM     20  C17 UNL A   1      18.067  50.973   1.109  1.00  0.00    +0.000 C 
ATOM    120  H20 UNL A   1      19.087  51.249   1.276  1.00  0.00    +0.000 H 
BRANCH   20   19
ATOM     97  C71 UNL A   1      17.482  49.168   2.754  1.00  0.00    +0.000 C 
ATOM     98  C72 UNL A   1      17.092  48.712   4.015  1.00  0.00    +0.000 C 
ATOM     99  F16 UNL A   1      16.953  47.386   4.171  1.00  0.00    +0.000 F 
ATOM     16  C13 UNL A   1      16.838  49.590   5.083  1.00  0.00    +0.000 C 
ATOM     17  C14 UNL A   1      16.945  50.962   4.802  1.00  0.00    +0.000 C 
ATOM     18  C15 UNL A   1      17.296  51.427   3.526  1.00  0.00    +0.000 C 
ATOM     19  C16 UNL A   1      17.599  50.538   2.488  1.00  0.00    +0.000 C 
ATOM    118  H18 UNL A   1      16.762  51.644   5.555  1.00  0.00    +0.000 H 
ATOM    119  H19 UNL A   1      17.332  52.444   3.348  1.00  0.00    +0.000 H 
ATOM    152  H52 UNL A   1      17.686  48.486   2.008  1.00  0.00    +0.000 H 
BRANCH   16   15
ATOM    100  C73 UNL A   1      16.894  49.768   7.592  1.00  0.00    +0.000 C 
ATOM     11  C8  UNL A   1      16.659  49.252   8.871  1.00  0.00    +0.000 C 
ATOM     12  C9  UNL A   1      15.934  48.068   9.008  1.00  0.00    +0.000 C 
ATOM     13  C10 UNL A   1      15.435  47.423   7.879  1.00  0.00    +0.000 C 
ATOM     14  C11 UNL A   1      15.708  47.926   6.604  1.00  0.00    +0.000 C 
ATOM     15  C12 UNL A   1      16.465  49.098   6.429  1.00  0.00    +0.000 C 
ATOM    115  H15 UNL A   1      15.768  47.671   9.945  1.00  0.00    +0.000 H 
ATOM    116  H16 UNL A   1      14.862  46.571   7.985  1.00  0.00    +0.000 H 
ATOM    117  H17 UNL A   1      15.348  47.428   5.775  1.00  0.00    +0.000 H 
ATOM    153  H53 UNL A   1      17.398  50.664   7.497  1.00  0.00    +0.000 H 
BRANCH   11   10
ATOM     10  N1  UNL A   1      17.228  49.810  10.026  1.00  0.00    +0.000 N 
ATOM    114  H14 UNL A   1      18.162  49.557  10.205  1.00  0.00    +0.000 H 
BRANCH   10    8
ATOM      9  O2  UNL A   1      17.264  51.002  11.942  1.00  0.00    +0.000 O 
ATOM      8  C7  UNL A   1      16.659  50.659  10.937  1.00  0.00    +0.000 C 
BRANCH    8    7
ATOM      7  O1  UNL A   1      15.360  50.951  10.667  1.00  0.00    +0.000 O 
BRANCH    7    6
ATOM    113  H13 UNL A   1      14.820  52.113   9.081  1.00  0.00    +0.000 H 
ATOM      6  C6  UNL A   1      15.069  52.244  10.113  1.00  0.00    +0.000 C 
ATOM    112  H12 UNL A   1      15.931  52.871  10.228  1.00  0.00    +0.000 H 
BRANCH    6    5
ATOM      5  C5  UNL A   1      13.877  52.915  10.805  1.00  0.00    +0.000 C 
ATOM    110  H10 UNL A   1      13.369  53.513  10.077  1.00  0.00    +0.000 H 
ATOM    111  H11 UNL A   1      13.287  52.116  11.203  1.00  0.00    +0.000 H 
BRANCH    5    4
ATOM    108  H8  UNL A   1      15.022  54.458  11.713  1.00  0.00    +0.000 H 
ATOM      4  C4  UNL A   1      14.216  53.816  12.000  1.00  0.00    +0.000 C 
ATOM    109  H9  UNL A   1      13.315  54.343  12.240  1.00  0.00    +0.000 H 
BRANCH    4    3
ATOM    106  H6  UNL A   1      15.636  52.730  13.150  1.00  0.00    +0.000 H 
ATOM      3  C3  UNL A   1      14.630  53.076  13.278  1.00  0.00    +0.000 C 
ATOM    107  H7  UNL A   1      14.522  53.775  14.080  1.00  0.00    +0.000 H 
BRANCH    3    2
ATOM    105  H5  UNL A   1      13.361  51.478  12.726  1.00  0.00    +0.000 H 
ATOM      2  C2  UNL A   1      13.757  51.872  13.639  1.00  0.00    +0.000 C 
ATOM    104  H4  UNL A   1      12.982  52.198  14.300  1.00  0.00    +0.000 H 
BRANCH    2    1
ATOM      1  C1  UNL A   1      14.539  50.759  14.318  1.00  0.00    +0.000 C 
ATOM    101  H1  UNL A   1      13.985  50.395  15.158  1.00  0.00    +0.000 H 
ATOM    102  H2  UNL A   1      15.483  51.138  14.650  1.00  0.00    +0.000 H 
ATOM    103  H3  UNL A   1      14.699  49.961  13.624  1.00  0.00    +0.000 H 
ENDBRANCH    2    1
ENDBRANCH    3    2
ENDBRANCH    4    3
ENDBRANCH    5    4
ENDBRANCH    6    5
ENDBRANCH    7    6
ENDBRANCH    8    7
ENDBRANCH   10    8
ENDBRANCH   11   10
ENDBRANCH   16   15
ENDBRANCH   20   19
BRANCH   20   21
ATOM    121  H21 UNL A   1      19.123  50.022  -0.489  1.00  0.00    +0.000 H 
ATOM    122  H22 UNL A   1      17.383  49.908  -0.616  1.00  0.00    +0.000 H 
ATOM    123  H23 UNL A   1      18.242  48.918   0.541  1.00  0.00    +0.000 H 
ATOM     21  C18 UNL A   1      18.215  49.873   0.057  1.00  0.00    +0.000 C 
ENDBRANCH   20   21
ENDBRANCH   22   20
ENDBRANCH   24   22
ENDBRANCH   25   24
ENDBRANCH   26   25
ENDBRANCH   27   26
ENDBRANCH   28   27
ENDBRANCH   29   28
ENDBRANCH   30   29
ENDBRANCH   31   30
ENDBRANCH   32   31
ENDBRANCH   34   32
ENDBRANCH   38   37
BRANCH   42   43
ATOM     43  C35 UNL A   1      20.828  64.925   3.671  1.00  0.00    +0.000 C 
ATOM     44  C36 UNL A   1      19.962  65.591   2.792  1.00  0.00    +0.000 C 
ATOM     45  F1  UNL A   1      20.429  66.101   1.642  1.00  0.00    +0.000 F 
ATOM     46  C37 UNL A   1      18.617  65.764   3.109  1.00  0.00    +0.000 C 
ATOM     47  F2  UNL A   1      17.815  66.437   2.272  1.00  0.00    +0.000 F 
ATOM     48  C38 UNL A   1      18.109  65.253   4.294  1.00  0.00    +0.000 C 
ATOM     49  F3  UNL A   1      16.813  65.416   4.594  1.00  0.00    +0.000 F 
ATOM     50  C39 UNL A   1      18.945  64.578   5.170  1.00  0.00    +0.000 C 
ATOM     51  F4  UNL A   1      18.454  64.076   6.311  1.00  0.00    +0.000 F 
ATOM     52  C40 UNL A   1      20.295  64.422   4.867  1.00  0.00    +0.000 C 
ATOM     53  F5  UNL A   1      21.083  63.774   5.739  1.00  0.00    +0.000 F 
ENDBRANCH   42   43
BRANCH   59   60
ATOM     65  C49 UNL A   1      28.314  69.505   7.311  1.00  0.00    +0.000 C 
ATOM     66  F8  UNL A   1      28.810  70.405   8.171  1.00  0.00    +0.000 F 
ATOM     67  C50 UNL A   1      28.113  69.850   5.984  1.00  0.00    +0.000 C 
ATOM     68  F9  UNL A   1      28.431  71.081   5.556  1.00  0.00    +0.000 F 
ATOM     69  C51 UNL A   1      27.577  68.924   5.095  1.00  0.00    +0.000 C 
ATOM     70  F10 UNL A   1      27.381  69.288   3.819  1.00  0.00    +0.000 F 
ATOM     60  C46 UNL A   1      27.246  67.628   5.518  1.00  0.00    +0.000 C 
ATOM     61  C47 UNL A   1      27.473  67.294   6.861  1.00  0.00    +0.000 C 
ATOM     62  F6  UNL A   1      27.157  66.071   7.314  1.00  0.00    +0.000 F 
ATOM     63  C48 UNL A   1      27.990  68.230   7.751  1.00  0.00    +0.000 C 
ATOM     64  F7  UNL A   1      28.161  67.903   9.040  1.00  0.00    +0.000 F 
ENDBRANCH   59   60
BRANCH   74   75
ATOM     75  C55 UNL A   1      30.263  63.480   0.820  1.00  0.00    +0.000 C 
ATOM     76  C56 UNL A   1      31.131  62.619   1.506  1.00  0.00    +0.000 C 
ATOM     77  F11 UNL A   1      30.699  61.959   2.590  1.00  0.00    +0.000 F 
ATOM     78  C57 UNL A   1      32.456  62.467   1.105  1.00  0.00    +0.000 C 
ATOM     79  F12 UNL A   1      33.277  61.670   1.801  1.00  0.00    +0.000 F 
ATOM     80  C58 UNL A   1      32.931  63.153  -0.004  1.00  0.00    +0.000 C 
ATOM     81  F13 UNL A   1      34.206  63.007  -0.390  1.00  0.00    +0.000 F 
ATOM     82  C59 UNL A   1      32.083  63.996  -0.708  1.00  0.00    +0.000 C 
ATOM     83  F14 UNL A   1      32.536  64.653  -1.784  1.00  0.00    +0.000 F 
ATOM     84  C60 UNL A   1      30.764  64.167  -0.294  1.00  0.00    +0.000 C 
ATOM     85  F15 UNL A   1      29.969  64.997  -0.985  1.00  0.00    +0.000 F 
ENDBRANCH   74   75
TORSDOF 27
ENDMDL
MODEL 4
REMARK VINA RESULT:      -6.3     47.789     52.978
ROOT
ATOM    140  H40 UNL A   1       3.474  31.789  -1.960  1.00  0.00    +0.000 H 
ATOM    141  H41 UNL A   1       5.183  33.033  -3.489  1.00  0.00    +0.000 H 
ATOM    142  H42 UNL A   1       7.289  30.532  -0.948  1.00  0.00    +0.000 H 
ATOM    143  H43 UNL A   1      12.841  28.134   1.088  1.00  0.00    +0.000 H 
ATOM    144  H44 UNL A   1      11.184  26.999   2.644  1.00  0.00    +0.000 H 
ATOM    145  H45 UNL A   1       9.035  29.470   0.082  1.00  0.00    +0.000 H 
ATOM    146  H46 UNL A   1      12.448  31.728  -2.843  1.00  0.00    +0.000 H 
ATOM    147  H47 UNL A   1      10.518  33.091  -3.828  1.00  0.00    +0.000 H 
ATOM    148  H48 UNL A   1       3.957  28.147   1.943  1.00  0.00    +0.000 H 
ATOM    149  H49 UNL A   1       5.896  27.155   3.290  1.00  0.00    +0.000 H 
ATOM     38  C31 UNL A   1       8.467  27.749   2.210  1.00  0.00    +0.000 C 
ATOM     39  C32 UNL A   1       7.132  28.260   1.742  1.00  0.00    +0.000 C 
ATOM     40  N4  UNL A   1       6.857  29.080   0.757  1.00  0.00    +0.000 N 
ATOM     41  C33 UNL A   1       5.472  29.179   0.723  1.00  0.00    +0.000 C 
ATOM     42  C34 UNL A   1       4.698  29.934  -0.094  1.00  0.00    +0.000 C 
ATOM     54  C41 UNL A   1       5.204  30.830  -1.098  1.00  0.00    +0.000 C 
ATOM     55  C42 UNL A   1       4.499  31.676  -1.938  1.00  0.00    +0.000 C 
ATOM     56  C43 UNL A   1       5.417  32.351  -2.751  1.00  0.00    +0.000 C 
ATOM     57  C44 UNL A   1       6.693  31.946  -2.397  1.00  0.00    +0.000 C 
ATOM     58  N5  UNL A   1       6.547  31.005  -1.390  1.00  0.00    +0.000 N 
ATOM     59  C45 UNL A   1       7.955  32.387  -2.929  1.00  0.00    +0.000 C 
ATOM     71  C52 UNL A   1       9.165  31.901  -2.562  1.00  0.00    +0.000 C 
ATOM     72  N6  UNL A   1       9.465  30.925  -1.622  1.00  0.00    +0.000 N 
ATOM     73  C53 UNL A   1      10.768  30.797  -1.639  1.00  0.00    +0.000 C 
ATOM     74  C54 UNL A   1      11.644  29.907  -0.802  1.00  0.00    +0.000 C 
ATOM     86  C61 UNL A   1      11.090  29.146   0.160  1.00  0.00    +0.000 C 
ATOM     87  C62 UNL A   1      11.818  28.271   1.076  1.00  0.00    +0.000 C 
ATOM     88  C63 UNL A   1      10.943  27.674   1.902  1.00  0.00    +0.000 C 
ATOM     89  C64 UNL A   1       9.592  28.135   1.579  1.00  0.00    +0.000 C 
ATOM     90  N7  UNL A   1       9.776  29.000   0.529  1.00  0.00    +0.000 N 
ATOM     91  C65 UNL A   1      11.444  31.664  -2.615  1.00  0.00    +0.000 C 
ATOM     92  C66 UNL A   1      10.426  32.343  -3.123  1.00  0.00    +0.000 C 
ATOM     93  C67 UNL A   1       4.960  28.315   1.765  1.00  0.00    +0.000 C 
ATOM     94  C68 UNL A   1       5.947  27.768   2.461  1.00  0.00    +0.000 C 
ENDROOT
BRANCH   38   37
ATOM     34  C27 UNL A   1       8.587  24.988   5.499  1.00  0.00    +0.000 C 
ATOM     35  C28 UNL A   1       8.755  26.360   5.726  1.00  0.00    +0.000 C 
ATOM     36  C29 UNL A   1       8.724  27.258   4.656  1.00  0.00    +0.000 C 
ATOM     37  C30 UNL A   1       8.545  26.794   3.344  1.00  0.00    +0.000 C 
ATOM    138  H38 UNL A   1       8.903  26.708   6.686  1.00  0.00    +0.000 H 
ATOM    139  H39 UNL A   1       8.833  28.270   4.833  1.00  0.00    +0.000 H 
ATOM    150  H50 UNL A   1       8.290  25.061   2.159  1.00  0.00    +0.000 H 
ATOM    151  H51 UNL A   1       8.195  23.521   4.031  1.00  0.00    +0.000 H 
ATOM     95  C69 UNL A   1       8.391  25.417   3.123  1.00  0.00    +0.000 C 
ATOM     96  C70 UNL A   1       8.370  24.525   4.198  1.00  0.00    +0.000 C 
BRANCH   34   32
ATOM     33  O4  UNL A   1       9.562  23.530   7.053  1.00  0.00    +0.000 O 
ATOM     32  C26 UNL A   1       8.533  24.085   6.674  1.00  0.00    +0.000 C 
BRANCH   32   31
ATOM    137  H37 UNL A   1       7.447  23.860   8.335  1.00  0.00    +0.000 H 
ATOM     31  N3  UNL A   1       7.364  23.862   7.354  1.00  0.00    +0.000 N 
BRANCH   31   30
ATOM     30  C25 UNL A   1       6.020  23.630   6.855  1.00  0.00    +0.000 C 
ATOM    135  H35 UNL A   1       6.081  23.290   5.842  1.00  0.00    +0.000 H 
ATOM    136  H36 UNL A   1       5.557  22.896   7.482  1.00  0.00    +0.000 H 
BRANCH   30   29
ATOM    133  H33 UNL A   1       4.160  24.608   7.131  1.00  0.00    +0.000 H 
ATOM     29  C24 UNL A   1       5.165  24.896   6.901  1.00  0.00    +0.000 C 
ATOM    134  H34 UNL A   1       5.612  25.527   7.640  1.00  0.00    +0.000 H 
BRANCH   29   28
ATOM    131  H31 UNL A   1       5.231  26.748   5.869  1.00  0.00    +0.000 H 
ATOM     28  C23 UNL A   1       5.137  25.716   5.605  1.00  0.00    +0.000 C 
ATOM    132  H32 UNL A   1       5.944  25.341   5.009  1.00  0.00    +0.000 H 
BRANCH   28   27
ATOM    129  H29 UNL A   1       3.032  25.524   5.394  1.00  0.00    +0.000 H 
ATOM    130  H30 UNL A   1       3.873  26.406   4.079  1.00  0.00    +0.000 H 
ATOM     27  C22 UNL A   1       3.879  25.565   4.741  1.00  0.00    +0.000 C 
BRANCH   27   26
ATOM     26  C21 UNL A   1       3.842  24.323   3.843  1.00  0.00    +0.000 C 
ATOM    127  H27 UNL A   1       3.667  23.467   4.458  1.00  0.00    +0.000 H 
ATOM    128  H28 UNL A   1       3.062  24.483   3.127  1.00  0.00    +0.000 H 
BRANCH   26   25
ATOM     25  C20 UNL A   1       5.127  24.090   3.047  1.00  0.00    +0.000 C 
ATOM    125  H25 UNL A   1       5.557  25.039   2.801  1.00  0.00    +0.000 H 
ATOM    126  H26 UNL A   1       5.790  23.510   3.653  1.00  0.00    +0.000 H 
BRANCH   25   24
ATOM    124  H24 UNL A   1       4.346  22.539   1.936  1.00  0.00    +0.000 H 
ATOM     24  N2  UNL A   1       4.882  23.357   1.823  1.00  0.00    +0.000 N 
BRANCH   24   22
ATOM     22  C19 UNL A   1       5.271  23.607   0.543  1.00  0.00    +0.000 C 
ATOM     23  O3  UNL A   1       5.066  22.712  -0.285  1.00  0.00    +0.000 O 
BRANCH   22   20
ATOM     20  C17 UNL A   1       5.943  24.917   0.107  1.00  0.00    +0.000 C 
ATOM    120  H20 UNL A   1       5.957  25.549   0.970  1.00  0.00    +0.000 H 
BRANCH   20   19
ATOM     97  C71 UNL A   1       8.076  25.790  -0.893  1.00  0.00    +0.000 C 
ATOM     98  C72 UNL A   1       9.437  25.706  -1.187  1.00  0.00    +0.000 C 
ATOM     99  F16 UNL A   1       9.978  26.721  -1.880  1.00  0.00    +0.000 F 
ATOM     16  C13 UNL A   1      10.222  24.608  -0.795  1.00  0.00    +0.000 C 
ATOM     17  C14 UNL A   1       9.551  23.566  -0.134  1.00  0.00    +0.000 C 
ATOM     18  C15 UNL A   1       8.173  23.626   0.128  1.00  0.00    +0.000 C 
ATOM     19  C16 UNL A   1       7.417  24.751  -0.221  1.00  0.00    +0.000 C 
ATOM    118  H18 UNL A   1      10.085  22.736   0.168  1.00  0.00    +0.000 H 
ATOM    119  H19 UNL A   1       7.708  22.826   0.585  1.00  0.00    +0.000 H 
ATOM    152  H52 UNL A   1       7.546  26.629  -1.175  1.00  0.00    +0.000 H 
BRANCH   16   15
ATOM    100  C73 UNL A   1      12.225  23.484  -1.822  1.00  0.00    +0.000 C 
ATOM     11  C8  UNL A   1      13.607  23.338  -1.989  1.00  0.00    +0.000 C 
ATOM     12  C9  UNL A   1      14.466  24.292  -1.446  1.00  0.00    +0.000 C 
ATOM     13  C10 UNL A   1      13.946  25.389  -0.763  1.00  0.00    +0.000 C 
ATOM     14  C11 UNL A   1      12.567  25.506  -0.568  1.00  0.00    +0.000 C 
ATOM     15  C12 UNL A   1      11.675  24.543  -1.073  1.00  0.00    +0.000 C 
ATOM    115  H15 UNL A   1      15.487  24.186  -1.550  1.00  0.00    +0.000 H 
ATOM    116  H16 UNL A   1      14.582  26.117  -0.399  1.00  0.00    +0.000 H 
ATOM    117  H17 UNL A   1      12.196  26.313  -0.044  1.00  0.00    +0.000 H 
ATOM    153  H53 UNL A   1      11.591  22.797  -2.258  1.00  0.00    +0.000 H 
BRANCH   11   10
ATOM     10  N1  UNL A   1      14.179  22.200  -2.578  1.00  0.00    +0.000 N 
ATOM    114  H14 UNL A   1      14.185  22.187  -3.562  1.00  0.00    +0.000 H 
BRANCH   10    8
ATOM      9  O2  UNL A   1      15.888  20.778  -2.191  1.00  0.00    +0.000 O 
ATOM      8  C7  UNL A   1      14.732  21.106  -1.968  1.00  0.00    +0.000 C 
BRANCH    8    7
ATOM      7  O1  UNL A   1      13.844  20.393  -1.227  1.00  0.00    +0.000 O 
BRANCH    7    6
ATOM    113  H13 UNL A   1      14.437  21.481   0.391  1.00  0.00    +0.000 H 
ATOM      6  C6  UNL A   1      13.804  20.644   0.187  1.00  0.00    +0.000 C 
ATOM    112  H12 UNL A   1      14.140  19.768   0.703  1.00  0.00    +0.000 H 
BRANCH    6    5
ATOM      5  C5  UNL A   1      12.392  20.990   0.673  1.00  0.00    +0.000 C 
ATOM    110  H10 UNL A   1      11.956  21.662  -0.036  1.00  0.00    +0.000 H 
ATOM    111  H11 UNL A   1      11.879  20.054   0.760  1.00  0.00    +0.000 H 
BRANCH    5    4
ATOM    108  H8  UNL A   1      11.275  21.638   2.361  1.00  0.00    +0.000 H 
ATOM      4  C4  UNL A   1      12.301  21.643   2.059  1.00  0.00    +0.000 C 
ATOM    109  H9  UNL A   1      12.938  21.070   2.700  1.00  0.00    +0.000 H 
BRANCH    4    3
ATOM    106  H6  UNL A   1      13.726  23.089   2.688  1.00  0.00    +0.000 H 
ATOM      3  C3  UNL A   1      12.811  23.088   2.133  1.00  0.00    +0.000 C 
ATOM    107  H7  UNL A   1      12.929  23.417   1.122  1.00  0.00    +0.000 H 
BRANCH    3    2
ATOM    105  H5  UNL A   1      10.855  23.767   2.560  1.00  0.00    +0.000 H 
ATOM      2  C2  UNL A   1      11.851  24.078   2.796  1.00  0.00    +0.000 C 
ATOM    104  H4  UNL A   1      12.060  25.058   2.422  1.00  0.00    +0.000 H 
BRANCH    2    1
ATOM      1  C1  UNL A   1      11.979  24.098   4.310  1.00  0.00    +0.000 C 
ATOM    101  H1  UNL A   1      11.273  23.415   4.737  1.00  0.00    +0.000 H 
ATOM    102  H2  UNL A   1      11.783  25.086   4.672  1.00  0.00    +0.000 H 
ATOM    103  H3  UNL A   1      12.970  23.806   4.589  1.00  0.00    +0.000 H 
ENDBRANCH    2    1
ENDBRANCH    3    2
ENDBRANCH    4    3
ENDBRANCH    5    4
ENDBRANCH    6    5
ENDBRANCH    7    6
ENDBRANCH    8    7
ENDBRANCH   10    8
ENDBRANCH   11   10
ENDBRANCH   16   15
ENDBRANCH   20   19
BRANCH   20   21
ATOM    121  H21 UNL A   1       5.589  25.759  -1.828  1.00  0.00    +0.000 H 
ATOM    122  H22 UNL A   1       5.032  26.755  -0.503  1.00  0.00    +0.000 H 
ATOM    123  H23 UNL A   1       4.135  25.326  -0.960  1.00  0.00    +0.000 H 
ATOM     21  C18 UNL A   1       5.113  25.752  -0.869  1.00  0.00    +0.000 C 
ENDBRANCH   20   21
ENDBRANCH   22   20
ENDBRANCH   24   22
ENDBRANCH   25   24
ENDBRANCH   26   25
ENDBRANCH   27   26
ENDBRANCH   28   27
ENDBRANCH   29   28
ENDBRANCH   30   29
ENDBRANCH   31   30
ENDBRANCH   32   31
ENDBRANCH   34   32
ENDBRANCH   38   37
BRANCH   42   43
ATOM     43  C35 UNL A   1       3.211  29.827   0.072  1.00  0.00    +0.000 C 
ATOM     44  C36 UNL A   1       2.475  28.812  -0.556  1.00  0.00    +0.000 C 
ATOM     45  F1  UNL A   1       3.088  27.937  -1.368  1.00  0.00    +0.000 F 
ATOM     46  C37 UNL A   1       1.098  28.714  -0.378  1.00  0.00    +0.000 C 
ATOM     47  F2  UNL A   1       0.407  27.760  -1.018  1.00  0.00    +0.000 F 
ATOM     48  C38 UNL A   1       0.437  29.610   0.450  1.00  0.00    +0.000 C 
ATOM     49  F3  UNL A   1      -0.889  29.510   0.625  1.00  0.00    +0.000 F 
ATOM     50  C39 UNL A   1       1.148  30.611   1.093  1.00  0.00    +0.000 C 
ATOM     51  F4  UNL A   1       0.512  31.471   1.900  1.00  0.00    +0.000 F 
ATOM     52  C40 UNL A   1       2.522  30.726   0.899  1.00  0.00    +0.000 C 
ATOM     53  F5  UNL A   1       3.183  31.712   1.526  1.00  0.00    +0.000 F 
ENDBRANCH   42   43
BRANCH   59   60
ATOM     65  C49 UNL A   1       7.935  35.490  -5.913  1.00  0.00    +0.000 C 
ATOM     66  F8  UNL A   1       7.918  36.454  -6.844  1.00  0.00    +0.000 F 
ATOM     67  C50 UNL A   1       7.742  34.167  -6.281  1.00  0.00    +0.000 C 
ATOM     68  F9  UNL A   1       7.555  33.850  -7.570  1.00  0.00    +0.000 F 
ATOM     69  C51 UNL A   1       7.737  33.167  -5.313  1.00  0.00    +0.000 C 
ATOM     70  F10 UNL A   1       7.534  31.897  -5.693  1.00  0.00    +0.000 F 
ATOM     60  C46 UNL A   1       7.939  33.475  -3.959  1.00  0.00    +0.000 C 
ATOM     61  C47 UNL A   1       8.150  34.817  -3.611  1.00  0.00    +0.000 C 
ATOM     62  F6  UNL A   1       8.332  35.159  -2.327  1.00  0.00    +0.000 F 
ATOM     63  C48 UNL A   1       8.134  35.815  -4.579  1.00  0.00    +0.000 C 
ATOM     64  F7  UNL A   1       8.296  37.097  -4.221  1.00  0.00    +0.000 F 
ENDBRANCH   59   60
BRANCH   74   75
ATOM     75  C55 UNL A   1      13.115  29.893  -0.998  1.00  0.00    +0.000 C 
ATOM     76  C56 UNL A   1      13.713  28.980  -1.878  1.00  0.00    +0.000 C 
ATOM     77  F11 UNL A   1      12.955  28.096  -2.542  1.00  0.00    +0.000 F 
ATOM     78  C57 UNL A   1      15.095  28.946  -2.045  1.00  0.00    +0.000 C 
ATOM     79  F12 UNL A   1      15.646  28.037  -2.862  1.00  0.00    +0.000 F 
ATOM     80  C58 UNL A   1      15.902  29.839  -1.356  1.00  0.00    +0.000 C 
ATOM     81  F13 UNL A   1      17.232  29.806  -1.517  1.00  0.00    +0.000 F 
ATOM     82  C59 UNL A   1      15.329  30.762  -0.494  1.00  0.00    +0.000 C 
ATOM     83  F14 UNL A   1      16.105  31.633   0.166  1.00  0.00    +0.000 F 
ATOM     84  C60 UNL A   1      13.949  30.783  -0.308  1.00  0.00    +0.000 C 
ATOM     85  F15 UNL A   1      13.421  31.677   0.540  1.00  0.00    +0.000 F 
ENDBRANCH   74   75
TORSDOF 27
ENDMDL
MODEL 5
REMARK VINA RESULT:      -6.2     27.207     32.586
ROOT
ATOM    140  H40 UNL A   1      41.788  13.635  49.655  1.00  0.00    +0.000 H 
ATOM    141  H41 UNL A   1      42.323  12.498  47.370  1.00  0.00    +0.000 H 
ATOM    142  H42 UNL A   1      43.940  16.310  47.338  1.00  0.00    +0.000 H 
ATOM    143  H43 UNL A   1      47.235  20.885  44.350  1.00  0.00    +0.000 H 
ATOM    144  H44 UNL A   1      46.627  22.028  46.536  1.00  0.00    +0.000 H 
ATOM    145  H45 UNL A   1      45.024  18.192  46.617  1.00  0.00    +0.000 H 
ATOM    146  H46 UNL A   1      46.205  16.109  42.193  1.00  0.00    +0.000 H 
ATOM    147  H47 UNL A   1      44.790  14.098  42.904  1.00  0.00    +0.000 H 
ATOM    148  H48 UNL A   1      42.908  18.436  51.761  1.00  0.00    +0.000 H 
ATOM    149  H49 UNL A   1      43.872  20.639  50.882  1.00  0.00    +0.000 H 
ATOM     38  C31 UNL A   1      45.068  20.421  48.303  1.00  0.00    +0.000 C 
ATOM     39  C32 UNL A   1      44.315  19.362  49.060  1.00  0.00    +0.000 C 
ATOM     40  N4  UNL A   1      44.040  18.129  48.710  1.00  0.00    +0.000 N 
ATOM     41  C33 UNL A   1      43.372  17.569  49.790  1.00  0.00    +0.000 C 
ATOM     42  C34 UNL A   1      42.846  16.325  49.908  1.00  0.00    +0.000 C 
ATOM     54  C41 UNL A   1      42.867  15.330  48.870  1.00  0.00    +0.000 C 
ATOM     55  C42 UNL A   1      42.314  14.060  48.877  1.00  0.00    +0.000 C 
ATOM     56  C43 UNL A   1      42.593  13.454  47.646  1.00  0.00    +0.000 C 
ATOM     57  C44 UNL A   1      43.293  14.358  46.864  1.00  0.00    +0.000 C 
ATOM     58  N5  UNL A   1      43.464  15.499  47.631  1.00  0.00    +0.000 N 
ATOM     59  C45 UNL A   1      43.768  14.198  45.515  1.00  0.00    +0.000 C 
ATOM     71  C52 UNL A   1      44.495  15.116  44.834  1.00  0.00    +0.000 C 
ATOM     72  N6  UNL A   1      44.920  16.372  45.245  1.00  0.00    +0.000 N 
ATOM     73  C53 UNL A   1      45.600  16.868  44.241  1.00  0.00    +0.000 C 
ATOM     74  C54 UNL A   1      46.263  18.212  44.117  1.00  0.00    +0.000 C 
ATOM     86  C61 UNL A   1      46.138  19.107  45.115  1.00  0.00    +0.000 C 
ATOM     87  C62 UNL A   1      46.687  20.461  45.114  1.00  0.00    +0.000 C 
ATOM     88  C63 UNL A   1      46.362  21.068  46.268  1.00  0.00    +0.000 C 
ATOM     89  C64 UNL A   1      45.571  20.146  47.085  1.00  0.00    +0.000 C 
ATOM     90  N7  UNL A   1      45.495  19.006  46.323  1.00  0.00    +0.000 N 
ATOM     91  C65 UNL A   1      45.703  15.968  43.083  1.00  0.00    +0.000 C 
ATOM     92  C66 UNL A   1      44.981  14.932  43.482  1.00  0.00    +0.000 C 
ATOM     93  C67 UNL A   1      43.306  18.584  50.820  1.00  0.00    +0.000 C 
ATOM     94  C68 UNL A   1      43.824  19.728  50.398  1.00  0.00    +0.000 C 
ENDROOT
BRANCH   38   37
ATOM     34  C27 UNL A   1      45.735  24.327  49.964  1.00  0.00    +0.000 C 
ATOM     35  C28 UNL A   1      46.714  23.333  50.088  1.00  0.00    +0.000 C 
ATOM     36  C29 UNL A   1      46.496  22.060  49.555  1.00  0.00    +0.000 C 
ATOM     37  C30 UNL A   1      45.287  21.759  48.909  1.00  0.00    +0.000 C 
ATOM    138  H38 UNL A   1      47.599  23.541  50.576  1.00  0.00    +0.000 H 
ATOM    139  H39 UNL A   1      47.228  21.337  49.637  1.00  0.00    +0.000 H 
ATOM    150  H50 UNL A   1      43.400  22.536  48.355  1.00  0.00    +0.000 H 
ATOM    151  H51 UNL A   1      43.841  24.785  49.149  1.00  0.00    +0.000 H 
ATOM     95  C69 UNL A   1      44.305  22.755  48.800  1.00  0.00    +0.000 C 
ATOM     96  C70 UNL A   1      44.545  24.042  49.287  1.00  0.00    +0.000 C 
BRANCH   34   32
ATOM     33  O4  UNL A   1      46.663  26.467  49.736  1.00  0.00    +0.000 O 
ATOM     32  C26 UNL A   1      46.050  25.687  50.462  1.00  0.00    +0.000 C 
BRANCH   32   31
ATOM    137  H37 UNL A   1      45.007  26.831  51.723  1.00  0.00    +0.000 H 
ATOM     31  N3  UNL A   1      45.666  26.100  51.711  1.00  0.00    +0.000 N 
BRANCH   31   30
ATOM     30  C25 UNL A   1      46.077  25.627  53.021  1.00  0.00    +0.000 C 
ATOM    135  H35 UNL A   1      47.082  25.264  52.959  1.00  0.00    +0.000 H 
ATOM    136  H36 UNL A   1      46.003  26.446  53.707  1.00  0.00    +0.000 H 
BRANCH   30   29
ATOM    133  H33 UNL A   1      45.537  23.580  53.127  1.00  0.00    +0.000 H 
ATOM     29  C24 UNL A   1      45.176  24.502  53.533  1.00  0.00    +0.000 C 
ATOM    134  H34 UNL A   1      45.223  24.550  54.600  1.00  0.00    +0.000 H 
BRANCH   29   28
ATOM    131  H31 UNL A   1      43.197  25.118  53.979  1.00  0.00    +0.000 H 
ATOM     28  C23 UNL A   1      43.693  24.632  53.167  1.00  0.00    +0.000 C 
ATOM    132  H32 UNL A   1      43.669  25.180  52.248  1.00  0.00    +0.000 H 
BRANCH   28   27
ATOM    129  H29 UNL A   1      42.196  23.197  53.631  1.00  0.00    +0.000 H 
ATOM    130  H30 UNL A   1      42.566  23.405  51.889  1.00  0.00    +0.000 H 
ATOM     27  C22 UNL A   1      42.953  23.318  52.884  1.00  0.00    +0.000 C 
BRANCH   27   26
ATOM     26  C21 UNL A   1      43.824  22.057  52.887  1.00  0.00    +0.000 C 
ATOM    127  H27 UNL A   1      43.802  21.629  51.907  1.00  0.00    +0.000 H 
ATOM    128  H28 UNL A   1      44.807  22.361  53.182  1.00  0.00    +0.000 H 
BRANCH   26   25
ATOM     25  C20 UNL A   1      43.374  20.991  53.887  1.00  0.00    +0.000 C 
ATOM    125  H25 UNL A   1      42.314  21.063  54.015  1.00  0.00    +0.000 H 
ATOM    126  H26 UNL A   1      43.654  20.034  53.499  1.00  0.00    +0.000 H 
BRANCH   25   24
ATOM    124  H24 UNL A   1      43.402  21.408  55.907  1.00  0.00    +0.000 H 
ATOM     24  N2  UNL A   1      44.012  21.155  55.177  1.00  0.00    +0.000 N 
BRANCH   24   22
ATOM     22  C19 UNL A   1      45.314  21.019  55.549  1.00  0.00    +0.000 C 
ATOM     23  O3  UNL A   1      45.888  22.041  55.943  1.00  0.00    +0.000 O 
BRANCH   22   20
ATOM     20  C17 UNL A   1      46.075  19.686  55.488  1.00  0.00    +0.000 C 
ATOM    120  H20 UNL A   1      45.365  18.925  55.735  1.00  0.00    +0.000 H 
BRANCH   20   19
ATOM     97  C71 UNL A   1      46.396  17.969  53.683  1.00  0.00    +0.000 C 
ATOM     98  C72 UNL A   1      46.744  17.574  52.390  1.00  0.00    +0.000 C 
ATOM     99  F16 UNL A   1      46.660  16.264  52.107  1.00  0.00    +0.000 F 
ATOM     16  C13 UNL A   1      47.177  18.490  51.417  1.00  0.00    +0.000 C 
ATOM     17  C14 UNL A   1      47.296  19.828  51.829  1.00  0.00    +0.000 C 
ATOM     18  C15 UNL A   1      46.989  20.225  53.139  1.00  0.00    +0.000 C 
ATOM     19  C16 UNL A   1      46.506  19.308  54.080  1.00  0.00    +0.000 C 
ATOM    118  H18 UNL A   1      47.617  20.536  51.150  1.00  0.00    +0.000 H 
ATOM    119  H19 UNL A   1      47.121  21.211  53.415  1.00  0.00    +0.000 H 
ATOM    152  H52 UNL A   1      46.055  17.266  54.355  1.00  0.00    +0.000 H 
BRANCH   16   15
ATOM    100  C73 UNL A   1      46.961  16.894  49.485  1.00  0.00    +0.000 C 
ATOM     11  C8  UNL A   1      47.353  16.415  48.230  1.00  0.00    +0.000 C 
ATOM     12  C9  UNL A   1      48.271  17.146  47.476  1.00  0.00    +0.000 C 
ATOM     13  C10 UNL A   1      48.770  18.351  47.964  1.00  0.00    +0.000 C 
ATOM     14  C11 UNL A   1      48.401  18.801  49.234  1.00  0.00    +0.000 C 
ATOM     15  C12 UNL A   1      47.505  18.071  50.035  1.00  0.00    +0.000 C 
ATOM    115  H15 UNL A   1      48.579  16.794  46.557  1.00  0.00    +0.000 H 
ATOM    116  H16 UNL A   1      49.415  18.912  47.385  1.00  0.00    +0.000 H 
ATOM    117  H17 UNL A   1      48.792  19.686  49.592  1.00  0.00    +0.000 H 
ATOM    153  H53 UNL A   1      46.253  16.369  50.023  1.00  0.00    +0.000 H 
BRANCH   11   10
ATOM     10  N1  UNL A   1      46.958  15.159  47.744  1.00  0.00    +0.000 N 
ATOM    114  H14 UNL A   1      46.042  14.883  47.973  1.00  0.00    +0.000 H 
BRANCH   10    8
ATOM      9  O2  UNL A   1      47.619  14.288  45.770  1.00  0.00    +0.000 O 
ATOM      8  C7  UNL A   1      47.674  14.268  46.990  1.00  0.00    +0.000 C 
BRANCH    8    7
ATOM      7  O1  UNL A   1      48.314  13.325  47.731  1.00  0.00    +0.000 O 
BRANCH    7    6
ATOM    113  H13 UNL A   1      46.768  13.230  49.056  1.00  0.00    +0.000 H 
ATOM      6  C6  UNL A   1      47.533  12.583  48.681  1.00  0.00    +0.000 C 
ATOM    112  H12 UNL A   1      48.176  12.245  49.468  1.00  0.00    +0.000 H 
BRANCH    6    5
ATOM      5  C5  UNL A   1      46.851  11.366  48.046  1.00  0.00    +0.000 C 
ATOM    110  H10 UNL A   1      46.761  11.552  46.996  1.00  0.00    +0.000 H 
ATOM    111  H11 UNL A   1      47.471  10.528  48.289  1.00  0.00    +0.000 H 
BRANCH    5    4
ATOM    108  H8  UNL A   1      44.752  11.156  47.790  1.00  0.00    +0.000 H 
ATOM      4  C4  UNL A   1      45.456  11.021  48.584  1.00  0.00    +0.000 C 
ATOM    109  H9  UNL A   1      45.514  10.012  48.937  1.00  0.00    +0.000 H 
BRANCH    4    3
ATOM    106  H6  UNL A   1      45.813  12.477  50.091  1.00  0.00    +0.000 H 
ATOM      3  C3  UNL A   1      44.993  11.864  49.779  1.00  0.00    +0.000 C 
ATOM    107  H7  UNL A   1      44.148  12.427  49.440  1.00  0.00    +0.000 H 
BRANCH    3    2
ATOM    105  H5  UNL A   1      45.257  11.156  51.753  1.00  0.00    +0.000 H 
ATOM      2  C2  UNL A   1      44.514  11.060  50.989  1.00  0.00    +0.000 C 
ATOM    104  H4  UNL A   1      44.380  10.041  50.691  1.00  0.00    +0.000 H 
BRANCH    2    1
ATOM      1  C1  UNL A   1      43.201  11.576  51.558  1.00  0.00    +0.000 C 
ATOM    101  H1  UNL A   1      42.489  11.688  50.766  1.00  0.00    +0.000 H 
ATOM    102  H2  UNL A   1      43.364  12.524  52.027  1.00  0.00    +0.000 H 
ATOM    103  H3  UNL A   1      42.826  10.881  52.279  1.00  0.00    +0.000 H 
ENDBRANCH    2    1
ENDBRANCH    3    2
ENDBRANCH    4    3
ENDBRANCH    5    4
ENDBRANCH    6    5
ENDBRANCH    7    6
ENDBRANCH    8    7
ENDBRANCH   10    8
ENDBRANCH   11   10
ENDBRANCH   16   15
ENDBRANCH   20   19
BRANCH   20   21
ATOM    121  H21 UNL A   1      46.760  18.790  57.305  1.00  0.00    +0.000 H 
ATOM    122  H22 UNL A   1      47.279  20.445  57.085  1.00  0.00    +0.000 H 
ATOM    123  H23 UNL A   1      48.034  19.163  56.168  1.00  0.00    +0.000 H 
ATOM     21  C18 UNL A   1      47.114  19.508  56.594  1.00  0.00    +0.000 C 
ENDBRANCH   20   21
ENDBRANCH   22   20
ENDBRANCH   24   22
ENDBRANCH   25   24
ENDBRANCH   26   25
ENDBRANCH   27   26
ENDBRANCH   28   27
ENDBRANCH   29   28
ENDBRANCH   30   29
ENDBRANCH   31   30
ENDBRANCH   32   31
ENDBRANCH   34   32
ENDBRANCH   38   37
BRANCH   42   43
ATOM     43  C35 UNL A   1      42.194  15.971  51.211  1.00  0.00    +0.000 C 
ATOM     44  C36 UNL A   1      40.842  16.251  51.453  1.00  0.00    +0.000 C 
ATOM     45  F1  UNL A   1      40.110  16.894  50.531  1.00  0.00    +0.000 F 
ATOM     46  C37 UNL A   1      40.245  15.899  52.661  1.00  0.00    +0.000 C 
ATOM     47  F2  UNL A   1      38.960  16.209  52.887  1.00  0.00    +0.000 F 
ATOM     48  C38 UNL A   1      40.979  15.239  53.635  1.00  0.00    +0.000 C 
ATOM     49  F3  UNL A   1      40.401  14.897  54.795  1.00  0.00    +0.000 F 
ATOM     50  C39 UNL A   1      42.314  14.940  53.410  1.00  0.00    +0.000 C 
ATOM     51  F4  UNL A   1      43.023  14.295  54.347  1.00  0.00    +0.000 F 
ATOM     52  C40 UNL A   1      42.921  15.310  52.213  1.00  0.00    +0.000 C 
ATOM     53  F5  UNL A   1      44.217  15.017  52.026  1.00  0.00    +0.000 F 
ENDBRANCH   42   43
BRANCH   59   60
ATOM     65  C49 UNL A   1      42.744  10.549  43.474  1.00  0.00    +0.000 C 
ATOM     66  F8  UNL A   1      42.425   9.418  42.829  1.00  0.00    +0.000 F 
ATOM     67  C50 UNL A   1      41.816  11.573  43.580  1.00  0.00    +0.000 C 
ATOM     68  F9  UNL A   1      40.593  11.426  43.051  1.00  0.00    +0.000 F 
ATOM     69  C51 UNL A   1      42.154  12.757  44.230  1.00  0.00    +0.000 C 
ATOM     70  F10 UNL A   1      41.242  13.737  44.306  1.00  0.00    +0.000 F 
ATOM     60  C46 UNL A   1      43.425  12.929  44.798  1.00  0.00    +0.000 C 
ATOM     61  C47 UNL A   1      44.343  11.874  44.694  1.00  0.00    +0.000 C 
ATOM     62  F6  UNL A   1      45.575  12.000  45.210  1.00  0.00    +0.000 F 
ATOM     63  C48 UNL A   1      44.008  10.701  44.026  1.00  0.00    +0.000 C 
ATOM     64  F7  UNL A   1      44.914   9.720  43.903  1.00  0.00    +0.000 F 
ENDBRANCH   59   60
BRANCH   74   75
ATOM     75  C55 UNL A   1      47.014  18.574  42.890  1.00  0.00    +0.000 C 
ATOM     76  C56 UNL A   1      48.407  18.427  42.832  1.00  0.00    +0.000 C 
ATOM     77  F11 UNL A   1      49.076  17.969  43.900  1.00  0.00    +0.000 F 
ATOM     78  C57 UNL A   1      49.119  18.791  41.692  1.00  0.00    +0.000 C 
ATOM     79  F12 UNL A   1      50.454  18.679  41.676  1.00  0.00    +0.000 F 
ATOM     80  C58 UNL A   1      48.451  19.283  40.581  1.00  0.00    +0.000 C 
ATOM     81  F13 UNL A   1      49.136  19.632  39.484  1.00  0.00    +0.000 F 
ATOM     82  C59 UNL A   1      47.071  19.419  40.611  1.00  0.00    +0.000 C 
ATOM     83  F14 UNL A   1      46.421  19.885  39.536  1.00  0.00    +0.000 F 
ATOM     84  C60 UNL A   1      46.359  19.077  41.759  1.00  0.00    +0.000 C 
ATOM     85  F15 UNL A   1      45.027  19.230  41.766  1.00  0.00    +0.000 F 
ENDBRANCH   74   75
TORSDOF 27
ENDMDL
MODEL 6
REMARK VINA RESULT:      -6.2     51.013     58.975
ROOT
ATOM    140  H40 UNL A   1      51.800  17.500   4.291  1.00  0.00    +0.000 H 
ATOM    141  H41 UNL A   1      53.375  16.425   2.511  1.00  0.00    +0.000 H 
ATOM    142  H42 UNL A   1      55.363  16.487   6.143  1.00  0.00    +0.000 H 
ATOM    143  H43 UNL A   1      60.544  15.159   9.624  1.00  0.00    +0.000 H 
ATOM    144  H44 UNL A   1      59.048  16.298  11.333  1.00  0.00    +0.000 H 
ATOM    145  H45 UNL A   1      57.008  16.216   7.712  1.00  0.00    +0.000 H 
ATOM    146  H46 UNL A   1      60.131  14.050   4.416  1.00  0.00    +0.000 H 
ATOM    147  H47 UNL A   1      58.389  14.570   2.614  1.00  0.00    +0.000 H 
ATOM    148  H48 UNL A   1      52.282  18.533   9.529  1.00  0.00    +0.000 H 
ATOM    149  H49 UNL A   1      54.193  18.494  11.232  1.00  0.00    +0.000 H 
ATOM     38  C31 UNL A   1      56.539  17.170  10.297  1.00  0.00    +0.000 C 
ATOM     39  C32 UNL A   1      55.284  17.472   9.525  1.00  0.00    +0.000 C 
ATOM     40  N4  UNL A   1      54.993  17.206   8.275  1.00  0.00    +0.000 N 
ATOM     41  C33 UNL A   1      53.692  17.650   8.085  1.00  0.00    +0.000 C 
ATOM     42  C34 UNL A   1      52.949  17.634   6.952  1.00  0.00    +0.000 C 
ATOM     54  C41 UNL A   1      53.416  17.155   5.679  1.00  0.00    +0.000 C 
ATOM     55  C42 UNL A   1      52.754  17.148   4.462  1.00  0.00    +0.000 C 
ATOM     56  C43 UNL A   1      53.603  16.580   3.504  1.00  0.00    +0.000 C 
ATOM     57  C44 UNL A   1      54.802  16.262   4.121  1.00  0.00    +0.000 C 
ATOM     58  N5  UNL A   1      54.669  16.609   5.455  1.00  0.00    +0.000 N 
ATOM     59  C45 UNL A   1      55.987  15.689   3.538  1.00  0.00    +0.000 C 
ATOM     71  C52 UNL A   1      57.108  15.358   4.222  1.00  0.00    +0.000 C 
ATOM     72  N6  UNL A   1      57.376  15.500   5.577  1.00  0.00    +0.000 N 
ATOM     73  C53 UNL A   1      58.583  15.024   5.756  1.00  0.00    +0.000 C 
ATOM     74  C54 UNL A   1      59.397  14.954   7.018  1.00  0.00    +0.000 C 
ATOM     86  C61 UNL A   1      58.907  15.485   8.154  1.00  0.00    +0.000 C 
ATOM     87  C62 UNL A   1      59.599  15.531   9.439  1.00  0.00    +0.000 C 
ATOM     88  C63 UNL A   1      58.811  16.137  10.343  1.00  0.00    +0.000 C 
ATOM     89  C64 UNL A   1      57.560  16.532   9.694  1.00  0.00    +0.000 C 
ATOM     90  N7  UNL A   1      57.703  16.099   8.399  1.00  0.00    +0.000 N 
ATOM     91  C65 UNL A   1      59.210  14.502   4.533  1.00  0.00    +0.000 C 
ATOM     92  C66 UNL A   1      58.285  14.765   3.623  1.00  0.00    +0.000 C 
ATOM     93  C67 UNL A   1      53.235  18.178   9.354  1.00  0.00    +0.000 C 
ATOM     94  C68 UNL A   1      54.200  18.143  10.262  1.00  0.00    +0.000 C 
ENDROOT
BRANCH   38   37
ATOM     34  C27 UNL A   1      56.737  18.276  14.443  1.00  0.00    +0.000 C 
ATOM     35  C28 UNL A   1      57.082  19.202  13.451  1.00  0.00    +0.000 C 
ATOM     36  C29 UNL A   1      57.026  18.842  12.102  1.00  0.00    +0.000 C 
ATOM     37  C30 UNL A   1      56.643  17.545  11.730  1.00  0.00    +0.000 C 
ATOM    138  H38 UNL A   1      57.380  20.154  13.717  1.00  0.00    +0.000 H 
ATOM    139  H39 UNL A   1      57.267  19.535  11.376  1.00  0.00    +0.000 H 
ATOM    150  H50 UNL A   1      56.059  15.651  12.469  1.00  0.00    +0.000 H 
ATOM    151  H51 UNL A   1      56.014  16.324  14.799  1.00  0.00    +0.000 H 
ATOM     95  C69 UNL A   1      56.312  16.618  12.729  1.00  0.00    +0.000 C 
ATOM     96  C70 UNL A   1      56.318  16.994  14.075  1.00  0.00    +0.000 C 
BRANCH   34   32
ATOM     33  O4  UNL A   1      57.771  18.747  16.493  1.00  0.00    +0.000 O 
ATOM     32  C26 UNL A   1      56.721  18.733  15.854  1.00  0.00    +0.000 C 
BRANCH   32   31
ATOM    137  H37 UNL A   1      54.898  18.445  16.617  1.00  0.00    +0.000 H 
ATOM     31  N3  UNL A   1      55.565  19.152  16.460  1.00  0.00    +0.000 N 
BRANCH   31   30
ATOM     30  C25 UNL A   1      55.169  20.475  16.908  1.00  0.00    +0.000 C 
ATOM    135  H35 UNL A   1      54.865  20.417  17.933  1.00  0.00    +0.000 H 
ATOM    136  H36 UNL A   1      56.009  21.128  16.791  1.00  0.00    +0.000 H 
BRANCH   30   29
ATOM    133  H33 UNL A   1      53.191  20.358  16.156  1.00  0.00    +0.000 H 
ATOM     29  C24 UNL A   1      54.014  21.039  16.081  1.00  0.00    +0.000 C 
ATOM    134  H34 UNL A   1      53.809  22.008  16.484  1.00  0.00    +0.000 H 
BRANCH   29   28
ATOM    131  H31 UNL A   1      54.228  22.300  14.389  1.00  0.00    +0.000 H 
ATOM     28  C23 UNL A   1      54.316  21.253  14.593  1.00  0.00    +0.000 C 
ATOM    132  H32 UNL A   1      55.298  20.858  14.438  1.00  0.00    +0.000 H 
BRANCH   28   27
ATOM    129  H29 UNL A   1      53.901  20.479  12.659  1.00  0.00    +0.000 H 
ATOM    130  H30 UNL A   1      53.244  19.537  14.035  1.00  0.00    +0.000 H 
ATOM     27  C22 UNL A   1      53.408  20.505  13.608  1.00  0.00    +0.000 C 
BRANCH   27   26
ATOM     26  C21 UNL A   1      52.017  21.114  13.400  1.00  0.00    +0.000 C 
ATOM    127  H27 UNL A   1      51.412  20.869  14.246  1.00  0.00    +0.000 H 
ATOM    128  H28 UNL A   1      52.156  22.169  13.284  1.00  0.00    +0.000 H 
BRANCH   26   25
ATOM     25  C20 UNL A   1      51.304  20.623  12.139  1.00  0.00    +0.000 C 
ATOM    125  H25 UNL A   1      51.118  19.573  12.236  1.00  0.00    +0.000 H 
ATOM    126  H26 UNL A   1      50.391  21.171  12.041  1.00  0.00    +0.000 H 
BRANCH   25   24
ATOM    124  H24 UNL A   1      52.326  20.034  10.448  1.00  0.00    +0.000 H 
ATOM     24  N2  UNL A   1      52.093  20.851  10.946  1.00  0.00    +0.000 N 
BRANCH   24   22
ATOM     22  C19 UNL A   1      52.567  22.003  10.401  1.00  0.00    +0.000 C 
ATOM     23  O3  UNL A   1      51.863  22.540   9.537  1.00  0.00    +0.000 O 
BRANCH   22   20
ATOM     20  C17 UNL A   1      53.908  22.637  10.800  1.00  0.00    +0.000 C 
ATOM    120  H20 UNL A   1      54.108  22.310  11.799  1.00  0.00    +0.000 H 
BRANCH   20   19
ATOM     97  C71 UNL A   1      56.378  22.274  10.523  1.00  0.00    +0.000 C 
ATOM     98  C72 UNL A   1      57.493  21.756   9.863  1.00  0.00    +0.000 C 
ATOM     99  F16 UNL A   1      58.698  22.030  10.388  1.00  0.00    +0.000 F 
ATOM     16  C13 UNL A   1      57.380  20.990   8.690  1.00  0.00    +0.000 C 
ATOM     17  C14 UNL A   1      56.082  20.816   8.182  1.00  0.00    +0.000 C 
ATOM     18  C15 UNL A   1      54.961  21.369   8.818  1.00  0.00    +0.000 C 
ATOM     19  C16 UNL A   1      55.086  22.084  10.015  1.00  0.00    +0.000 C 
ATOM    118  H18 UNL A   1      55.951  20.265   7.319  1.00  0.00    +0.000 H 
ATOM    119  H19 UNL A   1      54.026  21.249   8.396  1.00  0.00    +0.000 H 
ATOM    152  H52 UNL A   1      56.507  22.806  11.398  1.00  0.00    +0.000 H 
BRANCH   16   15
ATOM    100  C73 UNL A   1      59.367  19.447   8.661  1.00  0.00    +0.000 C 
ATOM     11  C8  UNL A   1      60.556  18.978   8.093  1.00  0.00    +0.000 C 
ATOM     12  C9  UNL A   1      60.937  19.432   6.830  1.00  0.00    +0.000 C 
ATOM     13  C10 UNL A   1      60.124  20.327   6.139  1.00  0.00    +0.000 C 
ATOM     14  C11 UNL A   1      58.958  20.819   6.731  1.00  0.00    +0.000 C 
ATOM     15  C12 UNL A   1      58.564  20.408   8.016  1.00  0.00    +0.000 C 
ATOM    115  H15 UNL A   1      61.820  19.105   6.409  1.00  0.00    +0.000 H 
ATOM    116  H16 UNL A   1      60.386  20.629   5.186  1.00  0.00    +0.000 H 
ATOM    117  H17 UNL A   1      58.375  21.496   6.216  1.00  0.00    +0.000 H 
ATOM    153  H53 UNL A   1      59.070  19.079   9.578  1.00  0.00    +0.000 H 
BRANCH   11   10
ATOM     10  N1  UNL A   1      61.455  18.158   8.793  1.00  0.00    +0.000 N 
ATOM    114  H14 UNL A   1      61.130  17.254   9.006  1.00  0.00    +0.000 H 
BRANCH   10    8
ATOM      9  O2  UNL A   1      63.698  17.938   8.682  1.00  0.00    +0.000 O 
ATOM      8  C7  UNL A   1      62.725  18.447   9.217  1.00  0.00    +0.000 C 
BRANCH    8    7
ATOM      7  O1  UNL A   1      62.759  19.221  10.332  1.00  0.00    +0.000 O 
BRANCH    7    6
ATOM    113  H13 UNL A   1      63.300  19.141  12.296  1.00  0.00    +0.000 H 
ATOM      6  C6  UNL A   1      62.729  18.557  11.606  1.00  0.00    +0.000 C 
ATOM    112  H12 UNL A   1      63.142  17.575  11.493  1.00  0.00    +0.000 H 
BRANCH    6    5
ATOM      5  C5  UNL A   1      61.305  18.431  12.159  1.00  0.00    +0.000 C 
ATOM    110  H10 UNL A   1      60.773  17.737  11.541  1.00  0.00    +0.000 H 
ATOM    111  H11 UNL A   1      61.416  18.113  13.175  1.00  0.00    +0.000 H 
BRANCH    5    4
ATOM    108  H8  UNL A   1      60.543  20.197  11.256  1.00  0.00    +0.000 H 
ATOM      4  C4  UNL A   1      60.490  19.730  12.217  1.00  0.00    +0.000 C 
ATOM    109  H9  UNL A   1      59.498  19.447  12.500  1.00  0.00    +0.000 H 
BRANCH    4    3
ATOM    106  H6  UNL A   1      61.031  20.243  14.207  1.00  0.00    +0.000 H 
ATOM      3  C3  UNL A   1      60.959  20.746  13.265  1.00  0.00    +0.000 C 
ATOM    107  H7  UNL A   1      61.895  21.129  12.917  1.00  0.00    +0.000 H 
BRANCH    3    2
ATOM    105  H5  UNL A   1      59.394  22.000  12.594  1.00  0.00    +0.000 H 
ATOM      2  C2  UNL A   1      60.042  21.958  13.445  1.00  0.00    +0.000 C 
ATOM    104  H4  UNL A   1      60.648  22.836  13.525  1.00  0.00    +0.000 H 
BRANCH    2    1
ATOM      1  C1  UNL A   1      59.166  21.856  14.684  1.00  0.00    +0.000 C 
ATOM    101  H1  UNL A   1      59.232  20.867  15.087  1.00  0.00    +0.000 H 
ATOM    102  H2  UNL A   1      58.150  22.067  14.421  1.00  0.00    +0.000 H 
ATOM    103  H3  UNL A   1      59.499  22.562  15.415  1.00  0.00    +0.000 H 
ENDBRANCH    2    1
ENDBRANCH    3    2
ENDBRANCH    4    3
ENDBRANCH    5    4
ENDBRANCH    6    5
ENDBRANCH    7    6
ENDBRANCH    8    7
ENDBRANCH   10    8
ENDBRANCH   11   10
ENDBRANCH   16   15
ENDBRANCH   20   19
BRANCH   20   21
ATOM    121  H21 UNL A   1      54.568  24.452  11.719  1.00  0.00    +0.000 H 
ATOM    122  H22 UNL A   1      52.873  24.443  11.292  1.00  0.00    +0.000 H 
ATOM    123  H23 UNL A   1      54.087  24.631  10.049  1.00  0.00    +0.000 H 
ATOM     21  C18 UNL A   1      53.855  24.154  10.979  1.00  0.00    +0.000 C 
ENDBRANCH   20   21
ENDBRANCH   22   20
ENDBRANCH   24   22
ENDBRANCH   25   24
ENDBRANCH   26   25
ENDBRANCH   27   26
ENDBRANCH   28   27
ENDBRANCH   29   28
ENDBRANCH   30   29
ENDBRANCH   31   30
ENDBRANCH   32   31
ENDBRANCH   34   32
ENDBRANCH   38   37
BRANCH   42   43
ATOM     43  C35 UNL A   1      51.547  18.159   7.038  1.00  0.00    +0.000 C 
ATOM     44  C36 UNL A   1      51.284  19.532   7.152  1.00  0.00    +0.000 C 
ATOM     45  F1  UNL A   1      52.297  20.408   7.239  1.00  0.00    +0.000 F 
ATOM     46  C37 UNL A   1      49.977  20.006   7.211  1.00  0.00    +0.000 C 
ATOM     47  F2  UNL A   1      49.748  21.319   7.359  1.00  0.00    +0.000 F 
ATOM     48  C38 UNL A   1      48.911  19.123   7.130  1.00  0.00    +0.000 C 
ATOM     49  F3  UNL A   1      47.653  19.582   7.182  1.00  0.00    +0.000 F 
ATOM     50  C39 UNL A   1      49.148  17.763   7.002  1.00  0.00    +0.000 C 
ATOM     51  F4  UNL A   1      48.119  16.909   6.915  1.00  0.00    +0.000 F 
ATOM     52  C40 UNL A   1      50.454  17.282   6.965  1.00  0.00    +0.000 C 
ATOM     53  F5  UNL A   1      50.654  15.960   6.851  1.00  0.00    +0.000 F 
ENDBRANCH   42   43
BRANCH   59   60
ATOM     65  C49 UNL A   1      56.021  14.961  -0.705  1.00  0.00    +0.000 C 
ATOM     66  F8  UNL A   1      56.021  14.735  -2.026  1.00  0.00    +0.000 F 
ATOM     67  C50 UNL A   1      55.468  14.028   0.159  1.00  0.00    +0.000 C 
ATOM     68  F9  UNL A   1      54.948  12.892  -0.327  1.00  0.00    +0.000 F 
ATOM     69  C51 UNL A   1      55.447  14.271   1.529  1.00  0.00    +0.000 C 
ATOM     70  F10 UNL A   1      54.894  13.358   2.341  1.00  0.00    +0.000 F 
ATOM     60  C46 UNL A   1      55.994  15.450   2.059  1.00  0.00    +0.000 C 
ATOM     61  C47 UNL A   1      56.563  16.372   1.169  1.00  0.00    +0.000 C 
ATOM     62  F6  UNL A   1      57.084  17.519   1.631  1.00  0.00    +0.000 F 
ATOM     63  C48 UNL A   1      56.564  16.134  -0.201  1.00  0.00    +0.000 C 
ATOM     64  F7  UNL A   1      57.076  17.048  -1.038  1.00  0.00    +0.000 F 
ENDBRANCH   59   60
BRANCH   74   75
ATOM     75  C55 UNL A   1      60.751  14.346   7.013  1.00  0.00    +0.000 C 
ATOM     76  C56 UNL A   1      60.936  13.005   7.378  1.00  0.00    +0.000 C 
ATOM     77  F11 UNL A   1      59.885  12.262   7.752  1.00  0.00    +0.000 F 
ATOM     78  C57 UNL A   1      62.208  12.438   7.400  1.00  0.00    +0.000 C 
ATOM     79  F12 UNL A   1      62.364  11.166   7.791  1.00  0.00    +0.000 F 
ATOM     80  C58 UNL A   1      63.313  13.192   7.033  1.00  0.00    +0.000 C 
ATOM     81  F13 UNL A   1      64.536  12.645   7.054  1.00  0.00    +0.000 F 
ATOM     82  C59 UNL A   1      63.149  14.515   6.652  1.00  0.00    +0.000 C 
ATOM     83  F14 UNL A   1      64.213  15.244   6.288  1.00  0.00    +0.000 F 
ATOM     84  C60 UNL A   1      61.880  15.091   6.651  1.00  0.00    +0.000 C 
ATOM     85  F15 UNL A   1      61.751  16.376   6.290  1.00  0.00    +0.000 F 
ENDBRANCH   74   75
TORSDOF 27
ENDMDL
MODEL 7
REMARK VINA RESULT:      -6.2     46.568     54.083
ROOT
ATOM    140  H40 UNL A   1      50.208  20.559  12.124  1.00  0.00    +0.000 H 
ATOM    141  H41 UNL A   1      50.462  21.368  14.591  1.00  0.00    +0.000 H 
ATOM    142  H42 UNL A   1      54.197  21.447  12.803  1.00  0.00    +0.000 H 
ATOM    143  H43 UNL A   1      60.453  22.656  13.137  1.00  0.00    +0.000 H 
ATOM    144  H44 UNL A   1      60.221  21.772  10.766  1.00  0.00    +0.000 H 
ATOM    145  H45 UNL A   1      56.451  21.717  12.518  1.00  0.00    +0.000 H 
ATOM    146  H46 UNL A   1      57.091  23.374  17.224  1.00  0.00    +0.000 H 
ATOM    147  H47 UNL A   1      54.617  22.844  17.614  1.00  0.00    +0.000 H 
ATOM    148  H48 UNL A   1      53.644  19.913   8.061  1.00  0.00    +0.000 H 
ATOM    149  H49 UNL A   1      56.191  19.945   7.796  1.00  0.00    +0.000 H 
ATOM     38  C31 UNL A   1      57.567  21.010  10.055  1.00  0.00    +0.000 C 
ATOM     39  C32 UNL A   1      56.094  20.743   9.918  1.00  0.00    +0.000 C 
ATOM     40  N4  UNL A   1      55.132  20.930  10.788  1.00  0.00    +0.000 N 
ATOM     41  C33 UNL A   1      53.958  20.570  10.139  1.00  0.00    +0.000 C 
ATOM     42  C34 UNL A   1      52.693  20.552  10.625  1.00  0.00    +0.000 C 
ATOM     54  C41 UNL A   1      52.335  20.891  11.976  1.00  0.00    +0.000 C 
ATOM     55  C42 UNL A   1      51.087  20.851  12.577  1.00  0.00    +0.000 C 
ATOM     56  C43 UNL A   1      51.225  21.276  13.904  1.00  0.00    +0.000 C 
ATOM     57  C44 UNL A   1      52.563  21.551  14.135  1.00  0.00    +0.000 C 
ATOM     58  N5  UNL A   1      53.229  21.322  12.942  1.00  0.00    +0.000 N 
ATOM     59  C45 UNL A   1      53.192  21.986  15.355  1.00  0.00    +0.000 C 
ATOM     71  C52 UNL A   1      54.506  22.285  15.487  1.00  0.00    +0.000 C 
ATOM     72  N6  UNL A   1      55.513  22.232  14.533  1.00  0.00    +0.000 N 
ATOM     73  C53 UNL A   1      56.605  22.629  15.139  1.00  0.00    +0.000 C 
ATOM     74  C54 UNL A   1      58.003  22.738  14.599  1.00  0.00    +0.000 C 
ATOM     86  C61 UNL A   1      58.261  22.337  13.340  1.00  0.00    +0.000 C 
ATOM     87  C62 UNL A   1      59.573  22.342  12.699  1.00  0.00    +0.000 C 
ATOM     88  C63 UNL A   1      59.452  21.871  11.446  1.00  0.00    +0.000 C 
ATOM     89  C64 UNL A   1      58.053  21.520  11.202  1.00  0.00    +0.000 C 
ATOM     90  N7  UNL A   1      57.418  21.837  12.378  1.00  0.00    +0.000 N 
ATOM     91  C65 UNL A   1      56.407  23.004  16.547  1.00  0.00    +0.000 C 
ATOM     92  C66 UNL A   1      55.120  22.739  16.718  1.00  0.00    +0.000 C 
ATOM     93  C67 UNL A   1      54.321  20.181   8.793  1.00  0.00    +0.000 C 
ATOM     94  C68 UNL A   1      55.635  20.216   8.622  1.00  0.00    +0.000 C 
ENDROOT
BRANCH   38   37
ATOM     34  C27 UNL A   1      60.134  20.222   6.701  1.00  0.00    +0.000 C 
ATOM     35  C28 UNL A   1      59.862  19.211   7.632  1.00  0.00    +0.000 C 
ATOM     36  C29 UNL A   1      59.034  19.468   8.728  1.00  0.00    +0.000 C 
ATOM     37  C30 UNL A   1      58.483  20.745   8.917  1.00  0.00    +0.000 C 
ATOM    138  H38 UNL A   1      60.277  18.274   7.509  1.00  0.00    +0.000 H 
ATOM    139  H39 UNL A   1      58.826  18.714   9.401  1.00  0.00    +0.000 H 
ATOM    150  H50 UNL A   1      58.397  22.707   8.134  1.00  0.00    +0.000 H 
ATOM    151  H51 UNL A   1      59.712  22.218   6.156  1.00  0.00    +0.000 H 
ATOM     95  C69 UNL A   1      58.770  21.756   7.988  1.00  0.00    +0.000 C 
ATOM     96  C70 UNL A   1      59.556  21.485   6.866  1.00  0.00    +0.000 C 
BRANCH   34   32
ATOM     33  O4  UNL A   1      62.104  20.267   5.432  1.00  0.00    +0.000 O 
ATOM     32  C26 UNL A   1      60.941  19.876   5.507  1.00  0.00    +0.000 C 
BRANCH   32   31
ATOM    137  H37 UNL A   1      60.674  18.169   4.505  1.00  0.00    +0.000 H 
ATOM     31  N3  UNL A   1      60.424  19.121   4.486  1.00  0.00    +0.000 N 
BRANCH   31   30
ATOM     30  C25 UNL A   1      59.563  19.504   3.381  1.00  0.00    +0.000 C 
ATOM    135  H35 UNL A   1      59.978  20.366   2.902  1.00  0.00    +0.000 H 
ATOM    136  H36 UNL A   1      59.505  18.676   2.705  1.00  0.00    +0.000 H 
BRANCH   30   29
ATOM    133  H33 UNL A   1      58.179  20.760   4.381  1.00  0.00    +0.000 H 
ATOM     29  C24 UNL A   1      58.145  19.833   3.847  1.00  0.00    +0.000 C 
ATOM    134  H34 UNL A   1      57.544  19.866   2.963  1.00  0.00    +0.000 H 
BRANCH   29   28
ATOM    131  H31 UNL A   1      58.119  17.917   4.757  1.00  0.00    +0.000 H 
ATOM     28  C23 UNL A   1      57.495  18.786   4.761  1.00  0.00    +0.000 C 
ATOM    132  H32 UNL A   1      57.403  19.256   5.718  1.00  0.00    +0.000 H 
BRANCH   28   27
ATOM    129  H29 UNL A   1      55.929  18.570   3.341  1.00  0.00    +0.000 H 
ATOM    130  H30 UNL A   1      56.018  17.303   4.606  1.00  0.00    +0.000 H 
ATOM     27  C22 UNL A   1      56.076  18.347   4.378  1.00  0.00    +0.000 C 
BRANCH   27   26
ATOM     26  C21 UNL A   1      54.944  19.014   5.167  1.00  0.00    +0.000 C 
ATOM    127  H27 UNL A   1      55.308  19.250   6.144  1.00  0.00    +0.000 H 
ATOM    128  H28 UNL A   1      54.653  19.883   4.614  1.00  0.00    +0.000 H 
BRANCH   26   25
ATOM     25  C20 UNL A   1      53.692  18.147   5.316  1.00  0.00    +0.000 C 
ATOM    125  H25 UNL A   1      52.833  18.739   5.079  1.00  0.00    +0.000 H 
ATOM    126  H26 UNL A   1      53.786  17.316   4.650  1.00  0.00    +0.000 H 
BRANCH   25   24
ATOM    124  H24 UNL A   1      52.929  18.141   7.231  1.00  0.00    +0.000 H 
ATOM     24  N2  UNL A   1      53.548  17.630   6.660  1.00  0.00    +0.000 N 
BRANCH   24   22
ATOM     22  C19 UNL A   1      54.126  16.558   7.268  1.00  0.00    +0.000 C 
ATOM     23  O3  UNL A   1      53.373  15.636   7.600  1.00  0.00    +0.000 O 
BRANCH   22   20
ATOM     20  C17 UNL A   1      55.631  16.462   7.555  1.00  0.00    +0.000 C 
ATOM    120  H20 UNL A   1      56.074  17.338   7.130  1.00  0.00    +0.000 H 
BRANCH   20   19
ATOM     97  C71 UNL A   1      57.253  16.234   9.460  1.00  0.00    +0.000 C 
ATOM     98  C72 UNL A   1      57.626  16.365  10.798  1.00  0.00    +0.000 C 
ATOM     99  F16 UNL A   1      58.859  15.953  11.134  1.00  0.00    +0.000 F 
ATOM     16  C13 UNL A   1      56.758  16.893  11.769  1.00  0.00    +0.000 C 
ATOM     17  C14 UNL A   1      55.467  17.234  11.333  1.00  0.00    +0.000 C 
ATOM     18  C15 UNL A   1      55.072  17.065   9.997  1.00  0.00    +0.000 C 
ATOM     19  C16 UNL A   1      55.967  16.589   9.032  1.00  0.00    +0.000 C 
ATOM    118  H18 UNL A   1      54.793  17.620  12.013  1.00  0.00    +0.000 H 
ATOM    119  H19 UNL A   1      54.104  17.294   9.721  1.00  0.00    +0.000 H 
ATOM    152  H52 UNL A   1      57.933  15.869   8.776  1.00  0.00    +0.000 H 
BRANCH   16   15
ATOM    100  C73 UNL A   1      58.529  17.237  13.523  1.00  0.00    +0.000 C 
ATOM     11  C8  UNL A   1      58.955  17.279  14.855  1.00  0.00    +0.000 C 
ATOM     12  C9  UNL A   1      58.009  17.206  15.877  1.00  0.00    +0.000 C 
ATOM     13  C10 UNL A   1      56.654  17.113  15.567  1.00  0.00    +0.000 C 
ATOM     14  C11 UNL A   1      56.243  17.032  14.234  1.00  0.00    +0.000 C 
ATOM     15  C12 UNL A   1      57.173  17.069  13.180  1.00  0.00    +0.000 C 
ATOM    115  H15 UNL A   1      58.313  17.221  16.863  1.00  0.00    +0.000 H 
ATOM    116  H16 UNL A   1      55.953  17.103  16.325  1.00  0.00    +0.000 H 
ATOM    117  H17 UNL A   1      55.238  16.945  14.018  1.00  0.00    +0.000 H 
ATOM    153  H53 UNL A   1      59.229  17.329  12.769  1.00  0.00    +0.000 H 
BRANCH   11   10
ATOM     10  N1  UNL A   1      60.311  17.268  15.215  1.00  0.00    +0.000 N 
ATOM    114  H14 UNL A   1      60.951  17.310  14.468  1.00  0.00    +0.000 H 
BRANCH   10    8
ATOM      9  O2  UNL A   1      61.330  16.167  16.900  1.00  0.00    +0.000 O 
ATOM      8  C7  UNL A   1      60.865  17.210  16.466  1.00  0.00    +0.000 C 
BRANCH    8    7
ATOM      7  O1  UNL A   1      60.718  18.359  17.176  1.00  0.00    +0.000 O 
BRANCH    7    6
ATOM    113  H13 UNL A   1      61.157  18.579  19.154  1.00  0.00    +0.000 H 
ATOM      6  C6  UNL A   1      60.336  18.244  18.556  1.00  0.00    +0.000 C 
ATOM    112  H12 UNL A   1      60.095  17.221  18.764  1.00  0.00    +0.000 H 
BRANCH    6    5
ATOM      5  C5  UNL A   1      59.119  19.114  18.893  1.00  0.00    +0.000 C 
ATOM    110  H10 UNL A   1      59.145  19.974  18.257  1.00  0.00    +0.000 H 
ATOM    111  H11 UNL A   1      58.265  18.487  18.744  1.00  0.00    +0.000 H 
BRANCH    5    4
ATOM    108  H8  UNL A   1      58.054  19.361  20.715  1.00  0.00    +0.000 H 
ATOM      4  C4  UNL A   1      59.027  19.604  20.345  1.00  0.00    +0.000 C 
ATOM    109  H9  UNL A   1      59.820  19.117  20.874  1.00  0.00    +0.000 H 
BRANCH    4    3
ATOM    106  H6  UNL A   1      59.541  21.274  21.556  1.00  0.00    +0.000 H 
ATOM      3  C3  UNL A   1      59.248  21.110  20.539  1.00  0.00    +0.000 C 
ATOM    107  H7  UNL A   1      59.996  21.398  19.831  1.00  0.00    +0.000 H 
BRANCH    3    2
ATOM    105  H5  UNL A   1      57.557  22.201  21.187  1.00  0.00    +0.000 H 
ATOM      2  C2  UNL A   1      58.026  21.984  20.250  1.00  0.00    +0.000 C 
ATOM    104  H4  UNL A   1      57.372  21.450  19.593  1.00  0.00    +0.000 H 
BRANCH    2    1
ATOM      1  C1  UNL A   1      58.390  23.310  19.602  1.00  0.00    +0.000 C 
ATOM    101  H1  UNL A   1      57.634  23.581  18.893  1.00  0.00    +0.000 H 
ATOM    102  H2  UNL A   1      59.331  23.216  19.101  1.00  0.00    +0.000 H 
ATOM    103  H3  UNL A   1      58.461  24.068  20.354  1.00  0.00    +0.000 H 
ENDBRANCH    2    1
ENDBRANCH    3    2
ENDBRANCH    4    3
ENDBRANCH    5    4
ENDBRANCH    6    5
ENDBRANCH    7    6
ENDBRANCH    8    7
ENDBRANCH   10    8
ENDBRANCH   11   10
ENDBRANCH   16   15
ENDBRANCH   20   19
BRANCH   20   21
ATOM    121  H21 UNL A   1      57.280  15.719   6.413  1.00  0.00    +0.000 H 
ATOM    122  H22 UNL A   1      55.735  15.037   5.962  1.00  0.00    +0.000 H 
ATOM    123  H23 UNL A   1      56.522  14.521   7.434  1.00  0.00    +0.000 H 
ATOM     21  C18 UNL A   1      56.346  15.352   6.783  1.00  0.00    +0.000 C 
ENDBRANCH   20   21
ENDBRANCH   22   20
ENDBRANCH   24   22
ENDBRANCH   25   24
ENDBRANCH   26   25
ENDBRANCH   27   26
ENDBRANCH   28   27
ENDBRANCH   29   28
ENDBRANCH   30   29
ENDBRANCH   31   30
ENDBRANCH   32   31
ENDBRANCH   34   32
ENDBRANCH   38   37
BRANCH   42   43
ATOM     43  C35 UNL A   1      51.598  20.142   9.687  1.00  0.00    +0.000 C 
ATOM     44  C36 UNL A   1      50.832  21.091   8.995  1.00  0.00    +0.000 C 
ATOM     45  F1  UNL A   1      51.035  22.401   9.201  1.00  0.00    +0.000 F 
ATOM     46  C37 UNL A   1      49.831  20.695   8.112  1.00  0.00    +0.000 C 
ATOM     47  F2  UNL A   1      49.086  21.619   7.489  1.00  0.00    +0.000 F 
ATOM     48  C38 UNL A   1      49.597  19.347   7.884  1.00  0.00    +0.000 C 
ATOM     49  F3  UNL A   1      48.636  18.968   7.029  1.00  0.00    +0.000 F 
ATOM     50  C39 UNL A   1      50.352  18.392   8.546  1.00  0.00    +0.000 C 
ATOM     51  F4  UNL A   1      50.132  17.090   8.321  1.00  0.00    +0.000 F 
ATOM     52  C40 UNL A   1      51.339  18.784   9.447  1.00  0.00    +0.000 C 
ATOM     53  F5  UNL A   1      52.049  17.838  10.082  1.00  0.00    +0.000 F 
ENDBRANCH   42   43
BRANCH   59   60
ATOM     65  C49 UNL A   1      50.744  22.371  18.875  1.00  0.00    +0.000 C 
ATOM     66  F8  UNL A   1      49.974  22.489  19.965  1.00  0.00    +0.000 F 
ATOM     67  C50 UNL A   1      50.628  23.287  17.840  1.00  0.00    +0.000 C 
ATOM     68  F9  UNL A   1      49.755  24.299  17.937  1.00  0.00    +0.000 F 
ATOM     69  C51 UNL A   1      51.411  23.153  16.698  1.00  0.00    +0.000 C 
ATOM     70  F10 UNL A   1      51.269  24.044  15.706  1.00  0.00    +0.000 F 
ATOM     60  C46 UNL A   1      52.337  22.105  16.579  1.00  0.00    +0.000 C 
ATOM     61  C47 UNL A   1      52.452  21.201  17.645  1.00  0.00    +0.000 C 
ATOM     62  F6  UNL A   1      53.313  20.175  17.568  1.00  0.00    +0.000 F 
ATOM     63  C48 UNL A   1      51.652  21.327  18.776  1.00  0.00    +0.000 C 
ATOM     64  F7  UNL A   1      51.748  20.428  19.766  1.00  0.00    +0.000 F 
ENDBRANCH   59   60
BRANCH   74   75
ATOM     75  C55 UNL A   1      59.107  23.240  15.454  1.00  0.00    +0.000 C 
ATOM     76  C56 UNL A   1      59.447  24.601  15.461  1.00  0.00    +0.000 C 
ATOM     77  F11 UNL A   1      58.780  25.460  14.677  1.00  0.00    +0.000 F 
ATOM     78  C57 UNL A   1      60.499  25.073  16.242  1.00  0.00    +0.000 C 
ATOM     79  F12 UNL A   1      60.830  26.370  16.200  1.00  0.00    +0.000 F 
ATOM     80  C58 UNL A   1      61.214  24.199  17.048  1.00  0.00    +0.000 C 
ATOM     81  F13 UNL A   1      62.227  24.654  17.798  1.00  0.00    +0.000 F 
ATOM     82  C59 UNL A   1      60.883  22.852  17.068  1.00  0.00    +0.000 C 
ATOM     83  F14 UNL A   1      61.566  22.008  17.853  1.00  0.00    +0.000 F 
ATOM     84  C60 UNL A   1      59.845  22.375  16.271  1.00  0.00    +0.000 C 
ATOM     85  F15 UNL A   1      59.553  21.066  16.301  1.00  0.00    +0.000 F 
ENDBRANCH   74   75
TORSDOF 27
ENDMDL
MODEL 8
REMARK VINA RESULT:      -6.2     26.102     32.362
ROOT
ATOM    140  H40 UNL A   1      41.905  13.437  49.629  1.00  0.00    +0.000 H 
ATOM    141  H41 UNL A   1      42.490  12.337  47.337  1.00  0.00    +0.000 H 
ATOM    142  H42 UNL A   1      44.023  16.184  47.365  1.00  0.00    +0.000 H 
ATOM    143  H43 UNL A   1      47.251  20.861  44.463  1.00  0.00    +0.000 H 
ATOM    144  H44 UNL A   1      46.593  21.967  46.655  1.00  0.00    +0.000 H 
ATOM    145  H45 UNL A   1      45.074  18.097  46.676  1.00  0.00    +0.000 H 
ATOM    146  H46 UNL A   1      46.348  16.088  42.243  1.00  0.00    +0.000 H 
ATOM    147  H47 UNL A   1      44.969  14.040  42.917  1.00  0.00    +0.000 H 
ATOM    148  H48 UNL A   1      42.897  18.237  51.799  1.00  0.00    +0.000 H 
ATOM    149  H49 UNL A   1      43.823  20.470  50.954  1.00  0.00    +0.000 H 
ATOM     38  C31 UNL A   1      45.051  20.307  48.386  1.00  0.00    +0.000 C 
ATOM     39  C32 UNL A   1      44.313  19.224  49.124  1.00  0.00    +0.000 C 
ATOM     40  N4  UNL A   1      44.069  17.989  48.758  1.00  0.00    +0.000 N 
ATOM     41  C33 UNL A   1      43.401  17.403  49.824  1.00  0.00    +0.000 C 
ATOM     42  C34 UNL A   1      42.902  16.147  49.923  1.00  0.00    +0.000 C 
ATOM     54  C41 UNL A   1      42.955  15.164  48.874  1.00  0.00    +0.000 C 
ATOM     55  C42 UNL A   1      42.430  13.882  48.861  1.00  0.00    +0.000 C 
ATOM     56  C43 UNL A   1      42.735  13.296  47.627  1.00  0.00    +0.000 C 
ATOM     57  C44 UNL A   1      43.424  14.223  46.863  1.00  0.00    +0.000 C 
ATOM     58  N5  UNL A   1      43.562  15.359  47.644  1.00  0.00    +0.000 N 
ATOM     59  C45 UNL A   1      43.917  14.089  45.518  1.00  0.00    +0.000 C 
ATOM     71  C52 UNL A   1      44.631  15.030  44.854  1.00  0.00    +0.000 C 
ATOM     72  N6  UNL A   1      45.024  16.290  45.284  1.00  0.00    +0.000 N 
ATOM     73  C53 UNL A   1      45.704  16.812  44.293  1.00  0.00    +0.000 C 
ATOM     74  C54 UNL A   1      46.339  18.170  44.191  1.00  0.00    +0.000 C 
ATOM     86  C61 UNL A   1      46.184  19.052  45.196  1.00  0.00    +0.000 C 
ATOM     87  C62 UNL A   1      46.703  20.417  45.217  1.00  0.00    +0.000 C 
ATOM     88  C63 UNL A   1      46.352  21.004  46.374  1.00  0.00    +0.000 C 
ATOM     89  C64 UNL A   1      45.573  20.056  47.171  1.00  0.00    +0.000 C 
ATOM     90  N7  UNL A   1      45.530  18.923  46.397  1.00  0.00    +0.000 N 
ATOM     91  C65 UNL A   1      45.839  15.927  43.126  1.00  0.00    +0.000 C 
ATOM     92  C66 UNL A   1      45.136  14.871  43.506  1.00  0.00    +0.000 C 
ATOM     93  C67 UNL A   1      43.302  18.404  50.864  1.00  0.00    +0.000 C 
ATOM     94  C68 UNL A   1      43.800  19.565  50.460  1.00  0.00    +0.000 C 
ENDROOT
BRANCH   38   37
ATOM     34  C27 UNL A   1      45.626  24.204  50.101  1.00  0.00    +0.000 C 
ATOM     35  C28 UNL A   1      46.559  23.187  50.337  1.00  0.00    +0.000 C 
ATOM     36  C29 UNL A   1      46.370  21.917  49.787  1.00  0.00    +0.000 C 
ATOM     37  C30 UNL A   1      45.234  21.643  49.010  1.00  0.00    +0.000 C 
ATOM    138  H38 UNL A   1      47.388  23.376  50.922  1.00  0.00    +0.000 H 
ATOM    139  H39 UNL A   1      47.069  21.176  49.954  1.00  0.00    +0.000 H 
ATOM    150  H50 UNL A   1      43.443  22.464  48.243  1.00  0.00    +0.000 H 
ATOM    151  H51 UNL A   1      43.849  24.705  49.075  1.00  0.00    +0.000 H 
ATOM     95  C69 UNL A   1      44.297  22.662  48.787  1.00  0.00    +0.000 C 
ATOM     96  C70 UNL A   1      44.513  23.946  49.295  1.00  0.00    +0.000 C 
BRANCH   34   32
ATOM     33  O4  UNL A   1      46.854  26.200  50.155  1.00  0.00    +0.000 O 
ATOM     32  C26 UNL A   1      45.918  25.559  50.627  1.00  0.00    +0.000 C 
BRANCH   32   31
ATOM    137  H37 UNL A   1      44.703  26.955  51.378  1.00  0.00    +0.000 H 
ATOM     31  N3  UNL A   1      45.161  26.120  51.623  1.00  0.00    +0.000 N 
BRANCH   31   30
ATOM     30  C25 UNL A   1      44.926  25.672  52.985  1.00  0.00    +0.000 C 
ATOM    135  H35 UNL A   1      45.816  25.206  53.354  1.00  0.00    +0.000 H 
ATOM    136  H36 UNL A   1      44.666  26.528  53.574  1.00  0.00    +0.000 H 
BRANCH   30   29
ATOM    133  H33 UNL A   1      44.125  23.730  52.708  1.00  0.00    +0.000 H 
ATOM     29  C24 UNL A   1      43.772  24.673  53.069  1.00  0.00    +0.000 C 
ATOM    134  H34 UNL A   1      43.472  24.656  54.096  1.00  0.00    +0.000 H 
BRANCH   29   28
ATOM    131  H31 UNL A   1      42.003  25.813  52.807  1.00  0.00    +0.000 H 
ATOM     28  C23 UNL A   1      42.520  25.048  52.268  1.00  0.00    +0.000 C 
ATOM    132  H32 UNL A   1      42.875  25.355  51.305  1.00  0.00    +0.000 H 
BRANCH   28   27
ATOM    129  H29 UNL A   1      40.827  23.884  52.808  1.00  0.00    +0.000 H 
ATOM    130  H30 UNL A   1      41.082  24.124  51.050  1.00  0.00    +0.000 H 
ATOM     27  C22 UNL A   1      41.528  23.910  51.999  1.00  0.00    +0.000 C 
BRANCH   27   26
ATOM     26  C21 UNL A   1      42.146  22.513  51.868  1.00  0.00    +0.000 C 
ATOM    127  H27 UNL A   1      42.237  22.282  50.828  1.00  0.00    +0.000 H 
ATOM    128  H28 UNL A   1      43.092  22.546  52.368  1.00  0.00    +0.000 H 
BRANCH   26   25
ATOM     25  C20 UNL A   1      41.332  21.405  52.538  1.00  0.00    +0.000 C 
ATOM    125  H25 UNL A   1      40.382  21.333  52.050  1.00  0.00    +0.000 H 
ATOM    126  H26 UNL A   1      41.882  20.493  52.453  1.00  0.00    +0.000 H 
BRANCH   25   24
ATOM    124  H24 UNL A   1      40.179  21.853  54.188  1.00  0.00    +0.000 H 
ATOM     24  N2  UNL A   1      41.115  21.668  53.946  1.00  0.00    +0.000 N 
BRANCH   24   22
ATOM     22  C19 UNL A   1      41.989  21.703  54.988  1.00  0.00    +0.000 C 
ATOM     23  O3  UNL A   1      42.153  22.798  55.538  1.00  0.00    +0.000 O 
BRANCH   22   20
ATOM     20  C17 UNL A   1      42.762  20.472  55.483  1.00  0.00    +0.000 C 
ATOM    120  H20 UNL A   1      42.138  19.626  55.284  1.00  0.00    +0.000 H 
BRANCH   20   19
ATOM     97  C71 UNL A   1      44.390  18.844  54.477  1.00  0.00    +0.000 C 
ATOM     98  C72 UNL A   1      45.504  18.517  53.703  1.00  0.00    +0.000 C 
ATOM     99  F16 UNL A   1      45.832  17.218  53.619  1.00  0.00    +0.000 F 
ATOM     16  C13 UNL A   1      46.270  19.493  53.042  1.00  0.00    +0.000 C 
ATOM     17  C14 UNL A   1      45.887  20.830  53.245  1.00  0.00    +0.000 C 
ATOM     18  C15 UNL A   1      44.793  21.167  54.057  1.00  0.00    +0.000 C 
ATOM     19  C16 UNL A   1      44.008  20.180  54.663  1.00  0.00    +0.000 C 
ATOM    118  H18 UNL A   1      46.424  21.581  52.785  1.00  0.00    +0.000 H 
ATOM    119  H19 UNL A   1      44.562  22.162  54.210  1.00  0.00    +0.000 H 
ATOM    152  H52 UNL A   1      43.840  18.092  54.920  1.00  0.00    +0.000 H 
BRANCH   16   15
ATOM    100  C73 UNL A   1      47.241  18.662  50.875  1.00  0.00    +0.000 C 
ATOM     11  C8  UNL A   1      48.310  18.204  50.097  1.00  0.00    +0.000 C 
ATOM     12  C9  UNL A   1      49.605  18.263  50.613  1.00  0.00    +0.000 C 
ATOM     13  C10 UNL A   1      49.826  18.796  51.880  1.00  0.00    +0.000 C 
ATOM     14  C11 UNL A   1      48.747  19.216  52.664  1.00  0.00    +0.000 C 
ATOM     15  C12 UNL A   1      47.426  19.137  52.188  1.00  0.00    +0.000 C 
ATOM    115  H15 UNL A   1      50.398  17.914  50.054  1.00  0.00    +0.000 H 
ATOM    116  H16 UNL A   1      50.789  18.880  52.242  1.00  0.00    +0.000 H 
ATOM    117  H17 UNL A   1      48.923  19.591  53.609  1.00  0.00    +0.000 H 
ATOM    153  H53 UNL A   1      46.289  18.652  50.476  1.00  0.00    +0.000 H 
BRANCH   11   10
ATOM     10  N1  UNL A   1      48.125  17.566  48.861  1.00  0.00    +0.000 N 
ATOM    114  H14 UNL A   1      47.316  17.012  48.784  1.00  0.00    +0.000 H 
BRANCH   10    8
ATOM      9  O2  UNL A   1      49.149  18.674  47.183  1.00  0.00    +0.000 O 
ATOM      8  C7  UNL A   1      48.918  17.614  47.746  1.00  0.00    +0.000 C 
BRANCH    8    7
ATOM      7  O1  UNL A   1      49.286  16.388  47.291  1.00  0.00    +0.000 O 
BRANCH    7    6
ATOM    113  H13 UNL A   1      49.422  15.750  45.360  1.00  0.00    +0.000 H 
ATOM      6  C6  UNL A   1      48.658  15.907  46.091  1.00  0.00    +0.000 C 
ATOM    112  H12 UNL A   1      47.945  16.635  45.759  1.00  0.00    +0.000 H 
BRANCH    6    5
ATOM      5  C5  UNL A   1      47.934  14.574  46.312  1.00  0.00    +0.000 C 
ATOM    110  H10 UNL A   1      46.917  14.698  46.002  1.00  0.00    +0.000 H 
ATOM    111  H11 UNL A   1      48.479  13.851  45.741  1.00  0.00    +0.000 H 
BRANCH    5    4
ATOM    108  H8  UNL A   1      48.853  13.542  47.926  1.00  0.00    +0.000 H 
ATOM      4  C4  UNL A   1      47.926  14.046  47.753  1.00  0.00    +0.000 C 
ATOM    109  H9  UNL A   1      47.780  14.900  48.382  1.00  0.00    +0.000 H 
BRANCH    4    3
ATOM    106  H6  UNL A   1      46.048  13.153  47.313  1.00  0.00    +0.000 H 
ATOM      3  C3  UNL A   1      46.787  13.073  48.084  1.00  0.00    +0.000 C 
ATOM    107  H7  UNL A   1      47.231  12.102  48.146  1.00  0.00    +0.000 H 
BRANCH    3    2
ATOM    105  H5  UNL A   1      46.445  12.565  50.107  1.00  0.00    +0.000 H 
ATOM      2  C2  UNL A   1      46.100  13.318  49.429  1.00  0.00    +0.000 C 
ATOM    104  H4  UNL A   1      45.041  13.268  49.285  1.00  0.00    +0.000 H 
BRANCH    2    1
ATOM      1  C1  UNL A   1      46.446  14.671  50.030  1.00  0.00    +0.000 C 
ATOM    101  H1  UNL A   1      45.681  15.377  49.782  1.00  0.00    +0.000 H 
ATOM    102  H2  UNL A   1      47.383  15.006  49.638  1.00  0.00    +0.000 H 
ATOM    103  H3  UNL A   1      46.516  14.581  51.094  1.00  0.00    +0.000 H 
ENDBRANCH    2    1
ENDBRANCH    3    2
ENDBRANCH    4    3
ENDBRANCH    5    4
ENDBRANCH    6    5
ENDBRANCH    7    6
ENDBRANCH    8    7
ENDBRANCH   10    8
ENDBRANCH   11   10
ENDBRANCH   16   15
ENDBRANCH   20   19
BRANCH   20   21
ATOM    121  H21 UNL A   1      43.327  19.447  57.274  1.00  0.00    +0.000 H 
ATOM    122  H22 UNL A   1      41.947  20.504  57.461  1.00  0.00    +0.000 H 
ATOM    123  H23 UNL A   1      43.555  21.179  57.340  1.00  0.00    +0.000 H 
ATOM     21  C18 UNL A   1      42.908  20.394  57.003  1.00  0.00    +0.000 C 
ENDBRANCH   20   21
ENDBRANCH   22   20
ENDBRANCH   24   22
ENDBRANCH   25   24
ENDBRANCH   26   25
ENDBRANCH   27   26
ENDBRANCH   28   27
ENDBRANCH   29   28
ENDBRANCH   30   29
ENDBRANCH   31   30
ENDBRANCH   32   31
ENDBRANCH   34   32
ENDBRANCH   38   37
BRANCH   42   43
ATOM     43  C35 UNL A   1      42.243  15.764  51.215  1.00  0.00    +0.000 C 
ATOM     44  C36 UNL A   1      42.992  15.333  52.319  1.00  0.00    +0.000 C 
ATOM     45  F1  UNL A   1      44.324  15.205  52.223  1.00  0.00    +0.000 F 
ATOM     46  C37 UNL A   1      42.369  15.000  53.518  1.00  0.00    +0.000 C 
ATOM     47  F2  UNL A   1      43.099  14.554  54.550  1.00  0.00    +0.000 F 
ATOM     48  C38 UNL A   1      40.992  15.117  53.644  1.00  0.00    +0.000 C 
ATOM     49  F3  UNL A   1      40.395  14.801  54.802  1.00  0.00    +0.000 F 
ATOM     50  C39 UNL A   1      40.235  15.556  52.569  1.00  0.00    +0.000 C 
ATOM     51  F4  UNL A   1      38.906  15.678  52.692  1.00  0.00    +0.000 F 
ATOM     52  C40 UNL A   1      40.852  15.869  51.361  1.00  0.00    +0.000 C 
ATOM     53  F5  UNL A   1      40.093  16.281  50.335  1.00  0.00    +0.000 F 
ENDBRANCH   42   43
BRANCH   59   60
ATOM     65  C49 UNL A   1      43.070  10.447  43.384  1.00  0.00    +0.000 C 
ATOM     66  F8  UNL A   1      42.807   9.308  42.728  1.00  0.00    +0.000 F 
ATOM     67  C50 UNL A   1      44.325  10.658  43.935  1.00  0.00    +0.000 C 
ATOM     68  F9  UNL A   1      45.281   9.727  43.799  1.00  0.00    +0.000 F 
ATOM     69  C51 UNL A   1      44.592  11.830  44.635  1.00  0.00    +0.000 C 
ATOM     70  F10 UNL A   1      45.810  12.002  45.170  1.00  0.00    +0.000 F 
ATOM     60  C46 UNL A   1      43.609  12.820  44.783  1.00  0.00    +0.000 C 
ATOM     61  C47 UNL A   1      42.353  12.595  44.202  1.00  0.00    +0.000 C 
ATOM     62  F6  UNL A   1      41.378  13.508  44.331  1.00  0.00    +0.000 F 
ATOM     63  C48 UNL A   1      42.084  11.413  43.521  1.00  0.00    +0.000 C 
ATOM     64  F7  UNL A   1      40.863  11.199  43.009  1.00  0.00    +0.000 F 
ENDBRANCH   59   60
BRANCH   74   75
ATOM     75  C55 UNL A   1      47.095  18.563  42.976  1.00  0.00    +0.000 C 
ATOM     76  C56 UNL A   1      46.425  18.967  41.813  1.00  0.00    +0.000 C 
ATOM     77  F11 UNL A   1      45.084  18.986  41.787  1.00  0.00    +0.000 F 
ATOM     78  C57 UNL A   1      47.129  19.311  40.662  1.00  0.00    +0.000 C 
ATOM     79  F12 UNL A   1      46.464  19.654  39.551  1.00  0.00    +0.000 F 
ATOM     80  C58 UNL A   1      48.516  19.283  40.660  1.00  0.00    +0.000 C 
ATOM     81  F13 UNL A   1      49.193  19.614  39.553  1.00  0.00    +0.000 F 
ATOM     82  C59 UNL A   1      49.199  18.903  41.806  1.00  0.00    +0.000 C 
ATOM     83  F14 UNL A   1      50.539  18.884  41.811  1.00  0.00    +0.000 F 
ATOM     84  C60 UNL A   1      48.496  18.537  42.952  1.00  0.00    +0.000 C 
ATOM     85  F15 UNL A   1      49.180  18.162  44.042  1.00  0.00    +0.000 F 
ENDBRANCH   74   75
TORSDOF 27
ENDMDL
MODEL 9
REMARK VINA RESULT:      -6.1     46.767     53.161
ROOT
ATOM    140  H40 UNL A   1      10.555  28.595   4.461  1.00  0.00    +0.000 H 
ATOM    141  H41 UNL A   1      11.733  30.737   3.551  1.00  0.00    +0.000 H 
ATOM    142  H42 UNL A   1      10.422  28.500   0.322  1.00  0.00    +0.000 H 
ATOM    143  H43 UNL A   1       9.825  27.734  -5.985  1.00  0.00    +0.000 H 
ATOM    144  H44 UNL A   1       8.768  25.599  -5.100  1.00  0.00    +0.000 H 
ATOM    145  H45 UNL A   1      10.036  27.838  -1.835  1.00  0.00    +0.000 H 
ATOM    146  H46 UNL A   1      12.205  31.957  -3.743  1.00  0.00    +0.000 H 
ATOM    147  H47 UNL A   1      12.847  32.578  -1.344  1.00  0.00    +0.000 H 
ATOM    148  H48 UNL A   1       8.142  24.415   2.128  1.00  0.00    +0.000 H 
ATOM    149  H49 UNL A   1       7.940  23.521  -0.263  1.00  0.00    +0.000 H 
ATOM     38  C31 UNL A   1       8.793  25.371  -2.258  1.00  0.00    +0.000 C 
ATOM     39  C32 UNL A   1       8.880  25.524  -0.764  1.00  0.00    +0.000 C 
ATOM     40  N4  UNL A   1       9.362  26.517  -0.058  1.00  0.00    +0.000 N 
ATOM     41  C33 UNL A   1       9.153  26.175   1.271  1.00  0.00    +0.000 C 
ATOM     42  C34 UNL A   1       9.506  26.857   2.387  1.00  0.00    +0.000 C 
ATOM     54  C41 UNL A   1      10.223  28.104   2.386  1.00  0.00    +0.000 C 
ATOM     55  C42 UNL A   1      10.673  28.844   3.467  1.00  0.00    +0.000 C 
ATOM     56  C43 UNL A   1      11.314  29.989   2.978  1.00  0.00    +0.000 C 
ATOM     57  C44 UNL A   1      11.288  29.945   1.594  1.00  0.00    +0.000 C 
ATOM     58  N5  UNL A   1      10.606  28.790   1.245  1.00  0.00    +0.000 N 
ATOM     59  C45 UNL A   1      11.847  30.882   0.656  1.00  0.00    +0.000 C 
ATOM     71  C52 UNL A   1      11.734  30.793  -0.691  1.00  0.00    +0.000 C 
ATOM     72  N6  UNL A   1      11.098  29.821  -1.451  1.00  0.00    +0.000 N 
ATOM     73  C53 UNL A   1      11.251  30.184  -2.701  1.00  0.00    +0.000 C 
ATOM     74  C54 UNL A   1      10.796  29.487  -3.952  1.00  0.00    +0.000 C 
ATOM     86  C61 UNL A   1      10.187  28.290  -3.862  1.00  0.00    +0.000 C 
ATOM     87  C62 UNL A   1       9.733  27.480  -4.988  1.00  0.00    +0.000 C 
ATOM     88  C63 UNL A   1       9.178  26.349  -4.522  1.00  0.00    +0.000 C 
ATOM     89  C64 UNL A   1       9.248  26.351  -3.060  1.00  0.00    +0.000 C 
ATOM     90  N7  UNL A   1       9.856  27.544  -2.757  1.00  0.00    +0.000 N 
ATOM     91  C65 UNL A   1      11.984  31.447  -2.873  1.00  0.00    +0.000 C 
ATOM     92  C66 UNL A   1      12.287  31.755  -1.621  1.00  0.00    +0.000 C 
ATOM     93  C67 UNL A   1       8.474  24.896   1.277  1.00  0.00    +0.000 C 
ATOM     94  C68 UNL A   1       8.333  24.424   0.046  1.00  0.00    +0.000 C 
ENDROOT
BRANCH   38   37
ATOM     34  C27 UNL A   1       7.041  21.889  -4.064  1.00  0.00    +0.000 C 
ATOM     35  C28 UNL A   1       6.254  23.018  -3.804  1.00  0.00    +0.000 C 
ATOM     36  C29 UNL A   1       6.821  24.148  -3.209  1.00  0.00    +0.000 C 
ATOM     37  C30 UNL A   1       8.177  24.156  -2.850  1.00  0.00    +0.000 C 
ATOM    138  H38 UNL A   1       5.252  23.014  -4.051  1.00  0.00    +0.000 H 
ATOM    139  H39 UNL A   1       6.238  24.982  -3.034  1.00  0.00    +0.000 H 
ATOM    150  H50 UNL A   1       9.947  23.000  -2.812  1.00  0.00    +0.000 H 
ATOM    151  H51 UNL A   1       8.997  21.097  -3.978  1.00  0.00    +0.000 H 
ATOM     95  C69 UNL A   1       8.956  23.017  -3.101  1.00  0.00    +0.000 C 
ATOM     96  C70 UNL A   1       8.402  21.907  -3.742  1.00  0.00    +0.000 C 
BRANCH   34   32
ATOM     33  O4  UNL A   1       5.954  19.813  -4.134  1.00  0.00    +0.000 O 
ATOM     32  C26 UNL A   1       6.418  20.750  -4.781  1.00  0.00    +0.000 C 
BRANCH   32   31
ATOM    137  H37 UNL A   1       5.447  20.923  -6.518  1.00  0.00    +0.000 H 
ATOM     31  N3  UNL A   1       6.337  20.722  -6.149  1.00  0.00    +0.000 N 
BRANCH   31   30
ATOM     30  C25 UNL A   1       7.361  20.444  -7.141  1.00  0.00    +0.000 C 
ATOM    135  H35 UNL A   1       8.188  19.964  -6.661  1.00  0.00    +0.000 H 
ATOM    136  H36 UNL A   1       6.930  19.812  -7.892  1.00  0.00    +0.000 H 
BRANCH   30   29
ATOM    133  H33 UNL A   1       7.921  21.525  -8.876  1.00  0.00    +0.000 H 
ATOM     29  C24 UNL A   1       7.857  21.717  -7.825  1.00  0.00    +0.000 C 
ATOM    134  H34 UNL A   1       7.155  22.482  -7.569  1.00  0.00    +0.000 H 
BRANCH   29   28
ATOM    131  H31 UNL A   1       9.532  21.618  -6.528  1.00  0.00    +0.000 H 
ATOM     28  C23 UNL A   1       9.226  22.224  -7.354  1.00  0.00    +0.000 C 
ATOM    132  H32 UNL A   1       9.868  22.158  -8.208  1.00  0.00    +0.000 H 
BRANCH   28   27
ATOM    129  H29 UNL A   1       8.656  24.260  -7.561  1.00  0.00    +0.000 H 
ATOM    130  H30 UNL A   1       8.961  23.700  -5.886  1.00  0.00    +0.000 H 
ATOM     27  C22 UNL A   1       9.283  23.690  -6.907  1.00  0.00    +0.000 C 
BRANCH   27   26
ATOM     26  C21 UNL A   1      10.676  24.329  -6.915  1.00  0.00    +0.000 C 
ATOM    127  H27 UNL A   1      10.837  24.775  -7.873  1.00  0.00    +0.000 H 
ATOM    128  H28 UNL A   1      10.693  25.044  -6.118  1.00  0.00    +0.000 H 
BRANCH   26   25
ATOM     25  C20 UNL A   1      11.815  23.343  -6.646  1.00  0.00    +0.000 C 
ATOM    125  H25 UNL A   1      11.548  22.390  -7.052  1.00  0.00    +0.000 H 
ATOM    126  H26 UNL A   1      12.700  23.728  -7.107  1.00  0.00    +0.000 H 
BRANCH   25   24
ATOM    124  H24 UNL A   1      11.533  22.503  -4.784  1.00  0.00    +0.000 H 
ATOM     24  N2  UNL A   1      12.077  23.192  -5.230  1.00  0.00    +0.000 N 
BRANCH   24   22
ATOM     22  C19 UNL A   1      12.948  23.843  -4.412  1.00  0.00    +0.000 C 
ATOM     23  O3  UNL A   1      14.143  23.545  -4.524  1.00  0.00    +0.000 O 
BRANCH   22   20
ATOM     20  C17 UNL A   1      12.513  24.894  -3.381  1.00  0.00    +0.000 C 
ATOM    120  H20 UNL A   1      11.500  25.145  -3.618  1.00  0.00    +0.000 H 
BRANCH   20   19
ATOM     97  C71 UNL A   1      12.488  25.229  -0.892  1.00  0.00    +0.000 C 
ATOM     98  C72 UNL A   1      12.361  24.778   0.423  1.00  0.00    +0.000 C 
ATOM     99  F16 UNL A   1      12.504  25.688   1.400  1.00  0.00    +0.000 F 
ATOM     16  C13 UNL A   1      12.107  23.430   0.731  1.00  0.00    +0.000 C 
ATOM     17  C14 UNL A   1      12.041  22.543  -0.356  1.00  0.00    +0.000 C 
ATOM     18  C15 UNL A   1      12.210  22.984  -1.678  1.00  0.00    +0.000 C 
ATOM     19  C16 UNL A   1      12.407  24.338  -1.970  1.00  0.00    +0.000 C 
ATOM    118  H18 UNL A   1      11.862  21.542  -0.177  1.00  0.00    +0.000 H 
ATOM    119  H19 UNL A   1      12.189  22.297  -2.448  1.00  0.00    +0.000 H 
ATOM    152  H52 UNL A   1      12.645  26.232  -1.072  1.00  0.00    +0.000 H 
BRANCH   16   15
ATOM    100  C73 UNL A   1      13.001  22.994   3.042  1.00  0.00    +0.000 C 
ATOM     11  C8  UNL A   1      12.891  22.445   4.325  1.00  0.00    +0.000 C 
ATOM     12  C9  UNL A   1      11.675  21.896   4.731  1.00  0.00    +0.000 C 
ATOM     13  C10 UNL A   1      10.579  21.919   3.872  1.00  0.00    +0.000 C 
ATOM     14  C11 UNL A   1      10.710  22.435   2.580  1.00  0.00    +0.000 C 
ATOM     15  C12 UNL A   1      11.932  22.964   2.126  1.00  0.00    +0.000 C 
ATOM    115  H15 UNL A   1      11.587  21.475   5.668  1.00  0.00    +0.000 H 
ATOM    116  H16 UNL A   1       9.668  21.552   4.190  1.00  0.00    +0.000 H 
ATOM    117  H17 UNL A   1       9.896  22.429   1.946  1.00  0.00    +0.000 H 
ATOM    153  H53 UNL A   1      13.891  23.433   2.759  1.00  0.00    +0.000 H 
BRANCH   11   10
ATOM     10  N1  UNL A   1      13.992  22.307   5.184  1.00  0.00    +0.000 N 
ATOM    114  H14 UNL A   1      14.324  21.388   5.307  1.00  0.00    +0.000 H 
BRANCH   10    8
ATOM      9  O2  UNL A   1      14.206  23.765   6.892  1.00  0.00    +0.000 O 
ATOM      8  C7  UNL A   1      14.669  23.279   5.871  1.00  0.00    +0.000 C 
BRANCH    8    7
ATOM      7  O1  UNL A   1      15.793  23.706   5.238  1.00  0.00    +0.000 O 
BRANCH    7    6
ATOM    113  H13 UNL A   1      16.884  22.657   6.604  1.00  0.00    +0.000 H 
ATOM      6  C6  UNL A   1      17.050  23.168   5.678  1.00  0.00    +0.000 C 
ATOM    112  H12 UNL A   1      17.747  23.972   5.798  1.00  0.00    +0.000 H 
BRANCH    6    5
ATOM      5  C5  UNL A   1      17.629  22.159   4.680  1.00  0.00    +0.000 C 
ATOM    110  H10 UNL A   1      18.654  21.993   4.939  1.00  0.00    +0.000 H 
ATOM    111  H11 UNL A   1      17.012  21.288   4.758  1.00  0.00    +0.000 H 
BRANCH    5    4
ATOM    108  H8  UNL A   1      17.376  23.623   3.160  1.00  0.00    +0.000 H 
ATOM      4  C4  UNL A   1      17.578  22.573   3.203  1.00  0.00    +0.000 C 
ATOM    109  H9  UNL A   1      18.526  22.303   2.786  1.00  0.00    +0.000 H 
BRANCH    4    3
ATOM    106  H6  UNL A   1      16.635  20.797   2.513  1.00  0.00    +0.000 H 
ATOM      3  C3  UNL A   1      16.520  21.850   2.360  1.00  0.00    +0.000 C 
ATOM    107  H7  UNL A   1      15.571  22.223   2.684  1.00  0.00    +0.000 H 
BRANCH    3    2
ATOM    105  H5  UNL A   1      16.214  21.258   0.354  1.00  0.00    +0.000 H 
ATOM      2  C2  UNL A   1      16.595  22.123   0.856  1.00  0.00    +0.000 C 
ATOM    104  H4  UNL A   1      17.615  22.317   0.595  1.00  0.00    +0.000 H 
BRANCH    2    1
ATOM      1  C1  UNL A   1      15.749  23.312   0.430  1.00  0.00    +0.000 C 
ATOM    101  H1  UNL A   1      15.141  23.035  -0.407  1.00  0.00    +0.000 H 
ATOM    102  H2  UNL A   1      16.389  24.124   0.153  1.00  0.00    +0.000 H 
ATOM    103  H3  UNL A   1      15.121  23.613   1.242  1.00  0.00    +0.000 H 
ENDBRANCH    2    1
ENDBRANCH    3    2
ENDBRANCH    4    3
ENDBRANCH    5    4
ENDBRANCH    6    5
ENDBRANCH    7    6
ENDBRANCH    8    7
ENDBRANCH   10    8
ENDBRANCH   11   10
ENDBRANCH   16   15
ENDBRANCH   20   19
BRANCH   20   21
ATOM    121  H21 UNL A   1      14.266  26.100  -3.598  1.00  0.00    +0.000 H 
ATOM    122  H22 UNL A   1      12.984  26.862  -2.687  1.00  0.00    +0.000 H 
ATOM    123  H23 UNL A   1      12.860  26.728  -4.425  1.00  0.00    +0.000 H 
ATOM     21  C18 UNL A   1      13.208  26.247  -3.534  1.00  0.00    +0.000 C 
ENDBRANCH   20   21
ENDBRANCH   22   20
ENDBRANCH   24   22
ENDBRANCH   25   24
ENDBRANCH   26   25
ENDBRANCH   27   26
ENDBRANCH   28   27
ENDBRANCH   29   28
ENDBRANCH   30   29
ENDBRANCH   31   30
ENDBRANCH   32   31
ENDBRANCH   34   32
ENDBRANCH   38   37
BRANCH   42   43
ATOM     43  C35 UNL A   1       9.127  26.262   3.710  1.00  0.00    +0.000 C 
ATOM     44  C36 UNL A   1       7.806  26.298   4.178  1.00  0.00    +0.000 C 
ATOM     45  F1  UNL A   1       6.854  26.919   3.464  1.00  0.00    +0.000 F 
ATOM     46  C37 UNL A   1       7.465  25.725   5.400  1.00  0.00    +0.000 C 
ATOM     47  F2  UNL A   1       6.203  25.803   5.846  1.00  0.00    +0.000 F 
ATOM     48  C38 UNL A   1       8.430  25.082   6.161  1.00  0.00    +0.000 C 
ATOM     49  F3  UNL A   1       8.099  24.525   7.334  1.00  0.00    +0.000 F 
ATOM     50  C39 UNL A   1       9.739  25.022   5.710  1.00  0.00    +0.000 C 
ATOM     51  F4  UNL A   1      10.671  24.394   6.440  1.00  0.00    +0.000 F 
ATOM     52  C40 UNL A   1      10.089  25.614   4.499  1.00  0.00    +0.000 C 
ATOM     53  F5  UNL A   1      11.366  25.549   4.092  1.00  0.00    +0.000 F 
ENDBRANCH   42   43
BRANCH   59   60
ATOM     65  C49 UNL A   1      14.068  34.231   2.199  1.00  0.00    +0.000 C 
ATOM     66  F8  UNL A   1      14.755  35.272   2.688  1.00  0.00    +0.000 F 
ATOM     67  C50 UNL A   1      12.687  34.297   2.095  1.00  0.00    +0.000 C 
ATOM     68  F9  UNL A   1      12.040  35.410   2.471  1.00  0.00    +0.000 F 
ATOM     69  C51 UNL A   1      11.971  33.209   1.608  1.00  0.00    +0.000 C 
ATOM     70  F10 UNL A   1      10.634  33.294   1.531  1.00  0.00    +0.000 F 
ATOM     60  C46 UNL A   1      12.628  32.038   1.201  1.00  0.00    +0.000 C 
ATOM     61  C47 UNL A   1      14.026  31.998   1.298  1.00  0.00    +0.000 C 
ATOM     62  F6  UNL A   1      14.695  30.893   0.935  1.00  0.00    +0.000 F 
ATOM     63  C48 UNL A   1      14.737  33.081   1.805  1.00  0.00    +0.000 C 
ATOM     64  F7  UNL A   1      16.070  33.007   1.927  1.00  0.00    +0.000 F 
ENDBRANCH   59   60
BRANCH   74   75
ATOM     75  C55 UNL A   1      11.050  30.085  -5.286  1.00  0.00    +0.000 C 
ATOM     76  C56 UNL A   1      10.226  31.104  -5.785  1.00  0.00    +0.000 C 
ATOM     77  F11 UNL A   1       9.184  31.536  -5.060  1.00  0.00    +0.000 F 
ATOM     78  C57 UNL A   1      10.445  31.650  -7.047  1.00  0.00    +0.000 C 
ATOM     79  F12 UNL A   1       9.618  32.594  -7.518  1.00  0.00    +0.000 F 
ATOM     80  C58 UNL A   1      11.506  31.208  -7.822  1.00  0.00    +0.000 C 
ATOM     81  F13 UNL A   1      11.717  31.734  -9.037  1.00  0.00    +0.000 F 
ATOM     82  C59 UNL A   1      12.345  30.213  -7.340  1.00  0.00    +0.000 C 
ATOM     83  F14 UNL A   1      13.377  29.790  -8.083  1.00  0.00    +0.000 F 
ATOM     84  C60 UNL A   1      12.114  29.650  -6.087  1.00  0.00    +0.000 C 
ATOM     85  F15 UNL A   1      12.932  28.682  -5.650  1.00  0.00    +0.000 F 
ENDBRANCH   74   75
TORSDOF 27
ENDMDL
MODEL 10
REMARK VINA RESULT:      -6.0     48.110     52.935
ROOT
ATOM    140  H40 UNL A   1      15.941  47.114   1.469  1.00  0.00    +0.000 H 
ATOM    141  H41 UNL A   1      15.107  47.264   3.935  1.00  0.00    +0.000 H 
ATOM    142  H42 UNL A   1      15.674  51.112   2.516  1.00  0.00    +0.000 H 
ATOM    143  H43 UNL A   1      15.459  57.423   3.435  1.00  0.00    +0.000 H 
ATOM    144  H44 UNL A   1      16.368  57.274   1.066  1.00  0.00    +0.000 H 
ATOM    145  H45 UNL A   1      15.772  53.398   2.446  1.00  0.00    +0.000 H 
ATOM    146  H46 UNL A   1      14.094  53.855   7.166  1.00  0.00    +0.000 H 
ATOM    147  H47 UNL A   1      14.214  51.302   7.323  1.00  0.00    +0.000 H 
ATOM    148  H48 UNL A   1      17.247  50.765  -2.233  1.00  0.00    +0.000 H 
ATOM    149  H49 UNL A   1      17.626  53.297  -2.250  1.00  0.00    +0.000 H 
ATOM     38  C31 UNL A   1      16.723  54.610   0.114  1.00  0.00    +0.000 C 
ATOM     39  C32 UNL A   1      16.758  53.132  -0.161  1.00  0.00    +0.000 C 
ATOM     40  N4  UNL A   1      16.394  52.136   0.609  1.00  0.00    +0.000 N 
ATOM     41  C33 UNL A   1      16.584  50.985  -0.144  1.00  0.00    +0.000 C 
ATOM     42  C34 UNL A   1      16.388  49.694   0.218  1.00  0.00    +0.000 C 
ATOM     54  C41 UNL A   1      15.955  49.271   1.522  1.00  0.00    +0.000 C 
ATOM     55  C42 UNL A   1      15.778  47.982   2.000  1.00  0.00    +0.000 C 
ATOM     56  C43 UNL A   1      15.340  48.063   3.327  1.00  0.00    +0.000 C 
ATOM     57  C44 UNL A   1      15.272  49.400   3.683  1.00  0.00    +0.000 C 
ATOM     58  N5  UNL A   1      15.641  50.129   2.563  1.00  0.00    +0.000 N 
ATOM     59  C45 UNL A   1      14.906  49.974   4.950  1.00  0.00    +0.000 C 
ATOM     71  C52 UNL A   1      14.814  51.301   5.204  1.00  0.00    +0.000 C 
ATOM     72  N6  UNL A   1      15.055  52.371   4.353  1.00  0.00    +0.000 N 
ATOM     73  C53 UNL A   1      14.816  53.451   5.056  1.00  0.00    +0.000 C 
ATOM     74  C54 UNL A   1      14.946  54.893   4.652  1.00  0.00    +0.000 C 
ATOM     86  C61 UNL A   1      15.421  55.199   3.430  1.00  0.00    +0.000 C 
ATOM     87  C62 UNL A   1      15.643  56.548   2.918  1.00  0.00    +0.000 C 
ATOM     88  C63 UNL A   1      16.128  56.471   1.667  1.00  0.00    +0.000 C 
ATOM     89  C64 UNL A   1      16.261  55.062   1.295  1.00  0.00    +0.000 C 
ATOM     90  N7  UNL A   1      15.812  54.380   2.399  1.00  0.00    +0.000 N 
ATOM     91  C65 UNL A   1      14.372  53.185   6.432  1.00  0.00    +0.000 C 
ATOM     92  C66 UNL A   1      14.425  51.863   6.481  1.00  0.00    +0.000 C 
ATOM     93  C67 UNL A   1      17.067  51.404  -1.443  1.00  0.00    +0.000 C 
ATOM     94  C68 UNL A   1      17.245  52.717  -1.486  1.00  0.00    +0.000 C 
ENDROOT
BRANCH   38   37
ATOM     34  C27 UNL A   1      17.993  57.475  -2.825  1.00  0.00    +0.000 C 
ATOM     35  C28 UNL A   1      16.647  57.096  -2.748  1.00  0.00    +0.000 C 
ATOM     36  C29 UNL A   1      16.233  56.158  -1.798  1.00  0.00    +0.000 C 
ATOM     37  C30 UNL A   1      17.164  55.574  -0.926  1.00  0.00    +0.000 C 
ATOM    138  H38 UNL A   1      15.958  57.509  -3.396  1.00  0.00    +0.000 H 
ATOM    139  H39 UNL A   1      15.237  55.895  -1.737  1.00  0.00    +0.000 H 
ATOM    150  H50 UNL A   1      19.212  55.501  -0.403  1.00  0.00    +0.000 H 
ATOM    151  H51 UNL A   1      19.901  57.236  -1.952  1.00  0.00    +0.000 H 
ATOM     95  C69 UNL A   1      18.513  55.948  -1.018  1.00  0.00    +0.000 C 
ATOM     96  C70 UNL A   1      18.917  56.923  -1.933  1.00  0.00    +0.000 C 
BRANCH   34   32
ATOM     33  O4  UNL A   1      17.891  58.524  -4.919  1.00  0.00    +0.000 O 
ATOM     32  C26 UNL A   1      18.367  58.541  -3.785  1.00  0.00    +0.000 C 
BRANCH   32   31
ATOM    137  H37 UNL A   1      18.787  60.393  -3.166  1.00  0.00    +0.000 H 
ATOM     31  N3  UNL A   1      19.223  59.553  -3.436  1.00  0.00    +0.000 N 
BRANCH   31   30
ATOM     30  C25 UNL A   1      20.675  59.580  -3.399  1.00  0.00    +0.000 C 
ATOM    135  H35 UNL A   1      21.039  58.574  -3.383  1.00  0.00    +0.000 H 
ATOM    136  H36 UNL A   1      21.017  60.101  -4.269  1.00  0.00    +0.000 H 
BRANCH   30   29
ATOM    133  H33 UNL A   1      22.237  60.540  -2.337  1.00  0.00    +0.000 H 
ATOM     29  C24 UNL A   1      21.204  60.317  -2.169  1.00  0.00    +0.000 C 
ATOM    134  H34 UNL A   1      20.588  61.184  -2.058  1.00  0.00    +0.000 H 
BRANCH   29   28
ATOM    131  H31 UNL A   1      20.064  59.313  -0.688  1.00  0.00    +0.000 H 
ATOM     28  C23 UNL A   1      21.095  59.548  -0.846  1.00  0.00    +0.000 C 
ATOM    132  H32 UNL A   1      21.727  58.691  -0.959  1.00  0.00    +0.000 H 
BRANCH   28   27
ATOM    129  H29 UNL A   1      21.233  59.767   1.262  1.00  0.00    +0.000 H 
ATOM    130  H30 UNL A   1      22.676  60.274   0.328  1.00  0.00    +0.000 H 
ATOM     27  C22 UNL A   1      21.608  60.279   0.401  1.00  0.00    +0.000 C 
BRANCH   27   26
ATOM     26  C21 UNL A   1      21.202  61.753   0.515  1.00  0.00    +0.000 C 
ATOM    127  H27 UNL A   1      20.328  61.908  -0.081  1.00  0.00    +0.000 H 
ATOM    128  H28 UNL A   1      21.033  61.947   1.554  1.00  0.00    +0.000 H 
BRANCH   26   25
ATOM     25  C20 UNL A   1      22.280  62.734   0.053  1.00  0.00    +0.000 C 
ATOM    125  H25 UNL A   1      22.176  62.890  -1.001  1.00  0.00    +0.000 H 
ATOM    126  H26 UNL A   1      22.150  63.647   0.595  1.00  0.00    +0.000 H 
BRANCH   25   24
ATOM    124  H24 UNL A   1      23.758  61.930   1.246  1.00  0.00    +0.000 H 
ATOM     24  N2  UNL A   1      23.615  62.239   0.322  1.00  0.00    +0.000 N 
BRANCH   24   22
ATOM     22  C19 UNL A   1      24.703  62.133  -0.487  1.00  0.00    +0.000 C 
ATOM     23  O3  UNL A   1      24.954  63.104  -1.211  1.00  0.00    +0.000 O 
BRANCH   22   20
ATOM     20  C17 UNL A   1      25.598  60.886  -0.539  1.00  0.00    +0.000 C 
ATOM    120  H20 UNL A   1      25.624  60.495   0.456  1.00  0.00    +0.000 H 
BRANCH   20   19
ATOM     97  C71 UNL A   1      24.885  59.888  -2.731  1.00  0.00    +0.000 C 
ATOM     98  C72 UNL A   1      24.367  58.860  -3.520  1.00  0.00    +0.000 C 
ATOM     99  F16 UNL A   1      24.252  59.096  -4.836  1.00  0.00    +0.000 F 
ATOM     16  C13 UNL A   1      23.966  57.628  -2.975  1.00  0.00    +0.000 C 
ATOM     17  C14 UNL A   1      24.062  57.501  -1.579  1.00  0.00    +0.000 C 
ATOM     18  C15 UNL A   1      24.542  58.548  -0.777  1.00  0.00    +0.000 C 
ATOM     19  C16 UNL A   1      24.989  59.748  -1.341  1.00  0.00    +0.000 C 
ATOM    118  H18 UNL A   1      23.773  56.616  -1.134  1.00  0.00    +0.000 H 
ATOM    119  H19 UNL A   1      24.566  58.430   0.249  1.00  0.00    +0.000 H 
ATOM    152  H52 UNL A   1      25.194  60.765  -3.178  1.00  0.00    +0.000 H 
BRANCH   16   15
ATOM    100  C73 UNL A   1      24.275  55.915  -4.792  1.00  0.00    +0.000 C 
ATOM     11  C8  UNL A   1      23.778  54.959  -5.685  1.00  0.00    +0.000 C 
ATOM     12  C9  UNL A   1      22.446  54.558  -5.583  1.00  0.00    +0.000 C 
ATOM     13  C10 UNL A   1      21.632  55.091  -4.587  1.00  0.00    +0.000 C 
ATOM     14  C11 UNL A   1      22.128  56.072  -3.725  1.00  0.00    +0.000 C 
ATOM     15  C12 UNL A   1      23.456  56.525  -3.822  1.00  0.00    +0.000 C 
ATOM    115  H15 UNL A   1      22.065  53.866  -6.246  1.00  0.00    +0.000 H 
ATOM    116  H16 UNL A   1      20.659  54.760  -4.486  1.00  0.00    +0.000 H 
ATOM    117  H17 UNL A   1      21.509  56.473  -3.003  1.00  0.00    +0.000 H 
ATOM    153  H53 UNL A   1      25.271  56.181  -4.846  1.00  0.00    +0.000 H 
BRANCH   11   10
ATOM     10  N1  UNL A   1      24.529  54.473  -6.766  1.00  0.00    +0.000 N 
ATOM    114  H14 UNL A   1      24.084  54.507  -7.643  1.00  0.00    +0.000 H 
BRANCH   10    8
ATOM      9  O2  UNL A   1      26.554  54.150  -5.823  1.00  0.00    +0.000 O 
ATOM      8  C7  UNL A   1      25.798  53.958  -6.764  1.00  0.00    +0.000 C 
BRANCH    8    7
ATOM      7  O1  UNL A   1      26.139  53.356  -7.933  1.00  0.00    +0.000 O 
BRANCH    7    6
ATOM    113  H13 UNL A   1      24.635  53.120  -9.289  1.00  0.00    +0.000 H 
ATOM      6  C6  UNL A   1      25.152  52.525  -8.566  1.00  0.00    +0.000 C 
ATOM    112  H12 UNL A   1      24.482  52.153  -7.817  1.00  0.00    +0.000 H 
BRANCH    6    5
ATOM      5  C5  UNL A   1      25.781  51.334  -9.298  1.00  0.00    +0.000 C 
ATOM    110  H10 UNL A   1      25.702  51.516 -10.349  1.00  0.00    +0.000 H 
ATOM    111  H11 UNL A   1      26.788  51.275  -8.940  1.00  0.00    +0.000 H 
BRANCH    5    4
ATOM    108  H8  UNL A   1      25.282  49.755  -7.967  1.00  0.00    +0.000 H 
ATOM      4  C4  UNL A   1      25.156  49.963  -9.008  1.00  0.00    +0.000 C 
ATOM    109  H9  UNL A   1      24.131  50.034  -9.309  1.00  0.00    +0.000 H 
BRANCH    4    3
ATOM    106  H6  UNL A   1      25.561  48.966 -10.842  1.00  0.00    +0.000 H 
ATOM      3  C3  UNL A   1      25.753  48.794  -9.802  1.00  0.00    +0.000 C 
ATOM    107  H7  UNL A   1      26.796  48.770  -9.563  1.00  0.00    +0.000 H 
BRANCH    3    2
ATOM    105  H5  UNL A   1      24.160  47.538  -9.207  1.00  0.00    +0.000 H 
ATOM      2  C2  UNL A   1      25.198  47.416  -9.438  1.00  0.00    +0.000 C 
ATOM    104  H4  UNL A   1      25.748  47.035  -8.603  1.00  0.00    +0.000 H 
BRANCH    2    1
ATOM      1  C1  UNL A   1      25.298  46.419 -10.582  1.00  0.00    +0.000 C 
ATOM    101  H1  UNL A   1      26.017  45.665 -10.335  1.00  0.00    +0.000 H 
ATOM    102  H2  UNL A   1      25.605  46.927 -11.472  1.00  0.00    +0.000 H 
ATOM    103  H3  UNL A   1      24.345  45.962 -10.743  1.00  0.00    +0.000 H 
ENDBRANCH    2    1
ENDBRANCH    3    2
ENDBRANCH    4    3
ENDBRANCH    5    4
ENDBRANCH    6    5
ENDBRANCH    7    6
ENDBRANCH    8    7
ENDBRANCH   10    8
ENDBRANCH   11   10
ENDBRANCH   16   15
ENDBRANCH   20   19
BRANCH   20   21
ATOM    121  H21 UNL A   1      27.665  60.757  -0.006  1.00  0.00    +0.000 H 
ATOM    122  H22 UNL A   1      27.227  62.246  -0.810  1.00  0.00    +0.000 H 
ATOM    123  H23 UNL A   1      27.372  60.767  -1.729  1.00  0.00    +0.000 H 
ATOM     21  C18 UNL A   1      27.076  61.186  -0.789  1.00  0.00    +0.000 C 
ENDBRANCH   20   21
ENDBRANCH   22   20
ENDBRANCH   24   22
ENDBRANCH   25   24
ENDBRANCH   26   25
ENDBRANCH   27   26
ENDBRANCH   28   27
ENDBRANCH   29   28
ENDBRANCH   30   29
ENDBRANCH   31   30
ENDBRANCH   32   31
ENDBRANCH   34   32
ENDBRANCH   38   37
BRANCH   42   43
ATOM     43  C35 UNL A   1      16.648  48.640  -0.816  1.00  0.00    +0.000 C 
ATOM     44  C36 UNL A   1      17.842  47.905  -0.828  1.00  0.00    +0.000 C 
ATOM     45  F1  UNL A   1      18.807  48.170   0.066  1.00  0.00    +0.000 F 
ATOM     46  C37 UNL A   1      18.063  46.915  -1.782  1.00  0.00    +0.000 C 
ATOM     47  F2  UNL A   1      19.226  46.250  -1.800  1.00  0.00    +0.000 F 
ATOM     48  C38 UNL A   1      17.085  46.624  -2.722  1.00  0.00    +0.000 C 
ATOM     49  F3  UNL A   1      17.296  45.667  -3.637  1.00  0.00    +0.000 F 
ATOM     50  C39 UNL A   1      15.891  47.328  -2.719  1.00  0.00    +0.000 C 
ATOM     51  F4  UNL A   1      14.942  47.042  -3.621  1.00  0.00    +0.000 F 
ATOM     52  C40 UNL A   1      15.676  48.334  -1.780  1.00  0.00    +0.000 C 
ATOM     53  F5  UNL A   1      14.515  49.006  -1.806  1.00  0.00    +0.000 F 
ENDBRANCH   42   43
BRANCH   59   60
ATOM     65  C49 UNL A   1      14.106  47.266   8.200  1.00  0.00    +0.000 C 
ATOM     66  F8  UNL A   1      13.859  46.431   9.218  1.00  0.00    +0.000 F 
ATOM     67  C50 UNL A   1      15.383  47.772   8.011  1.00  0.00    +0.000 C 
ATOM     68  F9  UNL A   1      16.374  47.414   8.839  1.00  0.00    +0.000 F 
ATOM     69  C51 UNL A   1      15.636  48.657   6.967  1.00  0.00    +0.000 C 
ATOM     70  F10 UNL A   1      16.877  49.143   6.816  1.00  0.00    +0.000 F 
ATOM     60  C46 UNL A   1      14.615  49.040   6.084  1.00  0.00    +0.000 C 
ATOM     61  C47 UNL A   1      13.335  48.502   6.282  1.00  0.00    +0.000 C 
ATOM     62  F6  UNL A   1      12.325  48.852   5.471  1.00  0.00    +0.000 F 
ATOM     63  C48 UNL A   1      13.082  47.634   7.339  1.00  0.00    +0.000 C 
ATOM     64  F7  UNL A   1      11.842  47.164   7.535  1.00  0.00    +0.000 F 
ENDBRANCH   59   60
BRANCH   74   75
ATOM     75  C55 UNL A   1      14.599  55.979   5.601  1.00  0.00    +0.000 C 
ATOM     76  C56 UNL A   1      13.266  56.378   5.778  1.00  0.00    +0.000 C 
ATOM     77  F11 UNL A   1      12.292  55.786   5.072  1.00  0.00    +0.000 F 
ATOM     78  C57 UNL A   1      12.938  57.414   6.648  1.00  0.00    +0.000 C 
ATOM     79  F12 UNL A   1      11.662  57.804   6.769  1.00  0.00    +0.000 F 
ATOM     80  C58 UNL A   1      13.931  58.053   7.376  1.00  0.00    +0.000 C 
ATOM     81  F13 UNL A   1      13.614  59.050   8.214  1.00  0.00    +0.000 F 
ATOM     82  C59 UNL A   1      15.253  57.661   7.229  1.00  0.00    +0.000 C 
ATOM     83  F14 UNL A   1      16.214  58.270   7.938  1.00  0.00    +0.000 F 
ATOM     84  C60 UNL A   1      15.586  56.640   6.342  1.00  0.00    +0.000 C 
ATOM     85  F15 UNL A   1      16.874  56.289   6.210  1.00  0.00    +0.000 F 
ENDBRANCH   74   75
TORSDOF 27
ENDMDL
