MODEL 1
REMARK VINA RESULT:      -9.6      0.000      0.000
ROOT
ATOM     32  C23 UNL A   1      10.658   3.058  21.259  1.00  0.00    +0.000 C 
ATOM     33  C24 UNL A   1      11.188   3.507  19.927  1.00  0.00    +0.000 C 
ATOM     34  N6  UNL A   1      10.990   4.637  19.295  1.00  0.00    +0.000 N 
ATOM     35  C25 UNL A   1      11.746   4.557  18.133  1.00  0.00    +0.000 C 
ATOM     36  C26 UNL A   1      11.833   5.449  17.119  1.00  0.00    +0.000 C 
ATOM     48  C33 UNL A   1      11.113   6.695  17.071  1.00  0.00    +0.000 C 
ATOM     49  C34 UNL A   1      11.083   7.636  16.057  1.00  0.00    +0.000 C 
ATOM     50  C35 UNL A   1      10.278   8.703  16.474  1.00  0.00    +0.000 C 
ATOM     51  C36 UNL A   1       9.771   8.404  17.730  1.00  0.00    +0.000 C 
ATOM     52  N7  UNL A   1      10.295   7.172  18.085  1.00  0.00    +0.000 N 
ATOM     53  C37 UNL A   1       8.876   9.185  18.545  1.00  0.00    +0.000 C 
ATOM     65  C44 UNL A   1       8.416   8.818  19.766  1.00  0.00    +0.000 C 
ATOM     66  N8  UNL A   1       8.678   7.660  20.485  1.00  0.00    +0.000 N 
ATOM     67  C45 UNL A   1       8.011   7.774  21.606  1.00  0.00    +0.000 C 
ATOM     68  C46 UNL A   1       7.907   6.804  22.751  1.00  0.00    +0.000 C 
ATOM     80  C53 UNL A   1       8.541   5.619  22.671  1.00  0.00    +0.000 C 
ATOM     81  C54 UNL A   1       8.524   4.577  23.692  1.00  0.00    +0.000 C 
ATOM     82  C55 UNL A   1       9.297   3.556  23.290  1.00  0.00    +0.000 C 
ATOM     83  C56 UNL A   1       9.838   3.859  21.966  1.00  0.00    +0.000 C 
ATOM     84  N9  UNL A   1       9.331   5.100  21.674  1.00  0.00    +0.000 N 
ATOM     85  C57 UNL A   1       7.268   9.035  21.738  1.00  0.00    +0.000 C 
ATOM     86  C58 UNL A   1       7.520   9.618  20.575  1.00  0.00    +0.000 C 
ATOM     87  C59 UNL A   1      12.445   3.290  18.171  1.00  0.00    +0.000 C 
ATOM     88  C60 UNL A   1      12.082   2.575  19.226  1.00  0.00    +0.000 C 
ATOM    117  H27 UNL A   1      11.569   7.565  15.150  1.00  0.00    +0.000 H 
ATOM    118  H28 UNL A   1      10.093   9.565  15.939  1.00  0.00    +0.000 H 
ATOM    119  H29 UNL A   1      10.114   6.703  18.932  1.00  0.00    +0.000 H 
ATOM    120  H30 UNL A   1       8.000   4.619  24.581  1.00  0.00    +0.000 H 
ATOM    121  H31 UNL A   1       9.481   2.696  23.830  1.00  0.00    +0.000 H 
ATOM    122  H32 UNL A   1       9.515   5.575  20.831  1.00  0.00    +0.000 H 
ATOM    123  H33 UNL A   1       6.700   9.378  22.530  1.00  0.00    +0.000 H 
ATOM    124  H34 UNL A   1       7.126  10.526  20.282  1.00  0.00    +0.000 H 
ATOM    125  H35 UNL A   1      13.136   2.984  17.468  1.00  0.00    +0.000 H 
ATOM    126  H36 UNL A   1      12.356   1.614  19.486  1.00  0.00    +0.000 H 
ENDROOT
BRANCH   32   31
ATOM    115  H25 UNL A   1      13.499   0.371  23.727  1.00  0.00    +0.000 H 
ATOM    116  H26 UNL A   1      12.750   2.528  22.901  1.00  0.00    +0.000 H 
ATOM     89  C61 UNL A   1      10.354   0.600  21.556  1.00  0.00    +0.000 C 
ATOM     90  C62 UNL A   1      10.741  -0.625  22.094  1.00  0.00    +0.000 C 
ATOM    127  H37 UNL A   1       9.520   0.653  20.949  1.00  0.00    +0.000 H 
ATOM     28  C19 UNL A   1      11.921  -0.717  22.837  1.00  0.00    +0.000 C 
ATOM     29  C20 UNL A   1      12.650   0.435  23.142  1.00  0.00    +0.000 C 
ATOM     30  C21 UNL A   1      12.226   1.673  22.656  1.00  0.00    +0.000 C 
ATOM     31  C22 UNL A   1      11.091   1.761  21.835  1.00  0.00    +0.000 C 
ATOM    128  H38 UNL A   1      10.156  -1.462  21.944  1.00  0.00    +0.000 H 
BRANCH   28   26
ATOM     26  C18 UNL A   1      12.414  -2.023  23.324  1.00  0.00    +0.000 C 
ATOM     27  O3  UNL A   1      12.168  -3.043  22.686  1.00  0.00    +0.000 O 
BRANCH   26   25
ATOM     25  N5  UNL A   1      13.126  -2.093  24.494  1.00  0.00    +0.000 N 
ATOM    114  H24 UNL A   1      14.106  -2.108  24.392  1.00  0.00    +0.000 H 
BRANCH   25   24
ATOM    113  H23 UNL A   1      12.844  -3.126  26.243  1.00  0.00    +0.000 H 
ATOM    112  H22 UNL A   1      11.590  -1.939  25.862  1.00  0.00    +0.000 H 
ATOM     24  C17 UNL A   1      12.638  -2.148  25.862  1.00  0.00    +0.000 C 
BRANCH   24   23
ATOM    111  H21 UNL A   1      13.806  -1.706  27.544  1.00  0.00    +0.000 H 
ATOM    110  H20 UNL A   1      12.604  -0.450  27.129  1.00  0.00    +0.000 H 
ATOM     23  C16 UNL A   1      13.339  -1.139  26.767  1.00  0.00    +0.000 C 
BRANCH   23   22
ATOM    108  H18 UNL A   1      15.256  -1.005  25.867  1.00  0.00    +0.000 H 
ATOM    109  H19 UNL A   1      14.013   0.113  25.226  1.00  0.00    +0.000 H 
ATOM     22  C15 UNL A   1      14.454  -0.334  26.092  1.00  0.00    +0.000 C 
BRANCH   22   21
ATOM    106  H16 UNL A   1      14.965   0.545  27.956  1.00  0.00    +0.000 H 
ATOM    107  H17 UNL A   1      16.022   0.973  26.576  1.00  0.00    +0.000 H 
ATOM     21  C14 UNL A   1      15.021   0.821  26.924  1.00  0.00    +0.000 C 
BRANCH   21   20
ATOM    105  H15 UNL A   1      13.440   2.137  27.386  1.00  0.00    +0.000 H 
ATOM     20  C13 UNL A   1      14.302   2.164  26.752  1.00  0.00    +0.000 C 
ATOM    104  H14 UNL A   1      14.051   2.281  25.718  1.00  0.00    +0.000 H 
BRANCH   20   19
ATOM     19  C12 UNL A   1      15.128   3.373  27.183  1.00  0.00    +0.000 C 
ATOM    102  H12 UNL A   1      16.154   3.207  26.926  1.00  0.00    +0.000 H 
ATOM    103  H13 UNL A   1      14.755   4.241  26.680  1.00  0.00    +0.000 H 
BRANCH   19   18
ATOM     18  N4  UNL A   1      15.024   3.584  28.615  1.00  0.00    +0.000 N 
ATOM    101  H11 UNL A   1      15.566   2.970  29.160  1.00  0.00    +0.000 H 
BRANCH   18   16
ATOM     17  O2  UNL A   1      14.715   5.659  29.329  1.00  0.00    +0.000 O 
ATOM     16  C11 UNL A   1      14.304   4.493  29.330  1.00  0.00    +0.000 C 
BRANCH   16    2
ATOM      2  C2  UNL A   1      13.038   4.114  30.104  1.00  0.00    +0.000 C 
ATOM     94  H4  UNL A   1      12.667   3.163  29.782  1.00  0.00    +0.000 H 
BRANCH    2    1
ATOM      1  C1  UNL A   1      13.305   3.850  31.582  1.00  0.00    +0.000 C 
ATOM     91  H1  UNL A   1      14.213   3.291  31.685  1.00  0.00    +0.000 H 
ATOM     92  H2  UNL A   1      12.493   3.291  31.998  1.00  0.00    +0.000 H 
ATOM     93  H3  UNL A   1      13.399   4.782  32.098  1.00  0.00    +0.000 H 
ENDBRANCH    2    1
BRANCH    2    3
ATOM      3  S1  UNL A   1      11.740   5.344  29.718  1.00  0.00    +0.000 S 
BRANCH    3    4
ATOM     97  H7  UNL A   1       8.003   0.196  25.401  1.00  0.00    +0.000 H 
ATOM     98  H8  UNL A   1       7.238   2.415  26.036  1.00  0.00    +0.000 H 
ATOM      4  C3  UNL A   1      10.712   4.450  28.626  1.00  0.00    +0.000 C 
ATOM      5  N1  UNL A   1      11.138   3.290  28.245  1.00  0.00    +0.000 N 
ATOM      6  C4  UNL A   1      10.288   2.500  27.459  1.00  0.00    +0.000 C 
ATOM      7  C5  UNL A   1      10.717   1.225  27.082  1.00  0.00    +0.000 C 
ATOM      8  C6  UNL A   1       9.885   0.385  26.335  1.00  0.00    +0.000 C 
ATOM      9  C7  UNL A   1       8.616   0.816  25.954  1.00  0.00    +0.000 C 
ATOM     10  C8  UNL A   1       8.175   2.088  26.318  1.00  0.00    +0.000 C 
ATOM     11  C9  UNL A   1       9.014   2.919  27.070  1.00  0.00    +0.000 C 
ATOM     12  C10 UNL A   1       8.565   4.254  27.503  1.00  0.00    +0.000 C 
ATOM     13  O1  UNL A   1       7.447   4.671  27.202  1.00  0.00    +0.000 O 
ATOM     14  N2  UNL A   1       9.470   4.974  28.283  1.00  0.00    +0.000 N 
ATOM     95  H5  UNL A   1      11.657   0.900  27.358  1.00  0.00    +0.000 H 
ATOM     96  H6  UNL A   1      10.212  -0.556  26.066  1.00  0.00    +0.000 H 
BRANCH   14   15
ATOM     99  H9  UNL A   1       9.653   7.042  28.640  1.00  0.00    +0.000 H 
ATOM    100  H10 UNL A   1       8.149   6.390  29.110  1.00  0.00    +0.000 H 
ATOM     15  N3  UNL A   1       9.046   6.270  28.724  1.00  0.00    +0.000 N 
ENDBRANCH   14   15
ENDBRANCH    3    4
ENDBRANCH    2    3
ENDBRANCH   16    2
ENDBRANCH   18   16
ENDBRANCH   19   18
ENDBRANCH   20   19
ENDBRANCH   21   20
ENDBRANCH   22   21
ENDBRANCH   23   22
ENDBRANCH   24   23
ENDBRANCH   25   24
ENDBRANCH   26   25
ENDBRANCH   28   26
ENDBRANCH   32   31
BRANCH   36   37
ATOM     37  C27 UNL A   1      12.742   5.107  15.973  1.00  0.00    +0.000 C 
ATOM     38  C28 UNL A   1      12.275   4.413  14.847  1.00  0.00    +0.000 C 
ATOM     39  F1  UNL A   1      10.998   4.005  14.786  1.00  0.00    +0.000 F 
ATOM     40  C29 UNL A   1      13.130   4.096  13.795  1.00  0.00    +0.000 C 
ATOM     41  F2  UNL A   1      12.674   3.386  12.754  1.00  0.00    +0.000 F 
ATOM     42  C30 UNL A   1      14.456   4.498  13.832  1.00  0.00    +0.000 C 
ATOM     43  F3  UNL A   1      15.278   4.194  12.817  1.00  0.00    +0.000 F 
ATOM     44  C31 UNL A   1      14.934   5.207  14.924  1.00  0.00    +0.000 C 
ATOM     45  F4  UNL A   1      16.213   5.606  14.955  1.00  0.00    +0.000 F 
ATOM     46  C32 UNL A   1      14.088   5.499  15.991  1.00  0.00    +0.000 C 
ATOM     47  F5  UNL A   1      14.584   6.171  17.041  1.00  0.00    +0.000 F 
ENDBRANCH   36   37
BRANCH   53   54
ATOM     54  C38 UNL A   1       8.396  10.496  17.995  1.00  0.00    +0.000 C 
ATOM     55  C39 UNL A   1       9.109  11.684  18.203  1.00  0.00    +0.000 C 
ATOM     56  F6  UNL A   1      10.221  11.683  18.954  1.00  0.00    +0.000 F 
ATOM     57  C40 UNL A   1       8.660  12.889  17.670  1.00  0.00    +0.000 C 
ATOM     58  F7  UNL A   1       9.334  14.021  17.916  1.00  0.00    +0.000 F 
ATOM     59  C41 UNL A   1       7.511  12.922  16.894  1.00  0.00    +0.000 C 
ATOM     60  F8  UNL A   1       7.085  14.083  16.375  1.00  0.00    +0.000 F 
ATOM     61  C42 UNL A   1       6.799  11.756  16.662  1.00  0.00    +0.000 C 
ATOM     62  F9  UNL A   1       5.695  11.784  15.904  1.00  0.00    +0.000 F 
ATOM     63  C43 UNL A   1       7.231  10.554  17.217  1.00  0.00    +0.000 C 
ATOM     64  F10 UNL A   1       6.516   9.443  16.984  1.00  0.00    +0.000 F 
ENDBRANCH   53   54
BRANCH   68   69
ATOM     69  C47 UNL A   1       7.089   7.121  23.949  1.00  0.00    +0.000 C 
ATOM     70  C48 UNL A   1       7.614   7.901  24.989  1.00  0.00    +0.000 C 
ATOM     71  F11 UNL A   1       8.878   8.344  24.920  1.00  0.00    +0.000 F 
ATOM     72  C49 UNL A   1       6.854   8.201  26.116  1.00  0.00    +0.000 C 
ATOM     73  F12 UNL A   1       7.392   8.919  27.113  1.00  0.00    +0.000 F 
ATOM     74  C50 UNL A   1       5.547   7.749  26.216  1.00  0.00    +0.000 C 
ATOM     75  F13 UNL A   1       4.814   8.043  27.299  1.00  0.00    +0.000 F 
ATOM     76  C51 UNL A   1       5.002   6.985  25.193  1.00  0.00    +0.000 C 
ATOM     77  F14 UNL A   1       3.736   6.556  25.281  1.00  0.00    +0.000 F 
ATOM     78  C52 UNL A   1       5.770   6.664  24.077  1.00  0.00    +0.000 C 
ATOM     79  F15 UNL A   1       5.221   5.917  23.107  1.00  0.00    +0.000 F 
ENDBRANCH   68   69
TORSDOF 19
ENDMDL
MODEL 2
REMARK VINA RESULT:      -9.3     37.173     41.671
ROOT
ATOM     32  C23 UNL A   1      26.042  35.491  45.589  1.00  0.00    +0.000 C 
ATOM     33  C24 UNL A   1      27.350  35.475  44.852  1.00  0.00    +0.000 C 
ATOM     34  N6  UNL A   1      28.386  36.264  44.985  1.00  0.00    +0.000 N 
ATOM     35  C25 UNL A   1      29.343  35.783  44.100  1.00  0.00    +0.000 C 
ATOM     36  C26 UNL A   1      30.567  36.290  43.823  1.00  0.00    +0.000 C 
ATOM     48  C33 UNL A   1      31.108  37.479  44.428  1.00  0.00    +0.000 C 
ATOM     49  C34 UNL A   1      32.311  38.111  44.165  1.00  0.00    +0.000 C 
ATOM     50  C35 UNL A   1      32.427  39.208  45.027  1.00  0.00    +0.000 C 
ATOM     51  C36 UNL A   1      31.275  39.285  45.795  1.00  0.00    +0.000 C 
ATOM     52  N7  UNL A   1      30.477  38.216  45.419  1.00  0.00    +0.000 N 
ATOM     53  C37 UNL A   1      30.928  40.261  46.796  1.00  0.00    +0.000 C 
ATOM     65  C44 UNL A   1      29.771  40.274  47.502  1.00  0.00    +0.000 C 
ATOM     66  N8  UNL A   1      28.696  39.399  47.430  1.00  0.00    +0.000 N 
ATOM     67  C45 UNL A   1      27.826  39.824  48.313  1.00  0.00    +0.000 C 
ATOM     68  C46 UNL A   1      26.467  39.273  48.647  1.00  0.00    +0.000 C 
ATOM     80  C53 UNL A   1      26.001  38.210  47.964  1.00  0.00    +0.000 C 
ATOM     81  C54 UNL A   1      24.703  37.574  48.168  1.00  0.00    +0.000 C 
ATOM     82  C55 UNL A   1      24.595  36.522  47.342  1.00  0.00    +0.000 C 
ATOM     83  C56 UNL A   1      25.805  36.430  46.526  1.00  0.00    +0.000 C 
ATOM     84  N9  UNL A   1      26.581  37.476  46.959  1.00  0.00    +0.000 N 
ATOM     85  C57 UNL A   1      28.265  41.005  49.068  1.00  0.00    +0.000 C 
ATOM     86  C58 UNL A   1      29.440  41.260  48.509  1.00  0.00    +0.000 C 
ATOM     87  C59 UNL A   1      28.784  34.606  43.472  1.00  0.00    +0.000 C 
ATOM     88  C60 UNL A   1      27.529  34.411  43.852  1.00  0.00    +0.000 C 
ATOM    117  H27 UNL A   1      33.004  37.824  43.457  1.00  0.00    +0.000 H 
ATOM    118  H28 UNL A   1      33.232  39.851  45.081  1.00  0.00    +0.000 H 
ATOM    119  H29 UNL A   1      29.593  38.010  45.800  1.00  0.00    +0.000 H 
ATOM    120  H30 UNL A   1      23.984  37.885  48.840  1.00  0.00    +0.000 H 
ATOM    121  H31 UNL A   1      23.789  35.881  47.291  1.00  0.00    +0.000 H 
ATOM    122  H32 UNL A   1      27.468  37.682  46.585  1.00  0.00    +0.000 H 
ATOM    123  H33 UNL A   1      27.785  41.506  49.833  1.00  0.00    +0.000 H 
ATOM    124  H34 UNL A   1      30.042  42.060  48.760  1.00  0.00    +0.000 H 
ATOM    125  H35 UNL A   1      29.295  33.997  42.814  1.00  0.00    +0.000 H 
ATOM    126  H36 UNL A   1      26.855  33.699  43.531  1.00  0.00    +0.000 H 
ENDROOT
BRANCH   32   31
ATOM    115  H25 UNL A   1      22.253  33.783  43.563  1.00  0.00    +0.000 H 
ATOM    116  H26 UNL A   1      23.957  35.487  43.855  1.00  0.00    +0.000 H 
ATOM     89  C61 UNL A   1      25.112  33.222  46.048  1.00  0.00    +0.000 C 
ATOM     90  C62 UNL A   1      24.177  32.214  45.823  1.00  0.00    +0.000 C 
ATOM    127  H37 UNL A   1      25.866  33.078  46.738  1.00  0.00    +0.000 H 
ATOM     28  C19 UNL A   1      23.102  32.443  44.960  1.00  0.00    +0.000 C 
ATOM     29  C20 UNL A   1      23.026  33.632  44.232  1.00  0.00    +0.000 C 
ATOM     30  C21 UNL A   1      23.998  34.618  44.410  1.00  0.00    +0.000 C 
ATOM     31  C22 UNL A   1      25.033  34.432  45.342  1.00  0.00    +0.000 C 
ATOM    128  H38 UNL A   1      24.281  31.301  46.292  1.00  0.00    +0.000 H 
BRANCH   28   26
ATOM     26  C18 UNL A   1      22.035  31.433  44.789  1.00  0.00    +0.000 C 
ATOM     27  O3  UNL A   1      22.332  30.245  44.692  1.00  0.00    +0.000 O 
BRANCH   26   25
ATOM     25  N5  UNL A   1      20.724  31.826  44.718  1.00  0.00    +0.000 N 
ATOM    114  H24 UNL A   1      20.348  32.193  45.552  1.00  0.00    +0.000 H 
BRANCH   25   24
ATOM    113  H23 UNL A   1      19.247  30.874  43.661  1.00  0.00    +0.000 H 
ATOM    112  H22 UNL A   1      20.381  31.815  42.684  1.00  0.00    +0.000 H 
ATOM     24  C17 UNL A   1      19.811  31.780  43.588  1.00  0.00    +0.000 C 
BRANCH   24   23
ATOM    111  H21 UNL A   1      19.243  33.693  42.951  1.00  0.00    +0.000 H 
ATOM    110  H20 UNL A   1      18.703  33.274  44.603  1.00  0.00    +0.000 H 
ATOM     23  C16 UNL A   1      18.826  32.945  43.592  1.00  0.00    +0.000 C 
BRANCH   23   22
ATOM    108  H18 UNL A   1      17.184  33.380  42.321  1.00  0.00    +0.000 H 
ATOM    109  H19 UNL A   1      17.520  31.644  42.594  1.00  0.00    +0.000 H 
ATOM     22  C15 UNL A   1      17.441  32.619  43.026  1.00  0.00    +0.000 C 
BRANCH   22   21
ATOM    106  H16 UNL A   1      16.662  32.988  44.967  1.00  0.00    +0.000 H 
ATOM    107  H17 UNL A   1      15.474  33.035  43.629  1.00  0.00    +0.000 H 
ATOM     21  C14 UNL A   1      16.315  32.534  44.063  1.00  0.00    +0.000 C 
BRANCH   21   20
ATOM    105  H15 UNL A   1      14.872  31.001  43.953  1.00  0.00    +0.000 H 
ATOM     20  C13 UNL A   1      15.840  31.115  44.396  1.00  0.00    +0.000 C 
ATOM    104  H14 UNL A   1      15.822  31.008  45.460  1.00  0.00    +0.000 H 
BRANCH   20   19
ATOM     19  C12 UNL A   1      16.721  30.011  43.819  1.00  0.00    +0.000 C 
ATOM    102  H12 UNL A   1      16.887  30.202  42.778  1.00  0.00    +0.000 H 
ATOM    103  H13 UNL A   1      17.653  30.004  44.347  1.00  0.00    +0.000 H 
BRANCH   19   18
ATOM     18  N4  UNL A   1      16.091  28.714  43.972  1.00  0.00    +0.000 N 
ATOM    101  H11 UNL A   1      15.995  28.413  44.904  1.00  0.00    +0.000 H 
BRANCH   18   16
ATOM     17  O2  UNL A   1      15.075  28.335  42.039  1.00  0.00    +0.000 O 
ATOM     16  C11 UNL A   1      15.606  27.845  43.042  1.00  0.00    +0.000 C 
BRANCH   16    2
ATOM      2  C2  UNL A   1      15.706  26.325  43.206  1.00  0.00    +0.000 C 
ATOM     94  H4  UNL A   1      16.200  25.884  42.365  1.00  0.00    +0.000 H 
BRANCH    2    1
ATOM      1  C1  UNL A   1      16.628  25.913  44.348  1.00  0.00    +0.000 C 
ATOM     91  H1  UNL A   1      17.460  25.365  43.955  1.00  0.00    +0.000 H 
ATOM     92  H2  UNL A   1      16.089  25.298  45.038  1.00  0.00    +0.000 H 
ATOM     93  H3  UNL A   1      16.983  26.788  44.852  1.00  0.00    +0.000 H 
ENDBRANCH    2    1
BRANCH    2    3
ATOM      3  S1  UNL A   1      14.011  25.639  43.240  1.00  0.00    +0.000 S 
BRANCH    3    4
ATOM     97  H7  UNL A   1      14.695  22.727  36.159  1.00  0.00    +0.000 H 
ATOM     98  H8  UNL A   1      14.062  21.537  38.182  1.00  0.00    +0.000 H 
ATOM      4  C3  UNL A   1      13.963  24.724  41.754  1.00  0.00    +0.000 C 
ATOM      5  N1  UNL A   1      14.250  25.364  40.668  1.00  0.00    +0.000 N 
ATOM      6  C4  UNL A   1      14.330  24.635  39.474  1.00  0.00    +0.000 C 
ATOM      7  C5  UNL A   1      14.687  25.307  38.302  1.00  0.00    +0.000 C 
ATOM      8  C6  UNL A   1      14.823  24.613  37.095  1.00  0.00    +0.000 C 
ATOM      9  C7  UNL A   1      14.596  23.238  37.050  1.00  0.00    +0.000 C 
ATOM     10  C8  UNL A   1      14.235  22.554  38.210  1.00  0.00    +0.000 C 
ATOM     11  C9  UNL A   1      14.106  23.259  39.414  1.00  0.00    +0.000 C 
ATOM     12  C10 UNL A   1      13.761  22.560  40.664  1.00  0.00    +0.000 C 
ATOM     13  O1  UNL A   1      13.567  21.345  40.676  1.00  0.00    +0.000 O 
ATOM     14  N2  UNL A   1      13.704  23.359  41.807  1.00  0.00    +0.000 N 
ATOM     95  H5  UNL A   1      14.854  26.325  38.327  1.00  0.00    +0.000 H 
ATOM     96  H6  UNL A   1      15.091  25.119  36.237  1.00  0.00    +0.000 H 
BRANCH   14   15
ATOM     99  H9  UNL A   1      12.522  22.225  43.131  1.00  0.00    +0.000 H 
ATOM    100  H10 UNL A   1      14.021  22.708  43.785  1.00  0.00    +0.000 H 
ATOM     15  N3  UNL A   1      13.382  22.695  43.036  1.00  0.00    +0.000 N 
ENDBRANCH   14   15
ENDBRANCH    3    4
ENDBRANCH    2    3
ENDBRANCH   16    2
ENDBRANCH   18   16
ENDBRANCH   19   18
ENDBRANCH   20   19
ENDBRANCH   21   20
ENDBRANCH   22   21
ENDBRANCH   23   22
ENDBRANCH   24   23
ENDBRANCH   25   24
ENDBRANCH   26   25
ENDBRANCH   28   26
ENDBRANCH   32   31
BRANCH   36   37
ATOM     37  C27 UNL A   1      31.407  35.558  42.816  1.00  0.00    +0.000 C 
ATOM     38  C28 UNL A   1      32.194  34.455  43.179  1.00  0.00    +0.000 C 
ATOM     39  F1  UNL A   1      32.238  34.048  44.457  1.00  0.00    +0.000 F 
ATOM     40  C29 UNL A   1      32.974  33.790  42.237  1.00  0.00    +0.000 C 
ATOM     41  F2  UNL A   1      33.758  32.771  42.617  1.00  0.00    +0.000 F 
ATOM     42  C30 UNL A   1      32.955  34.191  40.910  1.00  0.00    +0.000 C 
ATOM     43  F3  UNL A   1      33.704  33.549  40.003  1.00  0.00    +0.000 F 
ATOM     44  C31 UNL A   1      32.166  35.264  40.523  1.00  0.00    +0.000 C 
ATOM     45  F4  UNL A   1      32.137  35.645  39.239  1.00  0.00    +0.000 F 
ATOM     46  C32 UNL A   1      31.407  35.950  41.469  1.00  0.00    +0.000 C 
ATOM     47  F5  UNL A   1      30.668  36.995  41.068  1.00  0.00    +0.000 F 
ENDBRANCH   36   37
BRANCH   53   54
ATOM     54  C38 UNL A   1      31.910  41.362  47.067  1.00  0.00    +0.000 C 
ATOM     55  C39 UNL A   1      33.072  41.142  47.819  1.00  0.00    +0.000 C 
ATOM     56  F6  UNL A   1      33.305  39.938  48.366  1.00  0.00    +0.000 F 
ATOM     57  C40 UNL A   1      33.983  42.170  48.045  1.00  0.00    +0.000 C 
ATOM     58  F7  UNL A   1      35.066  41.949  48.802  1.00  0.00    +0.000 F 
ATOM     59  C41 UNL A   1      33.765  43.425  47.497  1.00  0.00    +0.000 C 
ATOM     60  F8  UNL A   1      34.648  44.412  47.710  1.00  0.00    +0.000 F 
ATOM     61  C42 UNL A   1      32.631  43.661  46.736  1.00  0.00    +0.000 C 
ATOM     62  F9  UNL A   1      32.425  44.870  46.198  1.00  0.00    +0.000 F 
ATOM     63  C43 UNL A   1      31.705  42.642  46.532  1.00  0.00    +0.000 C 
ATOM     64  F10 UNL A   1      30.611  42.903  45.800  1.00  0.00    +0.000 F 
ENDBRANCH   53   54
BRANCH   68   69
ATOM     69  C47 UNL A   1      25.622  39.904  49.692  1.00  0.00    +0.000 C 
ATOM     70  C48 UNL A   1      24.747  40.949  49.371  1.00  0.00    +0.000 C 
ATOM     71  F11 UNL A   1      24.688  41.411  48.113  1.00  0.00    +0.000 F 
ATOM     72  C49 UNL A   1      23.952  41.547  50.346  1.00  0.00    +0.000 C 
ATOM     73  F12 UNL A   1      23.149  42.570  50.019  1.00  0.00    +0.000 F 
ATOM     74  C50 UNL A   1      23.999  41.095  51.656  1.00  0.00    +0.000 C 
ATOM     75  F13 UNL A   1      23.230  41.666  52.593  1.00  0.00    +0.000 F 
ATOM     76  C51 UNL A   1      24.850  40.052  51.995  1.00  0.00    +0.000 C 
ATOM     77  F14 UNL A   1      24.889  39.605  53.256  1.00  0.00    +0.000 F 
ATOM     78  C52 UNL A   1      25.663  39.471  51.025  1.00  0.00    +0.000 C 
ATOM     79  F15 UNL A   1      26.482  38.470  51.382  1.00  0.00    +0.000 F 
ENDBRANCH   68   69
TORSDOF 19
ENDMDL
MODEL 3
REMARK VINA RESULT:      -9.2     43.696     49.871
ROOT
ATOM     32  C23 UNL A   1      13.425  53.511   5.781  1.00  0.00    +0.000 C 
ATOM     33  C24 UNL A   1      14.380  54.044   4.750  1.00  0.00    +0.000 C 
ATOM     34  N6  UNL A   1      14.914  53.434   3.722  1.00  0.00    +0.000 N 
ATOM     35  C25 UNL A   1      15.679  54.393   3.071  1.00  0.00    +0.000 C 
ATOM     36  C26 UNL A   1      16.474  54.244   1.985  1.00  0.00    +0.000 C 
ATOM     48  C33 UNL A   1      16.671  52.999   1.290  1.00  0.00    +0.000 C 
ATOM     49  C34 UNL A   1      17.506  52.732   0.219  1.00  0.00    +0.000 C 
ATOM     50  C35 UNL A   1      17.334  51.391  -0.146  1.00  0.00    +0.000 C 
ATOM     51  C36 UNL A   1      16.423  50.813   0.726  1.00  0.00    +0.000 C 
ATOM     52  N7  UNL A   1      16.023  51.812   1.598  1.00  0.00    +0.000 N 
ATOM     53  C37 UNL A   1      15.954  49.452   0.761  1.00  0.00    +0.000 C 
ATOM     65  C44 UNL A   1      15.065  48.958   1.656  1.00  0.00    +0.000 C 
ATOM     66  N8  UNL A   1      14.428  49.609   2.703  1.00  0.00    +0.000 N 
ATOM     67  C45 UNL A   1      13.661  48.714   3.272  1.00  0.00    +0.000 C 
ATOM     68  C46 UNL A   1      12.763  48.856   4.470  1.00  0.00    +0.000 C 
ATOM     80  C53 UNL A   1      12.710  50.035   5.117  1.00  0.00    +0.000 C 
ATOM     81  C54 UNL A   1      11.897  50.320   6.296  1.00  0.00    +0.000 C 
ATOM     82  C55 UNL A   1      12.064  51.606   6.643  1.00  0.00    +0.000 C 
ATOM     83  C56 UNL A   1      13.022  52.227   5.729  1.00  0.00    +0.000 C 
ATOM     84  N9  UNL A   1      13.358  51.219   4.861  1.00  0.00    +0.000 N 
ATOM     85  C57 UNL A   1      13.702  47.392   2.629  1.00  0.00    +0.000 C 
ATOM     86  C58 UNL A   1      14.600  47.587   1.674  1.00  0.00    +0.000 C 
ATOM     87  C59 UNL A   1      15.502  55.636   3.791  1.00  0.00    +0.000 C 
ATOM     88  C60 UNL A   1      14.761  55.459   4.876  1.00  0.00    +0.000 C 
ATOM    117  H27 UNL A   1      18.146  53.403  -0.232  1.00  0.00    +0.000 H 
ATOM    118  H28 UNL A   1      17.804  50.914  -0.931  1.00  0.00    +0.000 H 
ATOM    119  H29 UNL A   1      15.373  51.697   2.329  1.00  0.00    +0.000 H 
ATOM    120  H30 UNL A   1      11.291  49.641   6.783  1.00  0.00    +0.000 H 
ATOM    121  H31 UNL A   1      11.591  52.080   7.428  1.00  0.00    +0.000 H 
ATOM    122  H32 UNL A   1      14.002  51.332   4.125  1.00  0.00    +0.000 H 
ATOM    123  H33 UNL A   1      13.171  46.538   2.861  1.00  0.00    +0.000 H 
ATOM    124  H34 UNL A   1      14.927  46.853   1.025  1.00  0.00    +0.000 H 
ATOM    125  H35 UNL A   1      15.899  56.542   3.497  1.00  0.00    +0.000 H 
ATOM    126  H36 UNL A   1      14.517  56.136   5.615  1.00  0.00    +0.000 H 
ENDROOT
BRANCH   32   31
ATOM    115  H25 UNL A   1      10.357  56.583   7.371  1.00  0.00    +0.000 H 
ATOM    116  H26 UNL A   1      11.176  55.024   5.700  1.00  0.00    +0.000 H 
ATOM     89  C61 UNL A   1      13.524  54.542   8.051  1.00  0.00    +0.000 C 
ATOM     90  C62 UNL A   1      13.010  55.378   9.038  1.00  0.00    +0.000 C 
ATOM    127  H37 UNL A   1      14.393  54.013   8.227  1.00  0.00    +0.000 H 
ATOM     28  C19 UNL A   1      11.888  56.167   8.767  1.00  0.00    +0.000 C 
ATOM     29  C20 UNL A   1      11.210  56.031   7.553  1.00  0.00    +0.000 C 
ATOM     30  C21 UNL A   1      11.689  55.144   6.587  1.00  0.00    +0.000 C 
ATOM     31  C22 UNL A   1      12.867  54.414   6.817  1.00  0.00    +0.000 C 
ATOM    128  H38 UNL A   1      13.457  55.415   9.968  1.00  0.00    +0.000 H 
BRANCH   28   26
ATOM     26  C18 UNL A   1      11.388  57.146   9.757  1.00  0.00    +0.000 C 
ATOM     27  O3  UNL A   1      11.829  58.292   9.754  1.00  0.00    +0.000 O 
BRANCH   26   25
ATOM     25  N5  UNL A   1      10.453  56.766  10.684  1.00  0.00    +0.000 N 
ATOM    114  H24 UNL A   1       9.584  56.482  10.316  1.00  0.00    +0.000 H 
BRANCH   25   24
ATOM    113  H23 UNL A   1       9.723  57.246  12.540  1.00  0.00    +0.000 H 
ATOM    112  H22 UNL A   1      11.486  57.174  12.422  1.00  0.00    +0.000 H 
ATOM     24  C17 UNL A   1      10.562  56.721  12.133  1.00  0.00    +0.000 C 
BRANCH   24   23
ATOM    111  H21 UNL A   1      10.934  54.672  11.904  1.00  0.00    +0.000 H 
ATOM    110  H20 UNL A   1       9.511  55.056  12.915  1.00  0.00    +0.000 H 
ATOM     23  C16 UNL A   1      10.526  55.295  12.672  1.00  0.00    +0.000 C 
BRANCH   23   22
ATOM    108  H18 UNL A   1      11.721  56.006  14.274  1.00  0.00    +0.000 H 
ATOM    109  H19 UNL A   1      10.755  54.537  14.613  1.00  0.00    +0.000 H 
ATOM     22  C15 UNL A   1      11.382  55.055  13.919  1.00  0.00    +0.000 C 
BRANCH   22   21
ATOM    106  H16 UNL A   1      13.082  54.019  14.656  1.00  0.00    +0.000 H 
ATOM    107  H17 UNL A   1      12.248  53.258  13.268  1.00  0.00    +0.000 H 
ATOM     21  C14 UNL A   1      12.610  54.164  13.708  1.00  0.00    +0.000 C 
BRANCH   21   20
ATOM    105  H15 UNL A   1      14.364  55.269  13.323  1.00  0.00    +0.000 H 
ATOM     20  C13 UNL A   1      13.659  54.717  12.736  1.00  0.00    +0.000 C 
ATOM    104  H14 UNL A   1      13.159  55.326  12.012  1.00  0.00    +0.000 H 
BRANCH   20   19
ATOM     19  C12 UNL A   1      14.449  53.643  11.994  1.00  0.00    +0.000 C 
ATOM    102  H12 UNL A   1      13.819  53.190  11.257  1.00  0.00    +0.000 H 
ATOM    103  H13 UNL A   1      15.297  54.101  11.527  1.00  0.00    +0.000 H 
BRANCH   19   18
ATOM     18  N4  UNL A   1      14.920  52.622  12.911  1.00  0.00    +0.000 N 
ATOM    101  H11 UNL A   1      15.241  52.966  13.776  1.00  0.00    +0.000 H 
BRANCH   18   16
ATOM     17  O2  UNL A   1      16.071  50.797  12.410  1.00  0.00    +0.000 O 
ATOM     16  C11 UNL A   1      14.989  51.269  12.777  1.00  0.00    +0.000 C 
BRANCH   16    2
ATOM      2  C2  UNL A   1      13.796  50.351  13.065  1.00  0.00    +0.000 C 
ATOM     94  H4  UNL A   1      14.095  49.325  13.050  1.00  0.00    +0.000 H 
BRANCH    2    1
ATOM      1  C1  UNL A   1      13.273  50.494  14.490  1.00  0.00    +0.000 C 
ATOM     91  H1  UNL A   1      13.750  51.327  14.963  1.00  0.00    +0.000 H 
ATOM     92  H2  UNL A   1      13.488  49.601  15.040  1.00  0.00    +0.000 H 
ATOM     93  H3  UNL A   1      12.216  50.653  14.467  1.00  0.00    +0.000 H 
ENDBRANCH    2    1
BRANCH    2    3
ATOM      3  S1  UNL A   1      12.572  50.564  11.723  1.00  0.00    +0.000 S 
BRANCH    3    4
ATOM     97  H7  UNL A   1      17.171  49.060   5.749  1.00  0.00    +0.000 H 
ATOM     98  H8  UNL A   1      15.888  47.460   7.056  1.00  0.00    +0.000 H 
ATOM      4  C3  UNL A   1      13.435  49.927  10.346  1.00  0.00    +0.000 C 
ATOM      5  N1  UNL A   1      14.077  50.780   9.617  1.00  0.00    +0.000 N 
ATOM      6  C4  UNL A   1      14.871  50.290   8.570  1.00  0.00    +0.000 C 
ATOM      7  C5  UNL A   1      15.609  51.198   7.807  1.00  0.00    +0.000 C 
ATOM      8  C6  UNL A   1      16.448  50.751   6.781  1.00  0.00    +0.000 C 
ATOM      9  C7  UNL A   1      16.552  49.389   6.507  1.00  0.00    +0.000 C 
ATOM     10  C8  UNL A   1      15.818  48.470   7.257  1.00  0.00    +0.000 C 
ATOM     11  C9  UNL A   1      14.985  48.929   8.285  1.00  0.00    +0.000 C 
ATOM     12  C10 UNL A   1      14.225  47.982   9.119  1.00  0.00    +0.000 C 
ATOM     13  O1  UNL A   1      14.297  46.769   8.924  1.00  0.00    +0.000 O 
ATOM     14  N2  UNL A   1      13.462  48.552  10.139  1.00  0.00    +0.000 N 
ATOM     95  H5  UNL A   1      15.535  52.209   8.002  1.00  0.00    +0.000 H 
ATOM     96  H6  UNL A   1      16.991  51.432   6.227  1.00  0.00    +0.000 H 
BRANCH   14   15
ATOM     99  H9  UNL A   1      12.834  46.674  10.856  1.00  0.00    +0.000 H 
ATOM    100  H10 UNL A   1      12.111  47.995  11.656  1.00  0.00    +0.000 H 
ATOM     15  N3  UNL A   1      12.725  47.646  10.970  1.00  0.00    +0.000 N 
ENDBRANCH   14   15
ENDBRANCH    3    4
ENDBRANCH    2    3
ENDBRANCH   16    2
ENDBRANCH   18   16
ENDBRANCH   19   18
ENDBRANCH   20   19
ENDBRANCH   21   20
ENDBRANCH   22   21
ENDBRANCH   23   22
ENDBRANCH   24   23
ENDBRANCH   25   24
ENDBRANCH   26   25
ENDBRANCH   28   26
ENDBRANCH   32   31
BRANCH   36   37
ATOM     37  C27 UNL A   1      17.192  55.463   1.481  1.00  0.00    +0.000 C 
ATOM     38  C28 UNL A   1      18.527  55.723   1.824  1.00  0.00    +0.000 C 
ATOM     39  F1  UNL A   1      19.186  54.895   2.648  1.00  0.00    +0.000 F 
ATOM     40  C29 UNL A   1      19.179  56.861   1.356  1.00  0.00    +0.000 C 
ATOM     41  F2  UNL A   1      20.437  57.116   1.740  1.00  0.00    +0.000 F 
ATOM     42  C30 UNL A   1      18.521  57.740   0.509  1.00  0.00    +0.000 C 
ATOM     43  F3  UNL A   1      19.150  58.834   0.057  1.00  0.00    +0.000 F 
ATOM     44  C31 UNL A   1      17.209  57.490   0.136  1.00  0.00    +0.000 C 
ATOM     45  F4  UNL A   1      16.576  58.333  -0.692  1.00  0.00    +0.000 F 
ATOM     46  C32 UNL A   1      16.545  56.368   0.627  1.00  0.00    +0.000 C 
ATOM     47  F5  UNL A   1      15.270  56.163   0.263  1.00  0.00    +0.000 F 
ENDBRANCH   36   37
BRANCH   53   54
ATOM     54  C38 UNL A   1      16.507  48.498  -0.257  1.00  0.00    +0.000 C 
ATOM     55  C39 UNL A   1      17.804  47.978  -0.147  1.00  0.00    +0.000 C 
ATOM     56  F6  UNL A   1      18.608  48.372   0.853  1.00  0.00    +0.000 F 
ATOM     57  C40 UNL A   1      18.295  47.078  -1.089  1.00  0.00    +0.000 C 
ATOM     58  F7  UNL A   1      19.553  46.626  -0.989  1.00  0.00    +0.000 F 
ATOM     59  C41 UNL A   1      17.489  46.657  -2.137  1.00  0.00    +0.000 C 
ATOM     60  F8  UNL A   1      17.961  45.784  -3.038  1.00  0.00    +0.000 F 
ATOM     61  C42 UNL A   1      16.197  47.145  -2.255  1.00  0.00    +0.000 C 
ATOM     62  F9  UNL A   1      15.414  46.732  -3.259  1.00  0.00    +0.000 F 
ATOM     63  C43 UNL A   1      15.713  48.067  -1.330  1.00  0.00    +0.000 C 
ATOM     64  F10 UNL A   1      14.463  48.531  -1.475  1.00  0.00    +0.000 F 
ENDBRANCH   53   54
BRANCH   68   69
ATOM     69  C47 UNL A   1      11.963  47.708   4.967  1.00  0.00    +0.000 C 
ATOM     70  C48 UNL A   1      12.566  46.680   5.704  1.00  0.00    +0.000 C 
ATOM     71  F11 UNL A   1      13.886  46.712   5.941  1.00  0.00    +0.000 F 
ATOM     72  C49 UNL A   1      11.823  45.600   6.173  1.00  0.00    +0.000 C 
ATOM     73  F12 UNL A   1      12.431  44.611   6.844  1.00  0.00    +0.000 F 
ATOM     74  C50 UNL A   1      10.458  45.538   5.934  1.00  0.00    +0.000 C 
ATOM     75  F13 UNL A   1       9.742  44.501   6.390  1.00  0.00    +0.000 F 
ATOM     76  C51 UNL A   1       9.838  46.550   5.217  1.00  0.00    +0.000 C 
ATOM     77  F14 UNL A   1       8.518  46.500   4.995  1.00  0.00    +0.000 F 
ATOM     78  C52 UNL A   1      10.584  47.619   4.727  1.00  0.00    +0.000 C 
ATOM     79  F15 UNL A   1       9.960  48.580   4.030  1.00  0.00    +0.000 F 
ENDBRANCH   68   69
TORSDOF 19
ENDMDL
MODEL 4
REMARK VINA RESULT:      -9.2     36.719     41.226
ROOT
ATOM     32  C23 UNL A   1      25.976  35.377  45.518  1.00  0.00    +0.000 C 
ATOM     33  C24 UNL A   1      27.296  35.369  44.801  1.00  0.00    +0.000 C 
ATOM     34  N6  UNL A   1      28.326  36.163  44.954  1.00  0.00    +0.000 N 
ATOM     35  C25 UNL A   1      29.299  35.689  44.083  1.00  0.00    +0.000 C 
ATOM     36  C26 UNL A   1      30.525  36.203  43.827  1.00  0.00    +0.000 C 
ATOM     48  C33 UNL A   1      31.051  37.391  44.446  1.00  0.00    +0.000 C 
ATOM     49  C34 UNL A   1      32.256  38.029  44.205  1.00  0.00    +0.000 C 
ATOM     50  C35 UNL A   1      32.353  39.123  45.073  1.00  0.00    +0.000 C 
ATOM     51  C36 UNL A   1      31.188  39.193  45.822  1.00  0.00    +0.000 C 
ATOM     52  N7  UNL A   1      30.402  38.122  45.430  1.00  0.00    +0.000 N 
ATOM     53  C37 UNL A   1      30.821  40.163  46.822  1.00  0.00    +0.000 C 
ATOM     65  C44 UNL A   1      29.653  40.168  47.509  1.00  0.00    +0.000 C 
ATOM     66  N8  UNL A   1      28.583  39.289  47.416  1.00  0.00    +0.000 N 
ATOM     67  C45 UNL A   1      27.697  39.707  48.286  1.00  0.00    +0.000 C 
ATOM     68  C46 UNL A   1      26.335  39.149  48.596  1.00  0.00    +0.000 C 
ATOM     80  C53 UNL A   1      25.885  38.087  47.902  1.00  0.00    +0.000 C 
ATOM     81  C54 UNL A   1      24.586  37.445  48.083  1.00  0.00    +0.000 C 
ATOM     82  C55 UNL A   1      24.497  36.395  47.251  1.00  0.00    +0.000 C 
ATOM     83  C56 UNL A   1      25.720  36.311  46.454  1.00  0.00    +0.000 C 
ATOM     84  N9  UNL A   1      26.484  37.359  46.903  1.00  0.00    +0.000 N 
ATOM     85  C57 UNL A   1      28.119  40.887  49.053  1.00  0.00    +0.000 C 
ATOM     86  C58 UNL A   1      29.301  41.149  48.514  1.00  0.00    +0.000 C 
ATOM     87  C59 UNL A   1      28.755  34.512  43.442  1.00  0.00    +0.000 C 
ATOM     88  C60 UNL A   1      27.495  34.310  43.801  1.00  0.00    +0.000 C 
ATOM    117  H27 UNL A   1      32.961  37.747  43.507  1.00  0.00    +0.000 H 
ATOM    118  H28 UNL A   1      33.154  39.769  45.143  1.00  0.00    +0.000 H 
ATOM    119  H29 UNL A   1      29.512  37.910  45.796  1.00  0.00    +0.000 H 
ATOM    120  H30 UNL A   1      23.855  37.750  48.745  1.00  0.00    +0.000 H 
ATOM    121  H31 UNL A   1      23.693  35.751  47.185  1.00  0.00    +0.000 H 
ATOM    122  H32 UNL A   1      27.376  37.570  46.544  1.00  0.00    +0.000 H 
ATOM    123  H33 UNL A   1      27.624  41.383  49.812  1.00  0.00    +0.000 H 
ATOM    124  H34 UNL A   1      29.896  41.951  48.778  1.00  0.00    +0.000 H 
ATOM    125  H35 UNL A   1      29.279  33.908  42.790  1.00  0.00    +0.000 H 
ATOM    126  H36 UNL A   1      26.829  33.597  43.466  1.00  0.00    +0.000 H 
ENDROOT
BRANCH   32   31
ATOM    115  H25 UNL A   1      22.233  33.657  43.417  1.00  0.00    +0.000 H 
ATOM    116  H26 UNL A   1      23.925  35.367  43.743  1.00  0.00    +0.000 H 
ATOM     89  C61 UNL A   1      25.044  33.105  45.957  1.00  0.00    +0.000 C 
ATOM     90  C62 UNL A   1      24.118  32.094  45.713  1.00  0.00    +0.000 C 
ATOM    127  H37 UNL A   1      25.785  32.963  46.662  1.00  0.00    +0.000 H 
ATOM     28  C19 UNL A   1      23.059  32.320  44.829  1.00  0.00    +0.000 C 
ATOM     29  C20 UNL A   1      22.993  33.509  44.101  1.00  0.00    +0.000 C 
ATOM     30  C21 UNL A   1      23.958  34.498  44.299  1.00  0.00    +0.000 C 
ATOM     31  C22 UNL A   1      24.975  34.315  45.250  1.00  0.00    +0.000 C 
ATOM    128  H38 UNL A   1      24.215  31.181  46.184  1.00  0.00    +0.000 H 
BRANCH   28   26
ATOM     26  C18 UNL A   1      21.999  31.306  44.637  1.00  0.00    +0.000 C 
ATOM     27  O3  UNL A   1      22.258  30.117  44.802  1.00  0.00    +0.000 O 
BRANCH   26   25
ATOM     25  N5  UNL A   1      20.741  31.694  44.256  1.00  0.00    +0.000 N 
ATOM    114  H24 UNL A   1      20.696  32.231  43.431  1.00  0.00    +0.000 H 
BRANCH   25   24
ATOM    113  H23 UNL A   1      18.832  32.272  44.734  1.00  0.00    +0.000 H 
ATOM    112  H22 UNL A   1      19.631  31.253  45.938  1.00  0.00    +0.000 H 
ATOM     24  C17 UNL A   1      19.464  31.424  44.896  1.00  0.00    +0.000 C 
BRANCH   24   23
ATOM    111  H21 UNL A   1      18.365  29.657  45.131  1.00  0.00    +0.000 H 
ATOM    110  H20 UNL A   1      19.488  29.649  43.739  1.00  0.00    +0.000 H 
ATOM     23  C16 UNL A   1      18.767  30.204  44.304  1.00  0.00    +0.000 C 
BRANCH   23   22
ATOM    108  H18 UNL A   1      17.449  31.581  43.372  1.00  0.00    +0.000 H 
ATOM    109  H19 UNL A   1      17.835  30.110  42.428  1.00  0.00    +0.000 H 
ATOM     22  C15 UNL A   1      17.584  30.520  43.384  1.00  0.00    +0.000 C 
BRANCH   22   21
ATOM    106  H16 UNL A   1      16.448  29.164  44.557  1.00  0.00    +0.000 H 
ATOM    107  H17 UNL A   1      15.617  30.680  44.098  1.00  0.00    +0.000 H 
ATOM     21  C14 UNL A   1      16.252  29.878  43.785  1.00  0.00    +0.000 C 
BRANCH   21   20
ATOM    105  H15 UNL A   1      15.735  29.687  41.750  1.00  0.00    +0.000 H 
ATOM     20  C13 UNL A   1      15.506  29.161  42.654  1.00  0.00    +0.000 C 
ATOM    104  H14 UNL A   1      14.460  29.169  42.883  1.00  0.00    +0.000 H 
BRANCH   20   19
ATOM     19  C12 UNL A   1      15.938  27.713  42.442  1.00  0.00    +0.000 C 
ATOM    102  H12 UNL A   1      16.595  27.662  41.599  1.00  0.00    +0.000 H 
ATOM    103  H13 UNL A   1      16.439  27.372  43.325  1.00  0.00    +0.000 H 
BRANCH   19   18
ATOM     18  N4  UNL A   1      14.788  26.861  42.202  1.00  0.00    +0.000 N 
ATOM    101  H11 UNL A   1      14.479  26.845  41.268  1.00  0.00    +0.000 H 
BRANCH   18   16
ATOM     17  O2  UNL A   1      13.960  26.471  44.220  1.00  0.00    +0.000 O 
ATOM     16  C11 UNL A   1      14.067  26.079  43.053  1.00  0.00    +0.000 C 
BRANCH   16    2
ATOM      2  C2  UNL A   1      13.406  24.770  42.607  1.00  0.00    +0.000 C 
ATOM     94  H4  UNL A   1      12.709  24.428  43.341  1.00  0.00    +0.000 H 
BRANCH    2    1
ATOM      1  C1  UNL A   1      12.503  24.950  41.391  1.00  0.00    +0.000 C 
ATOM     91  H1  UNL A   1      11.594  25.431  41.691  1.00  0.00    +0.000 H 
ATOM     92  H2  UNL A   1      12.276  23.992  40.970  1.00  0.00    +0.000 H 
ATOM     93  H3  UNL A   1      13.002  25.552  40.662  1.00  0.00    +0.000 H 
ENDBRANCH    2    1
BRANCH    2    3
ATOM      3  S1  UNL A   1      14.704  23.489  42.475  1.00  0.00    +0.000 S 
BRANCH    3    4
ATOM     97  H7  UNL A   1      10.018  18.009  39.809  1.00  0.00    +0.000 H 
ATOM     98  H8  UNL A   1      11.671  19.270  38.549  1.00  0.00    +0.000 H 
ATOM      4  C3  UNL A   1      13.871  22.221  41.611  1.00  0.00    +0.000 C 
ATOM      5  N1  UNL A   1      13.028  21.513  42.289  1.00  0.00    +0.000 N 
ATOM      6  C4  UNL A   1      12.261  20.562  41.601  1.00  0.00    +0.000 C 
ATOM      7  C5  UNL A   1      11.311  19.826  42.314  1.00  0.00    +0.000 C 
ATOM      8  C6  UNL A   1      10.493  18.898  41.662  1.00  0.00    +0.000 C 
ATOM      9  C7  UNL A   1      10.622  18.695  40.289  1.00  0.00    +0.000 C 
ATOM     10  C8  UNL A   1      11.568  19.419  39.565  1.00  0.00    +0.000 C 
ATOM     11  C9  UNL A   1      12.379  20.349  40.227  1.00  0.00    +0.000 C 
ATOM     12  C10 UNL A   1      13.363  21.156  39.485  1.00  0.00    +0.000 C 
ATOM     13  O1  UNL A   1      13.502  21.022  38.270  1.00  0.00    +0.000 O 
ATOM     14  N2  UNL A   1      14.084  22.080  40.244  1.00  0.00    +0.000 N 
ATOM     95  H5  UNL A   1      11.211  19.969  43.331  1.00  0.00    +0.000 H 
ATOM     96  H6  UNL A   1       9.792  18.363  42.198  1.00  0.00    +0.000 H 
BRANCH   14   15
ATOM     99  H9  UNL A   1      15.994  22.651  39.565  1.00  0.00    +0.000 H 
ATOM    100  H10 UNL A   1      14.737  23.668  39.024  1.00  0.00    +0.000 H 
ATOM     15  N3  UNL A   1      15.037  22.883  39.538  1.00  0.00    +0.000 N 
ENDBRANCH   14   15
ENDBRANCH    3    4
ENDBRANCH    2    3
ENDBRANCH   16    2
ENDBRANCH   18   16
ENDBRANCH   19   18
ENDBRANCH   20   19
ENDBRANCH   21   20
ENDBRANCH   22   21
ENDBRANCH   23   22
ENDBRANCH   24   23
ENDBRANCH   25   24
ENDBRANCH   26   25
ENDBRANCH   28   26
ENDBRANCH   32   31
BRANCH   36   37
ATOM     37  C27 UNL A   1      31.384  35.478  42.832  1.00  0.00    +0.000 C 
ATOM     38  C28 UNL A   1      32.175  34.381  43.204  1.00  0.00    +0.000 C 
ATOM     39  F1  UNL A   1      32.205  33.973  44.483  1.00  0.00    +0.000 F 
ATOM     40  C29 UNL A   1      32.973  33.722  42.273  1.00  0.00    +0.000 C 
ATOM     41  F2  UNL A   1      33.760  32.710  42.662  1.00  0.00    +0.000 F 
ATOM     42  C30 UNL A   1      32.968  34.125  40.946  1.00  0.00    +0.000 C 
ATOM     43  F3  UNL A   1      33.735  33.489  40.049  1.00  0.00    +0.000 F 
ATOM     44  C31 UNL A   1      32.176  35.191  40.549  1.00  0.00    +0.000 C 
ATOM     45  F4  UNL A   1      32.162  35.573  39.265  1.00  0.00    +0.000 F 
ATOM     46  C32 UNL A   1      31.399  35.870  41.485  1.00  0.00    +0.000 C 
ATOM     47  F5  UNL A   1      30.657  36.910  41.074  1.00  0.00    +0.000 F 
ENDBRANCH   36   37
BRANCH   53   54
ATOM     54  C38 UNL A   1      31.794  41.267  47.112  1.00  0.00    +0.000 C 
ATOM     55  C39 UNL A   1      32.941  41.050  47.888  1.00  0.00    +0.000 C 
ATOM     56  F6  UNL A   1      33.167  39.847  48.438  1.00  0.00    +0.000 F 
ATOM     57  C40 UNL A   1      33.845  42.081  48.132  1.00  0.00    +0.000 C 
ATOM     58  F7  UNL A   1      34.913  41.863  48.910  1.00  0.00    +0.000 F 
ATOM     59  C41 UNL A   1      33.634  43.336  47.581  1.00  0.00    +0.000 C 
ATOM     60  F8  UNL A   1      34.509  44.326  47.811  1.00  0.00    +0.000 F 
ATOM     61  C42 UNL A   1      32.514  43.569  46.797  1.00  0.00    +0.000 C 
ATOM     62  F9  UNL A   1      32.314  44.778  46.255  1.00  0.00    +0.000 F 
ATOM     63  C43 UNL A   1      31.595  42.547  46.574  1.00  0.00    +0.000 C 
ATOM     64  F10 UNL A   1      30.515  42.804  45.821  1.00  0.00    +0.000 F 
ENDBRANCH   53   54
BRANCH   68   69
ATOM     69  C47 UNL A   1      25.471  39.772  49.630  1.00  0.00    +0.000 C 
ATOM     70  C48 UNL A   1      25.505  39.324  50.957  1.00  0.00    +0.000 C 
ATOM     71  F11 UNL A   1      26.303  38.301  51.298  1.00  0.00    +0.000 F 
ATOM     72  C49 UNL A   1      24.697  39.903  51.933  1.00  0.00    +0.000 C 
ATOM     73  F12 UNL A   1      24.722  39.431  53.188  1.00  0.00    +0.000 F 
ATOM     74  C50 UNL A   1      23.858  40.957  51.606  1.00  0.00    +0.000 C 
ATOM     75  F13 UNL A   1      23.085  41.518  52.546  1.00  0.00    +0.000 F 
ATOM     76  C51 UNL A   1      23.817  41.426  50.300  1.00  0.00    +0.000 C 
ATOM     77  F14 UNL A   1      23.016  42.452  49.983  1.00  0.00    +0.000 F 
ATOM     78  C52 UNL A   1      24.606  40.831  49.320  1.00  0.00    +0.000 C 
ATOM     79  F15 UNL A   1      24.541  41.299  48.064  1.00  0.00    +0.000 F 
ENDBRANCH   68   69
TORSDOF 19
ENDMDL
MODEL 5
REMARK VINA RESULT:      -9.2     35.424     39.345
ROOT
ATOM     32  C23 UNL A   1      42.231  27.240  29.660  1.00  0.00    +0.000 C 
ATOM     33  C24 UNL A   1      42.927  27.280  30.991  1.00  0.00    +0.000 C 
ATOM     34  N6  UNL A   1      42.611  27.949  32.071  1.00  0.00    +0.000 N 
ATOM     35  C25 UNL A   1      43.554  27.592  33.025  1.00  0.00    +0.000 C 
ATOM     36  C26 UNL A   1      43.694  28.056  34.290  1.00  0.00    +0.000 C 
ATOM     48  C33 UNL A   1      42.845  29.053  34.886  1.00  0.00    +0.000 C 
ATOM     49  C34 UNL A   1      42.945  29.637  36.136  1.00  0.00    +0.000 C 
ATOM     50  C35 UNL A   1      41.873  30.524  36.293  1.00  0.00    +0.000 C 
ATOM     51  C36 UNL A   1      41.131  30.525  35.121  1.00  0.00    +0.000 C 
ATOM     52  N7  UNL A   1      41.736  29.616  34.269  1.00  0.00    +0.000 N 
ATOM     53  C37 UNL A   1      39.958  31.297  34.803  1.00  0.00    +0.000 C 
ATOM     65  C44 UNL A   1      39.290  31.249  33.624  1.00  0.00    +0.000 C 
ATOM     66  N8  UNL A   1      39.565  30.488  32.497  1.00  0.00    +0.000 N 
ATOM     67  C45 UNL A   1      38.633  30.784  31.626  1.00  0.00    +0.000 C 
ATOM     68  C46 UNL A   1      38.450  30.276  30.223  1.00  0.00    +0.000 C 
ATOM     80  C53 UNL A   1      39.347  29.412  29.712  1.00  0.00    +0.000 C 
ATOM     81  C54 UNL A   1      39.307  28.843  28.368  1.00  0.00    +0.000 C 
ATOM     82  C55 UNL A   1      40.335  27.992  28.222  1.00  0.00    +0.000 C 
ATOM     83  C56 UNL A   1      41.126  27.982  29.452  1.00  0.00    +0.000 C 
ATOM     84  N9  UNL A   1      40.469  28.859  30.279  1.00  0.00    +0.000 N 
ATOM     85  C57 UNL A   1      37.640  31.752  32.114  1.00  0.00    +0.000 C 
ATOM     86  C58 UNL A   1      38.108  32.030  33.323  1.00  0.00    +0.000 C 
ATOM     87  C59 UNL A   1      44.424  26.611  32.413  1.00  0.00    +0.000 C 
ATOM     88  C60 UNL A   1      44.120  26.434  31.135  1.00  0.00    +0.000 C 
ATOM    117  H27 UNL A   1      43.682  29.451  36.834  1.00  0.00    +0.000 H 
ATOM    118  H28 UNL A   1      41.669  31.082  37.136  1.00  0.00    +0.000 H 
ATOM    119  H29 UNL A   1      41.426  29.400  33.360  1.00  0.00    +0.000 H 
ATOM    120  H30 UNL A   1      38.601  29.060  27.648  1.00  0.00    +0.000 H 
ATOM    121  H31 UNL A   1      40.535  27.435  27.377  1.00  0.00    +0.000 H 
ATOM    122  H32 UNL A   1      40.773  29.072  31.191  1.00  0.00    +0.000 H 
ATOM    123  H33 UNL A   1      36.799  32.119  31.640  1.00  0.00    +0.000 H 
ATOM    124  H34 UNL A   1      37.684  32.717  33.967  1.00  0.00    +0.000 H 
ATOM    125  H35 UNL A   1      45.182  26.114  32.906  1.00  0.00    +0.000 H 
ATOM    126  H36 UNL A   1      44.597  25.853  30.428  1.00  0.00    +0.000 H 
ENDROOT
BRANCH   32   31
ATOM    115  H25 UNL A   1      42.423  23.174  27.467  1.00  0.00    +0.000 H 
ATOM    116  H26 UNL A   1      41.521  24.673  29.150  1.00  0.00    +0.000 H 
ATOM     89  C61 UNL A   1      43.655  26.794  27.662  1.00  0.00    +0.000 C 
ATOM     90  C62 UNL A   1      44.114  25.956  26.648  1.00  0.00    +0.000 C 
ATOM    127  H37 UNL A   1      44.009  27.761  27.727  1.00  0.00    +0.000 H 
ATOM     28  C19 UNL A   1      43.709  24.618  26.615  1.00  0.00    +0.000 C 
ATOM     29  C20 UNL A   1      42.753  24.151  27.520  1.00  0.00    +0.000 C 
ATOM     30  C21 UNL A   1      42.245  25.009  28.497  1.00  0.00    +0.000 C 
ATOM     31  C22 UNL A   1      42.714  26.330  28.593  1.00  0.00    +0.000 C 
ATOM    128  H38 UNL A   1      44.752  26.323  25.925  1.00  0.00    +0.000 H 
BRANCH   28   26
ATOM     26  C18 UNL A   1      44.267  23.679  25.618  1.00  0.00    +0.000 C 
ATOM     27  O3  UNL A   1      44.226  23.963  24.424  1.00  0.00    +0.000 O 
BRANCH   26   25
ATOM     25  N5  UNL A   1      44.809  22.488  26.028  1.00  0.00    +0.000 N 
ATOM    114  H24 UNL A   1      45.538  22.560  26.687  1.00  0.00    +0.000 H 
BRANCH   25   24
ATOM    113  H23 UNL A   1      44.913  20.461  26.325  1.00  0.00    +0.000 H 
ATOM    112  H22 UNL A   1      44.807  20.968  24.634  1.00  0.00    +0.000 H 
ATOM     24  C17 UNL A   1      44.457  21.135  25.631  1.00  0.00    +0.000 C 
BRANCH   24   23
ATOM    111  H21 UNL A   1      42.705  20.390  24.756  1.00  0.00    +0.000 H 
ATOM    110  H20 UNL A   1      42.465  21.841  25.773  1.00  0.00    +0.000 H 
ATOM     23  C16 UNL A   1      42.951  20.893  25.668  1.00  0.00    +0.000 C 
BRANCH   23   22
ATOM    108  H18 UNL A   1      42.428  18.983  26.428  1.00  0.00    +0.000 H 
ATOM    109  H19 UNL A   1      43.174  20.112  27.600  1.00  0.00    +0.000 H 
ATOM     22  C15 UNL A   1      42.473  19.984  26.803  1.00  0.00    +0.000 C 
BRANCH   22   21
ATOM    106  H16 UNL A   1      40.705  19.456  27.854  1.00  0.00    +0.000 H 
ATOM    107  H17 UNL A   1      41.261  21.143  28.065  1.00  0.00    +0.000 H 
ATOM     21  C14 UNL A   1      41.099  20.333  27.385  1.00  0.00    +0.000 C 
BRANCH   21   20
ATOM    105  H15 UNL A   1      39.217  20.185  26.447  1.00  0.00    +0.000 H 
ATOM     20  C13 UNL A   1      40.066  20.831  26.368  1.00  0.00    +0.000 C 
ATOM    104  H14 UNL A   1      40.513  20.808  25.396  1.00  0.00    +0.000 H 
BRANCH   20   19
ATOM     19  C12 UNL A   1      39.567  22.249  26.631  1.00  0.00    +0.000 C 
ATOM    102  H12 UNL A   1      39.359  22.361  27.675  1.00  0.00    +0.000 H 
ATOM    103  H13 UNL A   1      40.325  22.942  26.327  1.00  0.00    +0.000 H 
BRANCH   19   18
ATOM     18  N4  UNL A   1      38.360  22.520  25.872  1.00  0.00    +0.000 N 
ATOM    101  H11 UNL A   1      38.113  21.816  25.231  1.00  0.00    +0.000 H 
BRANCH   18   16
ATOM     17  O2  UNL A   1      37.780  24.495  26.693  1.00  0.00    +0.000 O 
ATOM     16  C11 UNL A   1      37.512  23.585  25.901  1.00  0.00    +0.000 C 
BRANCH   16    2
ATOM      2  C2  UNL A   1      36.276  23.677  24.999  1.00  0.00    +0.000 C 
ATOM     94  H4  UNL A   1      36.068  24.695  24.744  1.00  0.00    +0.000 H 
BRANCH    2    1
ATOM      1  C1  UNL A   1      36.503  23.061  23.623  1.00  0.00    +0.000 C 
ATOM     91  H1  UNL A   1      36.987  22.112  23.733  1.00  0.00    +0.000 H 
ATOM     92  H2  UNL A   1      37.120  23.711  23.037  1.00  0.00    +0.000 H 
ATOM     93  H3  UNL A   1      35.561  22.926  23.134  1.00  0.00    +0.000 H 
ENDBRANCH    2    1
BRANCH    2    3
ATOM      3  S1  UNL A   1      34.833  23.063  25.940  1.00  0.00    +0.000 S 
BRANCH    3    4
ATOM     97  H7  UNL A   1      31.256  29.799  24.978  1.00  0.00    +0.000 H 
ATOM     98  H8  UNL A   1      30.258  27.688  25.655  1.00  0.00    +0.000 H 
ATOM      4  C3  UNL A   1      33.776  24.452  25.924  1.00  0.00    +0.000 C 
ATOM      5  N1  UNL A   1      34.313  25.587  25.614  1.00  0.00    +0.000 N 
ATOM      6  C4  UNL A   1      33.472  26.701  25.483  1.00  0.00    +0.000 C 
ATOM      7  C5  UNL A   1      34.033  27.922  25.100  1.00  0.00    +0.000 C 
ATOM      8  C6  UNL A   1      33.227  29.049  24.914  1.00  0.00    +0.000 C 
ATOM      9  C7  UNL A   1      31.850  28.966  25.115  1.00  0.00    +0.000 C 
ATOM     10  C8  UNL A   1      31.276  27.755  25.501  1.00  0.00    +0.000 C 
ATOM     11  C9  UNL A   1      32.092  26.631  25.680  1.00  0.00    +0.000 C 
ATOM     12  C10 UNL A   1      31.512  25.329  26.052  1.00  0.00    +0.000 C 
ATOM     13  O1  UNL A   1      30.300  25.204  26.225  1.00  0.00    +0.000 O 
ATOM     14  N2  UNL A   1      32.417  24.272  26.160  1.00  0.00    +0.000 N 
ATOM     95  H5  UNL A   1      35.052  27.992  24.953  1.00  0.00    +0.000 H 
ATOM     96  H6  UNL A   1      33.653  29.945  24.628  1.00  0.00    +0.000 H 
BRANCH   14   15
ATOM     99  H9  UNL A   1      32.119  22.569  27.362  1.00  0.00    +0.000 H 
ATOM    100  H10 UNL A   1      31.247  22.541  25.897  1.00  0.00    +0.000 H 
ATOM     15  N3  UNL A   1      31.871  22.994  26.509  1.00  0.00    +0.000 N 
ENDBRANCH   14   15
ENDBRANCH    3    4
ENDBRANCH    2    3
ENDBRANCH   16    2
ENDBRANCH   18   16
ENDBRANCH   19   18
ENDBRANCH   20   19
ENDBRANCH   21   20
ENDBRANCH   22   21
ENDBRANCH   23   22
ENDBRANCH   24   23
ENDBRANCH   25   24
ENDBRANCH   26   25
ENDBRANCH   28   26
ENDBRANCH   32   31
BRANCH   36   37
ATOM     37  C27 UNL A   1      44.811  27.486  35.116  1.00  0.00    +0.000 C 
ATOM     38  C28 UNL A   1      46.086  28.072  35.131  1.00  0.00    +0.000 C 
ATOM     39  F1  UNL A   1      46.345  29.147  34.370  1.00  0.00    +0.000 F 
ATOM     40  C29 UNL A   1      47.116  27.529  35.895  1.00  0.00    +0.000 C 
ATOM     41  F2  UNL A   1      48.339  28.074  35.853  1.00  0.00    +0.000 F 
ATOM     42  C30 UNL A   1      46.881  26.415  36.686  1.00  0.00    +0.000 C 
ATOM     43  F3  UNL A   1      47.872  25.894  37.424  1.00  0.00    +0.000 F 
ATOM     44  C31 UNL A   1      45.622  25.833  36.706  1.00  0.00    +0.000 C 
ATOM     45  F4  UNL A   1      45.391  24.764  37.479  1.00  0.00    +0.000 F 
ATOM     46  C32 UNL A   1      44.599  26.357  35.920  1.00  0.00    +0.000 C 
ATOM     47  F5  UNL A   1      43.397  25.762  35.947  1.00  0.00    +0.000 F 
ENDBRANCH   36   37
BRANCH   53   54
ATOM     54  C38 UNL A   1      39.444  32.247  35.845  1.00  0.00    +0.000 C 
ATOM     55  C39 UNL A   1      38.487  31.852  36.791  1.00  0.00    +0.000 C 
ATOM     56  F6  UNL A   1      37.965  30.616  36.748  1.00  0.00    +0.000 F 
ATOM     57  C40 UNL A   1      38.035  32.739  37.764  1.00  0.00    +0.000 C 
ATOM     58  F7  UNL A   1      37.090  32.354  38.632  1.00  0.00    +0.000 F 
ATOM     59  C41 UNL A   1      38.553  34.024  37.828  1.00  0.00    +0.000 C 
ATOM     60  F8  UNL A   1      38.121  34.875  38.771  1.00  0.00    +0.000 F 
ATOM     61  C42 UNL A   1      39.511  34.431  36.914  1.00  0.00    +0.000 C 
ATOM     62  F9  UNL A   1      40.020  35.668  36.981  1.00  0.00    +0.000 F 
ATOM     63  C43 UNL A   1      39.945  33.554  35.923  1.00  0.00    +0.000 C 
ATOM     64  F10 UNL A   1      40.866  33.979  35.044  1.00  0.00    +0.000 F 
ENDBRANCH   53   54
BRANCH   68   69
ATOM     69  C47 UNL A   1      37.315  30.739  29.384  1.00  0.00    +0.000 C 
ATOM     70  C48 UNL A   1      36.224  29.899  29.128  1.00  0.00    +0.000 C 
ATOM     71  F11 UNL A   1      36.211  28.650  29.617  1.00  0.00    +0.000 F 
ATOM     72  C49 UNL A   1      35.156  30.325  28.341  1.00  0.00    +0.000 C 
ATOM     73  F12 UNL A   1      34.142  29.489  28.081  1.00  0.00    +0.000 F 
ATOM     74  C50 UNL A   1      35.148  31.609  27.816  1.00  0.00    +0.000 C 
ATOM     75  F13 UNL A   1      34.118  32.021  27.064  1.00  0.00    +0.000 F 
ATOM     76  C51 UNL A   1      36.213  32.463  28.067  1.00  0.00    +0.000 C 
ATOM     77  F14 UNL A   1      36.203  33.707  27.571  1.00  0.00    +0.000 F 
ATOM     78  C52 UNL A   1      37.291  32.029  28.833  1.00  0.00    +0.000 C 
ATOM     79  F15 UNL A   1      38.311  32.872  29.053  1.00  0.00    +0.000 F 
ENDBRANCH   68   69
TORSDOF 19
ENDMDL
MODEL 6
REMARK VINA RESULT:      -9.1     38.676     43.765
ROOT
ATOM     32  C23 UNL A   1      21.677  38.674  49.338  1.00  0.00    +0.000 C 
ATOM     33  C24 UNL A   1      22.514  39.920  49.409  1.00  0.00    +0.000 C 
ATOM     34  N6  UNL A   1      23.672  40.173  48.854  1.00  0.00    +0.000 N 
ATOM     35  C25 UNL A   1      23.977  41.483  49.198  1.00  0.00    +0.000 C 
ATOM     36  C26 UNL A   1      25.095  42.193  48.915  1.00  0.00    +0.000 C 
ATOM     48  C33 UNL A   1      26.216  41.677  48.174  1.00  0.00    +0.000 C 
ATOM     49  C34 UNL A   1      27.422  42.294  47.892  1.00  0.00    +0.000 C 
ATOM     50  C35 UNL A   1      28.188  41.421  47.109  1.00  0.00    +0.000 C 
ATOM     51  C36 UNL A   1      27.476  40.243  46.943  1.00  0.00    +0.000 C 
ATOM     52  N7  UNL A   1      26.267  40.416  47.598  1.00  0.00    +0.000 N 
ATOM     53  C37 UNL A   1      27.869  39.050  46.239  1.00  0.00    +0.000 C 
ATOM     65  C44 UNL A   1      27.116  37.928  46.128  1.00  0.00    +0.000 C 
ATOM     66  N8  UNL A   1      25.853  37.671  46.643  1.00  0.00    +0.000 N 
ATOM     67  C45 UNL A   1      25.548  36.456  46.260  1.00  0.00    +0.000 C 
ATOM     68  C46 UNL A   1      24.311  35.652  46.552  1.00  0.00    +0.000 C 
ATOM     80  C53 UNL A   1      23.350  36.181  47.332  1.00  0.00    +0.000 C 
ATOM     81  C54 UNL A   1      22.104  35.519  47.710  1.00  0.00    +0.000 C 
ATOM     82  C55 UNL A   1      21.372  36.359  48.458  1.00  0.00    +0.000 C 
ATOM     83  C56 UNL A   1      22.112  37.607  48.641  1.00  0.00    +0.000 C 
ATOM     84  N9  UNL A   1      23.278  37.408  47.944  1.00  0.00    +0.000 N 
ATOM     85  C57 UNL A   1      26.576  35.812  45.431  1.00  0.00    +0.000 C 
ATOM     86  C58 UNL A   1      27.525  36.737  45.412  1.00  0.00    +0.000 C 
ATOM     87  C59 UNL A   1      22.860  41.989  49.967  1.00  0.00    +0.000 C 
ATOM     88  C60 UNL A   1      21.960  41.041  50.183  1.00  0.00    +0.000 C 
ATOM    117  H27 UNL A   1      27.708  43.235  48.203  1.00  0.00    +0.000 H 
ATOM    118  H28 UNL A   1      29.123  41.621  46.723  1.00  0.00    +0.000 H 
ATOM    119  H29 UNL A   1      25.550  39.743  47.647  1.00  0.00    +0.000 H 
ATOM    120  H30 UNL A   1      21.832  34.560  47.443  1.00  0.00    +0.000 H 
ATOM    121  H31 UNL A   1      20.436  36.156  48.842  1.00  0.00    +0.000 H 
ATOM    122  H32 UNL A   1      23.995  38.081  47.888  1.00  0.00    +0.000 H 
ATOM    123  H33 UNL A   1      26.563  34.883  44.981  1.00  0.00    +0.000 H 
ATOM    124  H34 UNL A   1      28.439  36.623  44.947  1.00  0.00    +0.000 H 
ATOM    125  H35 UNL A   1      22.776  42.961  50.304  1.00  0.00    +0.000 H 
ATOM    126  H36 UNL A   1      21.097  41.079  50.748  1.00  0.00    +0.000 H 
ENDROOT
BRANCH   32   31
ATOM    115  H25 UNL A   1      18.716  37.461  52.675  1.00  0.00    +0.000 H 
ATOM    116  H26 UNL A   1      20.943  37.608  51.721  1.00  0.00    +0.000 H 
ATOM     89  C61 UNL A   1      19.247  39.237  49.325  1.00  0.00    +0.000 C 
ATOM     90  C62 UNL A   1      17.984  39.219  49.911  1.00  0.00    +0.000 C 
ATOM    127  H37 UNL A   1      19.381  39.694  48.409  1.00  0.00    +0.000 H 
ATOM     28  C19 UNL A   1      17.780  38.520  51.104  1.00  0.00    +0.000 C 
ATOM     29  C20 UNL A   1      18.861  37.941  51.772  1.00  0.00    +0.000 C 
ATOM     30  C21 UNL A   1      20.140  38.014  51.216  1.00  0.00    +0.000 C 
ATOM     31  C22 UNL A   1      20.337  38.638  49.974  1.00  0.00    +0.000 C 
ATOM    128  H38 UNL A   1      17.201  39.722  49.465  1.00  0.00    +0.000 H 
BRANCH   28   26
ATOM     26  C18 UNL A   1      16.428  38.390  51.689  1.00  0.00    +0.000 C 
ATOM     27  O3  UNL A   1      16.289  37.866  52.790  1.00  0.00    +0.000 O 
BRANCH   26   25
ATOM     25  N5  UNL A   1      15.335  38.836  50.992  1.00  0.00    +0.000 N 
ATOM    114  H24 UNL A   1      15.055  39.760  51.190  1.00  0.00    +0.000 H 
BRANCH   25   24
ATOM    113  H23 UNL A   1      14.805  38.515  49.037  1.00  0.00    +0.000 H 
ATOM    112  H22 UNL A   1      13.498  38.314  50.211  1.00  0.00    +0.000 H 
ATOM     24  C17 UNL A   1      14.532  38.140  50.000  1.00  0.00    +0.000 C 
BRANCH   24   23
ATOM    111  H21 UNL A   1      13.860  36.174  49.728  1.00  0.00    +0.000 H 
ATOM    110  H20 UNL A   1      15.122  36.357  50.981  1.00  0.00    +0.000 H 
ATOM     23  C16 UNL A   1      14.785  36.635  50.004  1.00  0.00    +0.000 C 
BRANCH   23   22
ATOM    108  H18 UNL A   1      16.783  36.171  49.462  1.00  0.00    +0.000 H 
ATOM    109  H19 UNL A   1      15.512  35.177  48.685  1.00  0.00    +0.000 H 
ATOM     22  C15 UNL A   1      15.825  36.155  48.987  1.00  0.00    +0.000 C 
BRANCH   22   21
ATOM    106  H16 UNL A   1      15.191  36.613  47.013  1.00  0.00    +0.000 H 
ATOM    107  H17 UNL A   1      15.747  38.002  47.995  1.00  0.00    +0.000 H 
ATOM     21  C14 UNL A   1      15.918  36.987  47.704  1.00  0.00    +0.000 C 
BRANCH   21   20
ATOM    105  H15 UNL A   1      17.698  37.948  47.113  1.00  0.00    +0.000 H 
ATOM     20  C13 UNL A   1      17.285  36.967  47.011  1.00  0.00    +0.000 C 
ATOM    104  H14 UNL A   1      17.140  36.684  45.989  1.00  0.00    +0.000 H 
BRANCH   20   19
ATOM     19  C12 UNL A   1      18.286  36.000  47.636  1.00  0.00    +0.000 C 
ATOM    102  H12 UNL A   1      19.217  36.507  47.788  1.00  0.00    +0.000 H 
ATOM    103  H13 UNL A   1      17.894  35.657  48.571  1.00  0.00    +0.000 H 
BRANCH   19   18
ATOM     18  N4  UNL A   1      18.504  34.853  46.775  1.00  0.00    +0.000 N 
ATOM    101  H11 UNL A   1      18.675  34.009  47.252  1.00  0.00    +0.000 H 
BRANCH   18   16
ATOM     17  O2  UNL A   1      19.489  35.207  44.822  1.00  0.00    +0.000 O 
ATOM     16  C11 UNL A   1      18.508  34.748  45.417  1.00  0.00    +0.000 C 
BRANCH   16    2
ATOM      2  C2  UNL A   1      17.362  34.092  44.639  1.00  0.00    +0.000 C 
ATOM     94  H4  UNL A   1      16.912  33.311  45.214  1.00  0.00    +0.000 H 
BRANCH    2    1
ATOM      1  C1  UNL A   1      16.180  35.030  44.424  1.00  0.00    +0.000 C 
ATOM     91  H1  UNL A   1      16.540  35.996  44.135  1.00  0.00    +0.000 H 
ATOM     92  H2  UNL A   1      15.621  35.115  45.333  1.00  0.00    +0.000 H 
ATOM     93  H3  UNL A   1      15.550  34.639  43.653  1.00  0.00    +0.000 H 
ENDBRANCH    2    1
BRANCH    2    3
ATOM      3  S1  UNL A   1      18.062  33.307  43.142  1.00  0.00    +0.000 S 
BRANCH    3    4
ATOM     97  H7  UNL A   1      15.981  25.914  43.488  1.00  0.00    +0.000 H 
ATOM     98  H8  UNL A   1      18.027  26.907  44.347  1.00  0.00    +0.000 H 
ATOM      4  C3  UNL A   1      17.820  31.611  43.479  1.00  0.00    +0.000 C 
ATOM      5  N1  UNL A   1      16.711  31.090  43.069  1.00  0.00    +0.000 N 
ATOM      6  C4  UNL A   1      16.533  29.708  43.224  1.00  0.00    +0.000 C 
ATOM      7  C5  UNL A   1      15.360  29.125  42.740  1.00  0.00    +0.000 C 
ATOM      8  C6  UNL A   1      15.159  27.744  42.834  1.00  0.00    +0.000 C 
ATOM      9  C7  UNL A   1      16.131  26.933  43.418  1.00  0.00    +0.000 C 
ATOM     10  C8  UNL A   1      17.306  27.501  43.910  1.00  0.00    +0.000 C 
ATOM     11  C9  UNL A   1      17.498  28.885  43.807  1.00  0.00    +0.000 C 
ATOM     12  C10 UNL A   1      18.743  29.511  44.283  1.00  0.00    +0.000 C 
ATOM     13  O1  UNL A   1      19.636  28.834  44.793  1.00  0.00    +0.000 O 
ATOM     14  N2  UNL A   1      18.840  30.890  44.090  1.00  0.00    +0.000 N 
ATOM     95  H5  UNL A   1      14.634  29.719  42.309  1.00  0.00    +0.000 H 
ATOM     96  H6  UNL A   1      14.290  27.324  42.469  1.00  0.00    +0.000 H 
BRANCH   14   15
ATOM     99  H9  UNL A   1      20.230  31.608  45.499  1.00  0.00    +0.000 H 
ATOM    100  H10 UNL A   1      20.702  31.852  43.879  1.00  0.00    +0.000 H 
ATOM     15  N3  UNL A   1      20.050  31.516  44.535  1.00  0.00    +0.000 N 
ENDBRANCH   14   15
ENDBRANCH    3    4
ENDBRANCH    2    3
ENDBRANCH   16    2
ENDBRANCH   18   16
ENDBRANCH   19   18
ENDBRANCH   20   19
ENDBRANCH   21   20
ENDBRANCH   22   21
ENDBRANCH   23   22
ENDBRANCH   24   23
ENDBRANCH   25   24
ENDBRANCH   26   25
ENDBRANCH   28   26
ENDBRANCH   32   31
BRANCH   36   37
ATOM     37  C27 UNL A   1      25.160  43.608  49.411  1.00  0.00    +0.000 C 
ATOM     38  C28 UNL A   1      25.671  43.920  50.679  1.00  0.00    +0.000 C 
ATOM     39  F1  UNL A   1      26.087  42.941  51.499  1.00  0.00    +0.000 F 
ATOM     40  C29 UNL A   1      25.719  45.236  51.130  1.00  0.00    +0.000 C 
ATOM     41  F2  UNL A   1      26.163  45.504  52.366  1.00  0.00    +0.000 F 
ATOM     42  C30 UNL A   1      25.291  46.268  50.309  1.00  0.00    +0.000 C 
ATOM     43  F3  UNL A   1      25.339  47.535  50.743  1.00  0.00    +0.000 F 
ATOM     44  C31 UNL A   1      24.804  45.987  49.041  1.00  0.00    +0.000 C 
ATOM     45  F4  UNL A   1      24.401  46.984  48.242  1.00  0.00    +0.000 F 
ATOM     46  C32 UNL A   1      24.728  44.668  48.600  1.00  0.00    +0.000 C 
ATOM     47  F5  UNL A   1      24.236  44.426  47.375  1.00  0.00    +0.000 F 
ENDBRANCH   36   37
BRANCH   53   54
ATOM     54  C38 UNL A   1      29.224  39.033  45.596  1.00  0.00    +0.000 C 
ATOM     55  C39 UNL A   1      30.328  38.439  46.225  1.00  0.00    +0.000 C 
ATOM     56  F6  UNL A   1      30.204  37.914  47.454  1.00  0.00    +0.000 F 
ATOM     57  C40 UNL A   1      31.574  38.414  45.606  1.00  0.00    +0.000 C 
ATOM     58  F7  UNL A   1      32.626  37.879  46.242  1.00  0.00    +0.000 F 
ATOM     59  C41 UNL A   1      31.734  38.953  44.338  1.00  0.00    +0.000 C 
ATOM     60  F8  UNL A   1      32.934  38.922  43.741  1.00  0.00    +0.000 F 
ATOM     61  C42 UNL A   1      30.652  39.531  43.691  1.00  0.00    +0.000 C 
ATOM     62  F9  UNL A   1      30.801  40.043  42.463  1.00  0.00    +0.000 F 
ATOM     63  C43 UNL A   1      29.411  39.581  44.319  1.00  0.00    +0.000 C 
ATOM     64  F10 UNL A   1      28.385  40.157  43.674  1.00  0.00    +0.000 F 
ENDBRANCH   53   54
BRANCH   68   69
ATOM     69  C47 UNL A   1      24.151  34.275  46.019  1.00  0.00    +0.000 C 
ATOM     70  C48 UNL A   1      24.636  33.171  46.733  1.00  0.00    +0.000 C 
ATOM     71  F11 UNL A   1      25.278  33.355  47.896  1.00  0.00    +0.000 F 
ATOM     72  C49 UNL A   1      24.491  31.876  46.240  1.00  0.00    +0.000 C 
ATOM     73  F12 UNL A   1      24.996  30.840  46.925  1.00  0.00    +0.000 F 
ATOM     74  C50 UNL A   1      23.837  31.659  45.036  1.00  0.00    +0.000 C 
ATOM     75  F13 UNL A   1      23.693  30.413  44.565  1.00  0.00    +0.000 F 
ATOM     76  C51 UNL A   1      23.339  32.737  44.319  1.00  0.00    +0.000 C 
ATOM     77  F14 UNL A   1      22.696  32.530  43.162  1.00  0.00    +0.000 F 
ATOM     78  C52 UNL A   1      23.505  34.033  44.799  1.00  0.00    +0.000 C 
ATOM     79  F15 UNL A   1      23.020  35.057  44.081  1.00  0.00    +0.000 F 
ENDBRANCH   68   69
TORSDOF 19
ENDMDL
MODEL 7
REMARK VINA RESULT:      -9.1     37.410     41.961
ROOT
ATOM     32  C23 UNL A   1      23.571  36.230  47.101  1.00  0.00    +0.000 C 
ATOM     33  C24 UNL A   1      24.534  37.382  47.044  1.00  0.00    +0.000 C 
ATOM     34  N6  UNL A   1      24.346  38.635  47.371  1.00  0.00    +0.000 N 
ATOM     35  C25 UNL A   1      25.570  39.263  47.176  1.00  0.00    +0.000 C 
ATOM     36  C26 UNL A   1      25.879  40.573  47.319  1.00  0.00    +0.000 C 
ATOM     48  C33 UNL A   1      24.939  41.589  47.715  1.00  0.00    +0.000 C 
ATOM     49  C34 UNL A   1      25.139  42.954  47.825  1.00  0.00    +0.000 C 
ATOM     50  C35 UNL A   1      23.949  43.535  48.281  1.00  0.00    +0.000 C 
ATOM     51  C36 UNL A   1      22.997  42.537  48.413  1.00  0.00    +0.000 C 
ATOM     52  N7  UNL A   1      23.619  41.348  48.066  1.00  0.00    +0.000 N 
ATOM     53  C37 UNL A   1      21.622  42.657  48.825  1.00  0.00    +0.000 C 
ATOM     65  C44 UNL A   1      20.744  41.628  48.921  1.00  0.00    +0.000 C 
ATOM     66  N8  UNL A   1      20.948  40.281  48.654  1.00  0.00    +0.000 N 
ATOM     67  C45 UNL A   1      19.807  39.689  48.902  1.00  0.00    +0.000 C 
ATOM     68  C46 UNL A   1      19.442  38.236  48.762  1.00  0.00    +0.000 C 
ATOM     80  C53 UNL A   1      20.359  37.368  48.295  1.00  0.00    +0.000 C 
ATOM     81  C54 UNL A   1      20.149  35.938  48.096  1.00  0.00    +0.000 C 
ATOM     82  C55 UNL A   1      21.291  35.384  47.659  1.00  0.00    +0.000 C 
ATOM     83  C56 UNL A   1      22.305  36.428  47.516  1.00  0.00    +0.000 C 
ATOM     84  N9  UNL A   1      21.661  37.574  47.909  1.00  0.00    +0.000 N 
ATOM     85  C57 UNL A   1      18.753  40.592  49.384  1.00  0.00    +0.000 C 
ATOM     86  C58 UNL A   1      19.366  41.767  49.341  1.00  0.00    +0.000 C 
ATOM     87  C59 UNL A   1      26.504  38.244  46.749  1.00  0.00    +0.000 C 
ATOM     88  C60 UNL A   1      25.898  37.077  46.587  1.00  0.00    +0.000 C 
ATOM    117  H27 UNL A   1      26.012  43.458  47.607  1.00  0.00    +0.000 H 
ATOM    118  H28 UNL A   1      23.806  44.536  48.486  1.00  0.00    +0.000 H 
ATOM    119  H29 UNL A   1      23.188  40.463  48.069  1.00  0.00    +0.000 H 
ATOM    120  H30 UNL A   1      19.264  35.434  48.264  1.00  0.00    +0.000 H 
ATOM    121  H31 UNL A   1      21.430  34.381  47.457  1.00  0.00    +0.000 H 
ATOM    122  H32 UNL A   1      22.091  38.460  47.913  1.00  0.00    +0.000 H 
ATOM    123  H33 UNL A   1      17.788  40.371  49.678  1.00  0.00    +0.000 H 
ATOM    124  H34 UNL A   1      18.917  42.666  49.578  1.00  0.00    +0.000 H 
ATOM    125  H35 UNL A   1      27.511  38.405  46.592  1.00  0.00    +0.000 H 
ATOM    126  H36 UNL A   1      26.283  36.187  46.233  1.00  0.00    +0.000 H 
ENDROOT
BRANCH   32   31
ATOM    115  H25 UNL A   1      23.991  32.579  44.295  1.00  0.00    +0.000 H 
ATOM    116  H26 UNL A   1      23.338  34.869  44.767  1.00  0.00    +0.000 H 
ATOM     89  C61 UNL A   1      24.704  34.101  47.735  1.00  0.00    +0.000 C 
ATOM     90  C62 UNL A   1      25.147  32.814  47.438  1.00  0.00    +0.000 C 
ATOM    127  H37 UNL A   1      24.874  34.498  48.673  1.00  0.00    +0.000 H 
ATOM     28  C19 UNL A   1      24.834  32.239  46.203  1.00  0.00    +0.000 C 
ATOM     29  C20 UNL A   1      24.184  32.991  45.222  1.00  0.00    +0.000 C 
ATOM     30  C21 UNL A   1      23.796  34.304  45.498  1.00  0.00    +0.000 C 
ATOM     31  C22 UNL A   1      24.027  34.859  46.767  1.00  0.00    +0.000 C 
ATOM    128  H38 UNL A   1      25.705  32.288  48.128  1.00  0.00    +0.000 H 
BRANCH   28   26
ATOM     26  C18 UNL A   1      25.194  30.836  45.903  1.00  0.00    +0.000 C 
ATOM     27  O3  UNL A   1      26.376  30.518  45.811  1.00  0.00    +0.000 O 
BRANCH   26   25
ATOM     25  N5  UNL A   1      24.208  29.903  45.710  1.00  0.00    +0.000 N 
ATOM    114  H24 UNL A   1      24.322  29.060  46.207  1.00  0.00    +0.000 H 
BRANCH   25   24
ATOM    113  H23 UNL A   1      23.096  29.224  44.126  1.00  0.00    +0.000 H 
ATOM    112  H22 UNL A   1      22.966  30.959  44.446  1.00  0.00    +0.000 H 
ATOM     24  C17 UNL A   1      23.019  29.982  44.878  1.00  0.00    +0.000 C 
BRANCH   24   23
ATOM    111  H21 UNL A   1      21.802  30.337  46.545  1.00  0.00    +0.000 H 
ATOM    110  H20 UNL A   1      21.687  28.679  45.886  1.00  0.00    +0.000 H 
ATOM     23  C16 UNL A   1      21.741  29.726  45.669  1.00  0.00    +0.000 C 
BRANCH   23   22
ATOM    108  H18 UNL A   1      20.346  29.515  44.084  1.00  0.00    +0.000 H 
ATOM    109  H19 UNL A   1      19.662  29.998  45.666  1.00  0.00    +0.000 H 
ATOM     22  C15 UNL A   1      20.448  30.130  44.953  1.00  0.00    +0.000 C 
BRANCH   22   21
ATOM    106  H16 UNL A   1      20.135  32.189  45.363  1.00  0.00    +0.000 H 
ATOM    107  H17 UNL A   1      21.333  31.823  44.085  1.00  0.00    +0.000 H 
ATOM     21  C14 UNL A   1      20.377  31.594  44.508  1.00  0.00    +0.000 C 
BRANCH   21   20
ATOM    105  H15 UNL A   1      19.363  31.066  42.737  1.00  0.00    +0.000 H 
ATOM     20  C13 UNL A   1      19.346  31.894  43.414  1.00  0.00    +0.000 C 
ATOM    104  H14 UNL A   1      19.614  32.817  42.943  1.00  0.00    +0.000 H 
BRANCH   20   19
ATOM     19  C12 UNL A   1      17.913  32.016  43.925  1.00  0.00    +0.000 C 
ATOM    102  H12 UNL A   1      17.928  32.401  44.924  1.00  0.00    +0.000 H 
ATOM    103  H13 UNL A   1      17.374  32.680  43.280  1.00  0.00    +0.000 H 
BRANCH   19   18
ATOM     18  N4  UNL A   1      17.252  30.725  43.921  1.00  0.00    +0.000 N 
ATOM    101  H11 UNL A   1      17.183  30.297  44.805  1.00  0.00    +0.000 H 
BRANCH   18   16
ATOM     17  O2  UNL A   1      16.254  30.646  41.944  1.00  0.00    +0.000 O 
ATOM     16  C11 UNL A   1      16.709  30.007  42.899  1.00  0.00    +0.000 C 
BRANCH   16    2
ATOM      2  C2  UNL A   1      16.656  28.475  42.907  1.00  0.00    +0.000 C 
ATOM     94  H4  UNL A   1      16.951  28.081  41.958  1.00  0.00    +0.000 H 
BRANCH    2    1
ATOM      1  C1  UNL A   1      17.697  27.853  43.831  1.00  0.00    +0.000 C 
ATOM     91  H1  UNL A   1      18.671  27.981  43.407  1.00  0.00    +0.000 H 
ATOM     92  H2  UNL A   1      17.492  26.809  43.948  1.00  0.00    +0.000 H 
ATOM     93  H3  UNL A   1      17.658  28.333  44.786  1.00  0.00    +0.000 H 
ENDBRANCH    2    1
BRANCH    2    3
ATOM      3  S1  UNL A   1      14.920  27.964  43.174  1.00  0.00    +0.000 S 
BRANCH    3    4
ATOM     97  H7  UNL A   1      13.732  20.989  40.168  1.00  0.00    +0.000 H 
ATOM     98  H8  UNL A   1      14.269  23.034  38.969  1.00  0.00    +0.000 H 
ATOM      4  C3  UNL A   1      14.824  26.506  42.219  1.00  0.00    +0.000 C 
ATOM      5  N1  UNL A   1      14.590  25.407  42.858  1.00  0.00    +0.000 N 
ATOM      6  C4  UNL A   1      14.396  24.237  42.111  1.00  0.00    +0.000 C 
ATOM      7  C5  UNL A   1      14.092  23.052  42.787  1.00  0.00    +0.000 C 
ATOM      8  C6  UNL A   1      13.848  21.870  42.081  1.00  0.00    +0.000 C 
ATOM      9  C7  UNL A   1      13.911  21.862  40.689  1.00  0.00    +0.000 C 
ATOM     10  C8  UNL A   1      14.217  23.035  39.999  1.00  0.00    +0.000 C 
ATOM     11  C9  UNL A   1      14.455  24.214  40.717  1.00  0.00    +0.000 C 
ATOM     12  C10 UNL A   1      14.746  25.477  40.017  1.00  0.00    +0.000 C 
ATOM     13  O1  UNL A   1      14.796  25.522  38.789  1.00  0.00    +0.000 O 
ATOM     14  N2  UNL A   1      14.923  26.595  40.835  1.00  0.00    +0.000 N 
ATOM     95  H5  UNL A   1      14.047  23.050  43.819  1.00  0.00    +0.000 H 
ATOM     96  H6  UNL A   1      13.621  21.003  42.592  1.00  0.00    +0.000 H 
BRANCH   14   15
ATOM     99  H9  UNL A   1      15.151  28.682  40.675  1.00  0.00    +0.000 H 
ATOM    100  H10 UNL A   1      15.424  27.844  39.215  1.00  0.00    +0.000 H 
ATOM     15  N3  UNL A   1      15.194  27.836  40.172  1.00  0.00    +0.000 N 
ENDBRANCH   14   15
ENDBRANCH    3    4
ENDBRANCH    2    3
ENDBRANCH   16    2
ENDBRANCH   18   16
ENDBRANCH   19   18
ENDBRANCH   20   19
ENDBRANCH   21   20
ENDBRANCH   22   21
ENDBRANCH   23   22
ENDBRANCH   24   23
ENDBRANCH   25   24
ENDBRANCH   26   25
ENDBRANCH   28   26
ENDBRANCH   32   31
BRANCH   36   37
ATOM     37  C27 UNL A   1      27.297  40.984  47.044  1.00  0.00    +0.000 C 
ATOM     38  C28 UNL A   1      27.792  41.083  45.735  1.00  0.00    +0.000 C 
ATOM     39  F1  UNL A   1      27.007  40.777  44.691  1.00  0.00    +0.000 F 
ATOM     40  C29 UNL A   1      29.111  41.457  45.494  1.00  0.00    +0.000 C 
ATOM     41  F2  UNL A   1      29.577  41.495  44.238  1.00  0.00    +0.000 F 
ATOM     42  C30 UNL A   1      29.949  41.774  46.553  1.00  0.00    +0.000 C 
ATOM     43  F3  UNL A   1      31.218  42.136  46.320  1.00  0.00    +0.000 F 
ATOM     44  C31 UNL A   1      29.474  41.706  47.854  1.00  0.00    +0.000 C 
ATOM     45  F4  UNL A   1      30.279  42.023  48.878  1.00  0.00    +0.000 F 
ATOM     46  C32 UNL A   1      28.163  41.303  48.099  1.00  0.00    +0.000 C 
ATOM     47  F5  UNL A   1      27.738  41.230  49.370  1.00  0.00    +0.000 F 
ENDBRANCH   36   37
BRANCH   53   54
ATOM     54  C38 UNL A   1      21.109  44.029  49.153  1.00  0.00    +0.000 C 
ATOM     55  C39 UNL A   1      20.632  44.892  48.157  1.00  0.00    +0.000 C 
ATOM     56  F6  UNL A   1      20.674  44.524  46.867  1.00  0.00    +0.000 F 
ATOM     57  C40 UNL A   1      20.141  46.154  48.480  1.00  0.00    +0.000 C 
ATOM     58  F7  UNL A   1      19.728  46.979  47.509  1.00  0.00    +0.000 F 
ATOM     59  C41 UNL A   1      20.090  46.563  49.805  1.00  0.00    +0.000 C 
ATOM     60  F8  UNL A   1      19.610  47.776  50.114  1.00  0.00    +0.000 F 
ATOM     61  C42 UNL A   1      20.542  45.719  50.807  1.00  0.00    +0.000 C 
ATOM     62  F9  UNL A   1      20.484  46.108  52.088  1.00  0.00    +0.000 F 
ATOM     63  C43 UNL A   1      21.058  44.467  50.484  1.00  0.00    +0.000 C 
ATOM     64  F10 UNL A   1      21.499  43.676  51.475  1.00  0.00    +0.000 F 
ENDBRANCH   53   54
BRANCH   68   69
ATOM     69  C47 UNL A   1      18.078  37.755  49.098  1.00  0.00    +0.000 C 
ATOM     70  C48 UNL A   1      17.642  37.710  50.429  1.00  0.00    +0.000 C 
ATOM     71  F11 UNL A   1      18.472  38.074  51.418  1.00  0.00    +0.000 F 
ATOM     72  C49 UNL A   1      16.365  37.258  50.752  1.00  0.00    +0.000 C 
ATOM     73  F12 UNL A   1      15.986  37.190  52.037  1.00  0.00    +0.000 F 
ATOM     74  C50 UNL A   1      15.490  36.867  49.750  1.00  0.00    +0.000 C 
ATOM     75  F13 UNL A   1      14.259  36.439  50.061  1.00  0.00    +0.000 F 
ATOM     76  C51 UNL A   1      15.896  36.916  48.424  1.00  0.00    +0.000 C 
ATOM     77  F14 UNL A   1      15.050  36.550  47.452  1.00  0.00    +0.000 F 
ATOM     78  C52 UNL A   1      17.181  37.344  48.102  1.00  0.00    +0.000 C 
ATOM     79  F15 UNL A   1      17.550  37.373  46.813  1.00  0.00    +0.000 F 
ENDBRANCH   68   69
TORSDOF 19
ENDMDL
MODEL 8
REMARK VINA RESULT:      -9.0     43.675     49.517
ROOT
ATOM     32  C23 UNL A   1      53.058  20.307  11.621  1.00  0.00    +0.000 C 
ATOM     33  C24 UNL A   1      52.855  20.881  12.994  1.00  0.00    +0.000 C 
ATOM     34  N6  UNL A   1      53.698  20.960  13.992  1.00  0.00    +0.000 N 
ATOM     35  C25 UNL A   1      53.020  21.622  15.008  1.00  0.00    +0.000 C 
ATOM     36  C26 UNL A   1      53.441  21.897  16.264  1.00  0.00    +0.000 C 
ATOM     48  C33 UNL A   1      54.730  21.526  16.787  1.00  0.00    +0.000 C 
ATOM     49  C34 UNL A   1      55.226  21.702  18.067  1.00  0.00    +0.000 C 
ATOM     50  C35 UNL A   1      56.541  21.221  18.097  1.00  0.00    +0.000 C 
ATOM     51  C36 UNL A   1      56.847  20.705  16.847  1.00  0.00    +0.000 C 
ATOM     52  N7  UNL A   1      55.729  20.903  16.053  1.00  0.00    +0.000 N 
ATOM     53  C37 UNL A   1      58.068  20.079  16.409  1.00  0.00    +0.000 C 
ATOM     65  C44 UNL A   1      58.289  19.588  15.165  1.00  0.00    +0.000 C 
ATOM     66  N8  UNL A   1      57.435  19.568  14.071  1.00  0.00    +0.000 N 
ATOM     67  C45 UNL A   1      58.105  19.000  13.101  1.00  0.00    +0.000 C 
ATOM     68  C46 UNL A   1      57.664  18.692  11.696  1.00  0.00    +0.000 C 
ATOM     80  C53 UNL A   1      56.407  18.991  11.320  1.00  0.00    +0.000 C 
ATOM     81  C54 UNL A   1      55.835  18.744   9.999  1.00  0.00    +0.000 C 
ATOM     82  C55 UNL A   1      54.576  19.207   9.973  1.00  0.00    +0.000 C 
ATOM     83  C56 UNL A   1      54.241  19.755  11.287  1.00  0.00    +0.000 C 
ATOM     84  N9  UNL A   1      55.384  19.578  12.025  1.00  0.00    +0.000 N 
ATOM     85  C57 UNL A   1      59.478  18.618  13.462  1.00  0.00    +0.000 C 
ATOM     86  C58 UNL A   1      59.525  18.965  14.740  1.00  0.00    +0.000 C 
ATOM     87  C59 UNL A   1      51.714  21.966  14.489  1.00  0.00    +0.000 C 
ATOM     88  C60 UNL A   1      51.537  21.472  13.272  1.00  0.00    +0.000 C 
ATOM    117  H27 UNL A   1      54.716  22.116  18.862  1.00  0.00    +0.000 H 
ATOM    118  H28 UNL A   1      57.174  21.245  18.911  1.00  0.00    +0.000 H 
ATOM    119  H29 UNL A   1      55.654  20.640  15.107  1.00  0.00    +0.000 H 
ATOM    120  H30 UNL A   1      56.323  18.286   9.213  1.00  0.00    +0.000 H 
ATOM    121  H31 UNL A   1      53.946  19.182   9.157  1.00  0.00    +0.000 H 
ATOM    122  H32 UNL A   1      55.465  19.845  12.969  1.00  0.00    +0.000 H 
ATOM    123  H33 UNL A   1      60.212  18.191  12.875  1.00  0.00    +0.000 H 
ATOM    124  H34 UNL A   1      60.340  18.811  15.355  1.00  0.00    +0.000 H 
ATOM    125  H35 UNL A   1      51.012  22.524  14.999  1.00  0.00    +0.000 H 
ATOM    126  H36 UNL A   1      50.695  21.497  12.675  1.00  0.00    +0.000 H 
ENDROOT
BRANCH   32   31
ATOM    115  H25 UNL A   1      50.756  22.464   8.240  1.00  0.00    +0.000 H 
ATOM    116  H26 UNL A   1      52.597  22.273   9.811  1.00  0.00    +0.000 H 
ATOM     89  C61 UNL A   1      51.047  19.372  10.480  1.00  0.00    +0.000 C 
ATOM     90  C62 UNL A   1      50.036  19.448   9.525  1.00  0.00    +0.000 C 
ATOM    127  H37 UNL A   1      51.106  18.549  11.101  1.00  0.00    +0.000 H 
ATOM     28  C19 UNL A   1      49.896  20.602   8.750  1.00  0.00    +0.000 C 
ATOM     29  C20 UNL A   1      50.837  21.630   8.844  1.00  0.00    +0.000 C 
ATOM     30  C21 UNL A   1      51.888  21.526   9.757  1.00  0.00    +0.000 C 
ATOM     31  C22 UNL A   1      51.984  20.409  10.603  1.00  0.00    +0.000 C 
ATOM    128  H38 UNL A   1      49.392  18.652   9.391  1.00  0.00    +0.000 H 
BRANCH   28   26
ATOM     26  C18 UNL A   1      48.766  20.754   7.808  1.00  0.00    +0.000 C 
ATOM     27  O3  UNL A   1      48.512  21.859   7.336  1.00  0.00    +0.000 O 
BRANCH   26   25
ATOM     25  N5  UNL A   1      47.994  19.669   7.483  1.00  0.00    +0.000 N 
ATOM    114  H24 UNL A   1      47.339  19.396   8.166  1.00  0.00    +0.000 H 
BRANCH   25   24
ATOM    113  H23 UNL A   1      48.145  19.525   5.443  1.00  0.00    +0.000 H 
ATOM    112  H22 UNL A   1      47.078  18.337   6.201  1.00  0.00    +0.000 H 
ATOM     24  C17 UNL A   1      48.005  18.865   6.272  1.00  0.00    +0.000 C 
BRANCH   24   23
ATOM    111  H21 UNL A   1      48.703  16.902   6.052  1.00  0.00    +0.000 H 
ATOM    110  H20 UNL A   1      49.637  17.892   7.211  1.00  0.00    +0.000 H 
ATOM     23  C16 UNL A   1      49.146  17.853   6.260  1.00  0.00    +0.000 C 
BRANCH   23   22
ATOM    108  H18 UNL A   1      50.807  17.204   5.109  1.00  0.00    +0.000 H 
ATOM    109  H19 UNL A   1      49.657  18.293   4.275  1.00  0.00    +0.000 H 
ATOM     22  C15 UNL A   1      50.200  18.082   5.172  1.00  0.00    +0.000 C 
BRANCH   22   21
ATOM    106  H16 UNL A   1      51.553  19.554   4.459  1.00  0.00    +0.000 H 
ATOM    107  H17 UNL A   1      50.516  20.050   5.831  1.00  0.00    +0.000 H 
ATOM     21  C14 UNL A   1      51.125  19.282   5.401  1.00  0.00    +0.000 C 
BRANCH   21   20
ATOM    105  H15 UNL A   1      52.506  18.000   6.346  1.00  0.00    +0.000 H 
ATOM     20  C13 UNL A   1      52.271  19.043   6.391  1.00  0.00    +0.000 C 
ATOM    104  H14 UNL A   1      51.945  19.352   7.363  1.00  0.00    +0.000 H 
BRANCH   20   19
ATOM     19  C12 UNL A   1      53.553  19.799   6.055  1.00  0.00    +0.000 C 
ATOM    102  H12 UNL A   1      53.625  19.914   4.993  1.00  0.00    +0.000 H 
ATOM    103  H13 UNL A   1      53.521  20.758   6.531  1.00  0.00    +0.000 H 
BRANCH   19   18
ATOM     18  N4  UNL A   1      54.717  19.080   6.536  1.00  0.00    +0.000 N 
ATOM    101  H11 UNL A   1      54.750  18.960   7.512  1.00  0.00    +0.000 H 
BRANCH   18   16
ATOM     17  O2  UNL A   1      56.402  19.294   5.113  1.00  0.00    +0.000 O 
ATOM     16  C11 UNL A   1      55.771  18.540   5.862  1.00  0.00    +0.000 C 
BRANCH   16    2
ATOM      2  C2  UNL A   1      56.178  17.070   6.012  1.00  0.00    +0.000 C 
ATOM     94  H4  UNL A   1      56.290  16.608   5.054  1.00  0.00    +0.000 H 
BRANCH    2    1
ATOM      1  C1  UNL A   1      57.577  16.902   6.596  1.00  0.00    +0.000 C 
ATOM     91  H1  UNL A   1      57.818  15.860   6.647  1.00  0.00    +0.000 H 
ATOM     92  H2  UNL A   1      57.606  17.323   7.580  1.00  0.00    +0.000 H 
ATOM     93  H3  UNL A   1      58.286  17.402   5.972  1.00  0.00    +0.000 H 
ENDBRANCH    2    1
BRANCH    2    3
ATOM      3  S1  UNL A   1      54.825  16.186   6.869  1.00  0.00    +0.000 S 
BRANCH    3    4
ATOM     97  H7  UNL A   1      51.656  13.705   0.320  1.00  0.00    +0.000 H 
ATOM     98  H8  UNL A   1      50.566  13.955   2.478  1.00  0.00    +0.000 H 
ATOM      4  C3  UNL A   1      53.806  15.709   5.534  1.00  0.00    +0.000 C 
ATOM      5  N1  UNL A   1      54.370  15.624   4.374  1.00  0.00    +0.000 N 
ATOM      6  C4  UNL A   1      53.608  15.137   3.303  1.00  0.00    +0.000 C 
ATOM      7  C5  UNL A   1      54.221  14.993   2.056  1.00  0.00    +0.000 C 
ATOM      8  C6  UNL A   1      53.512  14.470   0.970  1.00  0.00    +0.000 C 
ATOM      9  C7  UNL A   1      52.179  14.090   1.122  1.00  0.00    +0.000 C 
ATOM     10  C8  UNL A   1      51.553  14.231   2.360  1.00  0.00    +0.000 C 
ATOM     11  C9  UNL A   1      52.274  14.752   3.442  1.00  0.00    +0.000 C 
ATOM     12  C10 UNL A   1      51.652  14.880   4.771  1.00  0.00    +0.000 C 
ATOM     13  O1  UNL A   1      50.483  14.544   4.956  1.00  0.00    +0.000 O 
ATOM     14  N2  UNL A   1      52.480  15.372   5.781  1.00  0.00    +0.000 N 
ATOM     95  H5  UNL A   1      55.206  15.275   1.935  1.00  0.00    +0.000 H 
ATOM     96  H6  UNL A   1      53.976  14.365   0.055  1.00  0.00    +0.000 H 
BRANCH   14   15
ATOM     99  H9  UNL A   1      51.313  16.257   7.295  1.00  0.00    +0.000 H 
ATOM    100  H10 UNL A   1      52.080  14.810   7.771  1.00  0.00    +0.000 H 
ATOM     15  N3  UNL A   1      51.897  15.492   7.085  1.00  0.00    +0.000 N 
ENDBRANCH   14   15
ENDBRANCH    3    4
ENDBRANCH    2    3
ENDBRANCH   16    2
ENDBRANCH   18   16
ENDBRANCH   19   18
ENDBRANCH   20   19
ENDBRANCH   21   20
ENDBRANCH   22   21
ENDBRANCH   23   22
ENDBRANCH   24   23
ENDBRANCH   25   24
ENDBRANCH   26   25
ENDBRANCH   28   26
ENDBRANCH   32   31
BRANCH   36   37
ATOM     37  C27 UNL A   1      52.495  22.638  17.164  1.00  0.00    +0.000 C 
ATOM     38  C28 UNL A   1      52.390  24.037  17.129  1.00  0.00    +0.000 C 
ATOM     39  F1  UNL A   1      53.169  24.752  16.302  1.00  0.00    +0.000 F 
ATOM     40  C29 UNL A   1      51.513  24.712  17.974  1.00  0.00    +0.000 C 
ATOM     41  F2  UNL A   1      51.468  26.051  17.960  1.00  0.00    +0.000 F 
ATOM     42  C30 UNL A   1      50.700  24.001  18.844  1.00  0.00    +0.000 C 
ATOM     43  F3  UNL A   1      49.855  24.651  19.656  1.00  0.00    +0.000 F 
ATOM     44  C31 UNL A   1      50.769  22.616  18.879  1.00  0.00    +0.000 C 
ATOM     45  F4  UNL A   1      49.975  21.928  19.711  1.00  0.00    +0.000 F 
ATOM     46  C32 UNL A   1      51.666  21.940  18.055  1.00  0.00    +0.000 C 
ATOM     47  F5  UNL A   1      51.722  20.602  18.125  1.00  0.00    +0.000 F 
ENDBRANCH   36   37
BRANCH   53   54
ATOM     54  C38 UNL A   1      59.176  19.936  17.410  1.00  0.00    +0.000 C 
ATOM     55  C39 UNL A   1      59.479  18.700  17.998  1.00  0.00    +0.000 C 
ATOM     56  F6  UNL A   1      58.739  17.617  17.714  1.00  0.00    +0.000 F 
ATOM     57  C40 UNL A   1      60.524  18.579  18.911  1.00  0.00    +0.000 C 
ATOM     58  F7  UNL A   1      60.770  17.398  19.493  1.00  0.00    +0.000 F 
ATOM     59  C41 UNL A   1      61.302  19.683  19.227  1.00  0.00    +0.000 C 
ATOM     60  F8  UNL A   1      62.313  19.563  20.101  1.00  0.00    +0.000 F 
ATOM     61  C42 UNL A   1      61.031  20.911  18.645  1.00  0.00    +0.000 C 
ATOM     62  F9  UNL A   1      61.788  21.976  18.942  1.00  0.00    +0.000 F 
ATOM     63  C43 UNL A   1      59.970  21.040  17.753  1.00  0.00    +0.000 C 
ATOM     64  F10 UNL A   1      59.723  22.244  17.214  1.00  0.00    +0.000 F 
ENDBRANCH   53   54
BRANCH   68   69
ATOM     69  C47 UNL A   1      58.584  18.035  10.733  1.00  0.00    +0.000 C 
ATOM     70  C48 UNL A   1      58.619  16.639  10.614  1.00  0.00    +0.000 C 
ATOM     71  F11 UNL A   1      57.838  15.881  11.398  1.00  0.00    +0.000 F 
ATOM     72  C49 UNL A   1      59.479  16.015   9.714  1.00  0.00    +0.000 C 
ATOM     73  F12 UNL A   1      59.520  14.677   9.646  1.00  0.00    +0.000 F 
ATOM     74  C50 UNL A   1      60.303  16.776   8.897  1.00  0.00    +0.000 C 
ATOM     75  F13 UNL A   1      61.126  16.175   8.027  1.00  0.00    +0.000 F 
ATOM     76  C51 UNL A   1      60.276  18.160   8.989  1.00  0.00    +0.000 C 
ATOM     77  F14 UNL A   1      61.061  18.898   8.194  1.00  0.00    +0.000 F 
ATOM     78  C52 UNL A   1      59.434  18.783   9.906  1.00  0.00    +0.000 C 
ATOM     79  F15 UNL A   1      59.434  20.122   9.979  1.00  0.00    +0.000 F 
ENDBRANCH   68   69
TORSDOF 19
ENDMDL
MODEL 9
REMARK VINA RESULT:      -9.0     36.309     40.162
ROOT
ATOM     32  C23 UNL A   1      40.787  27.845  28.647  1.00  0.00    +0.000 C 
ATOM     33  C24 UNL A   1      39.845  28.970  28.974  1.00  0.00    +0.000 C 
ATOM     34  N6  UNL A   1      40.107  30.146  29.486  1.00  0.00    +0.000 N 
ATOM     35  C25 UNL A   1      38.890  30.814  29.536  1.00  0.00    +0.000 C 
ATOM     36  C26 UNL A   1      38.621  32.042  30.038  1.00  0.00    +0.000 C 
ATOM     48  C33 UNL A   1      39.604  32.905  30.639  1.00  0.00    +0.000 C 
ATOM     49  C34 UNL A   1      39.419  34.140  31.236  1.00  0.00    +0.000 C 
ATOM     50  C35 UNL A   1      40.670  34.621  31.643  1.00  0.00    +0.000 C 
ATOM     51  C36 UNL A   1      41.627  33.665  31.338  1.00  0.00    +0.000 C 
ATOM     52  N7  UNL A   1      40.960  32.620  30.720  1.00  0.00    +0.000 N 
ATOM     53  C37 UNL A   1      43.044  33.702  31.593  1.00  0.00    +0.000 C 
ATOM     65  C44 UNL A   1      43.919  32.717  31.272  1.00  0.00    +0.000 C 
ATOM     66  N8  UNL A   1      43.671  31.498  30.657  1.00  0.00    +0.000 N 
ATOM     67  C45 UNL A   1      44.833  30.902  30.557  1.00  0.00    +0.000 C 
ATOM     68  C46 UNL A   1      45.159  29.546  29.996  1.00  0.00    +0.000 C 
ATOM     80  C53 UNL A   1      44.162  28.766  29.537  1.00  0.00    +0.000 C 
ATOM     81  C54 UNL A   1      44.322  27.428  28.975  1.00  0.00    +0.000 C 
ATOM     82  C55 UNL A   1      43.122  26.970  28.586  1.00  0.00    +0.000 C 
ATOM     83  C56 UNL A   1      42.103  27.970  28.901  1.00  0.00    +0.000 C 
ATOM     84  N9  UNL A   1      42.810  28.999  29.469  1.00  0.00    +0.000 N 
ATOM     85  C57 UNL A   1      45.959  31.693  31.074  1.00  0.00    +0.000 C 
ATOM     86  C58 UNL A   1      45.342  32.773  31.531  1.00  0.00    +0.000 C 
ATOM     87  C59 UNL A   1      37.900  29.932  28.957  1.00  0.00    +0.000 C 
ATOM     88  C60 UNL A   1      38.426  28.754  28.656  1.00  0.00    +0.000 C 
ATOM    117  H27 UNL A   1      38.517  34.623  31.361  1.00  0.00    +0.000 H 
ATOM    118  H28 UNL A   1      40.849  35.532  32.092  1.00  0.00    +0.000 H 
ATOM    119  H29 UNL A   1      41.384  31.797  30.387  1.00  0.00    +0.000 H 
ATOM    120  H30 UNL A   1      45.215  26.917  28.892  1.00  0.00    +0.000 H 
ATOM    121  H31 UNL A   1      42.947  26.058  28.135  1.00  0.00    +0.000 H 
ATOM    122  H32 UNL A   1      42.390  29.827  29.798  1.00  0.00    +0.000 H 
ATOM    123  H33 UNL A   1      46.967  31.465  31.080  1.00  0.00    +0.000 H 
ATOM    124  H34 UNL A   1      45.816  33.555  32.011  1.00  0.00    +0.000 H 
ATOM    125  H35 UNL A   1      36.912  30.187  28.800  1.00  0.00    +0.000 H 
ATOM    126  H36 UNL A   1      37.961  27.907  28.293  1.00  0.00    +0.000 H 
ENDROOT
BRANCH   32   31
ATOM    115  H25 UNL A   1      40.237  25.054  25.001  1.00  0.00    +0.000 H 
ATOM    116  H26 UNL A   1      41.180  27.004  26.099  1.00  0.00    +0.000 H 
ATOM     89  C61 UNL A   1      39.502  25.707  28.702  1.00  0.00    +0.000 C 
ATOM     90  C62 UNL A   1      39.027  24.549  28.091  1.00  0.00    +0.000 C 
ATOM    127  H37 UNL A   1      39.280  25.894  29.693  1.00  0.00    +0.000 H 
ATOM     28  C19 UNL A   1      39.246  24.342  26.726  1.00  0.00    +0.000 C 
ATOM     29  C20 UNL A   1      40.041  25.231  26.000  1.00  0.00    +0.000 C 
ATOM     30  C21 UNL A   1      40.572  26.359  26.628  1.00  0.00    +0.000 C 
ATOM     31  C22 UNL A   1      40.282  26.621  27.977  1.00  0.00    +0.000 C 
ATOM    128  H38 UNL A   1      38.514  23.847  28.647  1.00  0.00    +0.000 H 
BRANCH   28   26
ATOM     26  C18 UNL A   1      38.657  23.179  26.029  1.00  0.00    +0.000 C 
ATOM     27  O3  UNL A   1      39.183  22.074  26.138  1.00  0.00    +0.000 O 
BRANCH   26   25
ATOM     25  N5  UNL A   1      37.541  23.340  25.250  1.00  0.00    +0.000 N 
ATOM    114  H24 UNL A   1      37.660  23.136  24.293  1.00  0.00    +0.000 H 
BRANCH   25   24
ATOM    113  H23 UNL A   1      35.680  24.040  24.745  1.00  0.00    +0.000 H 
ATOM    112  H22 UNL A   1      36.291  24.594  26.309  1.00  0.00    +0.000 H 
ATOM     24  C17 UNL A   1      36.206  23.768  25.636  1.00  0.00    +0.000 C 
BRANCH   24   23
ATOM    111  H21 UNL A   1      36.103  22.163  26.979  1.00  0.00    +0.000 H 
ATOM    110  H20 UNL A   1      35.021  22.013  25.563  1.00  0.00    +0.000 H 
ATOM     23  C16 UNL A   1      35.418  22.656  26.321  1.00  0.00    +0.000 C 
BRANCH   23   22
ATOM    108  H18 UNL A   1      34.618  23.259  28.192  1.00  0.00    +0.000 H 
ATOM    109  H19 UNL A   1      33.906  24.044  26.750  1.00  0.00    +0.000 H 
ATOM     22  C15 UNL A   1      34.254  23.136  27.194  1.00  0.00    +0.000 C 
BRANCH   22   21
ATOM    106  H16 UNL A   1      33.139  21.492  26.446  1.00  0.00    +0.000 H 
ATOM    107  H17 UNL A   1      33.057  21.747  28.215  1.00  0.00    +0.000 H 
ATOM     21  C14 UNL A   1      33.044  22.197  27.244  1.00  0.00    +0.000 C 
BRANCH   21   20
ATOM    105  H15 UNL A   1      31.372  23.153  28.101  1.00  0.00    +0.000 H 
ATOM     20  C13 UNL A   1      31.680  22.883  27.112  1.00  0.00    +0.000 C 
ATOM    104  H14 UNL A   1      31.004  22.200  26.641  1.00  0.00    +0.000 H 
BRANCH   20   19
ATOM     19  C12 UNL A   1      31.707  24.171  26.293  1.00  0.00    +0.000 C 
ATOM    102  H12 UNL A   1      31.080  24.900  26.764  1.00  0.00    +0.000 H 
ATOM    103  H13 UNL A   1      32.716  24.525  26.244  1.00  0.00    +0.000 H 
BRANCH   19   18
ATOM     18  N4  UNL A   1      31.231  23.934  24.943  1.00  0.00    +0.000 N 
ATOM    101  H11 UNL A   1      30.469  23.314  24.880  1.00  0.00    +0.000 H 
BRANCH   18   16
ATOM     17  O2  UNL A   1      30.796  24.676  22.901  1.00  0.00    +0.000 O 
ATOM     16  C11 UNL A   1      31.660  24.428  23.749  1.00  0.00    +0.000 C 
BRANCH   16    2
ATOM      2  C2  UNL A   1      33.142  24.678  23.447  1.00  0.00    +0.000 C 
ATOM     94  H4  UNL A   1      33.693  24.830  24.351  1.00  0.00    +0.000 H 
BRANCH    2    1
ATOM      1  C1  UNL A   1      33.841  23.453  22.868  1.00  0.00    +0.000 C 
ATOM     91  H1  UNL A   1      34.039  23.614  21.828  1.00  0.00    +0.000 H 
ATOM     92  H2  UNL A   1      33.212  22.595  22.982  1.00  0.00    +0.000 H 
ATOM     93  H3  UNL A   1      34.763  23.291  23.386  1.00  0.00    +0.000 H 
ENDBRANCH    2    1
BRANCH    2    3
ATOM      3  S1  UNL A   1      33.277  26.226  22.481  1.00  0.00    +0.000 S 
BRANCH    3    4
ATOM     97  H7  UNL A   1      33.143  31.509  28.064  1.00  0.00    +0.000 H 
ATOM     98  H8  UNL A   1      31.470  31.153  26.337  1.00  0.00    +0.000 H 
ATOM      4  C3  UNL A   1      32.905  27.433  23.685  1.00  0.00    +0.000 C 
ATOM      5  N1  UNL A   1      33.768  27.591  24.635  1.00  0.00    +0.000 N 
ATOM      6  C4  UNL A   1      33.555  28.628  25.555  1.00  0.00    +0.000 C 
ATOM      7  C5  UNL A   1      34.506  28.841  26.556  1.00  0.00    +0.000 C 
ATOM      8  C6  UNL A   1      34.358  29.890  27.469  1.00  0.00    +0.000 C 
ATOM      9  C7  UNL A   1      33.253  30.735  27.389  1.00  0.00    +0.000 C 
ATOM     10  C8  UNL A   1      32.293  30.533  26.398  1.00  0.00    +0.000 C 
ATOM     11  C9  UNL A   1      32.453  29.482  25.487  1.00  0.00    +0.000 C 
ATOM     12  C10 UNL A   1      31.476  29.264  24.406  1.00  0.00    +0.000 C 
ATOM     13  O1  UNL A   1      30.493  29.993  24.288  1.00  0.00    +0.000 O 
ATOM     14  N2  UNL A   1      31.763  28.213  23.534  1.00  0.00    +0.000 N 
ATOM     95  H5  UNL A   1      35.327  28.217  26.623  1.00  0.00    +0.000 H 
ATOM     96  H6  UNL A   1      35.069  30.039  28.201  1.00  0.00    +0.000 H 
BRANCH   14   15
ATOM     99  H9  UNL A   1      30.634  28.716  21.829  1.00  0.00    +0.000 H 
ATOM    100  H10 UNL A   1      30.388  27.119  22.373  1.00  0.00    +0.000 H 
ATOM     15  N3  UNL A   1      30.831  27.993  22.468  1.00  0.00    +0.000 N 
ENDBRANCH   14   15
ENDBRANCH    3    4
ENDBRANCH    2    3
ENDBRANCH   16    2
ENDBRANCH   18   16
ENDBRANCH   19   18
ENDBRANCH   20   19
ENDBRANCH   21   20
ENDBRANCH   22   21
ENDBRANCH   23   22
ENDBRANCH   24   23
ENDBRANCH   25   24
ENDBRANCH   26   25
ENDBRANCH   28   26
ENDBRANCH   32   31
BRANCH   36   37
ATOM     37  C27 UNL A   1      37.202  32.527  29.957  1.00  0.00    +0.000 C 
ATOM     38  C28 UNL A   1      36.291  32.310  31.002  1.00  0.00    +0.000 C 
ATOM     39  F1  UNL A   1      36.666  31.625  32.094  1.00  0.00    +0.000 F 
ATOM     40  C29 UNL A   1      34.976  32.758  30.911  1.00  0.00    +0.000 C 
ATOM     41  F2  UNL A   1      34.110  32.493  31.898  1.00  0.00    +0.000 F 
ATOM     42  C30 UNL A   1      34.557  33.462  29.793  1.00  0.00    +0.000 C 
ATOM     43  F3  UNL A   1      33.292  33.895  29.707  1.00  0.00    +0.000 F 
ATOM     44  C31 UNL A   1      35.447  33.710  28.758  1.00  0.00    +0.000 C 
ATOM     45  F4  UNL A   1      35.046  34.401  27.682  1.00  0.00    +0.000 F 
ATOM     46  C32 UNL A   1      36.755  33.237  28.834  1.00  0.00    +0.000 C 
ATOM     47  F5  UNL A   1      37.587  33.478  27.809  1.00  0.00    +0.000 F 
ENDBRANCH   36   37
BRANCH   53   54
ATOM     54  C38 UNL A   1      43.597  34.912  32.286  1.00  0.00    +0.000 C 
ATOM     55  C39 UNL A   1      43.782  34.942  33.676  1.00  0.00    +0.000 C 
ATOM     56  F6  UNL A   1      43.412  33.894  34.429  1.00  0.00    +0.000 F 
ATOM     57  C40 UNL A   1      44.315  36.065  34.302  1.00  0.00    +0.000 C 
ATOM     58  F7  UNL A   1      44.444  36.088  35.636  1.00  0.00    +0.000 F 
ATOM     59  C41 UNL A   1      44.701  37.164  33.550  1.00  0.00    +0.000 C 
ATOM     60  F8  UNL A   1      45.221  38.242  34.154  1.00  0.00    +0.000 F 
ATOM     61  C42 UNL A   1      44.543  37.150  32.173  1.00  0.00    +0.000 C 
ATOM     62  F9  UNL A   1      44.925  38.206  31.443  1.00  0.00    +0.000 F 
ATOM     63  C43 UNL A   1      43.985  36.039  31.547  1.00  0.00    +0.000 C 
ATOM     64  F10 UNL A   1      43.833  36.058  30.214  1.00  0.00    +0.000 F 
ENDBRANCH   53   54
BRANCH   68   69
ATOM     69  C47 UNL A   1      46.556  29.044  29.971  1.00  0.00    +0.000 C 
ATOM     70  C48 UNL A   1      47.371  29.247  28.849  1.00  0.00    +0.000 C 
ATOM     71  F11 UNL A   1      46.880  29.874  27.770  1.00  0.00    +0.000 F 
ATOM     72  C49 UNL A   1      48.682  28.778  28.819  1.00  0.00    +0.000 C 
ATOM     73  F12 UNL A   1      49.429  28.953  27.719  1.00  0.00    +0.000 F 
ATOM     74  C50 UNL A   1      49.212  28.120  29.918  1.00  0.00    +0.000 C 
ATOM     75  F13 UNL A   1      50.476  27.674  29.891  1.00  0.00    +0.000 F 
ATOM     76  C51 UNL A   1      48.428  27.919  31.045  1.00  0.00    +0.000 C 
ATOM     77  F14 UNL A   1      48.940  27.294  32.113  1.00  0.00    +0.000 F 
ATOM     78  C52 UNL A   1      47.109  28.365  31.067  1.00  0.00    +0.000 C 
ATOM     79  F15 UNL A   1      46.371  28.150  32.166  1.00  0.00    +0.000 F 
ENDBRANCH   68   69
TORSDOF 19
ENDMDL
MODEL 10
REMARK VINA RESULT:      -9.0     55.250     59.756
ROOT
ATOM     32  C23 UNL A   1      46.655  51.007  17.975  1.00  0.00    +0.000 C 
ATOM     33  C24 UNL A   1      47.676  50.670  19.025  1.00  0.00    +0.000 C 
ATOM     34  N6  UNL A   1      48.700  51.373  19.440  1.00  0.00    +0.000 N 
ATOM     35  C25 UNL A   1      49.284  50.626  20.454  1.00  0.00    +0.000 C 
ATOM     36  C26 UNL A   1      50.406  50.895  21.162  1.00  0.00    +0.000 C 
ATOM     48  C33 UNL A   1      51.227  52.061  20.968  1.00  0.00    +0.000 C 
ATOM     49  C34 UNL A   1      52.418  52.392  21.590  1.00  0.00    +0.000 C 
ATOM     50  C35 UNL A   1      52.831  53.640  21.110  1.00  0.00    +0.000 C 
ATOM     51  C36 UNL A   1      51.918  54.067  20.157  1.00  0.00    +0.000 C 
ATOM     52  N7  UNL A   1      50.938  53.090  20.083  1.00  0.00    +0.000 N 
ATOM     53  C37 UNL A   1      51.939  55.274  19.371  1.00  0.00    +0.000 C 
ATOM     65  C44 UNL A   1      51.010  55.617  18.447  1.00  0.00    +0.000 C 
ATOM     66  N8  UNL A   1      49.875  54.922  18.050  1.00  0.00    +0.000 N 
ATOM     67  C45 UNL A   1      49.297  55.664  17.140  1.00  0.00    +0.000 C 
ATOM     68  C46 UNL A   1      48.048  55.393  16.348  1.00  0.00    +0.000 C 
ATOM     80  C53 UNL A   1      47.392  54.231  16.528  1.00  0.00    +0.000 C 
ATOM     81  C54 UNL A   1      46.177  53.825  15.828  1.00  0.00    +0.000 C 
ATOM     82  C55 UNL A   1      45.784  52.628  16.291  1.00  0.00    +0.000 C 
ATOM     83  C56 UNL A   1      46.739  52.168  17.298  1.00  0.00    +0.000 C 
ATOM     84  N9  UNL A   1      47.663  53.179  17.369  1.00  0.00    +0.000 N 
ATOM     85  C57 UNL A   1      49.987  56.934  16.873  1.00  0.00    +0.000 C 
ATOM     86  C58 UNL A   1      51.043  56.838  17.669  1.00  0.00    +0.000 C 
ATOM     87  C59 UNL A   1      48.473  49.440  20.626  1.00  0.00    +0.000 C 
ATOM     88  C60 UNL A   1      47.506  49.387  19.721  1.00  0.00    +0.000 C 
ATOM    117  H27 UNL A   1      52.917  51.817  22.286  1.00  0.00    +0.000 H 
ATOM    118  H28 UNL A   1      53.671  54.157  21.414  1.00  0.00    +0.000 H 
ATOM    119  H29 UNL A   1      50.153  53.121  19.491  1.00  0.00    +0.000 H 
ATOM    120  H30 UNL A   1      45.699  54.372  15.094  1.00  0.00    +0.000 H 
ATOM    121  H31 UNL A   1      44.942  52.116  15.985  1.00  0.00    +0.000 H 
ATOM    122  H32 UNL A   1      48.447  53.155  17.965  1.00  0.00    +0.000 H 
ATOM    123  H33 UNL A   1      49.720  57.699  16.234  1.00  0.00    +0.000 H 
ATOM    124  H34 UNL A   1      51.794  57.544  17.726  1.00  0.00    +0.000 H 
ATOM    125  H35 UNL A   1      48.627  48.728  21.357  1.00  0.00    +0.000 H 
ATOM    126  H36 UNL A   1      46.814  48.640  19.551  1.00  0.00    +0.000 H 
ENDROOT
BRANCH   32   31
ATOM    115  H25 UNL A   1      42.363  49.461  18.726  1.00  0.00    +0.000 H 
ATOM    116  H26 UNL A   1      44.172  51.043  19.064  1.00  0.00    +0.000 H 
ATOM     89  C61 UNL A   1      45.645  49.054  16.797  1.00  0.00    +0.000 C 
ATOM     90  C62 UNL A   1      44.579  48.193  16.547  1.00  0.00    +0.000 C 
ATOM    127  H37 UNL A   1      46.537  48.925  16.294  1.00  0.00    +0.000 H 
ATOM     28  C19 UNL A   1      43.403  48.306  17.294  1.00  0.00    +0.000 C 
ATOM     29  C20 UNL A   1      43.248  49.353  18.205  1.00  0.00    +0.000 C 
ATOM     30  C21 UNL A   1      44.294  50.255  18.410  1.00  0.00    +0.000 C 
ATOM     31  C22 UNL A   1      45.511  50.095  17.728  1.00  0.00    +0.000 C 
ATOM    128  H38 UNL A   1      44.658  47.474  15.811  1.00  0.00    +0.000 H 
BRANCH   28   26
ATOM     26  C18 UNL A   1      42.299  47.336  17.128  1.00  0.00    +0.000 C 
ATOM     27  O3  UNL A   1      41.398  47.572  16.328  1.00  0.00    +0.000 O 
BRANCH   26   25
ATOM     25  N5  UNL A   1      42.275  46.191  17.880  1.00  0.00    +0.000 N 
ATOM    114  H24 UNL A   1      43.033  46.075  18.499  1.00  0.00    +0.000 H 
BRANCH   25   24
ATOM    113  H23 UNL A   1      41.528  44.446  17.104  1.00  0.00    +0.000 H 
ATOM    112  H22 UNL A   1      40.317  45.551  17.766  1.00  0.00    +0.000 H 
ATOM     24  C17 UNL A   1      41.288  45.123  17.896  1.00  0.00    +0.000 C 
BRANCH   24   23
ATOM    111  H21 UNL A   1      40.394  43.779  19.231  1.00  0.00    +0.000 H 
ATOM    110  H20 UNL A   1      41.401  45.035  20.010  1.00  0.00    +0.000 H 
ATOM     23  C16 UNL A   1      41.306  44.338  19.203  1.00  0.00    +0.000 C 
BRANCH   23   22
ATOM    108  H18 UNL A   1      42.347  42.621  18.515  1.00  0.00    +0.000 H 
ATOM    109  H19 UNL A   1      43.349  43.877  19.305  1.00  0.00    +0.000 H 
ATOM     22  C15 UNL A   1      42.440  43.314  19.324  1.00  0.00    +0.000 C 
BRANCH   22   21
ATOM    106  H16 UNL A   1      41.563  41.939  20.683  1.00  0.00    +0.000 H 
ATOM    107  H17 UNL A   1      43.350  41.919  20.600  1.00  0.00    +0.000 H 
ATOM     21  C14 UNL A   1      42.462  42.516  20.632  1.00  0.00    +0.000 C 
BRANCH   21   20
ATOM    105  H15 UNL A   1      41.703  43.997  21.925  1.00  0.00    +0.000 H 
ATOM     20  C13 UNL A   1      42.561  43.357  21.909  1.00  0.00    +0.000 C 
ATOM    104  H14 UNL A   1      43.481  43.902  21.883  1.00  0.00    +0.000 H 
BRANCH   20   19
ATOM     19  C12 UNL A   1      42.525  42.541  23.198  1.00  0.00    +0.000 C 
ATOM    102  H12 UNL A   1      41.506  42.379  23.483  1.00  0.00    +0.000 H 
ATOM    103  H13 UNL A   1      43.015  41.605  23.025  1.00  0.00    +0.000 H 
BRANCH   19   18
ATOM     18  N4  UNL A   1      43.215  43.235  24.268  1.00  0.00    +0.000 N 
ATOM    101  H11 UNL A   1      42.980  44.187  24.357  1.00  0.00    +0.000 H 
BRANCH   18   16
ATOM     17  O2  UNL A   1      44.202  41.568  25.343  1.00  0.00    +0.000 O 
ATOM     16  C11 UNL A   1      44.132  42.790  25.172  1.00  0.00    +0.000 C 
BRANCH   16    2
ATOM      2  C2  UNL A   1      45.048  43.740  25.950  1.00  0.00    +0.000 C 
ATOM     94  H4  UNL A   1      44.720  44.753  25.847  1.00  0.00    +0.000 H 
BRANCH    2    1
ATOM      1  C1  UNL A   1      44.957  43.544  27.459  1.00  0.00    +0.000 C 
ATOM     91  H1  UNL A   1      45.855  43.080  27.813  1.00  0.00    +0.000 H 
ATOM     92  H2  UNL A   1      44.119  42.920  27.689  1.00  0.00    +0.000 H 
ATOM     93  H3  UNL A   1      44.835  44.495  27.935  1.00  0.00    +0.000 H 
ENDBRANCH    2    1
BRANCH    2    3
ATOM      3  S1  UNL A   1      46.721  43.651  25.216  1.00  0.00    +0.000 S 
BRANCH    3    4
ATOM     97  H7  UNL A   1      45.429  45.815  17.954  1.00  0.00    +0.000 H 
ATOM     98  H8  UNL A   1      46.021  43.593  18.742  1.00  0.00    +0.000 H 
ATOM      4  C3  UNL A   1      46.375  43.804  23.512  1.00  0.00    +0.000 C 
ATOM      5  N1  UNL A   1      46.009  44.972  23.096  1.00  0.00    +0.000 N 
ATOM      6  C4  UNL A   1      45.832  45.157  21.718  1.00  0.00    +0.000 C 
ATOM      7  C5  UNL A   1      45.485  46.427  21.251  1.00  0.00    +0.000 C 
ATOM      8  C6  UNL A   1      45.340  46.669  19.882  1.00  0.00    +0.000 C 
ATOM      9  C7  UNL A   1      45.537  45.637  18.965  1.00  0.00    +0.000 C 
ATOM     10  C8  UNL A   1      45.879  44.362  19.416  1.00  0.00    +0.000 C 
ATOM     11  C9  UNL A   1      46.025  44.133  20.789  1.00  0.00    +0.000 C 
ATOM     12  C10 UNL A   1      46.421  42.807  21.295  1.00  0.00    +0.000 C 
ATOM     13  O1  UNL A   1      46.620  41.870  20.523  1.00  0.00    +0.000 O 
ATOM     14  N2  UNL A   1      46.578  42.709  22.679  1.00  0.00    +0.000 N 
ATOM     95  H5  UNL A   1      45.335  47.196  21.924  1.00  0.00    +0.000 H 
ATOM     96  H6  UNL A   1      45.088  47.612  19.549  1.00  0.00    +0.000 H 
BRANCH   14   15
ATOM     99  H9  UNL A   1      46.739  41.174  24.110  1.00  0.00    +0.000 H 
ATOM    100  H10 UNL A   1      47.483  40.809  22.620  1.00  0.00    +0.000 H 
ATOM     15  N3  UNL A   1      46.975  41.431  23.189  1.00  0.00    +0.000 N 
ENDBRANCH   14   15
ENDBRANCH    3    4
ENDBRANCH    2    3
ENDBRANCH   16    2
ENDBRANCH   18   16
ENDBRANCH   19   18
ENDBRANCH   20   19
ENDBRANCH   21   20
ENDBRANCH   22   21
ENDBRANCH   23   22
ENDBRANCH   24   23
ENDBRANCH   25   24
ENDBRANCH   26   25
ENDBRANCH   28   26
ENDBRANCH   32   31
BRANCH   36   37
ATOM     37  C27 UNL A   1      50.812  49.905  22.216  1.00  0.00    +0.000 C 
ATOM     38  C28 UNL A   1      50.384  50.031  23.546  1.00  0.00    +0.000 C 
ATOM     39  F1  UNL A   1      49.620  51.071  23.915  1.00  0.00    +0.000 F 
ATOM     40  C29 UNL A   1      50.775  49.111  24.515  1.00  0.00    +0.000 C 
ATOM     41  F2  UNL A   1      50.397  49.280  25.789  1.00  0.00    +0.000 F 
ATOM     42  C30 UNL A   1      51.569  48.029  24.167  1.00  0.00    +0.000 C 
ATOM     43  F3  UNL A   1      51.943  47.142  25.099  1.00  0.00    +0.000 F 
ATOM     44  C31 UNL A   1      51.985  47.871  22.853  1.00  0.00    +0.000 C 
ATOM     45  F4  UNL A   1      52.743  46.820  22.513  1.00  0.00    +0.000 F 
ATOM     46  C32 UNL A   1      51.620  48.806  21.888  1.00  0.00    +0.000 C 
ATOM     47  F5  UNL A   1      52.052  48.636  20.629  1.00  0.00    +0.000 F 
ENDBRANCH   36   37
BRANCH   53   54
ATOM     54  C38 UNL A   1      53.088  56.217  19.573  1.00  0.00    +0.000 C 
ATOM     55  C39 UNL A   1      53.064  57.201  20.571  1.00  0.00    +0.000 C 
ATOM     56  F6  UNL A   1      51.976  57.356  21.341  1.00  0.00    +0.000 F 
ATOM     57  C40 UNL A   1      54.147  58.056  20.758  1.00  0.00    +0.000 C 
ATOM     58  F7  UNL A   1      54.086  59.017  21.689  1.00  0.00    +0.000 F 
ATOM     59  C41 UNL A   1      55.283  57.923  19.973  1.00  0.00    +0.000 C 
ATOM     60  F8  UNL A   1      56.328  58.743  20.160  1.00  0.00    +0.000 F 
ATOM     61  C42 UNL A   1      55.335  56.946  18.991  1.00  0.00    +0.000 C 
ATOM     62  F9  UNL A   1      56.435  56.808  18.240  1.00  0.00    +0.000 F 
ATOM     63  C43 UNL A   1      54.243  56.107  18.784  1.00  0.00    +0.000 C 
ATOM     64  F10 UNL A   1      54.317  55.178  17.819  1.00  0.00    +0.000 F 
ENDBRANCH   53   54
BRANCH   68   69
ATOM     69  C47 UNL A   1      47.549  56.372  15.349  1.00  0.00    +0.000 C 
ATOM     70  C48 UNL A   1      46.885  57.536  15.757  1.00  0.00    +0.000 C 
ATOM     71  F11 UNL A   1      46.667  57.761  17.062  1.00  0.00    +0.000 F 
ATOM     72  C49 UNL A   1      46.413  58.459  14.827  1.00  0.00    +0.000 C 
ATOM     73  F12 UNL A   1      45.748  59.547  15.242  1.00  0.00    +0.000 F 
ATOM     74  C50 UNL A   1      46.617  58.247  13.471  1.00  0.00    +0.000 C 
ATOM     75  F13 UNL A   1      46.168  59.138  12.576  1.00  0.00    +0.000 F 
ATOM     76  C51 UNL A   1      47.283  57.107  13.045  1.00  0.00    +0.000 C 
ATOM     77  F14 UNL A   1      47.492  56.905  11.737  1.00  0.00    +0.000 F 
ATOM     78  C52 UNL A   1      47.733  56.172  13.973  1.00  0.00    +0.000 C 
ATOM     79  F15 UNL A   1      48.367  55.075  13.533  1.00  0.00    +0.000 F 
ENDBRANCH   68   69
TORSDOF 19
ENDMDL
