MODEL 1
REMARK VINA RESULT:      -8.1      0.000      0.000
ROOT
ATOM    136  H38 UNL A   1      13.350  46.759   3.252  1.00  0.00    +0.000 H 
ATOM    137  H39 UNL A   1      14.940  46.801   1.186  1.00  0.00    +0.000 H 
ATOM    138  H40 UNL A   1      14.773  50.619   2.777  1.00  0.00    +0.000 H 
ATOM    139  H41 UNL A   1      16.377  56.790   2.485  1.00  0.00    +0.000 H 
ATOM    140  H42 UNL A   1      14.850  56.739   4.515  1.00  0.00    +0.000 H 
ATOM    141  H43 UNL A   1      15.023  52.889   2.956  1.00  0.00    +0.000 H 
ATOM    142  H44 UNL A   1      18.192  53.114  -0.940  1.00  0.00    +0.000 H 
ATOM    143  H45 UNL A   1      17.680  50.637  -1.332  1.00  0.00    +0.000 H 
ATOM    144  H46 UNL A   1      11.838  50.453   6.838  1.00  0.00    +0.000 H 
ATOM    145  H47 UNL A   1      11.961  53.008   6.977  1.00  0.00    +0.000 H 
ATOM     38  C32 UNL A   1      13.749  54.173   5.089  1.00  0.00    +0.000 C 
ATOM     39  C33 UNL A   1      13.346  52.729   5.203  1.00  0.00    +0.000 C 
ATOM     40  N3  UNL A   1      13.717  51.706   4.475  1.00  0.00    +0.000 N 
ATOM     41  C34 UNL A   1      13.092  50.599   5.034  1.00  0.00    +0.000 C 
ATOM     42  C35 UNL A   1      13.118  49.311   4.612  1.00  0.00    +0.000 C 
ATOM     54  C42 UNL A   1      13.823  48.855   3.444  1.00  0.00    +0.000 C 
ATOM     55  C43 UNL A   1      13.858  47.584   2.897  1.00  0.00    +0.000 C 
ATOM     56  C44 UNL A   1      14.701  47.609   1.780  1.00  0.00    +0.000 C 
ATOM     57  C45 UNL A   1      15.158  48.906   1.608  1.00  0.00    +0.000 C 
ATOM     58  N4  UNL A   1      14.617  49.658   2.638  1.00  0.00    +0.000 N 
ATOM     59  C46 UNL A   1      16.025  49.422   0.580  1.00  0.00    +0.000 C 
ATOM     71  C53 UNL A   1      16.430  50.711   0.478  1.00  0.00    +0.000 C 
ATOM     72  N5  UNL A   1      16.117  51.790   1.293  1.00  0.00    +0.000 N 
ATOM     73  C54 UNL A   1      16.758  52.817   0.791  1.00  0.00    +0.000 C 
ATOM     74  C55 UNL A   1      16.765  54.249   1.252  1.00  0.00    +0.000 C 
ATOM     86  C62 UNL A   1      16.004  54.606   2.304  1.00  0.00    +0.000 C 
ATOM     87  C63 UNL A   1      15.900  55.953   2.856  1.00  0.00    +0.000 C 
ATOM     88  C64 UNL A   1      15.085  55.928   3.923  1.00  0.00    +0.000 C 
ATOM     89  C65 UNL A   1      14.587  54.565   4.111  1.00  0.00    +0.000 C 
ATOM     90  N6  UNL A   1      15.177  53.851   3.099  1.00  0.00    +0.000 N 
ATOM     91  C66 UNL A   1      17.574  52.498  -0.389  1.00  0.00    +0.000 C 
ATOM     92  C67 UNL A   1      17.309  51.210  -0.559  1.00  0.00    +0.000 C 
ATOM     93  C68 UNL A   1      12.354  51.066   6.187  1.00  0.00    +0.000 C 
ATOM     94  C69 UNL A   1      12.427  52.385   6.299  1.00  0.00    +0.000 C 
ENDROOT
BRANCH   38   37
ATOM     34  C28 UNL A   1      12.343  57.003   7.989  1.00  0.00    +0.000 C 
ATOM     35  C29 UNL A   1      13.519  56.286   8.235  1.00  0.00    +0.000 C 
ATOM     36  C30 UNL A   1      13.994  55.379   7.284  1.00  0.00    +0.000 C 
ATOM     37  C31 UNL A   1      13.282  55.161   6.095  1.00  0.00    +0.000 C 
ATOM    134  H36 UNL A   1      14.035  56.427   9.118  1.00  0.00    +0.000 H 
ATOM    135  H37 UNL A   1      14.873  54.867   7.457  1.00  0.00    +0.000 H 
ATOM    146  H48 UNL A   1      11.576  55.737   4.984  1.00  0.00    +0.000 H 
ATOM    147  H49 UNL A   1      10.851  57.431   6.558  1.00  0.00    +0.000 H 
ATOM     95  C70 UNL A   1      12.112  55.898   5.851  1.00  0.00    +0.000 C 
ATOM     96  C71 UNL A   1      11.672  56.846   6.773  1.00  0.00    +0.000 C 
BRANCH   34   32
ATOM     33  O3  UNL A   1      12.398  59.066   9.094  1.00  0.00    +0.000 O 
ATOM     32  C27 UNL A   1      11.871  57.969   9.009  1.00  0.00    +0.000 C 
BRANCH   32   31
ATOM    133  H35 UNL A   1      10.041  58.214   9.789  1.00  0.00    +0.000 H 
ATOM     31  N2  UNL A   1      10.835  57.636   9.851  1.00  0.00    +0.000 N 
BRANCH   31   30
ATOM    131  H33 UNL A   1      11.726  56.155  10.979  1.00  0.00    +0.000 H 
ATOM    132  H34 UNL A   1      10.339  56.954  11.724  1.00  0.00    +0.000 H 
ATOM     30  C26 UNL A   1      10.747  56.555  10.817  1.00  0.00    +0.000 C 
BRANCH   30   29
ATOM    129  H31 UNL A   1       9.351  55.005  11.195  1.00  0.00    +0.000 H 
ATOM    130  H32 UNL A   1       9.140  55.882   9.651  1.00  0.00    +0.000 H 
ATOM     29  C25 UNL A   1       9.827  55.433  10.338  1.00  0.00    +0.000 C 
BRANCH   29   28
ATOM     28  C24 UNL A   1      10.531  54.308   9.572  1.00  0.00    +0.000 C 
ATOM    127  H29 UNL A   1      11.499  54.660   9.285  1.00  0.00    +0.000 H 
ATOM    128  H30 UNL A   1      10.555  53.471  10.240  1.00  0.00    +0.000 H 
BRANCH   28   27
ATOM     27  C23 UNL A   1       9.815  53.814   8.309  1.00  0.00    +0.000 C 
ATOM    125  H27 UNL A   1       9.046  54.517   8.066  1.00  0.00    +0.000 H 
ATOM    126  H28 UNL A   1      10.569  53.728   7.554  1.00  0.00    +0.000 H 
BRANCH   27   26
ATOM     26  C22 UNL A   1       9.171  52.429   8.426  1.00  0.00    +0.000 C 
ATOM    123  H25 UNL A   1       8.246  52.443   7.887  1.00  0.00    +0.000 H 
ATOM    124  H26 UNL A   1       9.872  51.728   8.025  1.00  0.00    +0.000 H 
BRANCH   26   25
ATOM     25  C21 UNL A   1       8.882  51.992   9.865  1.00  0.00    +0.000 C 
ATOM    122  H24 UNL A   1       7.822  51.915   9.984  1.00  0.00    +0.000 H 
ATOM    121  H23 UNL A   1       9.293  52.717  10.536  1.00  0.00    +0.000 H 
BRANCH   25   24
ATOM    120  H22 UNL A   1       8.804  49.975  10.259  1.00  0.00    +0.000 H 
ATOM     24  N1  UNL A   1       9.463  50.700  10.159  1.00  0.00    +0.000 N 
BRANCH   24   22
ATOM     22  C20 UNL A   1      10.755  50.302  10.323  1.00  0.00    +0.000 C 
ATOM     23  O2  UNL A   1      11.342  49.947   9.293  1.00  0.00    +0.000 O 
BRANCH   22   20
ATOM    116  H18 UNL A   1      12.473  49.931  11.442  1.00  0.00    +0.000 H 
ATOM     20  C18 UNL A   1      11.486  50.268  11.677  1.00  0.00    +0.000 C 
BRANCH   20   19
ATOM      7  C6  UNL A   1      12.722  52.523  11.864  1.00  0.00    +0.000 C 
ATOM      8  C7  UNL A   1      12.785  53.832  12.389  1.00  0.00    +0.000 C 
ATOM      9  C8  UNL A   1      11.907  54.266  13.388  1.00  0.00    +0.000 C 
ATOM    104  H6  UNL A   1      13.498  54.485  12.027  1.00  0.00    +0.000 H 
ATOM     17  C15 UNL A   1      10.917  53.394  13.831  1.00  0.00    +0.000 C 
ATOM     18  C16 UNL A   1      10.820  52.111  13.297  1.00  0.00    +0.000 C 
ATOM     19  C17 UNL A   1      11.682  51.657  12.284  1.00  0.00    +0.000 C 
ATOM    115  H17 UNL A   1      10.093  51.474  13.656  1.00  0.00    +0.000 H 
ATOM    114  H16 UNL A   1      10.252  53.699  14.558  1.00  0.00    +0.000 H 
BRANCH    7    6
ATOM     97  C72 UNL A   1      14.920  51.297  11.620  1.00  0.00    +0.000 C 
ATOM     98  C73 UNL A   1      16.011  50.927  10.819  1.00  0.00    +0.000 C 
ATOM      3  C2  UNL A   1      16.079  51.288   9.464  1.00  0.00    +0.000 C 
ATOM      4  C3  UNL A   1      15.027  52.028   8.926  1.00  0.00    +0.000 C 
ATOM      5  C4  UNL A   1      13.946  52.406   9.724  1.00  0.00    +0.000 C 
ATOM    102  H4  UNL A   1      15.048  52.300   7.930  1.00  0.00    +0.000 H 
ATOM      6  C5  UNL A   1      13.875  52.050  11.081  1.00  0.00    +0.000 C 
ATOM    103  H5  UNL A   1      13.181  52.958   9.307  1.00  0.00    +0.000 H 
ATOM    148  H50 UNL A   1      14.888  51.009  12.610  1.00  0.00    +0.000 H 
ATOM    149  H51 UNL A   1      16.781  50.380  11.235  1.00  0.00    +0.000 H 
BRANCH    3    2
ATOM      2  S1  UNL A   1      17.528  50.789   8.542  1.00  0.00    +0.000 S 
BRANCH    2    1
ATOM      1  C1  UNL A   1      16.830  49.997   7.065  1.00  0.00    +0.000 C 
ATOM     99  H1  UNL A   1      17.624  49.661   6.432  1.00  0.00    +0.000 H 
ATOM    100  H2  UNL A   1      16.224  50.701   6.535  1.00  0.00    +0.000 H 
ATOM    101  H3  UNL A   1      16.230  49.160   7.359  1.00  0.00    +0.000 H 
ENDBRANCH    2    1
ENDBRANCH    3    2
ENDBRANCH    7    6
BRANCH    9   10
ATOM    105  H7  UNL A   1      12.442  56.299  13.349  1.00  0.00    +0.000 H 
ATOM     10  C9  UNL A   1      12.107  55.592  14.080  1.00  0.00    +0.000 C 
ATOM    106  H8  UNL A   1      12.817  55.417  14.860  1.00  0.00    +0.000 H 
BRANCH   10   11
ATOM     11  C10 UNL A   1      10.856  56.167  14.759  1.00  0.00    +0.000 C 
ATOM    108  H10 UNL A   1      11.257  55.057  16.562  1.00  0.00    +0.000 H 
ATOM     12  C11 UNL A   1      10.694  55.918  16.266  1.00  0.00    +0.000 C 
ATOM    107  H9  UNL A   1      10.093  55.655  14.212  1.00  0.00    +0.000 H 
ATOM     15  C14 UNL A   1      10.823  57.678  14.693  1.00  0.00    +0.000 C 
ATOM    109  H11 UNL A   1       9.671  55.734  16.523  1.00  0.00    +0.000 H 
ATOM     13  C12 UNL A   1      11.227  57.165  16.964  1.00  0.00    +0.000 C 
ATOM     14  C13 UNL A   1      10.839  58.321  16.054  1.00  0.00    +0.000 C 
ATOM     16  O1  UNL A   1      10.764  58.312  13.646  1.00  0.00    +0.000 O 
ATOM    110  H12 UNL A   1      12.290  57.110  17.071  1.00  0.00    +0.000 H 
ATOM    111  H13 UNL A   1      10.825  57.276  17.949  1.00  0.00    +0.000 H 
ATOM    112  H14 UNL A   1      11.562  59.108  16.101  1.00  0.00    +0.000 H 
ATOM    113  H15 UNL A   1       9.908  58.777  16.320  1.00  0.00    +0.000 H 
ENDBRANCH   10   11
ENDBRANCH    9   10
ENDBRANCH   20   19
BRANCH   20   21
ATOM    117  H19 UNL A   1      10.082  48.787  12.318  1.00  0.00    +0.000 H 
ATOM     21  C19 UNL A   1      11.017  49.187  12.652  1.00  0.00    +0.000 C 
ATOM    118  H20 UNL A   1      10.897  49.613  13.625  1.00  0.00    +0.000 H 
ATOM    119  H21 UNL A   1      11.747  48.405  12.693  1.00  0.00    +0.000 H 
ENDBRANCH   20   21
ENDBRANCH   22   20
ENDBRANCH   24   22
ENDBRANCH   25   24
ENDBRANCH   26   25
ENDBRANCH   27   26
ENDBRANCH   28   27
ENDBRANCH   29   28
ENDBRANCH   30   29
ENDBRANCH   31   30
ENDBRANCH   32   31
ENDBRANCH   34   32
ENDBRANCH   38   37
BRANCH   42   43
ATOM     43  C36 UNL A   1      12.354  48.302   5.418  1.00  0.00    +0.000 C 
ATOM     44  C37 UNL A   1      12.958  47.587   6.463  1.00  0.00    +0.000 C 
ATOM     45  F1  UNL A   1      14.261  47.758   6.733  1.00  0.00    +0.000 F 
ATOM     46  C38 UNL A   1      12.234  46.662   7.211  1.00  0.00    +0.000 C 
ATOM     47  F2  UNL A   1      12.843  45.958   8.175  1.00  0.00    +0.000 F 
ATOM     48  C39 UNL A   1      10.886  46.461   6.952  1.00  0.00    +0.000 C 
ATOM     49  F3  UNL A   1      10.189  45.575   7.677  1.00  0.00    +0.000 F 
ATOM     50  C40 UNL A   1      10.264  47.172   5.937  1.00  0.00    +0.000 C 
ATOM     51  F4  UNL A   1       8.959  46.985   5.693  1.00  0.00    +0.000 F 
ATOM     52  C41 UNL A   1      10.992  48.076   5.169  1.00  0.00    +0.000 C 
ATOM     53  F5  UNL A   1      10.366  48.738   4.184  1.00  0.00    +0.000 F 
ENDBRANCH   42   43
BRANCH   59   60
ATOM     65  C50 UNL A   1      17.449  46.725  -2.463  1.00  0.00    +0.000 C 
ATOM     66  F8  UNL A   1      17.895  45.886  -3.407  1.00  0.00    +0.000 F 
ATOM     67  C51 UNL A   1      18.270  47.079  -1.403  1.00  0.00    +0.000 C 
ATOM     68  F9  UNL A   1      19.517  46.594  -1.333  1.00  0.00    +0.000 F 
ATOM     69  C52 UNL A   1      17.800  47.934  -0.410  1.00  0.00    +0.000 C 
ATOM     70  F10 UNL A   1      18.613  48.248   0.610  1.00  0.00    +0.000 F 
ATOM     60  C47 UNL A   1      16.504  48.468  -0.473  1.00  0.00    +0.000 C 
ATOM     61  C48 UNL A   1      15.696  48.112  -1.562  1.00  0.00    +0.000 C 
ATOM     62  F6  UNL A   1      14.445  48.585  -1.658  1.00  0.00    +0.000 F 
ATOM     63  C49 UNL A   1      16.161  47.236  -2.540  1.00  0.00    +0.000 C 
ATOM     64  F7  UNL A   1      15.357  46.875  -3.550  1.00  0.00    +0.000 F 
ENDBRANCH   59   60
BRANCH   74   75
ATOM     75  C56 UNL A   1      17.573  55.272   0.543  1.00  0.00    +0.000 C 
ATOM     76  C57 UNL A   1      18.847  55.628   1.008  1.00  0.00    +0.000 C 
ATOM     77  F11 UNL A   1      19.336  55.058   2.119  1.00  0.00    +0.000 F 
ATOM     78  C58 UNL A   1      19.605  56.599   0.358  1.00  0.00    +0.000 C 
ATOM     79  F12 UNL A   1      20.802  56.950   0.846  1.00  0.00    +0.000 F 
ATOM     80  C59 UNL A   1      19.116  57.212  -0.786  1.00  0.00    +0.000 C 
ATOM     81  F13 UNL A   1      19.847  58.142  -1.415  1.00  0.00    +0.000 F 
ATOM     82  C60 UNL A   1      17.866  56.863  -1.274  1.00  0.00    +0.000 C 
ATOM     83  F14 UNL A   1      17.395  57.444  -2.386  1.00  0.00    +0.000 F 
ATOM     84  C61 UNL A   1      17.096  55.911  -0.610  1.00  0.00    +0.000 C 
ATOM     85  F15 UNL A   1      15.886  55.600  -1.098  1.00  0.00    +0.000 F 
ENDBRANCH   74   75
TORSDOF 22
ENDMDL
MODEL 2
REMARK VINA RESULT:      -7.9     43.513     46.793
ROOT
ATOM    136  H38 UNL A   1      19.368  37.196  48.198  1.00  0.00    +0.000 H 
ATOM    137  H39 UNL A   1      18.519  39.325  49.441  1.00  0.00    +0.000 H 
ATOM    138  H40 UNL A   1      22.341  40.075  48.040  1.00  0.00    +0.000 H 
ATOM    139  H41 UNL A   1      27.406  43.937  47.631  1.00  0.00    +0.000 H 
ATOM    140  H42 UNL A   1      28.219  41.871  46.396  1.00  0.00    +0.000 H 
ATOM    141  H43 UNL A   1      24.370  41.101  47.766  1.00  0.00    +0.000 H 
ATOM    142  H44 UNL A   1      22.842  45.317  50.040  1.00  0.00    +0.000 H 
ATOM    143  H45 UNL A   1      20.682  44.069  50.615  1.00  0.00    +0.000 H 
ATOM    144  H46 UNL A   1      23.866  36.017  45.521  1.00  0.00    +0.000 H 
ATOM    145  H47 UNL A   1      26.196  37.063  45.333  1.00  0.00    +0.000 H 
ATOM     38  C32 UNL A   1      26.338  39.730  46.328  1.00  0.00    +0.000 C 
ATOM     39  C33 UNL A   1      25.170  38.786  46.393  1.00  0.00    +0.000 C 
ATOM     40  N3  UNL A   1      23.982  38.972  46.912  1.00  0.00    +0.000 N 
ATOM     41  C34 UNL A   1      23.272  37.806  46.659  1.00  0.00    +0.000 C 
ATOM     42  C35 UNL A   1      22.012  37.485  47.039  1.00  0.00    +0.000 C 
ATOM     54  C42 UNL A   1      21.159  38.338  47.823  1.00  0.00    +0.000 C 
ATOM     55  C43 UNL A   1      19.891  38.078  48.314  1.00  0.00    +0.000 C 
ATOM     56  C44 UNL A   1      19.441  39.216  48.992  1.00  0.00    +0.000 C 
ATOM     57  C45 UNL A   1      20.444  40.170  48.959  1.00  0.00    +0.000 C 
ATOM     58  N4  UNL A   1      21.490  39.621  48.234  1.00  0.00    +0.000 N 
ATOM     59  C46 UNL A   1      20.451  41.486  49.544  1.00  0.00    +0.000 C 
ATOM     71  C53 UNL A   1      21.478  42.367  49.468  1.00  0.00    +0.000 C 
ATOM     72  N5  UNL A   1      22.710  42.219  48.846  1.00  0.00    +0.000 N 
ATOM     73  C54 UNL A   1      23.349  43.345  49.040  1.00  0.00    +0.000 C 
ATOM     74  C55 UNL A   1      24.736  43.736  48.611  1.00  0.00    +0.000 C 
ATOM     86  C62 UNL A   1      25.500  42.841  47.957  1.00  0.00    +0.000 C 
ATOM     87  C63 UNL A   1      26.863  43.071  47.489  1.00  0.00    +0.000 C 
ATOM     88  C64 UNL A   1      27.296  41.975  46.845  1.00  0.00    +0.000 C 
ATOM     89  C65 UNL A   1      26.248  40.954  46.881  1.00  0.00    +0.000 C 
ATOM     90  N6  UNL A   1      25.223  41.552  47.569  1.00  0.00    +0.000 N 
ATOM     91  C66 UNL A   1      22.580  44.350  49.789  1.00  0.00    +0.000 C 
ATOM     92  C67 UNL A   1      21.463  43.690  50.057  1.00  0.00    +0.000 C 
ATOM     93  C68 UNL A   1      24.145  36.935  45.903  1.00  0.00    +0.000 C 
ATOM     94  C69 UNL A   1      25.351  37.467  45.766  1.00  0.00    +0.000 C 
ENDROOT
BRANCH   38   37
ATOM     34  C28 UNL A   1      29.871  38.563  44.195  1.00  0.00    +0.000 C 
ATOM     35  C29 UNL A   1      29.338  39.843  44.005  1.00  0.00    +0.000 C 
ATOM     36  C30 UNL A   1      28.200  40.237  44.714  1.00  0.00    +0.000 C 
ATOM     37  C31 UNL A   1      27.570  39.344  45.595  1.00  0.00    +0.000 C 
ATOM    134  H36 UNL A   1      29.786  40.495  43.342  1.00  0.00    +0.000 H 
ATOM    135  H37 UNL A   1      27.822  41.188  44.589  1.00  0.00    +0.000 H 
ATOM    146  H48 UNL A   1      27.661  37.402  46.428  1.00  0.00    +0.000 H 
ATOM    147  H49 UNL A   1      29.730  36.786  45.327  1.00  0.00    +0.000 H 
ATOM     95  C70 UNL A   1      28.123  38.069  45.791  1.00  0.00    +0.000 C 
ATOM     96  C71 UNL A   1      29.292  37.699  45.128  1.00  0.00    +0.000 C 
BRANCH   34   32
ATOM     33  O3  UNL A   1      31.049  37.234  42.669  1.00  0.00    +0.000 O 
ATOM     32  C27 UNL A   1      31.087  38.179  43.441  1.00  0.00    +0.000 C 
BRANCH   32   31
ATOM    133  H35 UNL A   1      32.638  39.260  42.772  1.00  0.00    +0.000 H 
ATOM     31  N2  UNL A   1      32.254  38.890  43.599  1.00  0.00    +0.000 N 
BRANCH   31   30
ATOM    131  H33 UNL A   1      32.523  38.680  45.635  1.00  0.00    +0.000 H 
ATOM    132  H34 UNL A   1      34.001  38.813  44.678  1.00  0.00    +0.000 H 
ATOM     30  C26 UNL A   1      33.001  39.172  44.813  1.00  0.00    +0.000 C 
BRANCH   30   29
ATOM    129  H31 UNL A   1      34.050  40.889  45.480  1.00  0.00    +0.000 H 
ATOM    130  H32 UNL A   1      32.848  41.166  44.185  1.00  0.00    +0.000 H 
ATOM     29  C25 UNL A   1      33.072  40.669  45.106  1.00  0.00    +0.000 C 
BRANCH   29   28
ATOM     28  C24 UNL A   1      32.047  41.174  46.129  1.00  0.00    +0.000 C 
ATOM    127  H29 UNL A   1      32.407  42.099  46.526  1.00  0.00    +0.000 H 
ATOM    128  H30 UNL A   1      31.123  41.261  45.597  1.00  0.00    +0.000 H 
BRANCH   28   27
ATOM     27  C23 UNL A   1      31.765  40.233  47.307  1.00  0.00    +0.000 C 
ATOM    125  H27 UNL A   1      31.981  39.233  46.993  1.00  0.00    +0.000 H 
ATOM    126  H28 UNL A   1      32.383  40.571  48.113  1.00  0.00    +0.000 H 
BRANCH   27   26
ATOM     26  C22 UNL A   1      30.326  40.264  47.833  1.00  0.00    +0.000 C 
ATOM    123  H25 UNL A   1      30.212  41.133  48.446  1.00  0.00    +0.000 H 
ATOM    124  H26 UNL A   1      29.686  40.275  46.976  1.00  0.00    +0.000 H 
BRANCH   26   25
ATOM     25  C21 UNL A   1      29.935  39.036  48.661  1.00  0.00    +0.000 C 
ATOM    122  H24 UNL A   1      30.799  38.708  49.199  1.00  0.00    +0.000 H 
ATOM    121  H23 UNL A   1      29.580  38.272  48.000  1.00  0.00    +0.000 H 
BRANCH   25   24
ATOM    120  H22 UNL A   1      29.047  40.178  50.122  1.00  0.00    +0.000 H 
ATOM     24  N1  UNL A   1      28.896  39.345  49.619  1.00  0.00    +0.000 N 
BRANCH   24   22
ATOM     22  C20 UNL A   1      27.748  38.694  49.954  1.00  0.00    +0.000 C 
ATOM     23  O2  UNL A   1      26.702  39.335  49.793  1.00  0.00    +0.000 O 
BRANCH   22   20
ATOM    116  H18 UNL A   1      26.891  37.271  51.213  1.00  0.00    +0.000 H 
ATOM     20  C18 UNL A   1      27.696  37.259  50.508  1.00  0.00    +0.000 C 
BRANCH   20   19
ATOM      7  C6  UNL A   1      25.932  35.830  49.288  1.00  0.00    +0.000 C 
ATOM      8  C7  UNL A   1      25.600  34.953  48.232  1.00  0.00    +0.000 C 
ATOM      9  C8  UNL A   1      26.581  34.389  47.409  1.00  0.00    +0.000 C 
ATOM    104  H6  UNL A   1      24.608  34.723  48.063  1.00  0.00    +0.000 H 
ATOM     17  C15 UNL A   1      27.909  34.748  47.613  1.00  0.00    +0.000 C 
ATOM     18  C16 UNL A   1      28.249  35.639  48.629  1.00  0.00    +0.000 C 
ATOM     19  C17 UNL A   1      27.280  36.228  49.459  1.00  0.00    +0.000 C 
ATOM    115  H17 UNL A   1      29.243  35.873  48.776  1.00  0.00    +0.000 H 
ATOM    114  H16 UNL A   1      28.647  34.352  47.010  1.00  0.00    +0.000 H 
BRANCH    7    6
ATOM     97  C72 UNL A   1      24.649  35.275  51.395  1.00  0.00    +0.000 C 
ATOM     98  C73 UNL A   1      23.605  35.574  52.285  1.00  0.00    +0.000 C 
ATOM      3  C2  UNL A   1      22.796  36.707  52.107  1.00  0.00    +0.000 C 
ATOM      4  C3  UNL A   1      23.053  37.537  51.016  1.00  0.00    +0.000 C 
ATOM      5  C4  UNL A   1      24.083  37.235  50.124  1.00  0.00    +0.000 C 
ATOM    102  H4  UNL A   1      22.477  38.380  50.867  1.00  0.00    +0.000 H 
ATOM      6  C5  UNL A   1      24.894  36.101  50.296  1.00  0.00    +0.000 C 
ATOM    103  H5  UNL A   1      24.252  37.859  49.321  1.00  0.00    +0.000 H 
ATOM    148  H50 UNL A   1      25.238  34.443  51.554  1.00  0.00    +0.000 H 
ATOM    149  H51 UNL A   1      23.429  34.948  53.086  1.00  0.00    +0.000 H 
BRANCH    3    2
ATOM      2  S1  UNL A   1      21.477  36.979  53.284  1.00  0.00    +0.000 S 
BRANCH    2    1
ATOM      1  C1  UNL A   1      21.659  35.594  54.443  1.00  0.00    +0.000 C 
ATOM     99  H1  UNL A   1      21.107  34.752  54.082  1.00  0.00    +0.000 H 
ATOM    100  H2  UNL A   1      21.286  35.880  55.403  1.00  0.00    +0.000 H 
ATOM    101  H3  UNL A   1      22.694  35.332  54.526  1.00  0.00    +0.000 H 
ENDBRANCH    2    1
ENDBRANCH    3    2
ENDBRANCH    7    6
BRANCH    9   10
ATOM    105  H7  UNL A   1      27.151  32.932  46.004  1.00  0.00    +0.000 H 
ATOM     10  C9  UNL A   1      26.237  33.306  46.416  1.00  0.00    +0.000 C 
ATOM    106  H8  UNL A   1      25.596  33.761  45.689  1.00  0.00    +0.000 H 
BRANCH   10   11
ATOM     11  C10 UNL A   1      25.454  32.118  46.994  1.00  0.00    +0.000 C 
ATOM    108  H10 UNL A   1      23.587  32.939  46.300  1.00  0.00    +0.000 H 
ATOM     12  C11 UNL A   1      23.976  31.988  46.599  1.00  0.00    +0.000 C 
ATOM    107  H9  UNL A   1      25.544  32.324  48.040  1.00  0.00    +0.000 H 
ATOM     15  C14 UNL A   1      26.015  30.794  46.525  1.00  0.00    +0.000 C 
ATOM    109  H11 UNL A   1      23.381  31.644  47.420  1.00  0.00    +0.000 H 
ATOM     13  C12 UNL A   1      23.932  31.008  45.431  1.00  0.00    +0.000 C 
ATOM     14  C13 UNL A   1      25.021  29.989  45.732  1.00  0.00    +0.000 C 
ATOM     16  O1  UNL A   1      27.147  30.404  46.786  1.00  0.00    +0.000 O 
ATOM    110  H12 UNL A   1      24.132  31.512  44.509  1.00  0.00    +0.000 H 
ATOM    111  H13 UNL A   1      22.970  30.550  45.327  1.00  0.00    +0.000 H 
ATOM    112  H14 UNL A   1      25.459  29.615  44.830  1.00  0.00    +0.000 H 
ATOM    113  H15 UNL A   1      24.663  29.124  46.250  1.00  0.00    +0.000 H 
ENDBRANCH   10   11
ENDBRANCH    9   10
ENDBRANCH   20   19
BRANCH   20   21
ATOM    117  H19 UNL A   1      29.174  35.854  51.155  1.00  0.00    +0.000 H 
ATOM     21  C19 UNL A   1      28.873  36.853  51.396  1.00  0.00    +0.000 C 
ATOM    118  H20 UNL A   1      28.577  36.898  52.423  1.00  0.00    +0.000 H 
ATOM    119  H21 UNL A   1      29.691  37.522  51.231  1.00  0.00    +0.000 H 
ENDBRANCH   20   21
ENDBRANCH   22   20
ENDBRANCH   24   22
ENDBRANCH   25   24
ENDBRANCH   26   25
ENDBRANCH   27   26
ENDBRANCH   28   27
ENDBRANCH   29   28
ENDBRANCH   30   29
ENDBRANCH   31   30
ENDBRANCH   32   31
ENDBRANCH   34   32
ENDBRANCH   38   37
BRANCH   42   43
ATOM     43  C36 UNL A   1      21.480  36.146  46.617  1.00  0.00    +0.000 C 
ATOM     44  C37 UNL A   1      20.970  35.933  45.328  1.00  0.00    +0.000 C 
ATOM     45  F1  UNL A   1      20.902  36.946  44.453  1.00  0.00    +0.000 F 
ATOM     46  C38 UNL A   1      20.492  34.681  44.945  1.00  0.00    +0.000 C 
ATOM     47  F2  UNL A   1      19.968  34.512  43.724  1.00  0.00    +0.000 F 
ATOM     48  C39 UNL A   1      20.546  33.615  45.831  1.00  0.00    +0.000 C 
ATOM     49  F3  UNL A   1      20.091  32.411  45.459  1.00  0.00    +0.000 F 
ATOM     50  C40 UNL A   1      21.064  33.800  47.103  1.00  0.00    +0.000 C 
ATOM     51  F4  UNL A   1      21.127  32.768  47.956  1.00  0.00    +0.000 F 
ATOM     52  C41 UNL A   1      21.517  35.056  47.499  1.00  0.00    +0.000 C 
ATOM     53  F5  UNL A   1      22.001  35.206  48.741  1.00  0.00    +0.000 F 
ENDBRANCH   42   43
BRANCH   59   60
ATOM     65  C50 UNL A   1      16.984  42.775  51.753  1.00  0.00    +0.000 C 
ATOM     66  F8  UNL A   1      15.904  43.178  52.436  1.00  0.00    +0.000 F 
ATOM     67  C51 UNL A   1      17.127  43.116  50.416  1.00  0.00    +0.000 C 
ATOM     68  F9  UNL A   1      16.193  43.863  49.813  1.00  0.00    +0.000 F 
ATOM     69  C52 UNL A   1      18.238  42.680  49.699  1.00  0.00    +0.000 C 
ATOM     70  F10 UNL A   1      18.343  43.014  48.405  1.00  0.00    +0.000 F 
ATOM     60  C47 UNL A   1      19.238  41.913  50.316  1.00  0.00    +0.000 C 
ATOM     61  C48 UNL A   1      19.083  41.594  51.673  1.00  0.00    +0.000 C 
ATOM     62  F6  UNL A   1      20.005  40.850  52.302  1.00  0.00    +0.000 F 
ATOM     63  C49 UNL A   1      17.957  42.011  52.379  1.00  0.00    +0.000 C 
ATOM     64  F7  UNL A   1      17.808  41.659  53.664  1.00  0.00    +0.000 F 
ENDBRANCH   59   60
BRANCH   74   75
ATOM     75  C56 UNL A   1      25.280  45.081  48.926  1.00  0.00    +0.000 C 
ATOM     76  C57 UNL A   1      25.165  46.135  48.008  1.00  0.00    +0.000 C 
ATOM     77  F11 UNL A   1      24.578  45.925  46.821  1.00  0.00    +0.000 F 
ATOM     78  C58 UNL A   1      25.687  47.395  48.291  1.00  0.00    +0.000 C 
ATOM     79  F12 UNL A   1      25.599  48.373  47.380  1.00  0.00    +0.000 F 
ATOM     80  C59 UNL A   1      26.309  47.633  49.508  1.00  0.00    +0.000 C 
ATOM     81  F13 UNL A   1      26.806  48.846  49.781  1.00  0.00    +0.000 F 
ATOM     82  C60 UNL A   1      26.419  46.610  50.438  1.00  0.00    +0.000 C 
ATOM     83  F14 UNL A   1      27.008  46.840  51.619  1.00  0.00    +0.000 F 
ATOM     84  C61 UNL A   1      25.920  45.343  50.146  1.00  0.00    +0.000 C 
ATOM     85  F15 UNL A   1      26.050  44.369  51.059  1.00  0.00    +0.000 F 
ENDBRANCH   74   75
TORSDOF 22
ENDMDL
MODEL 3
REMARK VINA RESULT:      -7.9      2.050      4.327
ROOT
ATOM    136  H38 UNL A   1      13.279  46.438   3.057  1.00  0.00    +0.000 H 
ATOM    137  H39 UNL A   1      14.932  46.649   1.052  1.00  0.00    +0.000 H 
ATOM    138  H40 UNL A   1      14.642  50.345   2.893  1.00  0.00    +0.000 H 
ATOM    139  H41 UNL A   1      16.135  56.548   3.075  1.00  0.00    +0.000 H 
ATOM    140  H42 UNL A   1      14.547  56.332   5.045  1.00  0.00    +0.000 H 
ATOM    141  H43 UNL A   1      14.842  52.601   3.234  1.00  0.00    +0.000 H 
ATOM    142  H44 UNL A   1      18.127  53.147  -0.532  1.00  0.00    +0.000 H 
ATOM    143  H45 UNL A   1      17.676  50.694  -1.108  1.00  0.00    +0.000 H 
ATOM    144  H46 UNL A   1      11.584  49.851   6.835  1.00  0.00    +0.000 H 
ATOM    145  H47 UNL A   1      11.653  52.392   7.152  1.00  0.00    +0.000 H 
ATOM     38  C32 UNL A   1      13.477  53.714   5.407  1.00  0.00    +0.000 C 
ATOM     39  C33 UNL A   1      13.099  52.259   5.409  1.00  0.00    +0.000 C 
ATOM     40  N3  UNL A   1      13.512  51.294   4.626  1.00  0.00    +0.000 N 
ATOM     41  C34 UNL A   1      12.892  50.141   5.088  1.00  0.00    +0.000 C 
ATOM     42  C35 UNL A   1      12.956  48.886   4.580  1.00  0.00    +0.000 C 
ATOM     54  C42 UNL A   1      13.706  48.523   3.406  1.00  0.00    +0.000 C 
ATOM     55  C43 UNL A   1      13.782  47.293   2.776  1.00  0.00    +0.000 C 
ATOM     56  C44 UNL A   1      14.659  47.410   1.691  1.00  0.00    +0.000 C 
ATOM     57  C45 UNL A   1      15.097  48.723   1.623  1.00  0.00    +0.000 C 
ATOM     58  N4  UNL A   1      14.509  49.393   2.684  1.00  0.00    +0.000 N 
ATOM     59  C46 UNL A   1      15.986  49.323   0.662  1.00  0.00    +0.000 C 
ATOM     71  C53 UNL A   1      16.368  50.623   0.661  1.00  0.00    +0.000 C 
ATOM     72  N5  UNL A   1      16.010  51.638   1.537  1.00  0.00    +0.000 N 
ATOM     73  C54 UNL A   1      16.646  52.708   1.127  1.00  0.00    +0.000 C 
ATOM     74  C55 UNL A   1      16.611  54.104   1.684  1.00  0.00    +0.000 C 
ATOM     86  C62 UNL A   1      15.811  54.375   2.733  1.00  0.00    +0.000 C 
ATOM     87  C63 UNL A   1      15.663  55.679   3.372  1.00  0.00    +0.000 C 
ATOM     88  C64 UNL A   1      14.816  55.567   4.407  1.00  0.00    +0.000 C 
ATOM     89  C65 UNL A   1      14.338  54.186   4.486  1.00  0.00    +0.000 C 
ATOM     90  N6  UNL A   1      14.973  53.553   3.447  1.00  0.00    +0.000 N 
ATOM     91  C66 UNL A   1      17.504  52.484  -0.045  1.00  0.00    +0.000 C 
ATOM     92  C67 UNL A   1      17.270  51.207  -0.311  1.00  0.00    +0.000 C 
ATOM     93  C68 UNL A   1      12.109  50.516   6.245  1.00  0.00    +0.000 C 
ATOM     94  C69 UNL A   1      12.152  51.825   6.448  1.00  0.00    +0.000 C 
ENDROOT
BRANCH   38   37
ATOM     34  C28 UNL A   1      12.039  56.361   8.459  1.00  0.00    +0.000 C 
ATOM     35  C29 UNL A   1      11.323  56.229   7.264  1.00  0.00    +0.000 C 
ATOM     36  C30 UNL A   1      11.775  55.351   6.275  1.00  0.00    +0.000 C 
ATOM     37  C31 UNL A   1      12.960  54.622   6.462  1.00  0.00    +0.000 C 
ATOM    134  H36 UNL A   1      10.463  56.779   7.113  1.00  0.00    +0.000 H 
ATOM    135  H37 UNL A   1      11.234  55.238   5.404  1.00  0.00    +0.000 H 
ATOM    146  H48 UNL A   1      14.538  54.227   7.813  1.00  0.00    +0.000 H 
ATOM    147  H49 UNL A   1      13.659  55.619   9.591  1.00  0.00    +0.000 H 
ATOM     95  C70 UNL A   1      13.661  54.750   7.671  1.00  0.00    +0.000 C 
ATOM     96  C71 UNL A   1      13.177  55.581   8.681  1.00  0.00    +0.000 C 
BRANCH   34   32
ATOM     33  O3  UNL A   1      11.867  58.461   9.481  1.00  0.00    +0.000 O 
ATOM     32  C27 UNL A   1      11.528  57.288   9.496  1.00  0.00    +0.000 C 
BRANCH   32   31
ATOM    133  H35 UNL A   1       9.733  56.710  10.176  1.00  0.00    +0.000 H 
ATOM     31  N2  UNL A   1      10.665  56.835  10.466  1.00  0.00    +0.000 N 
BRANCH   31   30
ATOM    131  H33 UNL A   1      11.616  57.237  12.253  1.00  0.00    +0.000 H 
ATOM    132  H34 UNL A   1      10.003  56.533  12.387  1.00  0.00    +0.000 H 
ATOM     30  C26 UNL A   1      10.933  56.514  11.858  1.00  0.00    +0.000 C 
BRANCH   30   29
ATOM    129  H31 UNL A   1      10.750  54.404  11.937  1.00  0.00    +0.000 H 
ATOM    130  H32 UNL A   1      12.278  55.027  11.249  1.00  0.00    +0.000 H 
ATOM     29  C25 UNL A   1      11.540  55.122  12.017  1.00  0.00    +0.000 C 
BRANCH   29   28
ATOM     28  C24 UNL A   1      12.266  54.884  13.346  1.00  0.00    +0.000 C 
ATOM    127  H29 UNL A   1      12.653  55.823  13.682  1.00  0.00    +0.000 H 
ATOM    128  H30 UNL A   1      11.538  54.456  14.004  1.00  0.00    +0.000 H 
BRANCH   28   27
ATOM     27  C23 UNL A   1      13.428  53.885  13.300  1.00  0.00    +0.000 C 
ATOM    125  H27 UNL A   1      14.086  54.103  14.115  1.00  0.00    +0.000 H 
ATOM    126  H28 UNL A   1      12.986  52.912  13.358  1.00  0.00    +0.000 H 
BRANCH   27   26
ATOM     26  C22 UNL A   1      14.251  53.903  12.008  1.00  0.00    +0.000 C 
ATOM    123  H25 UNL A   1      13.580  54.038  11.186  1.00  0.00    +0.000 H 
ATOM    124  H26 UNL A   1      14.955  54.703  12.103  1.00  0.00    +0.000 H 
BRANCH   26   25
ATOM     25  C21 UNL A   1      15.062  52.627  11.763  1.00  0.00    +0.000 C 
ATOM    122  H24 UNL A   1      14.805  51.918  12.522  1.00  0.00    +0.000 H 
ATOM    121  H23 UNL A   1      16.104  52.867  11.797  1.00  0.00    +0.000 H 
BRANCH   25   24
ATOM    120  H22 UNL A   1      15.196  52.487   9.716  1.00  0.00    +0.000 H 
ATOM     24  N1  UNL A   1      14.759  52.039  10.476  1.00  0.00    +0.000 N 
BRANCH   24   22
ATOM     22  C20 UNL A   1      13.979  50.980  10.124  1.00  0.00    +0.000 C 
ATOM     23  O2  UNL A   1      14.586  49.965   9.757  1.00  0.00    +0.000 O 
BRANCH   22   20
ATOM    116  H18 UNL A   1      12.151  50.492   9.250  1.00  0.00    +0.000 H 
ATOM     20  C18 UNL A   1      12.441  50.990  10.152  1.00  0.00    +0.000 C 
BRANCH   20   19
ATOM      7  C6  UNL A   1      10.725  49.303  11.079  1.00  0.00    +0.000 C 
ATOM      8  C7  UNL A   1      10.301  48.456  12.126  1.00  0.00    +0.000 C 
ATOM      9  C8  UNL A   1      10.909  48.482  13.385  1.00  0.00    +0.000 C 
ATOM    104  H6  UNL A   1       9.521  47.800  11.957  1.00  0.00    +0.000 H 
ATOM     17  C15 UNL A   1      11.993  49.331  13.585  1.00  0.00    +0.000 C 
ATOM     18  C16 UNL A   1      12.445  50.149  12.551  1.00  0.00    +0.000 C 
ATOM     19  C17 UNL A   1      11.858  50.131  11.275  1.00  0.00    +0.000 C 
ATOM    115  H17 UNL A   1      13.236  50.787  12.729  1.00  0.00    +0.000 H 
ATOM    114  H16 UNL A   1      12.463  49.357  14.503  1.00  0.00    +0.000 H 
BRANCH    7    6
ATOM     97  C72 UNL A   1       9.974  48.734   8.733  1.00  0.00    +0.000 C 
ATOM     98  C73 UNL A   1       9.109  48.971   7.654  1.00  0.00    +0.000 C 
ATOM      3  C2  UNL A   1       8.074  49.915   7.741  1.00  0.00    +0.000 C 
ATOM      4  C3  UNL A   1       7.922  50.620   8.934  1.00  0.00    +0.000 C 
ATOM      5  C4  UNL A   1       8.789  50.393  10.004  1.00  0.00    +0.000 C 
ATOM    102  H4  UNL A   1       7.165  51.315   9.027  1.00  0.00    +0.000 H 
ATOM      6  C5  UNL A   1       9.829  49.452   9.922  1.00  0.00    +0.000 C 
ATOM    103  H5  UNL A   1       8.664  50.930  10.876  1.00  0.00    +0.000 H 
ATOM    148  H50 UNL A   1      10.720  48.026   8.648  1.00  0.00    +0.000 H 
ATOM    149  H51 UNL A   1       9.237  48.440   6.777  1.00  0.00    +0.000 H 
BRANCH    3    2
ATOM      2  S1  UNL A   1       7.046  50.157   6.297  1.00  0.00    +0.000 S 
BRANCH    2    1
ATOM      1  C1  UNL A   1       7.183  48.575   5.417  1.00  0.00    +0.000 C 
ATOM     99  H1  UNL A   1       6.412  48.509   4.679  1.00  0.00    +0.000 H 
ATOM    100  H2  UNL A   1       7.080  47.769   6.113  1.00  0.00    +0.000 H 
ATOM    101  H3  UNL A   1       8.139  48.514   4.940  1.00  0.00    +0.000 H 
ENDBRANCH    2    1
ENDBRANCH    3    2
ENDBRANCH    7    6
BRANCH    9   10
ATOM    105  H7  UNL A   1       9.274  47.612  14.381  1.00  0.00    +0.000 H 
ATOM     10  C9  UNL A   1      10.325  47.719  14.549  1.00  0.00    +0.000 C 
ATOM    106  H8  UNL A   1      10.561  48.286  15.425  1.00  0.00    +0.000 H 
BRANCH   10   11
ATOM     11  C10 UNL A   1      10.917  46.320  14.772  1.00  0.00    +0.000 C 
ATOM    108  H10 UNL A   1      11.418  46.138  12.685  1.00  0.00    +0.000 H 
ATOM     12  C11 UNL A   1      11.711  45.697  13.615  1.00  0.00    +0.000 C 
ATOM    107  H9  UNL A   1      10.022  45.763  14.952  1.00  0.00    +0.000 H 
ATOM     15  C14 UNL A   1      11.941  46.313  15.885  1.00  0.00    +0.000 C 
ATOM    109  H11 UNL A   1      11.530  44.644  13.540  1.00  0.00    +0.000 H 
ATOM     13  C12 UNL A   1      13.181  45.989  13.900  1.00  0.00    +0.000 C 
ATOM     14  C13 UNL A   1      13.311  45.906  15.413  1.00  0.00    +0.000 C 
ATOM     16  O1  UNL A   1      11.680  46.584  17.052  1.00  0.00    +0.000 O 
ATOM    110  H12 UNL A   1      13.444  46.966  13.552  1.00  0.00    +0.000 H 
ATOM    111  H13 UNL A   1      13.831  45.301  13.402  1.00  0.00    +0.000 H 
ATOM    112  H14 UNL A   1      14.060  46.580  15.774  1.00  0.00    +0.000 H 
ATOM    113  H15 UNL A   1      13.612  44.940  15.762  1.00  0.00    +0.000 H 
ENDBRANCH   10   11
ENDBRANCH    9   10
ENDBRANCH   20   19
BRANCH   20   21
ATOM    117  H19 UNL A   1      12.478  53.024   9.493  1.00  0.00    +0.000 H 
ATOM     21  C19 UNL A   1      11.787  52.360   9.969  1.00  0.00    +0.000 C 
ATOM    118  H20 UNL A   1      11.512  52.754  10.924  1.00  0.00    +0.000 H 
ATOM    119  H21 UNL A   1      10.912  52.258   9.360  1.00  0.00    +0.000 H 
ENDBRANCH   20   21
ENDBRANCH   22   20
ENDBRANCH   24   22
ENDBRANCH   25   24
ENDBRANCH   26   25
ENDBRANCH   27   26
ENDBRANCH   28   27
ENDBRANCH   29   28
ENDBRANCH   30   29
ENDBRANCH   31   30
ENDBRANCH   32   31
ENDBRANCH   34   32
ENDBRANCH   38   37
BRANCH   42   43
ATOM     43  C36 UNL A   1      12.186  47.811   5.289  1.00  0.00    +0.000 C 
ATOM     44  C37 UNL A   1      10.951  47.353   4.808  1.00  0.00    +0.000 C 
ATOM     45  F1  UNL A   1      10.403  47.909   3.718  1.00  0.00    +0.000 F 
ATOM     46  C38 UNL A   1      10.253  46.344   5.469  1.00  0.00    +0.000 C 
ATOM     47  F2  UNL A   1       9.054  45.954   5.017  1.00  0.00    +0.000 F 
ATOM     48  C39 UNL A   1      10.793  45.753   6.602  1.00  0.00    +0.000 C 
ATOM     49  F3  UNL A   1      10.123  44.779   7.233  1.00  0.00    +0.000 F 
ATOM     50  C40 UNL A   1      12.022  46.177   7.083  1.00  0.00    +0.000 C 
ATOM     51  F4  UNL A   1      12.549  45.599   8.172  1.00  0.00    +0.000 F 
ATOM     52  C41 UNL A   1      12.709  47.204   6.441  1.00  0.00    +0.000 C 
ATOM     53  F5  UNL A   1      13.889  47.601   6.939  1.00  0.00    +0.000 F 
ENDBRANCH   42   43
BRANCH   59   60
ATOM     65  C50 UNL A   1      17.555  46.866  -2.510  1.00  0.00    +0.000 C 
ATOM     66  F8  UNL A   1      18.047  46.102  -3.494  1.00  0.00    +0.000 F 
ATOM     67  C51 UNL A   1      18.339  47.167  -1.406  1.00  0.00    +0.000 C 
ATOM     68  F9  UNL A   1      19.595  46.706  -1.332  1.00  0.00    +0.000 F 
ATOM     69  C52 UNL A   1      17.822  47.943  -0.373  1.00  0.00    +0.000 C 
ATOM     70  F10 UNL A   1      18.599  48.207   0.688  1.00  0.00    +0.000 F 
ATOM     60  C47 UNL A   1      16.516  48.452  -0.438  1.00  0.00    +0.000 C 
ATOM     61  C48 UNL A   1      15.746  48.151  -1.571  1.00  0.00    +0.000 C 
ATOM     62  F6  UNL A   1      14.487  48.602  -1.671  1.00  0.00    +0.000 F 
ATOM     63  C49 UNL A   1      16.259  47.352  -2.590  1.00  0.00    +0.000 C 
ATOM     64  F7  UNL A   1      15.491  47.042  -3.644  1.00  0.00    +0.000 F 
ENDBRANCH   59   60
BRANCH   74   75
ATOM     75  C56 UNL A   1      17.421  55.188   1.074  1.00  0.00    +0.000 C 
ATOM     76  C57 UNL A   1      18.694  55.499   1.573  1.00  0.00    +0.000 C 
ATOM     77  F11 UNL A   1      19.181  54.829   2.628  1.00  0.00    +0.000 F 
ATOM     78  C58 UNL A   1      19.455  56.525   1.015  1.00  0.00    +0.000 C 
ATOM     79  F12 UNL A   1      20.650  56.828   1.536  1.00  0.00    +0.000 F 
ATOM     80  C59 UNL A   1      18.968  57.240  -0.069  1.00  0.00    +0.000 C 
ATOM     81  F13 UNL A   1      19.701  58.222  -0.608  1.00  0.00    +0.000 F 
ATOM     82  C60 UNL A   1      17.718  56.938  -0.590  1.00  0.00    +0.000 C 
ATOM     83  F14 UNL A   1      17.251  57.618  -1.645  1.00  0.00    +0.000 F 
ATOM     84  C61 UNL A   1      16.947  55.930  -0.017  1.00  0.00    +0.000 C 
ATOM     85  F15 UNL A   1      15.738  55.665  -0.534  1.00  0.00    +0.000 F 
ENDBRANCH   74   75
TORSDOF 22
ENDMDL
MODEL 4
REMARK VINA RESULT:      -7.8      2.144      8.233
ROOT
ATOM    136  H38 UNL A   1      18.535  53.395  -2.202  1.00  0.00    +0.000 H 
ATOM    137  H39 UNL A   1      18.129  50.820  -2.276  1.00  0.00    +0.000 H 
ATOM    138  H40 UNL A   1      16.425  52.307   1.192  1.00  0.00    +0.000 H 
ATOM    139  H41 UNL A   1      13.402  51.298   6.722  1.00  0.00    +0.000 H 
ATOM    140  H42 UNL A   1      13.774  53.811   6.777  1.00  0.00    +0.000 H 
ATOM    141  H43 UNL A   1      15.468  52.350   3.272  1.00  0.00    +0.000 H 
ATOM    142  H44 UNL A   1      14.517  47.413   3.228  1.00  0.00    +0.000 H 
ATOM    143  H45 UNL A   1      15.851  47.308   1.046  1.00  0.00    +0.000 H 
ATOM    144  H46 UNL A   1      17.087  57.276   1.209  1.00  0.00    +0.000 H 
ATOM    145  H47 UNL A   1      16.172  57.346   3.600  1.00  0.00    +0.000 H 
ATOM     38  C32 UNL A   1      15.189  54.835   4.524  1.00  0.00    +0.000 C 
ATOM     39  C33 UNL A   1      15.898  55.125   3.230  1.00  0.00    +0.000 C 
ATOM     40  N3  UNL A   1      16.219  54.306   2.260  1.00  0.00    +0.000 N 
ATOM     41  C34 UNL A   1      16.813  55.093   1.283  1.00  0.00    +0.000 C 
ATOM     42  C35 UNL A   1      17.361  54.707   0.105  1.00  0.00    +0.000 C 
ATOM     54  C42 UNL A   1      17.436  53.342  -0.347  1.00  0.00    +0.000 C 
ATOM     55  C43 UNL A   1      18.029  52.842  -1.493  1.00  0.00    +0.000 C 
ATOM     56  C44 UNL A   1      17.823  51.458  -1.526  1.00  0.00    +0.000 C 
ATOM     57  C45 UNL A   1      17.136  51.092  -0.379  1.00  0.00    +0.000 C 
ATOM     58  N4  UNL A   1      16.901  52.257   0.332  1.00  0.00    +0.000 N 
ATOM     59  C46 UNL A   1      16.725  49.776   0.038  1.00  0.00    +0.000 C 
ATOM     71  C53 UNL A   1      16.054  49.496   1.181  1.00  0.00    +0.000 C 
ATOM     72  N5  UNL A   1      15.629  50.363   2.177  1.00  0.00    +0.000 N 
ATOM     73  C54 UNL A   1      15.019  49.619   3.066  1.00  0.00    +0.000 C 
ATOM     74  C55 UNL A   1      14.383  50.024   4.367  1.00  0.00    +0.000 C 
ATOM     86  C62 UNL A   1      14.438  51.312   4.755  1.00  0.00    +0.000 C 
ATOM     87  C63 UNL A   1      13.879  51.850   5.991  1.00  0.00    +0.000 C 
ATOM     88  C64 UNL A   1      14.084  53.176   6.024  1.00  0.00    +0.000 C 
ATOM     89  C65 UNL A   1      14.816  53.576   4.823  1.00  0.00    +0.000 C 
ATOM     90  N6  UNL A   1      14.992  52.404   4.132  1.00  0.00    +0.000 N 
ATOM     91  C66 UNL A   1      14.965  48.192   2.719  1.00  0.00    +0.000 C 
ATOM     92  C67 UNL A   1      15.643  48.165   1.580  1.00  0.00    +0.000 C 
ATOM     93  C68 UNL A   1      16.770  56.459   1.755  1.00  0.00    +0.000 C 
ATOM     94  C69 UNL A   1      16.272  56.526   2.982  1.00  0.00    +0.000 C 
ENDROOT
BRANCH   38   37
ATOM     34  C28 UNL A   1      14.216  58.063   7.174  1.00  0.00    +0.000 C 
ATOM     35  C29 UNL A   1      13.285  57.652   6.214  1.00  0.00    +0.000 C 
ATOM     36  C30 UNL A   1      13.588  56.586   5.363  1.00  0.00    +0.000 C 
ATOM     37  C31 UNL A   1      14.833  55.944   5.445  1.00  0.00    +0.000 C 
ATOM    134  H36 UNL A   1      12.377  58.134   6.136  1.00  0.00    +0.000 H 
ATOM    135  H37 UNL A   1      12.892  56.269   4.671  1.00  0.00    +0.000 H 
ATOM    146  H48 UNL A   1      16.675  55.896   6.484  1.00  0.00    +0.000 H 
ATOM    147  H49 UNL A   1      16.079  57.630   8.069  1.00  0.00    +0.000 H 
ATOM     95  C70 UNL A   1      15.753  56.355   6.423  1.00  0.00    +0.000 C 
ATOM     96  C71 UNL A   1      15.426  57.378   7.311  1.00  0.00    +0.000 C 
BRANCH   34   32
ATOM     33  O3  UNL A   1      14.680  60.064   8.300  1.00  0.00    +0.000 O 
ATOM     32  C27 UNL A   1      13.862  59.187   8.074  1.00  0.00    +0.000 C 
BRANCH   32   31
ATOM    133  H35 UNL A   1      12.417  58.552   9.309  1.00  0.00    +0.000 H 
ATOM     31  N2  UNL A   1      12.612  59.250   8.644  1.00  0.00    +0.000 N 
BRANCH   31   30
ATOM    131  H33 UNL A   1      11.887  60.949   7.724  1.00  0.00    +0.000 H 
ATOM    132  H34 UNL A   1      10.707  59.664   7.995  1.00  0.00    +0.000 H 
ATOM     30  C26 UNL A   1      11.539  60.200   8.404  1.00  0.00    +0.000 C 
BRANCH   30   29
ATOM    129  H31 UNL A   1      11.463  61.876   9.699  1.00  0.00    +0.000 H 
ATOM    130  H32 UNL A   1      10.008  60.837   9.686  1.00  0.00    +0.000 H 
ATOM     29  C25 UNL A   1      11.077  60.878   9.693  1.00  0.00    +0.000 C 
BRANCH   29   28
ATOM     28  C24 UNL A   1      11.528  60.184  10.983  1.00  0.00    +0.000 C 
ATOM    127  H29 UNL A   1      12.139  59.350  10.711  1.00  0.00    +0.000 H 
ATOM    128  H30 UNL A   1      12.044  60.932  11.550  1.00  0.00    +0.000 H 
BRANCH   28   27
ATOM     27  C23 UNL A   1      10.404  59.671  11.891  1.00  0.00    +0.000 C 
ATOM    125  H27 UNL A   1      10.375  60.288  12.764  1.00  0.00    +0.000 H 
ATOM    126  H28 UNL A   1       9.507  59.714  11.308  1.00  0.00    +0.000 H 
BRANCH   27   26
ATOM     26  C22 UNL A   1      10.548  58.214  12.343  1.00  0.00    +0.000 C 
ATOM    123  H25 UNL A   1       9.723  57.658  11.949  1.00  0.00    +0.000 H 
ATOM    124  H26 UNL A   1      11.492  57.870  11.977  1.00  0.00    +0.000 H 
BRANCH   26   25
ATOM     25  C21 UNL A   1      10.570  58.029  13.863  1.00  0.00    +0.000 C 
ATOM    122  H24 UNL A   1       9.561  58.049  14.216  1.00  0.00    +0.000 H 
ATOM    121  H23 UNL A   1      11.145  58.819  14.300  1.00  0.00    +0.000 H 
BRANCH   25   24
ATOM    120  H22 UNL A   1      12.050  56.835  14.645  1.00  0.00    +0.000 H 
ATOM     24  N1  UNL A   1      11.155  56.761  14.240  1.00  0.00    +0.000 N 
BRANCH   24   22
ATOM     22  C20 UNL A   1      10.696  55.484  14.136  1.00  0.00    +0.000 C 
ATOM     23  O2  UNL A   1      10.241  54.991  15.177  1.00  0.00    +0.000 O 
BRANCH   22   20
ATOM    116  H18 UNL A   1      10.637  55.379  12.056  1.00  0.00    +0.000 H 
ATOM     20  C18 UNL A   1      10.724  54.656  12.839  1.00  0.00    +0.000 C 
BRANCH   20   19
ATOM      7  C6  UNL A   1      12.743  54.063  11.350  1.00  0.00    +0.000 C 
ATOM      8  C7  UNL A   1      14.032  53.502  11.221  1.00  0.00    +0.000 C 
ATOM      9  C8  UNL A   1      14.625  52.776  12.260  1.00  0.00    +0.000 C 
ATOM    104  H6  UNL A   1      14.550  53.631  10.338  1.00  0.00    +0.000 H 
ATOM     17  C15 UNL A   1      13.939  52.654  13.464  1.00  0.00    +0.000 C 
ATOM     18  C16 UNL A   1      12.680  53.231  13.618  1.00  0.00    +0.000 C 
ATOM     19  C17 UNL A   1      12.071  53.976  12.594  1.00  0.00    +0.000 C 
ATOM    115  H17 UNL A   1      12.180  53.109  14.512  1.00  0.00    +0.000 H 
ATOM    114  H16 UNL A   1      14.363  52.132  14.246  1.00  0.00    +0.000 H 
BRANCH    7    6
ATOM     97  C72 UNL A   1      11.862  55.848   9.790  1.00  0.00    +0.000 C 
ATOM     98  C73 UNL A   1      11.165  56.189   8.621  1.00  0.00    +0.000 C 
ATOM      3  C2  UNL A   1      10.674  55.205   7.749  1.00  0.00    +0.000 C 
ATOM      4  C3  UNL A   1      10.896  53.867   8.073  1.00  0.00    +0.000 C 
ATOM      5  C4  UNL A   1      11.579  53.526   9.241  1.00  0.00    +0.000 C 
ATOM    102  H4  UNL A   1      10.552  53.123   7.445  1.00  0.00    +0.000 H 
ATOM      6  C5  UNL A   1      12.070  54.506  10.119  1.00  0.00    +0.000 C 
ATOM    103  H5  UNL A   1      11.728  52.530   9.465  1.00  0.00    +0.000 H 
ATOM    148  H50 UNL A   1      12.223  56.590  10.409  1.00  0.00    +0.000 H 
ATOM    149  H51 UNL A   1      11.009  57.185   8.398  1.00  0.00    +0.000 H 
BRANCH    3    2
ATOM      2  S1  UNL A   1       9.776  55.749   6.301  1.00  0.00    +0.000 S 
BRANCH    2    1
ATOM      1  C1  UNL A   1       9.594  57.535   6.570  1.00  0.00    +0.000 C 
ATOM     99  H1  UNL A   1       8.600  57.747   6.904  1.00  0.00    +0.000 H 
ATOM    100  H2  UNL A   1       9.781  58.055   5.654  1.00  0.00    +0.000 H 
ATOM    101  H3  UNL A   1      10.296  57.858   7.312  1.00  0.00    +0.000 H 
ENDBRANCH    2    1
ENDBRANCH    3    2
ENDBRANCH    7    6
BRANCH    9   10
ATOM    105  H7  UNL A   1      16.495  52.095  12.938  1.00  0.00    +0.000 H 
ATOM     10  C9  UNL A   1      15.911  52.017  12.045  1.00  0.00    +0.000 C 
ATOM    106  H8  UNL A   1      16.378  52.458  11.190  1.00  0.00    +0.000 H 
BRANCH   10   11
ATOM     11  C10 UNL A   1      15.739  50.526  11.718  1.00  0.00    +0.000 C 
ATOM    108  H10 UNL A   1      13.766  50.870  10.926  1.00  0.00    +0.000 H 
ATOM     12  C11 UNL A   1      14.533  50.127  10.855  1.00  0.00    +0.000 C 
ATOM    107  H9  UNL A   1      15.641  50.127  12.705  1.00  0.00    +0.000 H 
ATOM     15  C14 UNL A   1      16.893  49.994  10.897  1.00  0.00    +0.000 C 
ATOM    109  H11 UNL A   1      14.110  49.199  11.181  1.00  0.00    +0.000 H 
ATOM     13  C12 UNL A   1      15.047  50.031   9.423  1.00  0.00    +0.000 C 
ATOM     14  C13 UNL A   1      16.461  49.485   9.548  1.00  0.00    +0.000 C 
ATOM     16  O1  UNL A   1      18.051  49.957  11.295  1.00  0.00    +0.000 O 
ATOM    110  H12 UNL A   1      15.056  50.996   8.961  1.00  0.00    +0.000 H 
ATOM    111  H13 UNL A   1      14.427  49.406   8.814  1.00  0.00    +0.000 H 
ATOM    112  H14 UNL A   1      17.092  49.864   8.771  1.00  0.00    +0.000 H 
ATOM    113  H15 UNL A   1      16.515  48.420   9.458  1.00  0.00    +0.000 H 
ENDBRANCH   10   11
ENDBRANCH    9   10
ENDBRANCH   20   19
BRANCH   20   21
ATOM    117  H19 UNL A   1       8.869  53.787  13.457  1.00  0.00    +0.000 H 
ATOM     21  C19 UNL A   1       9.494  53.783  12.588  1.00  0.00    +0.000 C 
ATOM    118  H20 UNL A   1       9.804  52.782  12.376  1.00  0.00    +0.000 H 
ATOM    119  H21 UNL A   1       8.947  54.170  11.753  1.00  0.00    +0.000 H 
ENDBRANCH   20   21
ENDBRANCH   22   20
ENDBRANCH   24   22
ENDBRANCH   25   24
ENDBRANCH   26   25
ENDBRANCH   27   26
ENDBRANCH   28   27
ENDBRANCH   29   28
ENDBRANCH   30   29
ENDBRANCH   31   30
ENDBRANCH   32   31
ENDBRANCH   34   32
ENDBRANCH   38   37
BRANCH   42   43
ATOM     43  C36 UNL A   1      17.932  55.777  -0.779  1.00  0.00    +0.000 C 
ATOM     44  C37 UNL A   1      17.149  56.425  -1.745  1.00  0.00    +0.000 C 
ATOM     45  F1  UNL A   1      15.872  56.061  -1.935  1.00  0.00    +0.000 F 
ATOM     46  C38 UNL A   1      17.688  57.427  -2.550  1.00  0.00    +0.000 C 
ATOM     47  F2  UNL A   1      16.934  58.000  -3.498  1.00  0.00    +0.000 F 
ATOM     48  C39 UNL A   1      19.007  57.821  -2.380  1.00  0.00    +0.000 C 
ATOM     49  F3  UNL A   1      19.522  58.789  -3.150  1.00  0.00    +0.000 F 
ATOM     50  C40 UNL A   1      19.792  57.207  -1.416  1.00  0.00    +0.000 C 
ATOM     51  F4  UNL A   1      21.064  57.596  -1.244  1.00  0.00    +0.000 F 
ATOM     52  C41 UNL A   1      19.265  56.187  -0.630  1.00  0.00    +0.000 C 
ATOM     53  F5  UNL A   1      20.054  55.603   0.284  1.00  0.00    +0.000 F 
ENDBRANCH   42   43
BRANCH   59   60
ATOM     65  C50 UNL A   1      17.697  46.423  -2.488  1.00  0.00    +0.000 C 
ATOM     66  F8  UNL A   1      17.995  45.381  -3.276  1.00  0.00    +0.000 F 
ATOM     67  C51 UNL A   1      16.564  47.184  -2.740  1.00  0.00    +0.000 C 
ATOM     68  F9  UNL A   1      15.760  46.865  -3.763  1.00  0.00    +0.000 F 
ATOM     69  C52 UNL A   1      16.264  48.279  -1.936  1.00  0.00    +0.000 C 
ATOM     70  F10 UNL A   1      15.170  49.003  -2.211  1.00  0.00    +0.000 F 
ATOM     60  C47 UNL A   1      17.083  48.619  -0.848  1.00  0.00    +0.000 C 
ATOM     61  C48 UNL A   1      18.213  47.827  -0.599  1.00  0.00    +0.000 C 
ATOM     62  F6  UNL A   1      19.034  48.123   0.420  1.00  0.00    +0.000 F 
ATOM     63  C49 UNL A   1      18.523  46.748  -1.422  1.00  0.00    +0.000 C 
ATOM     64  F7  UNL A   1      19.631  46.030  -1.192  1.00  0.00    +0.000 F 
ENDBRANCH   59   60
BRANCH   74   75
ATOM     75  C56 UNL A   1      13.727  49.017   5.240  1.00  0.00    +0.000 C 
ATOM     76  C57 UNL A   1      12.358  48.741   5.112  1.00  0.00    +0.000 C 
ATOM     77  F11 UNL A   1      11.624  49.407   4.209  1.00  0.00    +0.000 F 
ATOM     78  C58 UNL A   1      11.732  47.809   5.937  1.00  0.00    +0.000 C 
ATOM     79  F12 UNL A   1      10.416  47.593   5.821  1.00  0.00    +0.000 F 
ATOM     80  C59 UNL A   1      12.469  47.115   6.886  1.00  0.00    +0.000 C 
ATOM     81  F13 UNL A   1      11.868  46.216   7.676  1.00  0.00    +0.000 F 
ATOM     82  C60 UNL A   1      13.828  47.360   7.019  1.00  0.00    +0.000 C 
ATOM     83  F14 UNL A   1      14.544  46.684   7.926  1.00  0.00    +0.000 F 
ATOM     84  C61 UNL A   1      14.449  48.310   6.212  1.00  0.00    +0.000 C 
ATOM     85  F15 UNL A   1      15.762  48.535   6.368  1.00  0.00    +0.000 F 
ENDBRANCH   74   75
TORSDOF 22
ENDMDL
MODEL 5
REMARK VINA RESULT:      -7.8     39.398     43.744
ROOT
ATOM    136  H38 UNL A   1      46.217  24.568  24.976  1.00  0.00    +0.000 H 
ATOM    137  H39 UNL A   1      44.039  23.283  25.614  1.00  0.00    +0.000 H 
ATOM    138  H40 UNL A   1      43.753  27.140  27.090  1.00  0.00    +0.000 H 
ATOM    139  H41 UNL A   1      40.584  31.530  30.469  1.00  0.00    +0.000 H 
ATOM    140  H42 UNL A   1      42.694  32.788  29.822  1.00  0.00    +0.000 H 
ATOM    141  H43 UNL A   1      42.995  28.930  28.301  1.00  0.00    +0.000 H 
ATOM    142  H44 UNL A   1      38.698  26.623  29.520  1.00  0.00    +0.000 H 
ATOM    143  H45 UNL A   1      39.668  24.521  28.429  1.00  0.00    +0.000 H 
ATOM    144  H46 UNL A   1      47.885  29.616  25.701  1.00  0.00    +0.000 H 
ATOM    145  H47 UNL A   1      47.151  31.579  27.173  1.00  0.00    +0.000 H 
ATOM     38  C32 UNL A   1      44.564  31.245  28.320  1.00  0.00    +0.000 C 
ATOM     39  C33 UNL A   1      45.346  30.247  27.513  1.00  0.00    +0.000 C 
ATOM     40  N3  UNL A   1      45.023  29.027  27.164  1.00  0.00    +0.000 N 
ATOM     41  C34 UNL A   1      46.075  28.565  26.385  1.00  0.00    +0.000 C 
ATOM     42  C35 UNL A   1      46.240  27.341  25.828  1.00  0.00    +0.000 C 
ATOM     54  C42 UNL A   1      45.309  26.253  25.970  1.00  0.00    +0.000 C 
ATOM     55  C43 UNL A   1      45.416  24.956  25.499  1.00  0.00    +0.000 C 
ATOM     56  C44 UNL A   1      44.254  24.262  25.853  1.00  0.00    +0.000 C 
ATOM     57  C45 UNL A   1      43.440  25.117  26.580  1.00  0.00    +0.000 C 
ATOM     58  N4  UNL A   1      44.096  26.335  26.639  1.00  0.00    +0.000 N 
ATOM     59  C46 UNL A   1      42.158  24.843  27.176  1.00  0.00    +0.000 C 
ATOM     71  C53 UNL A   1      41.419  25.736  27.878  1.00  0.00    +0.000 C 
ATOM     72  N5  UNL A   1      41.707  27.059  28.180  1.00  0.00    +0.000 N 
ATOM     73  C54 UNL A   1      40.682  27.503  28.865  1.00  0.00    +0.000 C 
ATOM     74  C55 UNL A   1      40.464  28.860  29.475  1.00  0.00    +0.000 C 
ATOM     86  C62 UNL A   1      41.429  29.793  29.368  1.00  0.00    +0.000 C 
ATOM     87  C63 UNL A   1      41.365  31.145  29.915  1.00  0.00    +0.000 C 
ATOM     88  C64 UNL A   1      42.484  31.806  29.581  1.00  0.00    +0.000 C 
ATOM     89  C65 UNL A   1      43.358  30.913  28.820  1.00  0.00    +0.000 C 
ATOM     90  N6  UNL A   1      42.655  29.737  28.751  1.00  0.00    +0.000 N 
ATOM     91  C66 UNL A   1      39.612  26.513  29.053  1.00  0.00    +0.000 C 
ATOM     92  C67 UNL A   1      40.127  25.443  28.464  1.00  0.00    +0.000 C 
ATOM     93  C68 UNL A   1      47.027  29.649  26.274  1.00  0.00    +0.000 C 
ATOM     94  C69 UNL A   1      46.654  30.690  27.005  1.00  0.00    +0.000 C 
ENDROOT
BRANCH   38   37
ATOM     34  C28 UNL A   1      46.006  35.246  28.868  1.00  0.00    +0.000 C 
ATOM     35  C29 UNL A   1      46.405  34.239  29.754  1.00  0.00    +0.000 C 
ATOM     36  C30 UNL A   1      45.956  32.930  29.567  1.00  0.00    +0.000 C 
ATOM     37  C31 UNL A   1      45.083  32.623  28.512  1.00  0.00    +0.000 C 
ATOM    134  H36 UNL A   1      47.030  34.465  30.543  1.00  0.00    +0.000 H 
ATOM    135  H37 UNL A   1      46.269  32.184  30.208  1.00  0.00    +0.000 H 
ATOM    146  H48 UNL A   1      44.052  33.424  26.847  1.00  0.00    +0.000 H 
ATOM    147  H49 UNL A   1      44.969  35.656  27.074  1.00  0.00    +0.000 H 
ATOM     95  C70 UNL A   1      44.702  33.637  27.619  1.00  0.00    +0.000 C 
ATOM     96  C71 UNL A   1      45.199  34.931  27.771  1.00  0.00    +0.000 C 
BRANCH   34   32
ATOM     33  O3  UNL A   1      47.496  36.808  29.776  1.00  0.00    +0.000 O 
ATOM     32  C27 UNL A   1      46.510  36.624  29.081  1.00  0.00    +0.000 C 
BRANCH   32   31
ATOM    133  H35 UNL A   1      45.972  37.751  27.512  1.00  0.00    +0.000 H 
ATOM     31  N2  UNL A   1      45.876  37.692  28.490  1.00  0.00    +0.000 N 
BRANCH   31   30
ATOM    131  H33 UNL A   1      45.713  39.306  29.767  1.00  0.00    +0.000 H 
ATOM    132  H34 UNL A   1      44.702  39.369  28.322  1.00  0.00    +0.000 H 
ATOM     30  C26 UNL A   1      45.087  38.747  29.103  1.00  0.00    +0.000 C 
BRANCH   30   29
ATOM    129  H31 UNL A   1      43.006  38.609  29.485  1.00  0.00    +0.000 H 
ATOM    130  H32 UNL A   1      43.954  37.125  29.797  1.00  0.00    +0.000 H 
ATOM     29  C25 UNL A   1      43.903  38.190  29.891  1.00  0.00    +0.000 C 
BRANCH   29   28
ATOM     28  C24 UNL A   1      43.931  38.492  31.394  1.00  0.00    +0.000 C 
ATOM    127  H29 UNL A   1      44.498  39.387  31.538  1.00  0.00    +0.000 H 
ATOM    128  H30 UNL A   1      42.906  38.576  31.693  1.00  0.00    +0.000 H 
BRANCH   28   27
ATOM     27  C23 UNL A   1      44.539  37.399  32.281  1.00  0.00    +0.000 C 
ATOM    125  H27 UNL A   1      45.602  37.438  32.174  1.00  0.00    +0.000 H 
ATOM    126  H28 UNL A   1      44.203  37.603  33.277  1.00  0.00    +0.000 H 
BRANCH   27   26
ATOM     26  C22 UNL A   1      44.081  35.973  31.962  1.00  0.00    +0.000 C 
ATOM    123  H25 UNL A   1      43.729  35.953  30.951  1.00  0.00    +0.000 H 
ATOM    124  H26 UNL A   1      44.926  35.336  32.118  1.00  0.00    +0.000 H 
BRANCH   26   25
ATOM     25  C21 UNL A   1      42.963  35.454  32.871  1.00  0.00    +0.000 C 
ATOM    122  H24 UNL A   1      42.146  36.142  32.820  1.00  0.00    +0.000 H 
ATOM    121  H23 UNL A   1      43.338  35.376  33.870  1.00  0.00    +0.000 H 
BRANCH   25   24
ATOM    120  H22 UNL A   1      42.213  34.116  31.502  1.00  0.00    +0.000 H 
ATOM     24  N1  UNL A   1      42.487  34.156  32.448  1.00  0.00    +0.000 N 
BRANCH   24   22
ATOM     22  C20 UNL A   1      42.347  32.978  33.117  1.00  0.00    +0.000 C 
ATOM     23  O2  UNL A   1      43.370  32.289  33.210  1.00  0.00    +0.000 O 
BRANCH   22   20
ATOM    116  H18 UNL A   1      41.011  32.899  34.714  1.00  0.00    +0.000 H 
ATOM     20  C18 UNL A   1      41.025  32.482  33.729  1.00  0.00    +0.000 C 
BRANCH   20   19
ATOM      7  C6  UNL A   1      39.023  34.103  33.627  1.00  0.00    +0.000 C 
ATOM      8  C7  UNL A   1      37.958  34.672  32.894  1.00  0.00    +0.000 C 
ATOM      9  C8  UNL A   1      37.579  34.174  31.642  1.00  0.00    +0.000 C 
ATOM    104  H6  UNL A   1      37.447  35.476  33.291  1.00  0.00    +0.000 H 
ATOM     17  C15 UNL A   1      38.309  33.125  31.093  1.00  0.00    +0.000 C 
ATOM     18  C16 UNL A   1      39.384  32.575  31.789  1.00  0.00    +0.000 C 
ATOM     19  C17 UNL A   1      39.791  33.067  33.041  1.00  0.00    +0.000 C 
ATOM    115  H17 UNL A   1      39.897  31.783  31.373  1.00  0.00    +0.000 H 
ATOM    114  H16 UNL A   1      38.053  32.751  30.166  1.00  0.00    +0.000 H 
BRANCH    7    6
ATOM     97  C72 UNL A   1      38.461  33.780  36.071  1.00  0.00    +0.000 C 
ATOM     98  C73 UNL A   1      38.575  34.212  37.401  1.00  0.00    +0.000 C 
ATOM      3  C2  UNL A   1      39.367  35.318  37.744  1.00  0.00    +0.000 C 
ATOM      4  C3  UNL A   1      40.046  35.986  36.725  1.00  0.00    +0.000 C 
ATOM      5  C4  UNL A   1      39.925  35.563  35.400  1.00  0.00    +0.000 C 
ATOM    102  H4  UNL A   1      40.641  36.798  36.951  1.00  0.00    +0.000 H 
ATOM      6  C5  UNL A   1      39.131  34.458  35.050  1.00  0.00    +0.000 C 
ATOM    103  H5  UNL A   1      40.431  36.074  34.661  1.00  0.00    +0.000 H 
ATOM    148  H50 UNL A   1      37.882  32.956  35.845  1.00  0.00    +0.000 H 
ATOM    149  H51 UNL A   1      38.064  33.706  38.142  1.00  0.00    +0.000 H 
BRANCH    3    2
ATOM      2  S1  UNL A   1      39.420  35.801  39.466  1.00  0.00    +0.000 S 
BRANCH    2    1
ATOM      1  C1  UNL A   1      39.057  37.579  39.412  1.00  0.00    +0.000 C 
ATOM     99  H1  UNL A   1      39.968  38.125  39.279  1.00  0.00    +0.000 H 
ATOM    100  H2  UNL A   1      38.594  37.876  40.329  1.00  0.00    +0.000 H 
ATOM    101  H3  UNL A   1      38.396  37.783  38.595  1.00  0.00    +0.000 H 
ENDBRANCH    2    1
ENDBRANCH    3    2
ENDBRANCH    7    6
BRANCH    9   10
ATOM    105  H7  UNL A   1      36.291  34.224  29.981  1.00  0.00    +0.000 H 
ATOM     10  C9  UNL A   1      36.323  34.657  30.959  1.00  0.00    +0.000 C 
ATOM    106  H8  UNL A   1      36.380  35.725  30.951  1.00  0.00    +0.000 H 
BRANCH   10   11
ATOM     11  C10 UNL A   1      35.014  34.303  31.679  1.00  0.00    +0.000 C 
ATOM    108  H10 UNL A   1      35.632  32.252  31.913  1.00  0.00    +0.000 H 
ATOM     12  C11 UNL A   1      34.932  32.929  32.359  1.00  0.00    +0.000 C 
ATOM    107  H9  UNL A   1      34.329  34.356  30.860  1.00  0.00    +0.000 H 
ATOM     15  C14 UNL A   1      34.741  35.235  32.839  1.00  0.00    +0.000 C 
ATOM    109  H11 UNL A   1      33.958  32.497  32.250  1.00  0.00    +0.000 H 
ATOM     13  C12 UNL A   1      35.277  33.157  33.827  1.00  0.00    +0.000 C 
ATOM     14  C13 UNL A   1      34.688  34.519  34.161  1.00  0.00    +0.000 C 
ATOM     16  O1  UNL A   1      34.555  36.440  32.713  1.00  0.00    +0.000 O 
ATOM    110  H12 UNL A   1      36.338  33.161  33.967  1.00  0.00    +0.000 H 
ATOM    111  H13 UNL A   1      34.888  32.385  34.456  1.00  0.00    +0.000 H 
ATOM    112  H14 UNL A   1      35.277  35.024  34.898  1.00  0.00    +0.000 H 
ATOM    113  H15 UNL A   1      33.704  34.466  34.578  1.00  0.00    +0.000 H 
ENDBRANCH   10   11
ENDBRANCH    9   10
ENDBRANCH   20   19
BRANCH   20   21
ATOM    117  H19 UNL A   1      39.935  30.683  34.117  1.00  0.00    +0.000 H 
ATOM     21  C19 UNL A   1      40.958  30.984  34.030  1.00  0.00    +0.000 C 
ATOM    118  H20 UNL A   1      41.470  30.782  34.946  1.00  0.00    +0.000 H 
ATOM    119  H21 UNL A   1      41.424  30.441  33.234  1.00  0.00    +0.000 H 
ENDBRANCH   20   21
ENDBRANCH   22   20
ENDBRANCH   24   22
ENDBRANCH   25   24
ENDBRANCH   26   25
ENDBRANCH   27   26
ENDBRANCH   28   27
ENDBRANCH   29   28
ENDBRANCH   30   29
ENDBRANCH   31   30
ENDBRANCH   32   31
ENDBRANCH   34   32
ENDBRANCH   38   37
BRANCH   42   43
ATOM     43  C36 UNL A   1      47.480  27.110  25.015  1.00  0.00    +0.000 C 
ATOM     44  C37 UNL A   1      47.589  27.573  23.695  1.00  0.00    +0.000 C 
ATOM     45  F1  UNL A   1      46.555  28.195  23.110  1.00  0.00    +0.000 F 
ATOM     46  C38 UNL A   1      48.752  27.363  22.956  1.00  0.00    +0.000 C 
ATOM     47  F2  UNL A   1      48.816  27.774  21.683  1.00  0.00    +0.000 F 
ATOM     48  C39 UNL A   1      49.836  26.719  23.534  1.00  0.00    +0.000 C 
ATOM     49  F3  UNL A   1      50.955  26.523  22.824  1.00  0.00    +0.000 F 
ATOM     50  C40 UNL A   1      49.756  26.271  24.843  1.00  0.00    +0.000 C 
ATOM     51  F4  UNL A   1      50.807  25.658  25.405  1.00  0.00    +0.000 F 
ATOM     52  C41 UNL A   1      48.586  26.454  25.575  1.00  0.00    +0.000 C 
ATOM     53  F5  UNL A   1      48.535  25.998  26.836  1.00  0.00    +0.000 F 
ENDBRANCH   42   43
BRANCH   59   60
ATOM     65  C50 UNL A   1      40.615  20.845  26.727  1.00  0.00    +0.000 C 
ATOM     66  F8  UNL A   1      40.138  19.601  26.590  1.00  0.00    +0.000 F 
ATOM     67  C51 UNL A   1      41.776  21.069  27.452  1.00  0.00    +0.000 C 
ATOM     68  F9  UNL A   1      42.430  20.037  28.001  1.00  0.00    +0.000 F 
ATOM     69  C52 UNL A   1      42.260  22.364  27.613  1.00  0.00    +0.000 C 
ATOM     70  F10 UNL A   1      43.378  22.551  28.331  1.00  0.00    +0.000 F 
ATOM     60  C47 UNL A   1      41.602  23.457  27.031  1.00  0.00    +0.000 C 
ATOM     61  C48 UNL A   1      40.439  23.208  26.287  1.00  0.00    +0.000 C 
ATOM     62  F6  UNL A   1      39.767  24.223  25.725  1.00  0.00    +0.000 F 
ATOM     63  C49 UNL A   1      39.944  21.914  26.150  1.00  0.00    +0.000 C 
ATOM     64  F7  UNL A   1      38.808  21.703  25.470  1.00  0.00    +0.000 F 
ENDBRANCH   59   60
BRANCH   74   75
ATOM     75  C56 UNL A   1      39.215  29.170  30.215  1.00  0.00    +0.000 C 
ATOM     76  C57 UNL A   1      38.117  29.748  29.561  1.00  0.00    +0.000 C 
ATOM     77  F11 UNL A   1      38.200  30.047  28.256  1.00  0.00    +0.000 F 
ATOM     78  C58 UNL A   1      36.948  30.056  30.252  1.00  0.00    +0.000 C 
ATOM     79  F12 UNL A   1      35.929  30.644  29.612  1.00  0.00    +0.000 F 
ATOM     80  C59 UNL A   1      36.843  29.767  31.605  1.00  0.00    +0.000 C 
ATOM     81  F13 UNL A   1      35.717  30.058  32.268  1.00  0.00    +0.000 F 
ATOM     82  C60 UNL A   1      37.910  29.180  32.269  1.00  0.00    +0.000 C 
ATOM     83  F14 UNL A   1      37.808  28.888  33.572  1.00  0.00    +0.000 F 
ATOM     84  C61 UNL A   1      39.089  28.895  31.584  1.00  0.00    +0.000 C 
ATOM     85  F15 UNL A   1      40.109  28.337  32.253  1.00  0.00    +0.000 F 
ENDBRANCH   74   75
TORSDOF 22
ENDMDL
MODEL 6
REMARK VINA RESULT:      -7.7      4.270     11.737
ROOT
ATOM    136  H38 UNL A   1      15.003  46.785   1.023  1.00  0.00    +0.000 H 
ATOM    137  H39 UNL A   1      13.300  46.446   2.968  1.00  0.00    +0.000 H 
ATOM    138  H40 UNL A   1      14.663  50.353   3.099  1.00  0.00    +0.000 H 
ATOM    139  H41 UNL A   1      14.806  56.050   5.972  1.00  0.00    +0.000 H 
ATOM    140  H42 UNL A   1      16.442  56.386   4.058  1.00  0.00    +0.000 H 
ATOM    141  H43 UNL A   1      15.068  52.466   3.885  1.00  0.00    +0.000 H 
ATOM    142  H44 UNL A   1      11.734  52.001   7.619  1.00  0.00    +0.000 H 
ATOM    143  H45 UNL A   1      11.502  49.546   6.933  1.00  0.00    +0.000 H 
ATOM    144  H46 UNL A   1      17.805  51.002  -0.753  1.00  0.00    +0.000 H 
ATOM    145  H47 UNL A   1      18.406  53.310   0.183  1.00  0.00    +0.000 H 
ATOM     38  C32 UNL A   1      16.840  54.073   2.438  1.00  0.00    +0.000 C 
ATOM     39  C33 UNL A   1      16.837  52.751   1.723  1.00  0.00    +0.000 C 
ATOM     40  N3  UNL A   1      16.132  51.676   1.972  1.00  0.00    +0.000 N 
ATOM     41  C34 UNL A   1      16.476  50.762   0.986  1.00  0.00    +0.000 C 
ATOM     42  C35 UNL A   1      16.056  49.482   0.837  1.00  0.00    +0.000 C 
ATOM     54  C42 UNL A   1      15.147  48.817   1.732  1.00  0.00    +0.000 C 
ATOM     55  C43 UNL A   1      14.711  47.504   1.704  1.00  0.00    +0.000 C 
ATOM     56  C44 UNL A   1      13.808  47.318   2.756  1.00  0.00    +0.000 C 
ATOM     57  C45 UNL A   1      13.712  48.505   3.464  1.00  0.00    +0.000 C 
ATOM     58  N4  UNL A   1      14.534  49.418   2.822  1.00  0.00    +0.000 N 
ATOM     59  C46 UNL A   1      12.929  48.788   4.639  1.00  0.00    +0.000 C 
ATOM     71  C53 UNL A   1      12.889  49.981   5.279  1.00  0.00    +0.000 C 
ATOM     72  N5  UNL A   1      13.562  51.157   4.976  1.00  0.00    +0.000 N 
ATOM     73  C54 UNL A   1      13.186  52.029   5.877  1.00  0.00    +0.000 C 
ATOM     74  C55 UNL A   1      13.617  53.459   6.052  1.00  0.00    +0.000 C 
ATOM     86  C62 UNL A   1      14.542  53.975   5.220  1.00  0.00    +0.000 C 
ATOM     87  C63 UNL A   1      15.065  55.336   5.273  1.00  0.00    +0.000 C 
ATOM     88  C64 UNL A   1      15.937  55.510   4.267  1.00  0.00    +0.000 C 
ATOM     89  C65 UNL A   1      16.055  54.260   3.516  1.00  0.00    +0.000 C 
ATOM     90  N6  UNL A   1      15.199  53.402   4.159  1.00  0.00    +0.000 N 
ATOM     91  C66 UNL A   1      12.207  51.511   6.843  1.00  0.00    +0.000 C 
ATOM     92  C67 UNL A   1      12.088  50.249   6.456  1.00  0.00    +0.000 C 
ATOM     93  C68 UNL A   1      17.419  51.420   0.108  1.00  0.00    +0.000 C 
ATOM     94  C69 UNL A   1      17.724  52.630   0.556  1.00  0.00    +0.000 C 
ENDROOT
BRANCH   38   37
ATOM     34  C28 UNL A   1      19.232  57.292   0.917  1.00  0.00    +0.000 C 
ATOM     35  C29 UNL A   1      17.856  57.273   0.664  1.00  0.00    +0.000 C 
ATOM     36  C30 UNL A   1      17.068  56.238   1.176  1.00  0.00    +0.000 C 
ATOM     37  C31 UNL A   1      17.654  55.202   1.918  1.00  0.00    +0.000 C 
ATOM    134  H36 UNL A   1      17.424  58.021   0.100  1.00  0.00    +0.000 H 
ATOM    135  H37 UNL A   1      16.050  56.237   1.007  1.00  0.00    +0.000 H 
ATOM    146  H48 UNL A   1      19.474  54.477   2.716  1.00  0.00    +0.000 H 
ATOM    147  H49 UNL A   1      20.805  56.361   1.973  1.00  0.00    +0.000 H 
ATOM     95  C70 UNL A   1      19.032  55.240   2.180  1.00  0.00    +0.000 C 
ATOM     96  C71 UNL A   1      19.807  56.304   1.720  1.00  0.00    +0.000 C 
BRANCH   34   32
ATOM     33  O3  UNL A   1      19.638  59.557   0.481  1.00  0.00    +0.000 O 
ATOM     32  C27 UNL A   1      20.040  58.409   0.374  1.00  0.00    +0.000 C 
BRANCH   32   31
ATOM    133  H35 UNL A   1      21.995  57.965   0.369  1.00  0.00    +0.000 H 
ATOM     31  N2  UNL A   1      21.246  58.158  -0.238  1.00  0.00    +0.000 N 
BRANCH   31   30
ATOM    131  H33 UNL A   1      20.911  58.804  -2.170  1.00  0.00    +0.000 H 
ATOM    132  H34 UNL A   1      22.591  58.444  -1.765  1.00  0.00    +0.000 H 
ATOM     30  C26 UNL A   1      21.571  58.138  -1.654  1.00  0.00    +0.000 C 
BRANCH   30   29
ATOM    129  H31 UNL A   1      22.103  56.663  -3.082  1.00  0.00    +0.000 H 
ATOM    130  H32 UNL A   1      21.648  56.052  -1.464  1.00  0.00    +0.000 H 
ATOM     29  C25 UNL A   1      21.429  56.740  -2.254  1.00  0.00    +0.000 C 
BRANCH   29   28
ATOM     28  C24 UNL A   1      20.022  56.393  -2.752  1.00  0.00    +0.000 C 
ATOM    127  H29 UNL A   1      20.093  55.510  -3.351  1.00  0.00    +0.000 H 
ATOM    128  H30 UNL A   1      19.423  56.273  -1.873  1.00  0.00    +0.000 H 
BRANCH   28   27
ATOM     27  C23 UNL A   1      19.326  57.475  -3.588  1.00  0.00    +0.000 C 
ATOM    125  H27 UNL A   1      18.370  57.670  -3.148  1.00  0.00    +0.000 H 
ATOM    126  H28 UNL A   1      19.979  58.322  -3.581  1.00  0.00    +0.000 H 
BRANCH   27   26
ATOM     26  C22 UNL A   1      19.107  57.118  -5.061  1.00  0.00    +0.000 C 
ATOM    123  H25 UNL A   1      19.443  57.939  -5.658  1.00  0.00    +0.000 H 
ATOM    124  H26 UNL A   1      19.659  56.220  -5.245  1.00  0.00    +0.000 H 
BRANCH   26   25
ATOM     25  C21 UNL A   1      17.648  56.822  -5.424  1.00  0.00    +0.000 C 
ATOM    122  H24 UNL A   1      17.396  57.403  -6.286  1.00  0.00    +0.000 H 
ATOM    121  H23 UNL A   1      17.026  57.077  -4.592  1.00  0.00    +0.000 H 
BRANCH   25   24
ATOM    120  H22 UNL A   1      16.658  55.252  -6.307  1.00  0.00    +0.000 H 
ATOM     24  N1  UNL A   1      17.449  55.426  -5.748  1.00  0.00    +0.000 N 
BRANCH   24   22
ATOM     22  C20 UNL A   1      18.155  54.310  -5.419  1.00  0.00    +0.000 C 
ATOM     23  O2  UNL A   1      18.610  53.663  -6.371  1.00  0.00    +0.000 O 
BRANCH   22   20
ATOM    116  H18 UNL A   1      18.943  54.625  -3.516  1.00  0.00    +0.000 H 
ATOM     20  C18 UNL A   1      18.396  53.830  -3.977  1.00  0.00    +0.000 C 
BRANCH   20   19
ATOM      7  C6  UNL A   1      16.225  52.620  -3.292  1.00  0.00    +0.000 C 
ATOM      8  C7  UNL A   1      15.106  52.527  -2.435  1.00  0.00    +0.000 C 
ATOM      9  C8  UNL A   1      14.791  53.542  -1.525  1.00  0.00    +0.000 C 
ATOM    104  H6  UNL A   1      14.506  51.688  -2.482  1.00  0.00    +0.000 H 
ATOM     17  C15 UNL A   1      15.637  54.643  -1.435  1.00  0.00    +0.000 C 
ATOM     18  C16 UNL A   1      16.763  54.733  -2.250  1.00  0.00    +0.000 C 
ATOM     19  C17 UNL A   1      17.107  53.721  -3.161  1.00  0.00    +0.000 C 
ATOM    115  H17 UNL A   1      17.364  55.569  -2.181  1.00  0.00    +0.000 H 
ATOM    114  H16 UNL A   1      15.429  55.396  -0.762  1.00  0.00    +0.000 H 
BRANCH    7    6
ATOM     97  C72 UNL A   1      15.509  51.824  -5.583  1.00  0.00    +0.000 C 
ATOM     98  C73 UNL A   1      15.587  50.865  -6.604  1.00  0.00    +0.000 C 
ATOM      3  C2  UNL A   1      16.449  49.762  -6.506  1.00  0.00    +0.000 C 
ATOM      4  C3  UNL A   1      17.235  49.638  -5.360  1.00  0.00    +0.000 C 
ATOM      5  C4  UNL A   1      17.150  50.586  -4.339  1.00  0.00    +0.000 C 
ATOM    102  H4  UNL A   1      17.883  48.840  -5.266  1.00  0.00    +0.000 H 
ATOM      6  C5  UNL A   1      16.286  51.690  -4.430  1.00  0.00    +0.000 C 
ATOM    103  H5  UNL A   1      17.735  50.472  -3.497  1.00  0.00    +0.000 H 
ATOM    148  H50 UNL A   1      14.876  52.632  -5.684  1.00  0.00    +0.000 H 
ATOM    149  H51 UNL A   1      14.997  50.972  -7.444  1.00  0.00    +0.000 H 
BRANCH    3    2
ATOM      2  S1  UNL A   1      16.450  48.585  -7.853  1.00  0.00    +0.000 S 
BRANCH    2    1
ATOM      1  C1  UNL A   1      17.432  47.205  -7.200  1.00  0.00    +0.000 C 
ATOM     99  H1  UNL A   1      17.435  47.243  -6.131  1.00  0.00    +0.000 H 
ATOM    100  H2  UNL A   1      18.436  47.278  -7.561  1.00  0.00    +0.000 H 
ATOM    101  H3  UNL A   1      17.004  46.278  -7.522  1.00  0.00    +0.000 H 
ENDBRANCH    2    1
ENDBRANCH    3    2
ENDBRANCH    7    6
BRANCH    9   10
ATOM    105  H7  UNL A   1      13.021  52.579  -0.926  1.00  0.00    +0.000 H 
ATOM     10  C9  UNL A   1      13.492  53.525  -0.758  1.00  0.00    +0.000 C 
ATOM    106  H8  UNL A   1      12.922  54.355  -1.118  1.00  0.00    +0.000 H 
BRANCH   10   11
ATOM     11  C10 UNL A   1      13.630  53.725   0.759  1.00  0.00    +0.000 C 
ATOM    108  H10 UNL A   1      13.411  55.859   0.552  1.00  0.00    +0.000 H 
ATOM     12  C11 UNL A   1      13.307  55.118   1.318  1.00  0.00    +0.000 C 
ATOM    107  H9  UNL A   1      14.668  53.504   0.884  1.00  0.00    +0.000 H 
ATOM     15  C14 UNL A   1      12.664  52.853   1.531  1.00  0.00    +0.000 C 
ATOM    109  H11 UNL A   1      13.974  55.384   2.112  1.00  0.00    +0.000 H 
ATOM     13  C12 UNL A   1      11.862  55.059   1.803  1.00  0.00    +0.000 C 
ATOM     14  C13 UNL A   1      11.690  53.651   2.355  1.00  0.00    +0.000 C 
ATOM     16  O1  UNL A   1      12.689  51.628   1.511  1.00  0.00    +0.000 O 
ATOM    110  H12 UNL A   1      11.186  55.230   0.991  1.00  0.00    +0.000 H 
ATOM    111  H13 UNL A   1      11.653  55.807   2.538  1.00  0.00    +0.000 H 
ATOM    112  H14 UNL A   1      10.688  53.302   2.215  1.00  0.00    +0.000 H 
ATOM    113  H15 UNL A   1      11.867  53.583   3.408  1.00  0.00    +0.000 H 
ENDBRANCH   10   11
ENDBRANCH    9   10
ENDBRANCH   20   19
BRANCH   20   21
ATOM    117  H19 UNL A   1      18.820  51.762  -3.632  1.00  0.00    +0.000 H 
ATOM     21  C19 UNL A   1      19.369  52.661  -3.824  1.00  0.00    +0.000 C 
ATOM    118  H20 UNL A   1      20.034  52.854  -3.009  1.00  0.00    +0.000 H 
ATOM    119  H21 UNL A   1      19.934  52.548  -4.726  1.00  0.00    +0.000 H 
ENDBRANCH   20   21
ENDBRANCH   22   20
ENDBRANCH   24   22
ENDBRANCH   25   24
ENDBRANCH   26   25
ENDBRANCH   27   26
ENDBRANCH   28   27
ENDBRANCH   29   28
ENDBRANCH   30   29
ENDBRANCH   31   30
ENDBRANCH   32   31
ENDBRANCH   34   32
ENDBRANCH   38   37
BRANCH   42   43
ATOM     43  C36 UNL A   1      16.584  48.711  -0.338  1.00  0.00    +0.000 C 
ATOM     44  C37 UNL A   1      17.868  48.148  -0.329  1.00  0.00    +0.000 C 
ATOM     45  F1  UNL A   1      18.679  48.332   0.723  1.00  0.00    +0.000 F 
ATOM     46  C38 UNL A   1      18.341  47.423  -1.422  1.00  0.00    +0.000 C 
ATOM     47  F2  UNL A   1      19.587  46.933  -1.409  1.00  0.00    +0.000 F 
ATOM     48  C39 UNL A   1      17.526  47.220  -2.526  1.00  0.00    +0.000 C 
ATOM     49  F3  UNL A   1      17.979  46.518  -3.573  1.00  0.00    +0.000 F 
ATOM     50  C40 UNL A   1      16.246  47.751  -2.547  1.00  0.00    +0.000 C 
ATOM     51  F4  UNL A   1      15.454  47.546  -3.609  1.00  0.00    +0.000 F 
ATOM     52  C41 UNL A   1      15.781  48.499  -1.469  1.00  0.00    +0.000 C 
ATOM     53  F5  UNL A   1      14.542  49.012  -1.525  1.00  0.00    +0.000 F 
ENDBRANCH   42   43
BRANCH   59   60
ATOM     65  C50 UNL A   1      10.527  45.629   6.317  1.00  0.00    +0.000 C 
ATOM     66  F8  UNL A   1       9.777  44.648   6.836  1.00  0.00    +0.000 F 
ATOM     67  C51 UNL A   1      10.040  46.396   5.269  1.00  0.00    +0.000 C 
ATOM     68  F9  UNL A   1       8.811  46.166   4.787  1.00  0.00    +0.000 F 
ATOM     69  C52 UNL A   1      10.826  47.402   4.715  1.00  0.00    +0.000 C 
ATOM     70  F10 UNL A   1      10.334  48.119   3.694  1.00  0.00    +0.000 F 
ATOM     60  C47 UNL A   1      12.109  47.673   5.217  1.00  0.00    +0.000 C 
ATOM     61  C48 UNL A   1      12.575  46.897   6.288  1.00  0.00    +0.000 C 
ATOM     62  F6  UNL A   1      13.801  47.109   6.791  1.00  0.00    +0.000 F 
ATOM     63  C49 UNL A   1      11.795  45.875   6.822  1.00  0.00    +0.000 C 
ATOM     64  F7  UNL A   1      12.278  45.119   7.817  1.00  0.00    +0.000 F 
ENDBRANCH   59   60
BRANCH   74   75
ATOM     75  C56 UNL A   1      13.061  54.294   7.146  1.00  0.00    +0.000 C 
ATOM     76  C57 UNL A   1      12.010  55.190   6.900  1.00  0.00    +0.000 C 
ATOM     77  F11 UNL A   1      11.514  55.315   5.660  1.00  0.00    +0.000 F 
ATOM     78  C58 UNL A   1      11.492  55.988   7.918  1.00  0.00    +0.000 C 
ATOM     79  F12 UNL A   1      10.516  56.865   7.648  1.00  0.00    +0.000 F 
ATOM     80  C59 UNL A   1      11.996  55.886   9.207  1.00  0.00    +0.000 C 
ATOM     81  F13 UNL A   1      11.496  56.650  10.186  1.00  0.00    +0.000 F 
ATOM     82  C60 UNL A   1      13.024  54.994   9.476  1.00  0.00    +0.000 C 
ATOM     83  F14 UNL A   1      13.505  54.884  10.721  1.00  0.00    +0.000 F 
ATOM     84  C61 UNL A   1      13.559  54.214   8.454  1.00  0.00    +0.000 C 
ATOM     85  F15 UNL A   1      14.560  53.368   8.740  1.00  0.00    +0.000 F 
ENDBRANCH   74   75
TORSDOF 22
ENDMDL
MODEL 7
REMARK VINA RESULT:      -7.7     43.791     47.195
ROOT
ATOM    136  H38 UNL A   1      19.076  33.869  47.649  1.00  0.00    +0.000 H 
ATOM    137  H39 UNL A   1      17.206  35.217  48.868  1.00  0.00    +0.000 H 
ATOM    138  H40 UNL A   1      20.452  37.722  48.297  1.00  0.00    +0.000 H 
ATOM    139  H41 UNL A   1      23.278  43.375  49.184  1.00  0.00    +0.000 H 
ATOM    140  H42 UNL A   1      25.087  42.068  47.971  1.00  0.00    +0.000 H 
ATOM    141  H43 UNL A   1      21.830  39.539  48.503  1.00  0.00    +0.000 H 
ATOM    142  H44 UNL A   1      18.289  42.301  50.764  1.00  0.00    +0.000 H 
ATOM    143  H45 UNL A   1      16.851  40.183  50.809  1.00  0.00    +0.000 H 
ATOM    144  H46 UNL A   1      23.955  35.138  45.809  1.00  0.00    +0.000 H 
ATOM    145  H47 UNL A   1      25.579  37.087  46.160  1.00  0.00    +0.000 H 
ATOM     38  C32 UNL A   1      24.382  39.371  47.371  1.00  0.00    +0.000 C 
ATOM     39  C33 UNL A   1      23.758  38.025  47.134  1.00  0.00    +0.000 C 
ATOM     40  N3  UNL A   1      22.551  37.607  47.426  1.00  0.00    +0.000 N 
ATOM     41  C34 UNL A   1      22.476  36.306  46.949  1.00  0.00    +0.000 C 
ATOM     42  C35 UNL A   1      21.450  35.426  47.051  1.00  0.00    +0.000 C 
ATOM     54  C42 UNL A   1      20.206  35.705  47.719  1.00  0.00    +0.000 C 
ATOM     55  C43 UNL A   1      19.132  34.860  47.933  1.00  0.00    +0.000 C 
ATOM     56  C44 UNL A   1      18.133  35.579  48.599  1.00  0.00    +0.000 C 
ATOM     57  C45 UNL A   1      18.603  36.861  48.836  1.00  0.00    +0.000 C 
ATOM     58  N4  UNL A   1      19.873  36.926  48.286  1.00  0.00    +0.000 N 
ATOM     59  C46 UNL A   1      17.942  37.947  49.513  1.00  0.00    +0.000 C 
ATOM     71  C53 UNL A   1      18.471  39.180  49.708  1.00  0.00    +0.000 C 
ATOM     72  N5  UNL A   1      19.714  39.665  49.326  1.00  0.00    +0.000 N 
ATOM     73  C54 UNL A   1      19.753  40.911  49.729  1.00  0.00    +0.000 C 
ATOM     74  C55 UNL A   1      20.867  41.914  49.609  1.00  0.00    +0.000 C 
ATOM     86  C62 UNL A   1      22.032  41.539  49.047  1.00  0.00    +0.000 C 
ATOM     87  C63 UNL A   1      23.202  42.395  48.872  1.00  0.00    +0.000 C 
ATOM     88  C64 UNL A   1      24.161  41.700  48.239  1.00  0.00    +0.000 C 
ATOM     89  C65 UNL A   1      23.682  40.340  47.991  1.00  0.00    +0.000 C 
ATOM     90  N6  UNL A   1      22.413  40.333  48.512  1.00  0.00    +0.000 N 
ATOM     91  C66 UNL A   1      18.522  41.366  50.392  1.00  0.00    +0.000 C 
ATOM     92  C67 UNL A   1      17.788  40.262  50.386  1.00  0.00    +0.000 C 
ATOM     93  C68 UNL A   1      23.741  36.015  46.310  1.00  0.00    +0.000 C 
ATOM     94  C69 UNL A   1      24.591  37.022  46.452  1.00  0.00    +0.000 C 
ENDROOT
BRANCH   38   37
ATOM     34  C28 UNL A   1      28.336  40.154  45.906  1.00  0.00    +0.000 C 
ATOM     35  C29 UNL A   1      27.232  40.711  45.251  1.00  0.00    +0.000 C 
ATOM     36  C30 UNL A   1      25.943  40.478  45.737  1.00  0.00    +0.000 C 
ATOM     37  C31 UNL A   1      25.746  39.663  46.862  1.00  0.00    +0.000 C 
ATOM    134  H36 UNL A   1      27.371  41.294  44.411  1.00  0.00    +0.000 H 
ATOM    135  H37 UNL A   1      25.132  40.908  45.267  1.00  0.00    +0.000 H 
ATOM    146  H48 UNL A   1      26.727  38.513  48.343  1.00  0.00    +0.000 H 
ATOM    147  H49 UNL A   1      28.967  39.060  47.599  1.00  0.00    +0.000 H 
ATOM     95  C70 UNL A   1      26.862  39.122  47.521  1.00  0.00    +0.000 C 
ATOM     96  C71 UNL A   1      28.150  39.405  47.071  1.00  0.00    +0.000 C 
BRANCH   34   32
ATOM     33  O3  UNL A   1      30.012  40.009  44.277  1.00  0.00    +0.000 O 
ATOM     32  C27 UNL A   1      29.692  40.430  45.377  1.00  0.00    +0.000 C 
BRANCH   32   31
ATOM    133  H35 UNL A   1      31.417  40.704  46.362  1.00  0.00    +0.000 H 
ATOM     31  N2  UNL A   1      30.587  41.170  46.116  1.00  0.00    +0.000 N 
BRANCH   31   30
ATOM    131  H33 UNL A   1      31.454  42.982  46.591  1.00  0.00    +0.000 H 
ATOM    132  H34 UNL A   1      29.822  43.067  45.924  1.00  0.00    +0.000 H 
ATOM     30  C26 UNL A   1      30.479  42.541  46.585  1.00  0.00    +0.000 C 
BRANCH   30   29
ATOM    129  H31 UNL A   1      29.261  43.481  48.044  1.00  0.00    +0.000 H 
ATOM    130  H32 UNL A   1      29.369  41.699  48.152  1.00  0.00    +0.000 H 
ATOM     29  C25 UNL A   1      29.893  42.619  47.994  1.00  0.00    +0.000 C 
BRANCH   29   28
ATOM     28  C24 UNL A   1      30.931  42.723  49.118  1.00  0.00    +0.000 C 
ATOM    127  H29 UNL A   1      31.897  42.797  48.667  1.00  0.00    +0.000 H 
ATOM    128  H30 UNL A   1      30.653  43.583  49.691  1.00  0.00    +0.000 H 
BRANCH   28   27
ATOM     27  C23 UNL A   1      30.960  41.552  50.107  1.00  0.00    +0.000 C 
ATOM    125  H27 UNL A   1      31.979  41.251  50.235  1.00  0.00    +0.000 H 
ATOM    126  H28 UNL A   1      30.505  41.910  51.007  1.00  0.00    +0.000 H 
BRANCH   27   26
ATOM     26  C22 UNL A   1      30.152  40.321  49.682  1.00  0.00    +0.000 C 
ATOM    123  H25 UNL A   1      29.122  40.503  49.908  1.00  0.00    +0.000 H 
ATOM    124  H26 UNL A   1      30.329  40.183  48.636  1.00  0.00    +0.000 H 
BRANCH   26   25
ATOM     25  C21 UNL A   1      30.575  39.023  50.377  1.00  0.00    +0.000 C 
ATOM    122  H24 UNL A   1      31.533  39.182  50.825  1.00  0.00    +0.000 H 
ATOM    121  H23 UNL A   1      30.617  38.240  49.650  1.00  0.00    +0.000 H 
BRANCH   25   24
ATOM    120  H22 UNL A   1      29.096  39.390  51.757  1.00  0.00    +0.000 H 
ATOM     24  N1  UNL A   1      29.646  38.646  51.419  1.00  0.00    +0.000 N 
BRANCH   24   22
ATOM     22  C20 UNL A   1      29.393  37.450  52.020  1.00  0.00    +0.000 C 
ATOM     23  O2  UNL A   1      30.245  37.067  52.831  1.00  0.00    +0.000 O 
BRANCH   22   20
ATOM    116  H18 UNL A   1      27.334  37.275  51.755  1.00  0.00    +0.000 H 
ATOM     20  C18 UNL A   1      28.151  36.586  51.739  1.00  0.00    +0.000 C 
BRANCH   20   19
ATOM      7  C6  UNL A   1      26.989  36.051  49.501  1.00  0.00    +0.000 C 
ATOM      8  C7  UNL A   1      27.074  35.586  48.170  1.00  0.00    +0.000 C 
ATOM      9  C8  UNL A   1      28.237  34.985  47.675  1.00  0.00    +0.000 C 
ATOM    104  H6  UNL A   1      26.258  35.692  47.548  1.00  0.00    +0.000 H 
ATOM     17  C15 UNL A   1      29.348  34.895  48.507  1.00  0.00    +0.000 C 
ATOM     18  C16 UNL A   1      29.290  35.381  49.812  1.00  0.00    +0.000 C 
ATOM     19  C17 UNL A   1      28.139  35.999  50.327  1.00  0.00    +0.000 C 
ATOM    115  H17 UNL A   1      30.119  35.284  50.418  1.00  0.00    +0.000 H 
ATOM    114  H16 UNL A   1      30.218  34.467  48.157  1.00  0.00    +0.000 H 
BRANCH    7    6
ATOM     97  C72 UNL A   1      24.610  35.418  50.078  1.00  0.00    +0.000 C 
ATOM     98  C73 UNL A   1      23.343  35.795  50.550  1.00  0.00    +0.000 C 
ATOM      3  C2  UNL A   1      23.089  37.101  50.995  1.00  0.00    +0.000 C 
ATOM      4  C3  UNL A   1      24.132  38.026  50.959  1.00  0.00    +0.000 C 
ATOM      5  C4  UNL A   1      25.390  37.655  50.480  1.00  0.00    +0.000 C 
ATOM    102  H4  UNL A   1      23.974  38.991  51.289  1.00  0.00    +0.000 H 
ATOM      6  C5  UNL A   1      25.649  36.350  50.030  1.00  0.00    +0.000 C 
ATOM    103  H5  UNL A   1      26.146  38.355  50.457  1.00  0.00    +0.000 H 
ATOM    148  H50 UNL A   1      24.775  34.448  49.767  1.00  0.00    +0.000 H 
ATOM    149  H51 UNL A   1      22.583  35.097  50.568  1.00  0.00    +0.000 H 
BRANCH    3    2
ATOM      2  S1  UNL A   1      21.432  37.482  51.551  1.00  0.00    +0.000 S 
BRANCH    2    1
ATOM      1  C1  UNL A   1      21.623  39.099  52.354  1.00  0.00    +0.000 C 
ATOM     99  H1  UNL A   1      22.212  39.739  51.731  1.00  0.00    +0.000 H 
ATOM    100  H2  UNL A   1      22.110  38.974  53.298  1.00  0.00    +0.000 H 
ATOM    101  H3  UNL A   1      20.658  39.538  52.505  1.00  0.00    +0.000 H 
ENDBRANCH    2    1
ENDBRANCH    3    2
ENDBRANCH    7    6
BRANCH    9   10
ATOM    105  H7  UNL A   1      27.296  34.466  45.868  1.00  0.00    +0.000 H 
ATOM     10  C9  UNL A   1      28.253  34.317  46.322  1.00  0.00    +0.000 C 
ATOM    106  H8  UNL A   1      28.484  33.288  46.500  1.00  0.00    +0.000 H 
BRANCH   10   11
ATOM     11  C10 UNL A   1      29.326  34.835  45.353  1.00  0.00    +0.000 C 
ATOM    108  H10 UNL A   1      29.970  32.829  44.905  1.00  0.00    +0.000 H 
ATOM     12  C11 UNL A   1      30.032  33.802  44.463  1.00  0.00    +0.000 C 
ATOM    107  H9  UNL A   1      30.016  35.263  46.049  1.00  0.00    +0.000 H 
ATOM     15  C14 UNL A   1      28.745  35.780  44.324  1.00  0.00    +0.000 C 
ATOM    109  H11 UNL A   1      31.070  34.034  44.345  1.00  0.00    +0.000 H 
ATOM     13  C12 UNL A   1      29.302  33.822  43.125  1.00  0.00    +0.000 C 
ATOM     14  C13 UNL A   1      28.905  35.276  42.915  1.00  0.00    +0.000 C 
ATOM     16  O1  UNL A   1      28.224  36.854  44.604  1.00  0.00    +0.000 O 
ATOM    110  H12 UNL A   1      28.434  33.197  43.160  1.00  0.00    +0.000 H 
ATOM    111  H13 UNL A   1      29.913  33.453  42.328  1.00  0.00    +0.000 H 
ATOM    112  H14 UNL A   1      27.986  35.351  42.371  1.00  0.00    +0.000 H 
ATOM    113  H15 UNL A   1      29.617  35.833  42.342  1.00  0.00    +0.000 H 
ENDBRANCH   10   11
ENDBRANCH    9   10
ENDBRANCH   20   19
BRANCH   20   21
ATOM    117  H19 UNL A   1      27.150  36.129  53.573  1.00  0.00    +0.000 H 
ATOM     21  C19 UNL A   1      27.757  35.617  52.854  1.00  0.00    +0.000 C 
ATOM    118  H20 UNL A   1      28.638  35.244  53.332  1.00  0.00    +0.000 H 
ATOM    119  H21 UNL A   1      27.205  34.801  52.437  1.00  0.00    +0.000 H 
ENDBRANCH   20   21
ENDBRANCH   22   20
ENDBRANCH   24   22
ENDBRANCH   25   24
ENDBRANCH   26   25
ENDBRANCH   27   26
ENDBRANCH   28   27
ENDBRANCH   29   28
ENDBRANCH   30   29
ENDBRANCH   31   30
ENDBRANCH   32   31
ENDBRANCH   34   32
ENDBRANCH   38   37
BRANCH   42   43
ATOM     43  C36 UNL A   1      21.632  34.073  46.429  1.00  0.00    +0.000 C 
ATOM     44  C37 UNL A   1      22.253  33.024  47.124  1.00  0.00    +0.000 C 
ATOM     45  F1  UNL A   1      22.746  33.227  48.354  1.00  0.00    +0.000 F 
ATOM     46  C38 UNL A   1      22.403  31.768  46.539  1.00  0.00    +0.000 C 
ATOM     47  F2  UNL A   1      23.039  30.794  47.204  1.00  0.00    +0.000 F 
ATOM     48  C39 UNL A   1      21.906  31.529  45.267  1.00  0.00    +0.000 C 
ATOM     49  F3  UNL A   1      22.047  30.319  44.709  1.00  0.00    +0.000 F 
ATOM     50  C40 UNL A   1      21.272  32.546  44.571  1.00  0.00    +0.000 C 
ATOM     51  F4  UNL A   1      20.782  32.313  43.345  1.00  0.00    +0.000 F 
ATOM     52  C41 UNL A   1      21.145  33.810  45.140  1.00  0.00    +0.000 C 
ATOM     53  F5  UNL A   1      20.538  34.778  44.436  1.00  0.00    +0.000 F 
ENDBRANCH   42   43
BRANCH   59   60
ATOM     65  C50 UNL A   1      13.986  37.281  51.082  1.00  0.00    +0.000 C 
ATOM     66  F8  UNL A   1      12.753  37.074  51.566  1.00  0.00    +0.000 F 
ATOM     67  C51 UNL A   1      14.178  37.446  49.718  1.00  0.00    +0.000 C 
ATOM     68  F9  UNL A   1      13.129  37.415  48.886  1.00  0.00    +0.000 F 
ATOM     69  C52 UNL A   1      15.460  37.640  49.212  1.00  0.00    +0.000 C 
ATOM     70  F10 UNL A   1      15.617  37.784  47.888  1.00  0.00    +0.000 F 
ATOM     60  C47 UNL A   1      16.572  37.695  50.067  1.00  0.00    +0.000 C 
ATOM     61  C48 UNL A   1      16.353  37.544  51.444  1.00  0.00    +0.000 C 
ATOM     62  F6  UNL A   1      17.387  37.573  52.299  1.00  0.00    +0.000 F 
ATOM     63  C49 UNL A   1      15.072  37.324  51.943  1.00  0.00    +0.000 C 
ATOM     64  F7  UNL A   1      14.891  37.140  53.258  1.00  0.00    +0.000 F 
ENDBRANCH   59   60
BRANCH   74   75
ATOM     75  C56 UNL A   1      20.708  43.295  50.129  1.00  0.00    +0.000 C 
ATOM     76  C57 UNL A   1      21.014  43.598  51.464  1.00  0.00    +0.000 C 
ATOM     77  F11 UNL A   1      21.433  42.629  52.290  1.00  0.00    +0.000 F 
ATOM     78  C58 UNL A   1      20.853  44.889  51.963  1.00  0.00    +0.000 C 
ATOM     79  F12 UNL A   1      21.113  45.143  53.252  1.00  0.00    +0.000 F 
ATOM     80  C59 UNL A   1      20.409  45.906  51.131  1.00  0.00    +0.000 C 
ATOM     81  F13 UNL A   1      20.259  47.148  51.610  1.00  0.00    +0.000 F 
ATOM     82  C60 UNL A   1      20.117  45.633  49.803  1.00  0.00    +0.000 C 
ATOM     83  F14 UNL A   1      19.701  46.615  48.993  1.00  0.00    +0.000 F 
ATOM     84  C61 UNL A   1      20.254  44.337  49.309  1.00  0.00    +0.000 C 
ATOM     85  F15 UNL A   1      19.955  44.099  48.024  1.00  0.00    +0.000 F 
ENDBRANCH   74   75
TORSDOF 22
ENDMDL
MODEL 8
REMARK VINA RESULT:      -7.7     42.864     46.468
ROOT
ATOM    136  H38 UNL A   1      32.877  37.742  44.295  1.00  0.00    +0.000 H 
ATOM    137  H39 UNL A   1      33.120  39.888  45.756  1.00  0.00    +0.000 H 
ATOM    138  H40 UNL A   1      29.259  38.455  46.181  1.00  0.00    +0.000 H 
ATOM    139  H41 UNL A   1      23.371  39.095  48.558  1.00  0.00    +0.000 H 
ATOM    140  H42 UNL A   1      23.146  36.988  47.157  1.00  0.00    +0.000 H 
ATOM    141  H43 UNL A   1      27.038  38.387  46.735  1.00  0.00    +0.000 H 
ATOM    142  H44 UNL A   1      27.375  42.449  49.678  1.00  0.00    +0.000 H 
ATOM    143  H45 UNL A   1      29.775  42.707  48.826  1.00  0.00    +0.000 H 
ATOM    144  H46 UNL A   1      28.889  34.244  43.486  1.00  0.00    +0.000 H 
ATOM    145  H47 UNL A   1      26.370  34.221  43.950  1.00  0.00    +0.000 H 
ATOM     38  C32 UNL A   1      25.521  36.248  45.764  1.00  0.00    +0.000 C 
ATOM     39  C33 UNL A   1      26.893  36.051  45.183  1.00  0.00    +0.000 C 
ATOM     40  N3  UNL A   1      27.982  36.753  45.375  1.00  0.00    +0.000 N 
ATOM     41  C34 UNL A   1      28.976  36.115  44.644  1.00  0.00    +0.000 C 
ATOM     42  C35 UNL A   1      30.269  36.482  44.477  1.00  0.00    +0.000 C 
ATOM     54  C42 UNL A   1      30.857  37.665  45.048  1.00  0.00    +0.000 C 
ATOM     55  C43 UNL A   1      32.140  38.158  44.885  1.00  0.00    +0.000 C 
ATOM     56  C44 UNL A   1      32.267  39.317  45.659  1.00  0.00    +0.000 C 
ATOM     57  C45 UNL A   1      31.049  39.568  46.271  1.00  0.00    +0.000 C 
ATOM     58  N4  UNL A   1      30.196  38.545  45.893  1.00  0.00    +0.000 N 
ATOM     59  C46 UNL A   1      30.690  40.661  47.138  1.00  0.00    +0.000 C 
ATOM     71  C53 UNL A   1      29.471  40.839  47.701  1.00  0.00    +0.000 C 
ATOM     72  N5  UNL A   1      28.331  40.057  47.580  1.00  0.00    +0.000 N 
ATOM     73  C54 UNL A   1      27.417  40.634  48.319  1.00  0.00    +0.000 C 
ATOM     74  C55 UNL A   1      25.984  40.237  48.540  1.00  0.00    +0.000 C 
ATOM     86  C62 UNL A   1      25.491  39.163  47.894  1.00  0.00    +0.000 C 
ATOM     87  C63 UNL A   1      24.123  38.664  47.998  1.00  0.00    +0.000 C 
ATOM     88  C64 UNL A   1      24.002  37.557  47.250  1.00  0.00    +0.000 C 
ATOM     89  C65 UNL A   1      25.279  37.284  46.589  1.00  0.00    +0.000 C 
ATOM     90  N6  UNL A   1      26.101  38.294  47.021  1.00  0.00    +0.000 N 
ATOM     91  C66 UNL A   1      27.884  41.841  49.017  1.00  0.00    +0.000 C 
ATOM     92  C67 UNL A   1      29.130  41.942  48.577  1.00  0.00    +0.000 C 
ATOM     93  C68 UNL A   1      28.373  34.946  44.040  1.00  0.00    +0.000 C 
ATOM     94  C69 UNL A   1      27.073  34.895  44.291  1.00  0.00    +0.000 C 
ENDROOT
BRANCH   38   37
ATOM     34  C28 UNL A   1      22.423  33.409  44.908  1.00  0.00    +0.000 C 
ATOM     35  C29 UNL A   1      23.371  33.121  45.895  1.00  0.00    +0.000 C 
ATOM     36  C30 UNL A   1      24.369  34.052  46.194  1.00  0.00    +0.000 C 
ATOM     37  C31 UNL A   1      24.444  35.263  45.488  1.00  0.00    +0.000 C 
ATOM    134  H36 UNL A   1      23.333  32.223  46.402  1.00  0.00    +0.000 H 
ATOM    135  H37 UNL A   1      25.054  33.848  46.938  1.00  0.00    +0.000 H 
ATOM    146  H48 UNL A   1      23.531  36.430  43.979  1.00  0.00    +0.000 H 
ATOM    147  H49 UNL A   1      21.703  34.889  43.585  1.00  0.00    +0.000 H 
ATOM     95  C70 UNL A   1      23.478  35.548  44.511  1.00  0.00    +0.000 C 
ATOM     96  C71 UNL A   1      22.447  34.645  44.256  1.00  0.00    +0.000 C 
BRANCH   34   32
ATOM     33  O3  UNL A   1      21.188  32.025  43.478  1.00  0.00    +0.000 O 
ATOM     32  C27 UNL A   1      21.366  32.409  44.622  1.00  0.00    +0.000 C 
BRANCH   32   31
ATOM    133  H35 UNL A   1      21.031  31.221  46.202  1.00  0.00    +0.000 H 
ATOM     31  N2  UNL A   1      20.596  31.905  45.644  1.00  0.00    +0.000 N 
BRANCH   31   30
ATOM    131  H33 UNL A   1      19.034  31.845  46.993  1.00  0.00    +0.000 H 
ATOM    132  H34 UNL A   1      19.134  33.303  46.003  1.00  0.00    +0.000 H 
ATOM     30  C26 UNL A   1      19.231  32.237  46.017  1.00  0.00    +0.000 C 
BRANCH   30   29
ATOM    129  H31 UNL A   1      18.698  30.889  44.470  1.00  0.00    +0.000 H 
ATOM    130  H32 UNL A   1      17.399  31.296  45.629  1.00  0.00    +0.000 H 
ATOM     29  C25 UNL A   1      18.213  31.657  45.036  1.00  0.00    +0.000 C 
BRANCH   29   28
ATOM     28  C24 UNL A   1      17.617  32.670  44.053  1.00  0.00    +0.000 C 
ATOM    127  H29 UNL A   1      18.058  32.498  43.094  1.00  0.00    +0.000 H 
ATOM    128  H30 UNL A   1      16.558  32.512  44.078  1.00  0.00    +0.000 H 
BRANCH   28   27
ATOM     27  C23 UNL A   1      17.827  34.147  44.410  1.00  0.00    +0.000 C 
ATOM    125  H27 UNL A   1      18.204  34.197  45.410  1.00  0.00    +0.000 H 
ATOM    126  H28 UNL A   1      18.505  34.537  43.679  1.00  0.00    +0.000 H 
BRANCH   27   26
ATOM     26  C22 UNL A   1      16.571  35.020  44.332  1.00  0.00    +0.000 C 
ATOM    123  H25 UNL A   1      16.772  35.840  43.676  1.00  0.00    +0.000 H 
ATOM    124  H26 UNL A   1      15.781  34.392  43.978  1.00  0.00    +0.000 H 
BRANCH   26   25
ATOM     25  C21 UNL A   1      16.115  35.584  45.682  1.00  0.00    +0.000 C 
ATOM    122  H24 UNL A   1      16.188  34.804  46.410  1.00  0.00    +0.000 H 
ATOM    121  H23 UNL A   1      15.107  35.930  45.589  1.00  0.00    +0.000 H 
BRANCH   25   24
ATOM    120  H22 UNL A   1      16.809  37.518  45.607  1.00  0.00    +0.000 H 
ATOM     24  N1  UNL A   1      16.950  36.684  46.112  1.00  0.00    +0.000 N 
BRANCH   24   22
ATOM     22  C20 UNL A   1      17.896  36.777  47.087  1.00  0.00    +0.000 C 
ATOM     23  O2  UNL A   1      17.521  36.481  48.229  1.00  0.00    +0.000 O 
BRANCH   22   20
ATOM    116  H18 UNL A   1      19.326  38.287  46.964  1.00  0.00    +0.000 H 
ATOM     20  C18 UNL A   1      19.348  37.225  46.845  1.00  0.00    +0.000 C 
BRANCH   20   19
ATOM      7  C6  UNL A   1      20.497  37.427  49.144  1.00  0.00    +0.000 C 
ATOM      8  C7  UNL A   1      21.323  36.864  50.141  1.00  0.00    +0.000 C 
ATOM      9  C8  UNL A   1      22.042  35.684  49.921  1.00  0.00    +0.000 C 
ATOM    104  H6  UNL A   1      21.397  37.335  51.057  1.00  0.00    +0.000 H 
ATOM     17  C15 UNL A   1      21.892  35.030  48.702  1.00  0.00    +0.000 C 
ATOM     18  C16 UNL A   1      21.055  35.556  47.720  1.00  0.00    +0.000 C 
ATOM     19  C17 UNL A   1      20.313  36.731  47.924  1.00  0.00    +0.000 C 
ATOM    115  H17 UNL A   1      20.976  35.066  46.816  1.00  0.00    +0.000 H 
ATOM    114  H16 UNL A   1      22.404  34.153  48.524  1.00  0.00    +0.000 H 
BRANCH    7    6
ATOM     97  C72 UNL A   1      20.779  39.926  48.883  1.00  0.00    +0.000 C 
ATOM     98  C73 UNL A   1      20.319  41.225  49.149  1.00  0.00    +0.000 C 
ATOM      3  C2  UNL A   1      19.126  41.447  49.855  1.00  0.00    +0.000 C 
ATOM      4  C3  UNL A   1      18.401  40.339  50.291  1.00  0.00    +0.000 C 
ATOM      5  C4  UNL A   1      18.864  39.047  50.037  1.00  0.00    +0.000 C 
ATOM    102  H4  UNL A   1      17.517  40.475  50.807  1.00  0.00    +0.000 H 
ATOM      6  C5  UNL A   1      20.058  38.819  49.334  1.00  0.00    +0.000 C 
ATOM    103  H5  UNL A   1      18.315  38.241  50.374  1.00  0.00    +0.000 H 
ATOM    148  H50 UNL A   1      21.652  39.789  48.351  1.00  0.00    +0.000 H 
ATOM    149  H51 UNL A   1      20.869  42.034  48.819  1.00  0.00    +0.000 H 
BRANCH    3    2
ATOM      2  S1  UNL A   1      18.646  43.143  50.163  1.00  0.00    +0.000 S 
BRANCH    2    1
ATOM      1  C1  UNL A   1      17.408  42.993  51.482  1.00  0.00    +0.000 C 
ATOM     99  H1  UNL A   1      16.523  42.537  51.090  1.00  0.00    +0.000 H 
ATOM    100  H2  UNL A   1      17.170  43.964  51.861  1.00  0.00    +0.000 H 
ATOM    101  H3  UNL A   1      17.800  42.387  52.273  1.00  0.00    +0.000 H 
ENDBRANCH    2    1
ENDBRANCH    3    2
ENDBRANCH    7    6
BRANCH    9   10
ATOM    105  H7  UNL A   1      24.001  35.666  50.682  1.00  0.00    +0.000 H 
ATOM     10  C9  UNL A   1      23.067  35.199  50.915  1.00  0.00    +0.000 C 
ATOM    106  H8  UNL A   1      23.090  34.133  50.824  1.00  0.00    +0.000 H 
BRANCH   10   11
ATOM     11  C10 UNL A   1      22.740  35.497  52.385  1.00  0.00    +0.000 C 
ATOM    108  H10 UNL A   1      22.302  33.422  52.766  1.00  0.00    +0.000 H 
ATOM     12  C11 UNL A   1      22.563  34.296  53.326  1.00  0.00    +0.000 C 
ATOM    107  H9  UNL A   1      21.814  36.020  52.270  1.00  0.00    +0.000 H 
ATOM     15  C14 UNL A   1      23.855  36.258  53.067  1.00  0.00    +0.000 C 
ATOM    109  H11 UNL A   1      21.778  34.467  54.034  1.00  0.00    +0.000 H 
ATOM     13  C12 UNL A   1      23.905  34.098  54.022  1.00  0.00    +0.000 C 
ATOM     14  C13 UNL A   1      24.456  35.502  54.221  1.00  0.00    +0.000 C 
ATOM     16  O1  UNL A   1      24.214  37.381  52.734  1.00  0.00    +0.000 O 
ATOM    110  H12 UNL A   1      24.564  33.519  53.409  1.00  0.00    +0.000 H 
ATOM    111  H13 UNL A   1      23.804  33.570  54.947  1.00  0.00    +0.000 H 
ATOM    112  H14 UNL A   1      25.525  35.508  54.173  1.00  0.00    +0.000 H 
ATOM    113  H15 UNL A   1      24.216  35.921  55.176  1.00  0.00    +0.000 H 
ENDBRANCH   10   11
ENDBRANCH    9   10
ENDBRANCH   20   19
BRANCH   20   21
ATOM    117  H19 UNL A   1      19.512  36.158  44.998  1.00  0.00    +0.000 H 
ATOM     21  C19 UNL A   1      19.849  37.088  45.406  1.00  0.00    +0.000 C 
ATOM    118  H20 UNL A   1      20.918  37.117  45.397  1.00  0.00    +0.000 H 
ATOM    119  H21 UNL A   1      19.466  37.896  44.818  1.00  0.00    +0.000 H 
ENDBRANCH   20   21
ENDBRANCH   22   20
ENDBRANCH   24   22
ENDBRANCH   25   24
ENDBRANCH   26   25
ENDBRANCH   27   26
ENDBRANCH   28   27
ENDBRANCH   29   28
ENDBRANCH   30   29
ENDBRANCH   31   30
ENDBRANCH   32   31
ENDBRANCH   34   32
ENDBRANCH   38   37
BRANCH   42   43
ATOM     43  C36 UNL A   1      31.139  35.595  43.635  1.00  0.00    +0.000 C 
ATOM     44  C37 UNL A   1      31.867  34.535  44.195  1.00  0.00    +0.000 C 
ATOM     45  F1  UNL A   1      31.838  34.322  45.518  1.00  0.00    +0.000 F 
ATOM     46  C38 UNL A   1      32.660  33.711  43.399  1.00  0.00    +0.000 C 
ATOM     47  F2  UNL A   1      33.382  32.733  43.962  1.00  0.00    +0.000 F 
ATOM     48  C39 UNL A   1      32.713  33.911  42.027  1.00  0.00    +0.000 C 
ATOM     49  F3  UNL A   1      33.471  33.114  41.263  1.00  0.00    +0.000 F 
ATOM     50  C40 UNL A   1      31.985  34.941  41.451  1.00  0.00    +0.000 C 
ATOM     51  F4  UNL A   1      32.027  35.127  40.124  1.00  0.00    +0.000 F 
ATOM     52  C41 UNL A   1      31.214  35.783  42.246  1.00  0.00    +0.000 C 
ATOM     53  F5  UNL A   1      30.532  36.779  41.661  1.00  0.00    +0.000 F 
ENDBRANCH   42   43
BRANCH   59   60
ATOM     65  C50 UNL A   1      33.718  43.628  47.908  1.00  0.00    +0.000 C 
ATOM     66  F8  UNL A   1      34.657  44.553  48.144  1.00  0.00    +0.000 F 
ATOM     67  C51 UNL A   1      32.744  43.856  46.946  1.00  0.00    +0.000 C 
ATOM     68  F9  UNL A   1      32.755  44.995  46.242  1.00  0.00    +0.000 F 
ATOM     69  C52 UNL A   1      31.755  42.904  46.715  1.00  0.00    +0.000 C 
ATOM     70  F10 UNL A   1      30.819  43.158  45.788  1.00  0.00    +0.000 F 
ATOM     60  C47 UNL A   1      31.736  41.696  47.428  1.00  0.00    +0.000 C 
ATOM     61  C48 UNL A   1      32.740  41.478  48.383  1.00  0.00    +0.000 C 
ATOM     62  F6  UNL A   1      32.754  40.344  49.100  1.00  0.00    +0.000 F 
ATOM     63  C49 UNL A   1      33.712  42.443  48.629  1.00  0.00    +0.000 C 
ATOM     64  F7  UNL A   1      34.637  42.232  49.577  1.00  0.00    +0.000 F 
ENDBRANCH   59   60
BRANCH   74   75
ATOM     75  C56 UNL A   1      25.102  41.030  49.433  1.00  0.00    +0.000 C 
ATOM     76  C57 UNL A   1      25.040  40.755  50.807  1.00  0.00    +0.000 C 
ATOM     77  F11 UNL A   1      25.766  39.751  51.321  1.00  0.00    +0.000 F 
ATOM     78  C58 UNL A   1      24.204  41.485  51.649  1.00  0.00    +0.000 C 
ATOM     79  F12 UNL A   1      24.133  41.176  52.950  1.00  0.00    +0.000 F 
ATOM     80  C59 UNL A   1      23.435  42.521  51.139  1.00  0.00    +0.000 C 
ATOM     81  F13 UNL A   1      22.635  43.225  51.949  1.00  0.00    +0.000 F 
ATOM     82  C60 UNL A   1      23.494  42.821  49.786  1.00  0.00    +0.000 C 
ATOM     83  F14 UNL A   1      22.762  43.828  49.292  1.00  0.00    +0.000 F 
ATOM     84  C61 UNL A   1      24.310  42.075  48.939  1.00  0.00    +0.000 C 
ATOM     85  F15 UNL A   1      24.340  42.380  47.633  1.00  0.00    +0.000 F 
ENDBRANCH   74   75
TORSDOF 22
ENDMDL
MODEL 9
REMARK VINA RESULT:      -7.6     43.711     46.906
ROOT
ATOM    136  H38 UNL A   1      18.993  33.665  47.599  1.00  0.00    +0.000 H 
ATOM    137  H39 UNL A   1      17.368  35.258  48.874  1.00  0.00    +0.000 H 
ATOM    138  H40 UNL A   1      20.820  37.363  47.982  1.00  0.00    +0.000 H 
ATOM    139  H41 UNL A   1      24.296  42.697  48.428  1.00  0.00    +0.000 H 
ATOM    140  H42 UNL A   1      25.864  41.152  47.160  1.00  0.00    +0.000 H 
ATOM    141  H43 UNL A   1      22.397  39.022  48.016  1.00  0.00    +0.000 H 
ATOM    142  H44 UNL A   1      19.341  42.244  50.373  1.00  0.00    +0.000 H 
ATOM    143  H45 UNL A   1      17.689  40.303  50.607  1.00  0.00    +0.000 H 
ATOM    144  H46 UNL A   1      23.841  34.313  45.392  1.00  0.00    +0.000 H 
ATOM    145  H47 UNL A   1      25.687  36.082  45.549  1.00  0.00    +0.000 H 
ATOM     38  C32 UNL A   1      24.831  38.529  46.730  1.00  0.00    +0.000 C 
ATOM     39  C33 UNL A   1      24.050  37.252  46.595  1.00  0.00    +0.000 C 
ATOM     40  N3  UNL A   1      22.829  36.983  46.982  1.00  0.00    +0.000 N 
ATOM     41  C34 UNL A   1      22.580  35.681  46.570  1.00  0.00    +0.000 C 
ATOM     42  C35 UNL A   1      21.474  34.925  46.779  1.00  0.00    +0.000 C 
ATOM     54  C42 UNL A   1      20.317  35.366  47.513  1.00  0.00    +0.000 C 
ATOM     55  C43 UNL A   1      19.175  34.654  47.833  1.00  0.00    +0.000 C 
ATOM     56  C44 UNL A   1      18.308  35.504  48.529  1.00  0.00    +0.000 C 
ATOM     57  C45 UNL A   1      18.929  36.734  48.677  1.00  0.00    +0.000 C 
ATOM     58  N4  UNL A   1      20.158  36.637  48.044  1.00  0.00    +0.000 N 
ATOM     59  C46 UNL A   1      18.439  37.912  49.346  1.00  0.00    +0.000 C 
ATOM     71  C53 UNL A   1      19.110  39.084  49.450  1.00  0.00    +0.000 C 
ATOM     72  N5  UNL A   1      20.369  39.414  48.967  1.00  0.00    +0.000 N 
ATOM     73  C54 UNL A   1      20.570  40.662  49.310  1.00  0.00    +0.000 C 
ATOM     74  C55 UNL A   1      21.776  41.529  49.073  1.00  0.00    +0.000 C 
ATOM     86  C62 UNL A   1      22.851  41.007  48.454  1.00  0.00    +0.000 C 
ATOM     87  C63 UNL A   1      24.092  41.720  48.165  1.00  0.00    +0.000 C 
ATOM     88  C64 UNL A   1      24.925  40.900  47.504  1.00  0.00    +0.000 C 
ATOM     89  C65 UNL A   1      24.285  39.593  47.349  1.00  0.00    +0.000 C 
ATOM     90  N6  UNL A   1      23.062  39.746  47.951  1.00  0.00    +0.000 N 
ATOM     91  C66 UNL A   1      19.445  41.276  50.029  1.00  0.00    +0.000 C 
ATOM     92  C67 UNL A   1      18.597  40.261  50.120  1.00  0.00    +0.000 C 
ATOM     93  C68 UNL A   1      23.759  35.227  45.865  1.00  0.00    +0.000 C 
ATOM     94  C69 UNL A   1      24.721  36.138  45.906  1.00  0.00    +0.000 C 
ENDROOT
BRANCH   38   37
ATOM     34  C28 UNL A   1      28.742  38.917  45.012  1.00  0.00    +0.000 C 
ATOM     35  C29 UNL A   1      28.258  37.650  45.353  1.00  0.00    +0.000 C 
ATOM     36  C30 UNL A   1      26.976  37.515  45.893  1.00  0.00    +0.000 C 
ATOM     37  C31 UNL A   1      26.181  38.648  46.122  1.00  0.00    +0.000 C 
ATOM    134  H36 UNL A   1      28.848  36.816  45.207  1.00  0.00    +0.000 H 
ATOM    135  H37 UNL A   1      26.613  36.577  46.123  1.00  0.00    +0.000 H 
ATOM    146  H48 UNL A   1      26.096  40.753  45.934  1.00  0.00    +0.000 H 
ATOM    147  H49 UNL A   1      28.249  40.964  44.842  1.00  0.00    +0.000 H 
ATOM     95  C70 UNL A   1      26.669  39.913  45.760  1.00  0.00    +0.000 C 
ATOM     96  C71 UNL A   1      27.924  40.040  45.166  1.00  0.00    +0.000 C 
BRANCH   34   32
ATOM     33  O3  UNL A   1      30.897  39.826  44.895  1.00  0.00    +0.000 O 
ATOM     32  C27 UNL A   1      30.099  39.029  44.428  1.00  0.00    +0.000 C 
BRANCH   32   31
ATOM    133  H35 UNL A   1      30.407  38.650  42.483  1.00  0.00    +0.000 H 
ATOM     31  N2  UNL A   1      30.466  38.229  43.371  1.00  0.00    +0.000 N 
BRANCH   31   30
ATOM    131  H33 UNL A   1      31.937  36.823  43.022  1.00  0.00    +0.000 H 
ATOM    132  H34 UNL A   1      30.863  36.485  44.381  1.00  0.00    +0.000 H 
ATOM     30  C26 UNL A   1      30.928  36.851  43.378  1.00  0.00    +0.000 C 
BRANCH   30   29
ATOM    129  H31 UNL A   1      29.274  36.550  42.086  1.00  0.00    +0.000 H 
ATOM    130  H32 UNL A   1      30.719  35.556  41.743  1.00  0.00    +0.000 H 
ATOM     29  C25 UNL A   1      30.066  35.955  42.490  1.00  0.00    +0.000 C 
BRANCH   29   28
ATOM     28  C24 UNL A   1      29.441  34.751  43.205  1.00  0.00    +0.000 C 
ATOM    127  H29 UNL A   1      28.604  35.103  43.770  1.00  0.00    +0.000 H 
ATOM    128  H30 UNL A   1      29.181  34.056  42.433  1.00  0.00    +0.000 H 
BRANCH   28   27
ATOM     27  C23 UNL A   1      30.368  33.989  44.160  1.00  0.00    +0.000 C 
ATOM    125  H27 UNL A   1      30.579  33.034  43.725  1.00  0.00    +0.000 H 
ATOM    126  H28 UNL A   1      31.236  34.602  44.284  1.00  0.00    +0.000 H 
BRANCH   27   26
ATOM     26  C22 UNL A   1      29.805  33.756  45.565  1.00  0.00    +0.000 C 
ATOM    123  H25 UNL A   1      28.745  33.895  45.528  1.00  0.00    +0.000 H 
ATOM    124  H26 UNL A   1      30.082  32.762  45.847  1.00  0.00    +0.000 H 
BRANCH   26   25
ATOM     25  C21 UNL A   1      30.377  34.694  46.633  1.00  0.00    +0.000 C 
ATOM    122  H24 UNL A   1      30.414  35.681  46.223  1.00  0.00    +0.000 H 
ATOM    121  H23 UNL A   1      31.354  34.354  46.905  1.00  0.00    +0.000 H 
BRANCH   25   24
ATOM    120  H22 UNL A   1      28.579  34.723  47.630  1.00  0.00    +0.000 H 
ATOM     24  N1  UNL A   1      29.546  34.728  47.816  1.00  0.00    +0.000 N 
BRANCH   24   22
ATOM     22  C20 UNL A   1      29.856  34.767  49.141  1.00  0.00    +0.000 C 
ATOM     23  O2  UNL A   1      30.527  33.816  49.563  1.00  0.00    +0.000 O 
BRANCH   22   20
ATOM    116  H18 UNL A   1      29.786  36.787  49.648  1.00  0.00    +0.000 H 
ATOM     20  C18 UNL A   1      29.421  35.889  50.100  1.00  0.00    +0.000 C 
BRANCH   20   19
ATOM      7  C6  UNL A   1      27.263  37.218  49.627  1.00  0.00    +0.000 C 
ATOM      8  C7  UNL A   1      25.852  37.277  49.616  1.00  0.00    +0.000 C 
ATOM      9  C8  UNL A   1      25.070  36.277  50.204  1.00  0.00    +0.000 C 
ATOM    104  H6  UNL A   1      25.386  38.079  49.163  1.00  0.00    +0.000 H 
ATOM     17  C15 UNL A   1      25.708  35.175  50.764  1.00  0.00    +0.000 C 
ATOM     18  C16 UNL A   1      27.099  35.086  50.752  1.00  0.00    +0.000 C 
ATOM     19  C17 UNL A   1      27.904  36.071  50.157  1.00  0.00    +0.000 C 
ATOM    115  H17 UNL A   1      27.551  34.270  51.193  1.00  0.00    +0.000 H 
ATOM    114  H16 UNL A   1      25.150  34.420  51.192  1.00  0.00    +0.000 H 
BRANCH    7    6
ATOM     97  C72 UNL A   1      29.249  38.466  48.684  1.00  0.00    +0.000 C 
ATOM     98  C73 UNL A   1      29.908  39.683  48.450  1.00  0.00    +0.000 C 
ATOM      3  C2  UNL A   1      29.327  40.909  48.811  1.00  0.00    +0.000 C 
ATOM      4  C3  UNL A   1      28.069  40.892  49.412  1.00  0.00    +0.000 C 
ATOM      5  C4  UNL A   1      27.418  39.681  49.655  1.00  0.00    +0.000 C 
ATOM    102  H4  UNL A   1      27.616  41.780  49.681  1.00  0.00    +0.000 H 
ATOM      6  C5  UNL A   1      27.996  38.451  49.299  1.00  0.00    +0.000 C 
ATOM    103  H5  UNL A   1      26.490  39.690  50.106  1.00  0.00    +0.000 H 
ATOM    148  H50 UNL A   1      29.692  37.579  48.398  1.00  0.00    +0.000 H 
ATOM    149  H51 UNL A   1      30.839  39.677  48.005  1.00  0.00    +0.000 H 
BRANCH    3    2
ATOM      2  S1  UNL A   1      30.264  42.399  48.493  1.00  0.00    +0.000 S 
BRANCH    2    1
ATOM      1  C1  UNL A   1      29.927  42.738  46.742  1.00  0.00    +0.000 C 
ATOM     99  H1  UNL A   1      30.659  43.420  46.363  1.00  0.00    +0.000 H 
ATOM    100  H2  UNL A   1      28.954  43.170  46.643  1.00  0.00    +0.000 H 
ATOM    101  H3  UNL A   1      29.971  41.824  46.187  1.00  0.00    +0.000 H 
ENDBRANCH    2    1
ENDBRANCH    3    2
ENDBRANCH    7    6
BRANCH    9   10
ATOM    105  H7  UNL A   1      23.110  35.532  50.059  1.00  0.00    +0.000 H 
ATOM     10  C9  UNL A   1      23.579  36.444  50.360  1.00  0.00    +0.000 C 
ATOM    106  H8  UNL A   1      23.308  37.283  49.754  1.00  0.00    +0.000 H 
BRANCH   10   11
ATOM     11  C10 UNL A   1      23.108  36.774  51.784  1.00  0.00    +0.000 C 
ATOM    108  H10 UNL A   1      24.636  38.278  52.001  1.00  0.00    +0.000 H 
ATOM     12  C11 UNL A   1      23.697  38.027  52.450  1.00  0.00    +0.000 C 
ATOM    107  H9  UNL A   1      23.429  35.893  52.298  1.00  0.00    +0.000 H 
ATOM     15  C14 UNL A   1      21.625  37.071  51.832  1.00  0.00    +0.000 C 
ATOM    109  H11 UNL A   1      23.875  37.867  53.493  1.00  0.00    +0.000 H 
ATOM     13  C12 UNL A   1      22.685  39.146  52.224  1.00  0.00    +0.000 C 
ATOM     14  C13 UNL A   1      21.325  38.468  52.304  1.00  0.00    +0.000 C 
ATOM     16  O1  UNL A   1      20.759  36.254  51.542  1.00  0.00    +0.000 O 
ATOM    110  H12 UNL A   1      22.827  39.592  51.262  1.00  0.00    +0.000 H 
ATOM    111  H13 UNL A   1      22.786  39.931  52.943  1.00  0.00    +0.000 H 
ATOM    112  H14 UNL A   1      20.616  38.949  51.663  1.00  0.00    +0.000 H 
ATOM    113  H15 UNL A   1      20.890  38.503  53.281  1.00  0.00    +0.000 H 
ENDBRANCH   10   11
ENDBRANCH    9   10
ENDBRANCH   20   19
BRANCH   20   21
ATOM    117  H19 UNL A   1      30.602  36.868  51.591  1.00  0.00    +0.000 H 
ATOM     21  C19 UNL A   1      30.135  35.915  51.452  1.00  0.00    +0.000 C 
ATOM    118  H20 UNL A   1      30.877  35.146  51.479  1.00  0.00    +0.000 H 
ATOM    119  H21 UNL A   1      29.422  35.750  52.234  1.00  0.00    +0.000 H 
ENDBRANCH   20   21
ENDBRANCH   22   20
ENDBRANCH   24   22
ENDBRANCH   25   24
ENDBRANCH   26   25
ENDBRANCH   27   26
ENDBRANCH   28   27
ENDBRANCH   29   28
ENDBRANCH   30   29
ENDBRANCH   31   30
ENDBRANCH   32   31
ENDBRANCH   34   32
ENDBRANCH   38   37
BRANCH   42   43
ATOM     43  C36 UNL A   1      21.465  33.537  46.209  1.00  0.00    +0.000 C 
ATOM     44  C37 UNL A   1      22.001  32.450  46.915  1.00  0.00    +0.000 C 
ATOM     45  F1  UNL A   1      22.585  32.641  48.107  1.00  0.00    +0.000 F 
ATOM     46  C38 UNL A   1      21.974  31.164  46.379  1.00  0.00    +0.000 C 
ATOM     47  F2  UNL A   1      22.533  30.149  47.051  1.00  0.00    +0.000 F 
ATOM     48  C39 UNL A   1      21.381  30.937  45.146  1.00  0.00    +0.000 C 
ATOM     49  F3  UNL A   1      21.350  29.698  44.635  1.00  0.00    +0.000 F 
ATOM     50  C40 UNL A   1      20.827  31.994  44.441  1.00  0.00    +0.000 C 
ATOM     51  F4  UNL A   1      20.244  31.773  43.254  1.00  0.00    +0.000 F 
ATOM     52  C41 UNL A   1      20.877  33.284  44.960  1.00  0.00    +0.000 C 
ATOM     53  F5  UNL A   1      20.345  34.289  44.247  1.00  0.00    +0.000 F 
ENDBRANCH   42   43
BRANCH   59   60
ATOM     65  C50 UNL A   1      14.581  37.630  51.243  1.00  0.00    +0.000 C 
ATOM     66  F8  UNL A   1      13.383  37.543  51.837  1.00  0.00    +0.000 F 
ATOM     67  C51 UNL A   1      15.737  37.646  52.009  1.00  0.00    +0.000 C 
ATOM     68  F9  UNL A   1      15.656  37.556  53.343  1.00  0.00    +0.000 F 
ATOM     69  C52 UNL A   1      16.981  37.758  51.395  1.00  0.00    +0.000 C 
ATOM     70  F10 UNL A   1      18.081  37.784  52.162  1.00  0.00    +0.000 F 
ATOM     60  C47 UNL A   1      17.091  37.834  49.998  1.00  0.00    +0.000 C 
ATOM     61  C48 UNL A   1      15.911  37.799  49.240  1.00  0.00    +0.000 C 
ATOM     62  F6  UNL A   1      15.964  37.884  47.903  1.00  0.00    +0.000 F 
ATOM     63  C49 UNL A   1      14.667  37.713  49.861  1.00  0.00    +0.000 C 
ATOM     64  F7  UNL A   1      13.550  37.723  49.120  1.00  0.00    +0.000 F 
ENDBRANCH   59   60
BRANCH   74   75
ATOM     75  C56 UNL A   1      21.804  42.939  49.539  1.00  0.00    +0.000 C 
ATOM     76  C57 UNL A   1      22.304  43.264  50.808  1.00  0.00    +0.000 C 
ATOM     77  F11 UNL A   1      22.741  42.293  51.623  1.00  0.00    +0.000 F 
ATOM     78  C58 UNL A   1      22.319  44.583  51.259  1.00  0.00    +0.000 C 
ATOM     79  F12 UNL A   1      22.764  44.861  52.491  1.00  0.00    +0.000 F 
ATOM     80  C59 UNL A   1      21.861  45.603  50.439  1.00  0.00    +0.000 C 
ATOM     81  F13 UNL A   1      21.880  46.870  50.870  1.00  0.00    +0.000 F 
ATOM     82  C60 UNL A   1      21.378  45.306  49.173  1.00  0.00    +0.000 C 
ATOM     83  F14 UNL A   1      20.946  46.290  48.373  1.00  0.00    +0.000 F 
ATOM     84  C61 UNL A   1      21.338  43.986  48.731  1.00  0.00    +0.000 C 
ATOM     85  F15 UNL A   1      20.857  43.726  47.507  1.00  0.00    +0.000 F 
ENDBRANCH   74   75
TORSDOF 22
ENDMDL
MODEL 10
REMARK VINA RESULT:      -7.6     39.852     44.490
ROOT
ATOM    136  H38 UNL A   1      38.355  29.762  27.151  1.00  0.00    +0.000 H 
ATOM    137  H39 UNL A   1      40.236  28.039  26.610  1.00  0.00    +0.000 H 
ATOM    138  H40 UNL A   1      40.437  28.962  30.641  1.00  0.00    +0.000 H 
ATOM    139  H41 UNL A   1      43.345  28.381  36.293  1.00  0.00    +0.000 H 
ATOM    140  H42 UNL A   1      41.493  30.038  36.822  1.00  0.00    +0.000 H 
ATOM    141  H43 UNL A   1      41.248  29.106  32.778  1.00  0.00    +0.000 H 
ATOM    142  H44 UNL A   1      44.857  25.713  31.919  1.00  0.00    +0.000 H 
ATOM    143  H45 UNL A   1      44.150  25.775  29.459  1.00  0.00    +0.000 H 
ATOM    144  H46 UNL A   1      36.705  32.149  31.664  1.00  0.00    +0.000 H 
ATOM    145  H47 UNL A   1      37.675  32.461  34.014  1.00  0.00    +0.000 H 
ATOM     38  C32 UNL A   1      39.876  30.743  34.582  1.00  0.00    +0.000 C 
ATOM     39  C33 UNL A   1      39.154  30.909  33.274  1.00  0.00    +0.000 C 
ATOM     40  N3  UNL A   1      39.372  30.317  32.127  1.00  0.00    +0.000 N 
ATOM     41  C34 UNL A   1      38.393  30.794  31.264  1.00  0.00    +0.000 C 
ATOM     42  C35 UNL A   1      38.222  30.521  29.948  1.00  0.00    +0.000 C 
ATOM     54  C42 UNL A   1      39.081  29.658  29.179  1.00  0.00    +0.000 C 
ATOM     55  C43 UNL A   1      39.029  29.370  27.827  1.00  0.00    +0.000 C 
ATOM     56  C44 UNL A   1      40.047  28.456  27.534  1.00  0.00    +0.000 C 
ATOM     57  C45 UNL A   1      40.757  28.206  28.697  1.00  0.00    +0.000 C 
ATOM     58  N4  UNL A   1      40.151  28.945  29.700  1.00  0.00    +0.000 N 
ATOM     59  C46 UNL A   1      41.905  27.356  28.882  1.00  0.00    +0.000 C 
ATOM     71  C53 UNL A   1      42.549  27.163  30.058  1.00  0.00    +0.000 C 
ATOM     72  N5  UNL A   1      42.277  27.714  31.302  1.00  0.00    +0.000 N 
ATOM     73  C54 UNL A   1      43.169  27.213  32.121  1.00  0.00    +0.000 C 
ATOM     74  C55 UNL A   1      43.367  27.480  33.587  1.00  0.00    +0.000 C 
ATOM     86  C62 UNL A   1      42.572  28.372  34.208  1.00  0.00    +0.000 C 
ATOM     87  C63 UNL A   1      42.652  28.741  35.618  1.00  0.00    +0.000 C 
ATOM     88  C64 UNL A   1      41.679  29.624  35.895  1.00  0.00    +0.000 C 
ATOM     89  C65 UNL A   1      40.926  29.905  34.673  1.00  0.00    +0.000 C 
ATOM     90  N6  UNL A   1      41.532  29.125  33.720  1.00  0.00    +0.000 N 
ATOM     91  C66 UNL A   1      44.097  26.263  31.490  1.00  0.00    +0.000 C 
ATOM     92  C67 UNL A   1      43.699  26.297  30.226  1.00  0.00    +0.000 C 
ATOM     93  C68 UNL A   1      37.554  31.690  32.030  1.00  0.00    +0.000 C 
ATOM     94  C69 UNL A   1      38.019  31.845  33.261  1.00  0.00    +0.000 C 
ENDROOT
BRANCH   38   37
ATOM     34  C28 UNL A   1      38.478  32.722  38.121  1.00  0.00    +0.000 C 
ATOM     35  C29 UNL A   1      39.574  33.242  37.424  1.00  0.00    +0.000 C 
ATOM     36  C30 UNL A   1      40.020  32.614  36.258  1.00  0.00    +0.000 C 
ATOM     37  C31 UNL A   1      39.392  31.446  35.797  1.00  0.00    +0.000 C 
ATOM    134  H36 UNL A   1      40.052  34.088  37.772  1.00  0.00    +0.000 H 
ATOM    135  H37 UNL A   1      40.815  33.011  35.734  1.00  0.00    +0.000 H 
ATOM    146  H48 UNL A   1      37.822  30.079  36.170  1.00  0.00    +0.000 H 
ATOM    147  H49 UNL A   1      36.947  31.268  38.092  1.00  0.00    +0.000 H 
ATOM     95  C70 UNL A   1      38.283  30.943  36.495  1.00  0.00    +0.000 C 
ATOM     96  C71 UNL A   1      37.802  31.604  37.624  1.00  0.00    +0.000 C 
BRANCH   34   32
ATOM     33  O3  UNL A   1      36.919  33.162  39.812  1.00  0.00    +0.000 O 
ATOM     32  C27 UNL A   1      38.018  33.417  39.346  1.00  0.00    +0.000 C 
BRANCH   32   31
ATOM    133  H35 UNL A   1      39.621  33.967  40.417  1.00  0.00    +0.000 H 
ATOM     31  N2  UNL A   1      38.829  34.339  39.966  1.00  0.00    +0.000 N 
BRANCH   31   30
ATOM    131  H33 UNL A   1      37.659  36.036  39.877  1.00  0.00    +0.000 H 
ATOM    132  H34 UNL A   1      38.999  36.091  41.025  1.00  0.00    +0.000 H 
ATOM     30  C26 UNL A   1      38.684  35.782  40.050  1.00  0.00    +0.000 C 
BRANCH   30   29
ATOM    129  H31 UNL A   1      39.100  36.383  38.060  1.00  0.00    +0.000 H 
ATOM    130  H32 UNL A   1      39.607  37.525  39.339  1.00  0.00    +0.000 H 
ATOM     29  C25 UNL A   1      39.553  36.505  39.022  1.00  0.00    +0.000 C 
BRANCH   29   28
ATOM     28  C24 UNL A   1      40.999  36.003  38.934  1.00  0.00    +0.000 C 
ATOM    127  H29 UNL A   1      41.515  36.333  39.811  1.00  0.00    +0.000 H 
ATOM    128  H30 UNL A   1      40.933  34.938  38.846  1.00  0.00    +0.000 H 
BRANCH   28   27
ATOM     27  C23 UNL A   1      41.795  36.476  37.712  1.00  0.00    +0.000 C 
ATOM    125  H27 UNL A   1      41.150  36.430  36.859  1.00  0.00    +0.000 H 
ATOM    126  H28 UNL A   1      42.132  37.465  37.940  1.00  0.00    +0.000 H 
BRANCH   27   26
ATOM     26  C22 UNL A   1      43.052  35.659  37.399  1.00  0.00    +0.000 C 
ATOM    123  H25 UNL A   1      43.821  35.953  38.083  1.00  0.00    +0.000 H 
ATOM    124  H26 UNL A   1      42.783  34.628  37.498  1.00  0.00    +0.000 H 
BRANCH   26   25
ATOM     25  C21 UNL A   1      43.581  35.842  35.973  1.00  0.00    +0.000 C 
ATOM    122  H24 UNL A   1      44.366  35.133  35.815  1.00  0.00    +0.000 H 
ATOM    121  H23 UNL A   1      43.939  36.844  35.863  1.00  0.00    +0.000 H 
BRANCH   25   24
ATOM    120  H22 UNL A   1      41.716  35.234  35.356  1.00  0.00    +0.000 H 
ATOM     24  N1  UNL A   1      42.551  35.602  34.986  1.00  0.00    +0.000 N 
BRANCH   24   22
ATOM     22  C20 UNL A   1      42.525  35.791  33.638  1.00  0.00    +0.000 C 
ATOM     23  O2  UNL A   1      43.248  36.701  33.210  1.00  0.00    +0.000 O 
BRANCH   22   20
ATOM    116  H18 UNL A   1      41.481  35.625  31.842  1.00  0.00    +0.000 H 
ATOM     20  C18 UNL A   1      41.667  34.966  32.663  1.00  0.00    +0.000 C 
BRANCH   20   19
ATOM      7  C6  UNL A   1      43.135  33.899  30.831  1.00  0.00    +0.000 C 
ATOM      8  C7  UNL A   1      43.900  32.804  30.374  1.00  0.00    +0.000 C 
ATOM      9  C8  UNL A   1      43.899  31.576  31.045  1.00  0.00    +0.000 C 
ATOM    104  H6  UNL A   1      44.475  32.913  29.524  1.00  0.00    +0.000 H 
ATOM     17  C15 UNL A   1      43.161  31.458  32.218  1.00  0.00    +0.000 C 
ATOM     18  C16 UNL A   1      42.428  32.540  32.700  1.00  0.00    +0.000 C 
ATOM     19  C17 UNL A   1      42.425  33.787  32.052  1.00  0.00    +0.000 C 
ATOM    115  H17 UNL A   1      41.871  32.423  33.561  1.00  0.00    +0.000 H 
ATOM    114  H16 UNL A   1      43.156  30.564  32.734  1.00  0.00    +0.000 H 
BRANCH    7    6
ATOM     97  C72 UNL A   1      43.824  36.081  29.755  1.00  0.00    +0.000 C 
ATOM     98  C73 UNL A   1      43.531  37.139  28.880  1.00  0.00    +0.000 C 
ATOM      3  C2  UNL A   1      42.350  37.154  28.122  1.00  0.00    +0.000 C 
ATOM      4  C3  UNL A   1      41.465  36.085  28.257  1.00  0.00    +0.000 C 
ATOM      5  C4  UNL A   1      41.750  35.038  29.135  1.00  0.00    +0.000 C 
ATOM    102  H4  UNL A   1      40.593  36.068  27.705  1.00  0.00    +0.000 H 
ATOM      6  C5  UNL A   1      42.929  35.019  29.898  1.00  0.00    +0.000 C 
ATOM    103  H5  UNL A   1      41.079  34.259  29.224  1.00  0.00    +0.000 H 
ATOM    148  H50 UNL A   1      44.704  36.087  30.293  1.00  0.00    +0.000 H 
ATOM    149  H51 UNL A   1      44.197  37.923  28.794  1.00  0.00    +0.000 H 
BRANCH    3    2
ATOM      2  S1  UNL A   1      42.062  38.564  27.059  1.00  0.00    +0.000 S 
BRANCH    2    1
ATOM      1  C1  UNL A   1      42.041  39.962  28.217  1.00  0.00    +0.000 C 
ATOM     99  H1  UNL A   1      41.894  39.598  29.212  1.00  0.00    +0.000 H 
ATOM    100  H2  UNL A   1      41.244  40.627  27.959  1.00  0.00    +0.000 H 
ATOM    101  H3  UNL A   1      42.974  40.485  28.163  1.00  0.00    +0.000 H 
ENDBRANCH    2    1
ENDBRANCH    3    2
ENDBRANCH    7    6
BRANCH    9   10
ATOM    105  H7  UNL A   1      43.971  30.042  29.609  1.00  0.00    +0.000 H 
ATOM     10  C9  UNL A   1      44.559  30.360  30.444  1.00  0.00    +0.000 C 
ATOM    106  H8  UNL A   1      44.615  29.633  31.227  1.00  0.00    +0.000 H 
BRANCH   10   11
ATOM     11  C10 UNL A   1      45.999  30.575  29.957  1.00  0.00    +0.000 C 
ATOM    108  H10 UNL A   1      46.754  29.142  31.377  1.00  0.00    +0.000 H 
ATOM     12  C11 UNL A   1      47.069  29.595  30.460  1.00  0.00    +0.000 C 
ATOM    107  H9  UNL A   1      46.182  31.557  30.340  1.00  0.00    +0.000 H 
ATOM     15  C14 UNL A   1      46.116  30.413  28.457  1.00  0.00    +0.000 C 
ATOM    109  H11 UNL A   1      47.996  30.095  30.653  1.00  0.00    +0.000 H 
ATOM     13  C12 UNL A   1      47.223  28.537  29.373  1.00  0.00    +0.000 C 
ATOM     14  C13 UNL A   1      47.036  29.289  28.063  1.00  0.00    +0.000 C 
ATOM     16  O1  UNL A   1      45.544  31.134  27.648  1.00  0.00    +0.000 O 
ATOM    110  H12 UNL A   1      46.478  27.777  29.480  1.00  0.00    +0.000 H 
ATOM    111  H13 UNL A   1      48.172  28.045  29.422  1.00  0.00    +0.000 H 
ATOM    112  H14 UNL A   1      46.587  28.664  27.320  1.00  0.00    +0.000 H 
ATOM    113  H15 UNL A   1      47.956  29.624  27.630  1.00  0.00    +0.000 H 
ENDBRANCH   10   11
ENDBRANCH    9   10
ENDBRANCH   20   19
BRANCH   20   21
ATOM    117  H19 UNL A   1      39.855  33.833  32.576  1.00  0.00    +0.000 H 
ATOM     21  C19 UNL A   1      40.246  34.657  33.135  1.00  0.00    +0.000 C 
ATOM    118  H20 UNL A   1      39.626  35.516  32.986  1.00  0.00    +0.000 H 
ATOM    119  H21 UNL A   1      40.263  34.406  34.176  1.00  0.00    +0.000 H 
ENDBRANCH   20   21
ENDBRANCH   22   20
ENDBRANCH   24   22
ENDBRANCH   25   24
ENDBRANCH   26   25
ENDBRANCH   27   26
ENDBRANCH   28   27
ENDBRANCH   29   28
ENDBRANCH   30   29
ENDBRANCH   31   30
ENDBRANCH   32   31
ENDBRANCH   34   32
ENDBRANCH   38   37
BRANCH   42   43
ATOM     43  C36 UNL A   1      37.063  31.171  29.250  1.00  0.00    +0.000 C 
ATOM     44  C37 UNL A   1      37.088  32.527  28.893  1.00  0.00    +0.000 C 
ATOM     45  F1  UNL A   1      38.141  33.291  29.216  1.00  0.00    +0.000 F 
ATOM     46  C38 UNL A   1      36.010  33.114  28.233  1.00  0.00    +0.000 C 
ATOM     47  F2  UNL A   1      36.037  34.422  27.942  1.00  0.00    +0.000 F 
ATOM     48  C39 UNL A   1      34.905  32.350  27.889  1.00  0.00    +0.000 C 
ATOM     49  F3  UNL A   1      33.872  32.915  27.250  1.00  0.00    +0.000 F 
ATOM     50  C40 UNL A   1      34.869  31.003  28.216  1.00  0.00    +0.000 C 
ATOM     51  F4  UNL A   1      33.806  30.261  27.874  1.00  0.00    +0.000 F 
ATOM     52  C41 UNL A   1      35.932  30.419  28.899  1.00  0.00    +0.000 C 
ATOM     53  F5  UNL A   1      35.861  29.117  29.213  1.00  0.00    +0.000 F 
ENDBRANCH   42   43
BRANCH   59   60
ATOM     65  C50 UNL A   1      43.484  25.258  25.466  1.00  0.00    +0.000 C 
ATOM     66  F8  UNL A   1      43.973  24.603  24.405  1.00  0.00    +0.000 F 
ATOM     67  C51 UNL A   1      42.519  24.665  26.265  1.00  0.00    +0.000 C 
ATOM     68  F9  UNL A   1      42.087  23.428  25.985  1.00  0.00    +0.000 F 
ATOM     69  C52 UNL A   1      41.995  25.353  27.356  1.00  0.00    +0.000 C 
ATOM     70  F10 UNL A   1      41.053  24.759  28.104  1.00  0.00    +0.000 F 
ATOM     60  C47 UNL A   1      42.446  26.642  27.679  1.00  0.00    +0.000 C 
ATOM     61  C48 UNL A   1      43.436  27.217  26.869  1.00  0.00    +0.000 C 
ATOM     62  F6  UNL A   1      43.887  28.453  27.129  1.00  0.00    +0.000 F 
ATOM     63  C49 UNL A   1      43.938  26.535  25.763  1.00  0.00    +0.000 C 
ATOM     64  F7  UNL A   1      44.852  27.120  24.977  1.00  0.00    +0.000 F 
ENDBRANCH   59   60
BRANCH   74   75
ATOM     75  C56 UNL A   1      44.445  26.797  34.347  1.00  0.00    +0.000 C 
ATOM     76  C57 UNL A   1      45.737  27.340  34.404  1.00  0.00    +0.000 C 
ATOM     77  F11 UNL A   1      46.014  28.477  33.747  1.00  0.00    +0.000 F 
ATOM     78  C58 UNL A   1      46.757  26.697  35.102  1.00  0.00    +0.000 C 
ATOM     79  F12 UNL A   1      47.992  27.216  35.106  1.00  0.00    +0.000 F 
ATOM     80  C59 UNL A   1      46.498  25.515  35.779  1.00  0.00    +0.000 C 
ATOM     81  F13 UNL A   1      47.478  24.899  36.453  1.00  0.00    +0.000 F 
ATOM     82  C60 UNL A   1      45.224  24.968  35.750  1.00  0.00    +0.000 C 
ATOM     83  F14 UNL A   1      44.967  23.833  36.413  1.00  0.00    +0.000 F 
ATOM     84  C61 UNL A   1      44.209  25.597  35.032  1.00  0.00    +0.000 C 
ATOM     85  F15 UNL A   1      42.988  25.042  35.013  1.00  0.00    +0.000 F 
ENDBRANCH   74   75
TORSDOF 22
ENDMDL
