MODEL 1
REMARK VINA RESULT:      -8.5      0.000      0.000
ROOT
ATOM    129  H32 UNL A   1      29.684 -15.224  35.266  1.00  0.00    +0.000 H 
ATOM    130  H33 UNL A   1      30.733 -15.128  32.931  1.00  0.00    +0.000 H 
ATOM     28  C21 UNL A   1      29.082 -13.861  30.987  1.00  0.00    +0.000 C 
ATOM     29  C22 UNL A   1      28.827 -13.990  32.461  1.00  0.00    +0.000 C 
ATOM     30  N4  UNL A   1      27.814 -13.556  33.168  1.00  0.00    +0.000 N 
ATOM     31  C23 UNL A   1      28.052 -13.980  34.469  1.00  0.00    +0.000 C 
ATOM     32  C24 UNL A   1      27.317 -13.740  35.580  1.00  0.00    +0.000 C 
ATOM     44  C31 UNL A   1      26.107 -12.961  35.601  1.00  0.00    +0.000 C 
ATOM     45  C32 UNL A   1      25.335 -12.596  36.690  1.00  0.00    +0.000 C 
ATOM     46  C33 UNL A   1      24.229 -11.879  36.221  1.00  0.00    +0.000 C 
ATOM     47  C34 UNL A   1      24.332 -11.765  34.844  1.00  0.00    +0.000 C 
ATOM     48  N5  UNL A   1      25.492 -12.428  34.478  1.00  0.00    +0.000 N 
ATOM     49  C35 UNL A   1      23.436 -11.108  33.927  1.00  0.00    +0.000 C 
ATOM     61  C42 UNL A   1      23.641 -10.983  32.594  1.00  0.00    +0.000 C 
ATOM     62  N6  UNL A   1      24.705 -11.442  31.830  1.00  0.00    +0.000 N 
ATOM     63  C43 UNL A   1      24.441 -11.088  30.597  1.00  0.00    +0.000 C 
ATOM     64  C44 UNL A   1      25.253 -11.316  29.351  1.00  0.00    +0.000 C 
ATOM     76  C51 UNL A   1      26.432 -11.959  29.440  1.00  0.00    +0.000 C 
ATOM     77  C52 UNL A   1      27.312 -12.271  28.317  1.00  0.00    +0.000 C 
ATOM     78  C53 UNL A   1      28.350 -12.997  28.763  1.00  0.00    +0.000 C 
ATOM     79  C54 UNL A   1      28.229 -13.164  30.212  1.00  0.00    +0.000 C 
ATOM     80  N7  UNL A   1      27.079 -12.487  30.531  1.00  0.00    +0.000 N 
ATOM     81  C55 UNL A   1      23.166 -10.376  30.436  1.00  0.00    +0.000 C 
ATOM     82  C56 UNL A   1      22.734 -10.313  31.688  1.00  0.00    +0.000 C 
ATOM     83  C57 UNL A   1      29.285 -14.737  34.448  1.00  0.00    +0.000 C 
ATOM     84  C58 UNL A   1      29.834 -14.725  33.242  1.00  0.00    +0.000 C 
ATOM    121  H24 UNL A   1      25.539 -12.814  37.678  1.00  0.00    +0.000 H 
ATOM    122  H25 UNL A   1      23.465 -11.500  36.802  1.00  0.00    +0.000 H 
ATOM    123  H26 UNL A   1      25.830 -12.510  33.557  1.00  0.00    +0.000 H 
ATOM    124  H27 UNL A   1      27.160 -11.981  27.339  1.00  0.00    +0.000 H 
ATOM    125  H28 UNL A   1      29.111 -13.375  28.178  1.00  0.00    +0.000 H 
ATOM    126  H29 UNL A   1      26.748 -12.389  31.454  1.00  0.00    +0.000 H 
ATOM    127  H30 UNL A   1      22.722 -10.020  29.574  1.00  0.00    +0.000 H 
ATOM    128  H31 UNL A   1      21.861  -9.845  31.979  1.00  0.00    +0.000 H 
ENDROOT
BRANCH   28   27
ATOM    131  H34 UNL A   1      31.569 -12.962  30.606  1.00  0.00    +0.000 H 
ATOM    132  H35 UNL A   1      33.455 -14.093  29.587  1.00  0.00    +0.000 H 
ATOM     27  C20 UNL A   1      30.222 -14.576  30.362  1.00  0.00    +0.000 C 
ATOM     85  C59 UNL A   1      31.465 -13.931  30.266  1.00  0.00    +0.000 C 
ATOM     86  C60 UNL A   1      32.560 -14.591  29.714  1.00  0.00    +0.000 C 
ATOM    119  H22 UNL A   1      31.106 -17.541  29.048  1.00  0.00    +0.000 H 
ATOM     24  C17 UNL A   1      32.443 -15.931  29.330  1.00  0.00    +0.000 C 
ATOM     25  C18 UNL A   1      31.201 -16.569  29.380  1.00  0.00    +0.000 C 
ATOM     26  C19 UNL A   1      30.089 -15.888  29.881  1.00  0.00    +0.000 C 
ATOM    120  H23 UNL A   1      29.167 -16.350  29.898  1.00  0.00    +0.000 H 
BRANCH   24   22
ATOM     22  C16 UNL A   1      33.619 -16.688  28.851  1.00  0.00    +0.000 C 
ATOM     23  O4  UNL A   1      34.401 -17.176  29.663  1.00  0.00    +0.000 O 
BRANCH   22   21
ATOM     21  N3  UNL A   1      33.840 -16.836  27.505  1.00  0.00    +0.000 N 
ATOM    118  H21 UNL A   1      33.380 -17.598  27.083  1.00  0.00    +0.000 H 
BRANCH   21   20
ATOM    116  H19 UNL A   1      35.221 -15.332  27.194  1.00  0.00    +0.000 H 
ATOM     20  C15 UNL A   1      34.657 -16.029  26.610  1.00  0.00    +0.000 C 
ATOM    117  H20 UNL A   1      35.299 -16.688  26.065  1.00  0.00    +0.000 H 
BRANCH   20   19
ATOM    114  H17 UNL A   1      34.471 -14.814  24.884  1.00  0.00    +0.000 H 
ATOM     19  C14 UNL A   1      33.812 -15.255  25.601  1.00  0.00    +0.000 C 
ATOM    115  H18 UNL A   1      33.133 -15.961  25.172  1.00  0.00    +0.000 H 
BRANCH   19   18
ATOM    113  H16 UNL A   1      32.566 -14.532  27.125  1.00  0.00    +0.000 H 
ATOM     18  C13 UNL A   1      32.952 -14.142  26.207  1.00  0.00    +0.000 C 
ATOM    112  H15 UNL A   1      32.193 -13.886  25.497  1.00  0.00    +0.000 H 
BRANCH   18   17
ATOM     17  C12 UNL A   1      33.707 -12.858  26.575  1.00  0.00    +0.000 C 
ATOM    110  H13 UNL A   1      33.046 -12.030  26.425  1.00  0.00    +0.000 H 
ATOM    111  H14 UNL A   1      34.018 -12.977  27.592  1.00  0.00    +0.000 H 
BRANCH   17   16
ATOM    108  H11 UNL A   1      35.724 -13.314  26.061  1.00  0.00    +0.000 H 
ATOM    109  H12 UNL A   1      34.725 -12.685  24.732  1.00  0.00    +0.000 H 
ATOM     16  C11 UNL A   1      34.985 -12.598  25.766  1.00  0.00    +0.000 C 
BRANCH   16   15
ATOM    106  H9  UNL A   1      35.099 -10.748  26.822  1.00  0.00    +0.000 H 
ATOM    107  H10 UNL A   1      36.619 -11.281  26.110  1.00  0.00    +0.000 H 
ATOM     15  C10 UNL A   1      35.562 -11.195  25.967  1.00  0.00    +0.000 C 
BRANCH   15   14
ATOM    105  H8  UNL A   1      35.847 -10.579  24.007  1.00  0.00    +0.000 H 
ATOM     14  N2  UNL A   1      35.321 -10.359  24.809  1.00  0.00    +0.000 N 
BRANCH   14   12
ATOM     12  C9  UNL A   1      34.461  -9.304  24.681  1.00  0.00    +0.000 C 
ATOM     13  O3  UNL A   1      34.937  -8.168  24.633  1.00  0.00    +0.000 O 
BRANCH   12   11
ATOM     11  C8  UNL A   1      32.960  -9.529  24.710  1.00  0.00    +0.000 C 
ATOM    103  H6  UNL A   1      32.496  -8.828  24.049  1.00  0.00    +0.000 H 
ATOM    104  H7  UNL A   1      32.778 -10.539  24.405  1.00  0.00    +0.000 H 
BRANCH   11   10
ATOM      7  C6  UNL A   1      31.277  -9.159  27.977  1.00  0.00    +0.000 C 
ATOM      8  N1  UNL A   1      32.455  -8.543  28.153  1.00  0.00    +0.000 N 
ATOM      9  O2  UNL A   1      33.149  -8.690  26.969  1.00  0.00    +0.000 O 
ATOM     10  C7  UNL A   1      32.384  -9.359  26.065  1.00  0.00    +0.000 C 
ATOM     87  C61 UNL A   1      31.192  -9.716  26.664  1.00  0.00    +0.000 C 
BRANCH    7    6
ATOM     97  C70 UNL A   1      28.297  -8.168  30.059  1.00  0.00    +0.000 C 
ATOM      3  C2  UNL A   1      28.404  -9.053  31.130  1.00  0.00    +0.000 C 
ATOM      4  C3  UNL A   1      29.427 -10.004  31.135  1.00  0.00    +0.000 C 
ATOM    101  H4  UNL A   1      29.509 -10.663  31.926  1.00  0.00    +0.000 H 
ATOM      5  C4  UNL A   1      30.341 -10.074  30.081  1.00  0.00    +0.000 C 
ATOM    102  H5  UNL A   1      31.084 -10.791  30.089  1.00  0.00    +0.000 H 
ATOM      6  C5  UNL A   1      30.253  -9.172  29.016  1.00  0.00    +0.000 C 
ATOM    140  H43 UNL A   1      29.131  -7.573  28.214  1.00  0.00    +0.000 H 
ATOM    141  H44 UNL A   1      27.541  -7.467  30.043  1.00  0.00    +0.000 H 
ATOM     96  C69 UNL A   1      29.217  -8.229  29.006  1.00  0.00    +0.000 C 
BRANCH    3    2
ATOM      2  O1  UNL A   1      27.592  -9.075  32.232  1.00  0.00    +0.000 O 
BRANCH    2    1
ATOM      1  C1  UNL A   1      27.818 -10.124  33.165  1.00  0.00    +0.000 C 
ATOM     98  H1  UNL A   1      28.821 -10.482  33.063  1.00  0.00    +0.000 H 
ATOM     99  H2  UNL A   1      27.134 -10.924  32.976  1.00  0.00    +0.000 H 
ATOM    100  H3  UNL A   1      27.670  -9.755  34.159  1.00  0.00    +0.000 H 
ENDBRANCH    2    1
ENDBRANCH    3    2
ENDBRANCH    7    6
BRANCH   87   88
ATOM    133  H36 UNL A   1      28.919  -8.618  25.833  1.00  0.00    +0.000 H 
ATOM    134  H37 UNL A   1      27.062  -9.687  24.709  1.00  0.00    +0.000 H 
ATOM    138  H41 UNL A   1      29.078 -13.366  24.849  1.00  0.00    +0.000 H 
ATOM    139  H42 UNL A   1      30.941 -12.301  25.984  1.00  0.00    +0.000 H 
ATOM     88  C62 UNL A   1      30.086 -10.371  25.991  1.00  0.00    +0.000 C 
ATOM     89  C63 UNL A   1      28.958  -9.628  25.624  1.00  0.00    +0.000 C 
ATOM     90  C64 UNL A   1      27.888 -10.246  24.977  1.00  0.00    +0.000 C 
ATOM     91  C65 UNL A   1      27.924 -11.609  24.686  1.00  0.00    +0.000 C 
ATOM     94  C67 UNL A   1      29.043 -12.357  25.057  1.00  0.00    +0.000 C 
ATOM     95  C68 UNL A   1      30.119 -11.740  25.710  1.00  0.00    +0.000 C 
BRANCH   91   92
ATOM     92  O5  UNL A   1      26.812 -12.082  24.047  1.00  0.00    +0.000 O 
BRANCH   92   93
ATOM    137  H40 UNL A   1      26.743 -13.706  25.285  1.00  0.00    +0.000 H 
ATOM     93  C66 UNL A   1      26.077 -13.106  24.702  1.00  0.00    +0.000 C 
ATOM    135  H38 UNL A   1      25.593 -13.719  23.971  1.00  0.00    +0.000 H 
ATOM    136  H39 UNL A   1      25.342 -12.665  25.342  1.00  0.00    +0.000 H 
ENDBRANCH   92   93
ENDBRANCH   91   92
ENDBRANCH   87   88
ENDBRANCH   11   10
ENDBRANCH   12   11
ENDBRANCH   14   12
ENDBRANCH   15   14
ENDBRANCH   16   15
ENDBRANCH   17   16
ENDBRANCH   18   17
ENDBRANCH   19   18
ENDBRANCH   20   19
ENDBRANCH   21   20
ENDBRANCH   22   21
ENDBRANCH   24   22
ENDBRANCH   28   27
BRANCH   32   33
ATOM     33  C25 UNL A   1      27.800 -14.329  36.872  1.00  0.00    +0.000 C 
ATOM     34  C26 UNL A   1      27.255 -15.515  37.388  1.00  0.00    +0.000 C 
ATOM     35  F1  UNL A   1      26.244 -16.125  36.752  1.00  0.00    +0.000 F 
ATOM     36  C27 UNL A   1      27.727 -16.060  38.579  1.00  0.00    +0.000 C 
ATOM     37  F2  UNL A   1      27.164 -17.171  39.073  1.00  0.00    +0.000 F 
ATOM     38  C28 UNL A   1      28.770 -15.450  39.260  1.00  0.00    +0.000 C 
ATOM     39  F3  UNL A   1      29.228 -15.981  40.402  1.00  0.00    +0.000 F 
ATOM     40  C29 UNL A   1      29.336 -14.288  38.758  1.00  0.00    +0.000 C 
ATOM     41  F4  UNL A   1      30.352 -13.703  39.408  1.00  0.00    +0.000 F 
ATOM     42  C30 UNL A   1      28.850 -13.725  37.580  1.00  0.00    +0.000 C 
ATOM     43  F5  UNL A   1      29.409 -12.594  37.127  1.00  0.00    +0.000 F 
ENDBRANCH   32   33
BRANCH   49   50
ATOM     50  C36 UNL A   1      22.186 -10.502  34.489  1.00  0.00    +0.000 C 
ATOM     51  C37 UNL A   1      20.968 -11.199  34.477  1.00  0.00    +0.000 C 
ATOM     52  F6  UNL A   1      20.888 -12.406  33.897  1.00  0.00    +0.000 F 
ATOM     53  C38 UNL A   1      19.821 -10.641  35.034  1.00  0.00    +0.000 C 
ATOM     54  F7  UNL A   1      18.661 -11.309  34.980  1.00  0.00    +0.000 F 
ATOM     55  C39 UNL A   1      19.875  -9.393  35.636  1.00  0.00    +0.000 C 
ATOM     56  F8  UNL A   1      18.771  -8.862  36.181  1.00  0.00    +0.000 F 
ATOM     57  C40 UNL A   1      21.071  -8.691  35.667  1.00  0.00    +0.000 C 
ATOM     58  F9  UNL A   1      21.126  -7.489  36.258  1.00  0.00    +0.000 F 
ATOM     59  C41 UNL A   1      22.215  -9.235  35.090  1.00  0.00    +0.000 C 
ATOM     60  F10 UNL A   1      23.356  -8.531  35.129  1.00  0.00    +0.000 F 
ENDBRANCH   49   50
BRANCH   64   65
ATOM     65  C45 UNL A   1      24.772 -10.833  28.032  1.00  0.00    +0.000 C 
ATOM     66  C46 UNL A   1      23.765 -11.520  27.341  1.00  0.00    +0.000 C 
ATOM     67  F11 UNL A   1      23.245 -12.642  27.859  1.00  0.00    +0.000 F 
ATOM     68  C47 UNL A   1      23.315 -11.078  26.099  1.00  0.00    +0.000 C 
ATOM     69  F12 UNL A   1      22.377 -11.774  25.442  1.00  0.00    +0.000 F 
ATOM     70  C48 UNL A   1      23.845  -9.926  25.537  1.00  0.00    +0.000 C 
ATOM     71  F13 UNL A   1      23.409  -9.498  24.344  1.00  0.00    +0.000 F 
ATOM     72  C49 UNL A   1      24.834  -9.223  26.208  1.00  0.00    +0.000 C 
ATOM     73  F14 UNL A   1      25.341  -8.104  25.672  1.00  0.00    +0.000 F 
ATOM     74  C50 UNL A   1      25.302  -9.677  27.439  1.00  0.00    +0.000 C 
ATOM     75  F15 UNL A   1      26.266  -8.985  28.062  1.00  0.00    +0.000 F 
ENDBRANCH   64   65
TORSDOF 22
ENDMDL
MODEL 2
REMARK VINA RESULT:      -8.0     41.418     46.314
ROOT
ATOM    129  H32 UNL A   1      51.915  21.917  13.845  1.00  0.00    +0.000 H 
ATOM    130  H33 UNL A   1      51.673  20.320  11.856  1.00  0.00    +0.000 H 
ATOM     28  C21 UNL A   1      54.008  18.774  11.341  1.00  0.00    +0.000 C 
ATOM     29  C22 UNL A   1      53.768  19.718  12.484  1.00  0.00    +0.000 C 
ATOM     30  N4  UNL A   1      54.560  20.032  13.478  1.00  0.00    +0.000 N 
ATOM     31  C23 UNL A   1      53.871  20.979  14.224  1.00  0.00    +0.000 C 
ATOM     32  C24 UNL A   1      54.247  21.579  15.378  1.00  0.00    +0.000 C 
ATOM     44  C31 UNL A   1      55.485  21.316  16.064  1.00  0.00    +0.000 C 
ATOM     45  C32 UNL A   1      55.921  21.814  17.279  1.00  0.00    +0.000 C 
ATOM     46  C33 UNL A   1      57.207  21.317  17.520  1.00  0.00    +0.000 C 
ATOM     47  C34 UNL A   1      57.556  20.479  16.473  1.00  0.00    +0.000 C 
ATOM     48  N5  UNL A   1      56.489  20.484  15.589  1.00  0.00    +0.000 N 
ATOM     49  C35 UNL A   1      58.776  19.737  16.285  1.00  0.00    +0.000 C 
ATOM     61  C42 UNL A   1      59.017  18.883  15.261  1.00  0.00    +0.000 C 
ATOM     62  N6  UNL A   1      58.192  18.545  14.197  1.00  0.00    +0.000 N 
ATOM     63  C43 UNL A   1      58.875  17.697  13.469  1.00  0.00    +0.000 C 
ATOM     64  C44 UNL A   1      58.470  16.995  12.201  1.00  0.00    +0.000 C 
ATOM     76  C51 UNL A   1      57.245  17.214  11.688  1.00  0.00    +0.000 C 
ATOM     77  C52 UNL A   1      56.726  16.625  10.457  1.00  0.00    +0.000 C 
ATOM     78  C53 UNL A   1      55.511  17.137  10.205  1.00  0.00    +0.000 C 
ATOM     79  C54 UNL A   1      55.148  18.060  11.281  1.00  0.00    +0.000 C 
ATOM     80  N7  UNL A   1      56.223  18.017  12.133  1.00  0.00    +0.000 N 
ATOM     81  C55 UNL A   1      60.223  17.413  13.982  1.00  0.00    +0.000 C 
ATOM     82  C56 UNL A   1      60.246  18.138  15.091  1.00  0.00    +0.000 C 
ATOM     83  C57 UNL A   1      52.614  21.218  13.548  1.00  0.00    +0.000 C 
ATOM     84  C58 UNL A   1      52.476  20.421  12.498  1.00  0.00    +0.000 C 
ATOM    121  H24 UNL A   1      55.390  22.444  17.902  1.00  0.00    +0.000 H 
ATOM    122  H25 UNL A   1      57.796  21.537  18.338  1.00  0.00    +0.000 H 
ATOM    123  H26 UNL A   1      56.448  19.972  14.749  1.00  0.00    +0.000 H 
ATOM    124  H27 UNL A   1      57.215  15.928   9.874  1.00  0.00    +0.000 H 
ATOM    125  H28 UNL A   1      54.927  16.915   9.384  1.00  0.00    +0.000 H 
ATOM    126  H29 UNL A   1      56.259  18.514  12.983  1.00  0.00    +0.000 H 
ATOM    127  H30 UNL A   1      60.958  16.808  13.583  1.00  0.00    +0.000 H 
ATOM    128  H31 UNL A   1      61.040  18.168  15.750  1.00  0.00    +0.000 H 
ENDROOT
BRANCH   28   27
ATOM    131  H34 UNL A   1      53.865  20.324   9.169  1.00  0.00    +0.000 H 
ATOM    132  H35 UNL A   1      52.288  20.223   7.331  1.00  0.00    +0.000 H 
ATOM     27  C20 UNL A   1      53.033  18.691  10.226  1.00  0.00    +0.000 C 
ATOM     85  C59 UNL A   1      53.134  19.596   9.158  1.00  0.00    +0.000 C 
ATOM     86  C60 UNL A   1      52.251  19.518   8.082  1.00  0.00    +0.000 C 
ATOM    119  H22 UNL A   1      50.451  16.868   9.081  1.00  0.00    +0.000 H 
ATOM     24  C17 UNL A   1      51.316  18.481   8.026  1.00  0.00    +0.000 C 
ATOM     25  C18 UNL A   1      51.177  17.601   9.103  1.00  0.00    +0.000 C 
ATOM     26  C19 UNL A   1      52.024  17.714  10.207  1.00  0.00    +0.000 C 
ATOM    120  H23 UNL A   1      51.909  17.080  11.012  1.00  0.00    +0.000 H 
BRANCH   24   22
ATOM     22  C16 UNL A   1      50.447  18.306   6.842  1.00  0.00    +0.000 C 
ATOM     23  O4  UNL A   1      50.902  18.510   5.719  1.00  0.00    +0.000 O 
BRANCH   22   21
ATOM     21  N3  UNL A   1      49.137  17.929   6.999  1.00  0.00    +0.000 N 
ATOM    118  H21 UNL A   1      48.633  18.430   7.679  1.00  0.00    +0.000 H 
BRANCH   21   20
ATOM    116  H19 UNL A   1      49.048  16.084   6.073  1.00  0.00    +0.000 H 
ATOM     20  C15 UNL A   1      48.387  16.894   6.302  1.00  0.00    +0.000 C 
ATOM    117  H20 UNL A   1      47.590  16.577   6.942  1.00  0.00    +0.000 H 
BRANCH   20   19
ATOM    114  H17 UNL A   1      48.512  17.346   4.235  1.00  0.00    +0.000 H 
ATOM     19  C14 UNL A   1      47.770  17.407   5.003  1.00  0.00    +0.000 C 
ATOM    115  H18 UNL A   1      46.914  16.794   4.812  1.00  0.00    +0.000 H 
BRANCH   19   18
ATOM    113  H16 UNL A   1      47.958  19.434   4.497  1.00  0.00    +0.000 H 
ATOM     18  C13 UNL A   1      47.263  18.851   5.063  1.00  0.00    +0.000 C 
ATOM    112  H15 UNL A   1      47.202  19.137   6.092  1.00  0.00    +0.000 H 
BRANCH   18   17
ATOM     17  C12 UNL A   1      45.889  19.089   4.423  1.00  0.00    +0.000 C 
ATOM    110  H13 UNL A   1      45.695  18.285   3.745  1.00  0.00    +0.000 H 
ATOM    111  H14 UNL A   1      45.191  19.144   5.232  1.00  0.00    +0.000 H 
BRANCH   17   16
ATOM    108  H11 UNL A   1      46.178  21.192   4.238  1.00  0.00    +0.000 H 
ATOM    109  H12 UNL A   1      46.254  20.278   2.715  1.00  0.00    +0.000 H 
ATOM     16  C11 UNL A   1      45.749  20.408   3.650  1.00  0.00    +0.000 C 
BRANCH   16   15
ATOM    106  H9  UNL A   1      44.059  21.698   3.823  1.00  0.00    +0.000 H 
ATOM    107  H10 UNL A   1      44.202  20.881   2.270  1.00  0.00    +0.000 H 
ATOM     15  C10 UNL A   1      44.300  20.779   3.330  1.00  0.00    +0.000 C 
BRANCH   15   14
ATOM    105  H8  UNL A   1      43.269  19.676   4.753  1.00  0.00    +0.000 H 
ATOM     14  N2  UNL A   1      43.384  19.749   3.779  1.00  0.00    +0.000 N 
BRANCH   14   12
ATOM     12  C9  UNL A   1      42.659  18.866   3.029  1.00  0.00    +0.000 C 
ATOM     13  O3  UNL A   1      43.261  18.169   2.208  1.00  0.00    +0.000 O 
BRANCH   12   11
ATOM     11  C8  UNL A   1      41.146  18.832   3.132  1.00  0.00    +0.000 C 
ATOM    103  H6  UNL A   1      40.821  17.814   3.072  1.00  0.00    +0.000 H 
ATOM    104  H7  UNL A   1      40.874  19.278   4.066  1.00  0.00    +0.000 H 
BRANCH   11   10
ATOM      7  C6  UNL A   1      39.253  20.708   0.574  1.00  0.00    +0.000 C 
ATOM      8  N1  UNL A   1      40.433  20.467  -0.015  1.00  0.00    +0.000 N 
ATOM      9  O2  UNL A   1      41.203  19.802   0.918  1.00  0.00    +0.000 O 
ATOM     10  C7  UNL A   1      40.483  19.606   2.056  1.00  0.00    +0.000 C 
ATOM     87  C61 UNL A   1      39.243  20.195   1.907  1.00  0.00    +0.000 C 
BRANCH    7    6
ATOM     97  C70 UNL A   1      37.273  23.306  -1.303  1.00  0.00    +0.000 C 
ATOM      3  C2  UNL A   1      36.002  22.733  -1.308  1.00  0.00    +0.000 C 
ATOM      4  C3  UNL A   1      35.816  21.471  -0.736  1.00  0.00    +0.000 C 
ATOM    101  H4  UNL A   1      34.877  21.043  -0.739  1.00  0.00    +0.000 H 
ATOM      5  C4  UNL A   1      36.888  20.784  -0.162  1.00  0.00    +0.000 C 
ATOM    102  H5  UNL A   1      36.741  19.845   0.244  1.00  0.00    +0.000 H 
ATOM      6  C5  UNL A   1      38.160  21.365  -0.134  1.00  0.00    +0.000 C 
ATOM    140  H43 UNL A   1      39.286  23.052  -0.723  1.00  0.00    +0.000 H 
ATOM    141  H44 UNL A   1      37.421  24.234  -1.728  1.00  0.00    +0.000 H 
ATOM     96  C69 UNL A   1      38.347  22.624  -0.720  1.00  0.00    +0.000 C 
BRANCH    3    2
ATOM      2  O1  UNL A   1      34.868  23.308  -1.813  1.00  0.00    +0.000 O 
BRANCH    2    1
ATOM      1  C1  UNL A   1      34.267  22.656  -2.925  1.00  0.00    +0.000 C 
ATOM     98  H1  UNL A   1      33.847  23.388  -3.583  1.00  0.00    +0.000 H 
ATOM     99  H2  UNL A   1      33.494  22.002  -2.580  1.00  0.00    +0.000 H 
ATOM    100  H3  UNL A   1      35.008  22.089  -3.449  1.00  0.00    +0.000 H 
ENDBRANCH    2    1
ENDBRANCH    3    2
ENDBRANCH    7    6
BRANCH   87   88
ATOM    133  H36 UNL A   1      37.841  22.212   2.923  1.00  0.00    +0.000 H 
ATOM    134  H37 UNL A   1      36.043  22.121   4.542  1.00  0.00    +0.000 H 
ATOM    138  H41 UNL A   1      36.404  17.943   4.729  1.00  0.00    +0.000 H 
ATOM    139  H42 UNL A   1      38.213  18.028   3.113  1.00  0.00    +0.000 H 
ATOM     88  C62 UNL A   1      38.167  20.126   2.878  1.00  0.00    +0.000 C 
ATOM     89  C63 UNL A   1      37.537  21.302   3.304  1.00  0.00    +0.000 C 
ATOM     90  C64 UNL A   1      36.502  21.248   4.237  1.00  0.00    +0.000 C 
ATOM     91  C65 UNL A   1      36.078  20.027   4.760  1.00  0.00    +0.000 C 
ATOM     94  C67 UNL A   1      36.708  18.851   4.346  1.00  0.00    +0.000 C 
ATOM     95  C68 UNL A   1      37.751  18.901   3.410  1.00  0.00    +0.000 C 
BRANCH   91   92
ATOM     92  O5  UNL A   1      35.055  20.120   5.660  1.00  0.00    +0.000 O 
BRANCH   92   93
ATOM    137  H40 UNL A   1      35.320  18.133   6.056  1.00  0.00    +0.000 H 
ATOM     93  C66 UNL A   1      34.627  18.916   6.281  1.00  0.00    +0.000 C 
ATOM    135  H38 UNL A   1      33.658  18.650   5.914  1.00  0.00    +0.000 H 
ATOM    136  H39 UNL A   1      34.581  19.057   7.340  1.00  0.00    +0.000 H 
ENDBRANCH   92   93
ENDBRANCH   91   92
ENDBRANCH   87   88
ENDBRANCH   11   10
ENDBRANCH   12   11
ENDBRANCH   14   12
ENDBRANCH   15   14
ENDBRANCH   16   15
ENDBRANCH   17   16
ENDBRANCH   18   17
ENDBRANCH   19   18
ENDBRANCH   20   19
ENDBRANCH   21   20
ENDBRANCH   22   21
ENDBRANCH   24   22
ENDBRANCH   28   27
BRANCH   32   33
ATOM     33  C25 UNL A   1      53.308  22.582  15.978  1.00  0.00    +0.000 C 
ATOM     34  C26 UNL A   1      52.420  22.233  17.007  1.00  0.00    +0.000 C 
ATOM     35  F1  UNL A   1      52.360  20.968  17.446  1.00  0.00    +0.000 F 
ATOM     36  C27 UNL A   1      51.567  23.180  17.567  1.00  0.00    +0.000 C 
ATOM     37  F2  UNL A   1      50.699  22.815  18.522  1.00  0.00    +0.000 F 
ATOM     38  C28 UNL A   1      51.605  24.497  17.132  1.00  0.00    +0.000 C 
ATOM     39  F3  UNL A   1      50.788  25.408  17.678  1.00  0.00    +0.000 F 
ATOM     40  C29 UNL A   1      52.487  24.867  16.129  1.00  0.00    +0.000 C 
ATOM     41  F4  UNL A   1      52.534  26.141  15.716  1.00  0.00    +0.000 F 
ATOM     42  C30 UNL A   1      53.324  23.918  15.548  1.00  0.00    +0.000 C 
ATOM     43  F5  UNL A   1      54.158  24.304  14.572  1.00  0.00    +0.000 F 
ENDBRANCH   32   33
BRANCH   49   50
ATOM     50  C36 UNL A   1      59.859  19.906  17.307  1.00  0.00    +0.000 C 
ATOM     51  C37 UNL A   1      60.849  20.890  17.164  1.00  0.00    +0.000 C 
ATOM     52  F6  UNL A   1      60.880  21.660  16.066  1.00  0.00    +0.000 F 
ATOM     53  C38 UNL A   1      61.829  21.062  18.137  1.00  0.00    +0.000 C 
ATOM     54  F7  UNL A   1      62.786  21.984  17.964  1.00  0.00    +0.000 F 
ATOM     55  C39 UNL A   1      61.822  20.277  19.280  1.00  0.00    +0.000 C 
ATOM     56  F8  UNL A   1      62.761  20.451  20.220  1.00  0.00    +0.000 F 
ATOM     57  C40 UNL A   1      60.847  19.305  19.445  1.00  0.00    +0.000 C 
ATOM     58  F9  UNL A   1      60.834  18.551  20.554  1.00  0.00    +0.000 F 
ATOM     59  C41 UNL A   1      59.880  19.112  18.463  1.00  0.00    +0.000 C 
ATOM     60  F10 UNL A   1      58.952  18.161  18.647  1.00  0.00    +0.000 F 
ENDBRANCH   49   50
BRANCH   64   65
ATOM     65  C45 UNL A   1      59.401  16.062  11.518  1.00  0.00    +0.000 C 
ATOM     66  C46 UNL A   1      60.279  16.522  10.527  1.00  0.00    +0.000 C 
ATOM     67  F11 UNL A   1      60.262  17.814  10.167  1.00  0.00    +0.000 F 
ATOM     68  C47 UNL A   1      61.148  15.651   9.876  1.00  0.00    +0.000 C 
ATOM     69  F12 UNL A   1      61.950  16.109   8.905  1.00  0.00    +0.000 F 
ATOM     70  C48 UNL A   1      61.176  14.308  10.222  1.00  0.00    +0.000 C 
ATOM     71  F13 UNL A   1      62.017  13.470   9.599  1.00  0.00    +0.000 F 
ATOM     72  C49 UNL A   1      60.327  13.832  11.209  1.00  0.00    +0.000 C 
ATOM     73  F14 UNL A   1      60.359  12.538  11.554  1.00  0.00    +0.000 F 
ATOM     74  C50 UNL A   1      59.439  14.698  11.844  1.00  0.00    +0.000 C 
ATOM     75  F15 UNL A   1      58.621  14.210  12.788  1.00  0.00    +0.000 F 
ENDBRANCH   64   65
TORSDOF 22
ENDMDL
MODEL 3
REMARK VINA RESULT:      -7.8     34.164     39.303
ROOT
ATOM    129  H32 UNL A   1      16.164  14.562  10.796  1.00  0.00    +0.000 H 
ATOM    130  H33 UNL A   1      18.251  14.044   9.404  1.00  0.00    +0.000 H 
ATOM     28  C21 UNL A   1      18.662  15.853   7.243  1.00  0.00    +0.000 C 
ATOM     29  C22 UNL A   1      17.610  15.927   8.312  1.00  0.00    +0.000 C 
ATOM     30  N4  UNL A   1      16.670  16.820   8.489  1.00  0.00    +0.000 N 
ATOM     31  C23 UNL A   1      15.946  16.394   9.594  1.00  0.00    +0.000 C 
ATOM     32  C24 UNL A   1      14.901  17.003  10.203  1.00  0.00    +0.000 C 
ATOM     44  C31 UNL A   1      14.342  18.263   9.789  1.00  0.00    +0.000 C 
ATOM     45  C32 UNL A   1      13.335  18.999  10.389  1.00  0.00    +0.000 C 
ATOM     46  C33 UNL A   1      13.095  20.132   9.605  1.00  0.00    +0.000 C 
ATOM     47  C34 UNL A   1      13.979  20.122   8.537  1.00  0.00    +0.000 C 
ATOM     48  N5  UNL A   1      14.741  18.972   8.666  1.00  0.00    +0.000 N 
ATOM     49  C35 UNL A   1      14.113  21.082   7.473  1.00  0.00    +0.000 C 
ATOM     61  C42 UNL A   1      15.050  21.035   6.495  1.00  0.00    +0.000 C 
ATOM     62  N6  UNL A   1      16.048  20.093   6.291  1.00  0.00    +0.000 N 
ATOM     63  C43 UNL A   1      16.687  20.474   5.213  1.00  0.00    +0.000 C 
ATOM     64  C44 UNL A   1      17.866  19.832   4.533  1.00  0.00    +0.000 C 
ATOM     76  C51 UNL A   1      18.399  18.712   5.055  1.00  0.00    +0.000 C 
ATOM     77  C52 UNL A   1      19.524  17.970   4.493  1.00  0.00    +0.000 C 
ATOM     78  C53 UNL A   1      19.724  16.860   5.222  1.00  0.00    +0.000 C 
ATOM     79  C54 UNL A   1      18.766  16.835   6.328  1.00  0.00    +0.000 C 
ATOM     80  N7  UNL A   1      18.042  17.990   6.168  1.00  0.00    +0.000 N 
ATOM     81  C55 UNL A   1      16.152  21.697   4.598  1.00  0.00    +0.000 C 
ATOM     82  C56 UNL A   1      15.175  22.014   5.437  1.00  0.00    +0.000 C 
ATOM     83  C57 UNL A   1      16.531  15.142  10.025  1.00  0.00    +0.000 C 
ATOM     84  C58 UNL A   1      17.599  14.838   9.301  1.00  0.00    +0.000 C 
ATOM    121  H24 UNL A   1      12.846  18.754  11.265  1.00  0.00    +0.000 H 
ATOM    122  H25 UNL A   1      12.381  20.854   9.790  1.00  0.00    +0.000 H 
ATOM    123  H26 UNL A   1      15.460  18.699   8.051  1.00  0.00    +0.000 H 
ATOM    124  H27 UNL A   1      20.076  18.253   3.669  1.00  0.00    +0.000 H 
ATOM    125  H28 UNL A   1      20.438  16.140   5.031  1.00  0.00    +0.000 H 
ATOM    126  H29 UNL A   1      17.335  18.275   6.792  1.00  0.00    +0.000 H 
ATOM    127  H30 UNL A   1      16.458  22.182   3.739  1.00  0.00    +0.000 H 
ATOM    128  H31 UNL A   1      14.580  22.852   5.346  1.00  0.00    +0.000 H 
ENDROOT
BRANCH   28   27
ATOM    131  H34 UNL A   1      21.125  15.522   8.224  1.00  0.00    +0.000 H 
ATOM    132  H35 UNL A   1      22.578  13.589   8.066  1.00  0.00    +0.000 H 
ATOM     27  C20 UNL A   1      19.532  14.656   7.135  1.00  0.00    +0.000 C 
ATOM     85  C59 UNL A   1      20.800  14.674   7.736  1.00  0.00    +0.000 C 
ATOM     86  C60 UNL A   1      21.623  13.551   7.678  1.00  0.00    +0.000 C 
ATOM    119  H22 UNL A   1      19.585  11.502   5.972  1.00  0.00    +0.000 H 
ATOM     24  C17 UNL A   1      21.151  12.374   7.090  1.00  0.00    +0.000 C 
ATOM     25  C18 UNL A   1      19.909  12.357   6.450  1.00  0.00    +0.000 C 
ATOM     26  C19 UNL A   1      19.107  13.501   6.459  1.00  0.00    +0.000 C 
ATOM    120  H23 UNL A   1      18.200  13.497   5.969  1.00  0.00    +0.000 H 
BRANCH   24   22
ATOM     22  C16 UNL A   1      21.959  11.135   7.118  1.00  0.00    +0.000 C 
ATOM     23  O4  UNL A   1      21.737  10.284   7.975  1.00  0.00    +0.000 O 
BRANCH   22   21
ATOM     21  N3  UNL A   1      22.958  10.944   6.197  1.00  0.00    +0.000 N 
ATOM    118  H21 UNL A   1      23.538  10.165   6.360  1.00  0.00    +0.000 H 
BRANCH   21   20
ATOM    116  H19 UNL A   1      23.135  12.764   5.235  1.00  0.00    +0.000 H 
ATOM     20  C15 UNL A   1      23.284  11.728   5.014  1.00  0.00    +0.000 C 
ATOM    117  H20 UNL A   1      24.302  11.528   4.757  1.00  0.00    +0.000 H 
BRANCH   20   19
ATOM    114  H17 UNL A   1      23.046  10.928   3.066  1.00  0.00    +0.000 H 
ATOM     19  C14 UNL A   1      22.414  11.350   3.818  1.00  0.00    +0.000 C 
ATOM    115  H18 UNL A   1      21.678  10.666   4.184  1.00  0.00    +0.000 H 
BRANCH   19   18
ATOM    113  H16 UNL A   1      20.608  12.316   3.363  1.00  0.00    +0.000 H 
ATOM     18  C13 UNL A   1      21.645  12.518   3.193  1.00  0.00    +0.000 C 
ATOM    112  H15 UNL A   1      21.907  12.570   2.156  1.00  0.00    +0.000 H 
BRANCH   18   17
ATOM     17  C12 UNL A   1      21.918  13.892   3.818  1.00  0.00    +0.000 C 
ATOM    110  H13 UNL A   1      20.981  14.393   3.941  1.00  0.00    +0.000 H 
ATOM    111  H14 UNL A   1      22.424  13.702   4.741  1.00  0.00    +0.000 H 
BRANCH   17   16
ATOM    108  H11 UNL A   1      23.856  14.589   3.274  1.00  0.00    +0.000 H 
ATOM    109  H12 UNL A   1      22.647  14.612   1.971  1.00  0.00    +0.000 H 
ATOM     16  C11 UNL A   1      22.844  14.807   3.005  1.00  0.00    +0.000 C 
BRANCH   16   15
ATOM    106  H9  UNL A   1      22.810  16.833   2.338  1.00  0.00    +0.000 H 
ATOM    107  H10 UNL A   1      21.564  16.427   3.513  1.00  0.00    +0.000 H 
ATOM     15  C10 UNL A   1      22.590  16.297   3.238  1.00  0.00    +0.000 C 
BRANCH   15   14
ATOM    105  H8  UNL A   1      23.422  16.280   5.138  1.00  0.00    +0.000 H 
ATOM     14  N2  UNL A   1      23.421  16.810   4.308  1.00  0.00    +0.000 N 
BRANCH   14   12
ATOM     12  C9  UNL A   1      24.205  17.929   4.319  1.00  0.00    +0.000 C 
ATOM     13  O3  UNL A   1      25.211  17.942   3.605  1.00  0.00    +0.000 O 
BRANCH   12   11
ATOM     11  C8  UNL A   1      23.899  19.072   5.269  1.00  0.00    +0.000 C 
ATOM    103  H6  UNL A   1      24.774  19.681   5.364  1.00  0.00    +0.000 H 
ATOM    104  H7  UNL A   1      23.078  19.622   4.861  1.00  0.00    +0.000 H 
BRANCH   11   10
ATOM      7  C6  UNL A   1      23.136  17.757   8.636  1.00  0.00    +0.000 C 
ATOM      8  N1  UNL A   1      21.945  18.170   8.177  1.00  0.00    +0.000 N 
ATOM      9  O2  UNL A   1      22.180  18.715   6.930  1.00  0.00    +0.000 O 
ATOM     10  C7  UNL A   1      23.498  18.602   6.617  1.00  0.00    +0.000 C 
ATOM     87  C61 UNL A   1      24.164  18.031   7.683  1.00  0.00    +0.000 C 
BRANCH    7    6
ATOM     97  C70 UNL A   1      23.680  15.057  11.206  1.00  0.00    +0.000 C 
ATOM      3  C2  UNL A   1      23.326  15.720  12.381  1.00  0.00    +0.000 C 
ATOM      4  C3  UNL A   1      22.957  17.067  12.324  1.00  0.00    +0.000 C 
ATOM    101  H4  UNL A   1      22.694  17.561  13.191  1.00  0.00    +0.000 H 
ATOM      5  C4  UNL A   1      22.940  17.751  11.106  1.00  0.00    +0.000 C 
ATOM    102  H5  UNL A   1      22.680  18.750  11.079  1.00  0.00    +0.000 H 
ATOM      6  C5  UNL A   1      23.273  17.084   9.922  1.00  0.00    +0.000 C 
ATOM    140  H43 UNL A   1      23.923  15.242   9.118  1.00  0.00    +0.000 H 
ATOM    141  H44 UNL A   1      23.960  14.066  11.239  1.00  0.00    +0.000 H 
ATOM     96  C69 UNL A   1      23.656  15.738   9.984  1.00  0.00    +0.000 C 
BRANCH    3    2
ATOM      2  O1  UNL A   1      23.277  15.162  13.629  1.00  0.00    +0.000 O 
BRANCH    2    1
ATOM      1  C1  UNL A   1      22.563  15.889  14.622  1.00  0.00    +0.000 C 
ATOM     98  H1  UNL A   1      23.133  15.909  15.527  1.00  0.00    +0.000 H 
ATOM     99  H2  UNL A   1      21.622  15.416  14.804  1.00  0.00    +0.000 H 
ATOM    100  H3  UNL A   1      22.400  16.891  14.281  1.00  0.00    +0.000 H 
ENDBRANCH    2    1
ENDBRANCH    3    2
ENDBRANCH    7    6
BRANCH   87   88
ATOM    133  H36 UNL A   1      26.201  19.486   8.575  1.00  0.00    +0.000 H 
ATOM    134  H37 UNL A   1      28.553  18.915   8.601  1.00  0.00    +0.000 H 
ATOM    138  H41 UNL A   1      27.687  15.209   6.829  1.00  0.00    +0.000 H 
ATOM    139  H42 UNL A   1      25.327  15.779   6.793  1.00  0.00    +0.000 H 
ATOM     88  C62 UNL A   1      25.571  17.675   7.691  1.00  0.00    +0.000 C 
ATOM     89  C63 UNL A   1      26.513  18.575   8.205  1.00  0.00    +0.000 C 
ATOM     90  C64 UNL A   1      27.868  18.244   8.218  1.00  0.00    +0.000 C 
ATOM     91  C65 UNL A   1      28.306  17.017   7.722  1.00  0.00    +0.000 C 
ATOM     94  C67 UNL A   1      27.372  16.118   7.201  1.00  0.00    +0.000 C 
ATOM     95  C68 UNL A   1      26.010  16.448   7.183  1.00  0.00    +0.000 C 
BRANCH   91   92
ATOM     92  O5  UNL A   1      29.656  16.823   7.800  1.00  0.00    +0.000 O 
BRANCH   92   93
ATOM    137  H40 UNL A   1      31.507  17.474   7.229  1.00  0.00    +0.000 H 
ATOM     93  C66 UNL A   1      30.485  17.783   7.160  1.00  0.00    +0.000 C 
ATOM    135  H38 UNL A   1      30.367  18.732   7.638  1.00  0.00    +0.000 H 
ATOM    136  H39 UNL A   1      30.207  17.865   6.130  1.00  0.00    +0.000 H 
ENDBRANCH   92   93
ENDBRANCH   91   92
ENDBRANCH   87   88
ENDBRANCH   11   10
ENDBRANCH   12   11
ENDBRANCH   14   12
ENDBRANCH   15   14
ENDBRANCH   16   15
ENDBRANCH   17   16
ENDBRANCH   18   17
ENDBRANCH   19   18
ENDBRANCH   20   19
ENDBRANCH   21   20
ENDBRANCH   22   21
ENDBRANCH   24   22
ENDBRANCH   28   27
BRANCH   32   33
ATOM     33  C25 UNL A   1      14.291  16.314  11.387  1.00  0.00    +0.000 C 
ATOM     34  C26 UNL A   1      14.626  16.677  12.701  1.00  0.00    +0.000 C 
ATOM     35  F1  UNL A   1      15.548  17.624  12.924  1.00  0.00    +0.000 F 
ATOM     36  C27 UNL A   1      14.037  16.041  13.790  1.00  0.00    +0.000 C 
ATOM     37  F2  UNL A   1      14.403  16.376  15.036  1.00  0.00    +0.000 F 
ATOM     38  C28 UNL A   1      13.081  15.056  13.590  1.00  0.00    +0.000 C 
ATOM     39  F3  UNL A   1      12.510  14.452  14.641  1.00  0.00    +0.000 F 
ATOM     40  C29 UNL A   1      12.721  14.696  12.300  1.00  0.00    +0.000 C 
ATOM     41  F4  UNL A   1      11.789  13.752  12.105  1.00  0.00    +0.000 F 
ATOM     42  C30 UNL A   1      13.327  15.310  11.207  1.00  0.00    +0.000 C 
ATOM     43  F5  UNL A   1      12.967  14.932   9.973  1.00  0.00    +0.000 F 
ENDBRANCH   32   33
BRANCH   49   50
ATOM     50  C36 UNL A   1      13.153  22.234   7.448  1.00  0.00    +0.000 C 
ATOM     51  C37 UNL A   1      13.450  23.444   8.092  1.00  0.00    +0.000 C 
ATOM     52  F6  UNL A   1      14.581  23.570   8.802  1.00  0.00    +0.000 F 
ATOM     53  C38 UNL A   1      12.568  24.519   8.031  1.00  0.00    +0.000 C 
ATOM     54  F7  UNL A   1      12.855  25.655   8.683  1.00  0.00    +0.000 F 
ATOM     55  C39 UNL A   1      11.391  24.415   7.307  1.00  0.00    +0.000 C 
ATOM     56  F8  UNL A   1      10.547  25.455   7.242  1.00  0.00    +0.000 F 
ATOM     57  C40 UNL A   1      11.082  23.230   6.655  1.00  0.00    +0.000 C 
ATOM     58  F9  UNL A   1       9.948  23.132   5.947  1.00  0.00    +0.000 F 
ATOM     59  C41 UNL A   1      11.950  22.144   6.733  1.00  0.00    +0.000 C 
ATOM     60  F10 UNL A   1      11.623  21.009   6.099  1.00  0.00    +0.000 F 
ENDBRANCH   49   50
BRANCH   64   65
ATOM     65  C45 UNL A   1      18.449  20.425   3.304  1.00  0.00    +0.000 C 
ATOM     66  C46 UNL A   1      17.859  20.206   2.052  1.00  0.00    +0.000 C 
ATOM     67  F11 UNL A   1      16.770  19.429   1.954  1.00  0.00    +0.000 F 
ATOM     68  C47 UNL A   1      18.405  20.751   0.893  1.00  0.00    +0.000 C 
ATOM     69  F12 UNL A   1      17.843  20.494  -0.296  1.00  0.00    +0.000 F 
ATOM     70  C48 UNL A   1      19.538  21.549   0.967  1.00  0.00    +0.000 C 
ATOM     71  F13 UNL A   1      20.061  22.078  -0.148  1.00  0.00    +0.000 F 
ATOM     72  C49 UNL A   1      20.132  21.791   2.196  1.00  0.00    +0.000 C 
ATOM     73  F14 UNL A   1      21.220  22.570   2.272  1.00  0.00    +0.000 F 
ATOM     74  C50 UNL A   1      19.600  21.226   3.353  1.00  0.00    +0.000 C 
ATOM     75  F15 UNL A   1      20.200  21.467   4.528  1.00  0.00    +0.000 F 
ENDBRANCH   64   65
TORSDOF 22
ENDMDL
MODEL 4
REMARK VINA RESULT:      -7.6      1.590      7.970
ROOT
ATOM    129  H32 UNL A   1      28.192 -12.329  28.480  1.00  0.00    +0.000 H 
ATOM    130  H33 UNL A   1      29.673 -14.124  29.551  1.00  0.00    +0.000 H 
ATOM     28  C21 UNL A   1      29.094 -14.594  32.299  1.00  0.00    +0.000 C 
ATOM     29  C22 UNL A   1      28.354 -13.699  31.347  1.00  0.00    +0.000 C 
ATOM     30  N4  UNL A   1      27.300 -12.953  31.561  1.00  0.00    +0.000 N 
ATOM     31  C23 UNL A   1      27.052 -12.296  30.363  1.00  0.00    +0.000 C 
ATOM     32  C24 UNL A   1      26.041 -11.448  30.061  1.00  0.00    +0.000 C 
ATOM     44  C31 UNL A   1      24.996 -11.072  30.976  1.00  0.00    +0.000 C 
ATOM     45  C32 UNL A   1      23.884 -10.281  30.738  1.00  0.00    +0.000 C 
ATOM     46  C33 UNL A   1      23.175 -10.154  31.937  1.00  0.00    +0.000 C 
ATOM     47  C34 UNL A   1      23.823 -10.895  32.912  1.00  0.00    +0.000 C 
ATOM     48  N5  UNL A   1      24.936 -11.457  32.307  1.00  0.00    +0.000 N 
ATOM     49  C35 UNL A   1      23.462 -11.072  34.295  1.00  0.00    +0.000 C 
ATOM     61  C42 UNL A   1      24.116 -11.870  35.173  1.00  0.00    +0.000 C 
ATOM     62  N6  UNL A   1      25.237 -12.661  34.964  1.00  0.00    +0.000 N 
ATOM     63  C43 UNL A   1      25.495 -13.229  36.116  1.00  0.00    +0.000 C 
ATOM     64  C44 UNL A   1      26.592 -14.195  36.471  1.00  0.00    +0.000 C 
ATOM     76  C51 UNL A   1      27.464 -14.583  35.520  1.00  0.00    +0.000 C 
ATOM     77  C52 UNL A   1      28.588 -15.492  35.724  1.00  0.00    +0.000 C 
ATOM     78  C53 UNL A   1      29.293 -15.577  34.584  1.00  0.00    +0.000 C 
ATOM     79  C54 UNL A   1      28.644 -14.762  33.557  1.00  0.00    +0.000 C 
ATOM     80  N7  UNL A   1      27.547 -14.235  34.194  1.00  0.00    +0.000 N 
ATOM     81  C55 UNL A   1      24.573 -12.848  37.195  1.00  0.00    +0.000 C 
ATOM     82  C56 UNL A   1      23.734 -12.042  36.559  1.00  0.00    +0.000 C 
ATOM     83  C57 UNL A   1      28.088 -12.701  29.437  1.00  0.00    +0.000 C 
ATOM     84  C58 UNL A   1      28.885 -13.611  29.978  1.00  0.00    +0.000 C 
ATOM    121  H24 UNL A   1      23.623  -9.860  29.833  1.00  0.00    +0.000 H 
ATOM    122  H25 UNL A   1      22.314  -9.601  32.073  1.00  0.00    +0.000 H 
ATOM    123  H26 UNL A   1      25.587 -12.044  32.755  1.00  0.00    +0.000 H 
ATOM    124  H27 UNL A   1      28.806 -15.987  36.602  1.00  0.00    +0.000 H 
ATOM    125  H28 UNL A   1      30.154 -16.131  34.454  1.00  0.00    +0.000 H 
ATOM    126  H29 UNL A   1      26.884 -13.663  33.743  1.00  0.00    +0.000 H 
ATOM    127  H30 UNL A   1      24.578 -13.133  38.187  1.00  0.00    +0.000 H 
ATOM    128  H31 UNL A   1      22.914 -11.594  36.997  1.00  0.00    +0.000 H 
ENDROOT
BRANCH   28   27
ATOM    131  H34 UNL A   1      29.444 -16.964  31.116  1.00  0.00    +0.000 H 
ATOM    132  H35 UNL A   1      31.509 -18.032  30.434  1.00  0.00    +0.000 H 
ATOM     27  C20 UNL A   1      30.371 -15.226  31.889  1.00  0.00    +0.000 C 
ATOM     85  C59 UNL A   1      30.344 -16.482  31.262  1.00  0.00    +0.000 C 
ATOM     86  C60 UNL A   1      31.527 -17.082  30.837  1.00  0.00    +0.000 C 
ATOM    119  H22 UNL A   1      33.686 -14.682  31.753  1.00  0.00    +0.000 H 
ATOM     24  C17 UNL A   1      32.738 -16.395  30.958  1.00  0.00    +0.000 C 
ATOM     25  C18 UNL A   1      32.784 -15.164  31.619  1.00  0.00    +0.000 C 
ATOM     26  C19 UNL A   1      31.604 -14.588  32.096  1.00  0.00    +0.000 C 
ATOM    120  H23 UNL A   1      31.638 -13.690  32.604  1.00  0.00    +0.000 H 
BRANCH   24   22
ATOM     22  C16 UNL A   1      33.989 -16.959  30.409  1.00  0.00    +0.000 C 
ATOM     23  O4  UNL A   1      34.901 -17.273  31.171  1.00  0.00    +0.000 O 
BRANCH   22   21
ATOM     21  N3  UNL A   1      34.135 -17.123  29.054  1.00  0.00    +0.000 N 
ATOM    118  H21 UNL A   1      34.349 -18.038  28.761  1.00  0.00    +0.000 H 
BRANCH   21   20
ATOM    116  H19 UNL A   1      34.325 -15.184  28.367  1.00  0.00    +0.000 H 
ATOM     20  C15 UNL A   1      34.020 -16.137  27.989  1.00  0.00    +0.000 C 
ATOM    117  H20 UNL A   1      34.644 -16.452  27.180  1.00  0.00    +0.000 H 
BRANCH   20   19
ATOM    114  H17 UNL A   1      32.630 -15.987  26.396  1.00  0.00    +0.000 H 
ATOM     19  C14 UNL A   1      32.591 -16.024  27.464  1.00  0.00    +0.000 C 
ATOM    115  H18 UNL A   1      32.063 -16.876  27.838  1.00  0.00    +0.000 H 
BRANCH   19   18
ATOM    113  H16 UNL A   1      31.836 -14.841  29.023  1.00  0.00    +0.000 H 
ATOM     18  C13 UNL A   1      31.825 -14.791  27.955  1.00  0.00    +0.000 C 
ATOM    112  H15 UNL A   1      30.841 -14.824  27.534  1.00  0.00    +0.000 H 
BRANCH   18   17
ATOM     17  C12 UNL A   1      32.452 -13.441  27.586  1.00  0.00    +0.000 C 
ATOM    110  H13 UNL A   1      33.234 -13.620  26.878  1.00  0.00    +0.000 H 
ATOM    111  H14 UNL A   1      31.656 -12.840  27.200  1.00  0.00    +0.000 H 
BRANCH   17   16
ATOM    108  H11 UNL A   1      33.675 -13.314  29.326  1.00  0.00    +0.000 H 
ATOM    109  H12 UNL A   1      33.591 -11.832  28.346  1.00  0.00    +0.000 H 
ATOM     16  C11 UNL A   1      33.048 -12.655  28.762  1.00  0.00    +0.000 C 
BRANCH   16   15
ATOM    106  H9  UNL A   1      31.358 -12.856  30.050  1.00  0.00    +0.000 H 
ATOM    107  H10 UNL A   1      32.494 -11.597  30.522  1.00  0.00    +0.000 H 
ATOM     15  C10 UNL A   1      31.993 -12.068  29.702  1.00  0.00    +0.000 C 
BRANCH   15   14
ATOM    105  H8  UNL A   1      30.930 -11.289  28.100  1.00  0.00    +0.000 H 
ATOM     14  N2  UNL A   1      31.184 -11.074  29.027  1.00  0.00    +0.000 N 
BRANCH   14   12
ATOM     12  C9  UNL A   1      30.725  -9.878  29.504  1.00  0.00    +0.000 C 
ATOM     13  O3  UNL A   1      30.058  -9.884  30.541  1.00  0.00    +0.000 O 
BRANCH   12   11
ATOM     11  C8  UNL A   1      30.941  -8.602  28.712  1.00  0.00    +0.000 C 
ATOM    103  H6  UNL A   1      30.052  -8.388  28.157  1.00  0.00    +0.000 H 
ATOM    104  H7  UNL A   1      31.167  -7.822  29.410  1.00  0.00    +0.000 H 
BRANCH   11   10
ATOM      7  C6  UNL A   1      33.615  -9.005  26.196  1.00  0.00    +0.000 C 
ATOM      8  N1  UNL A   1      34.272  -8.625  27.302  1.00  0.00    +0.000 N 
ATOM      9  O2  UNL A   1      33.310  -8.415  28.270  1.00  0.00    +0.000 O 
ATOM     10  C7  UNL A   1      32.079  -8.702  27.768  1.00  0.00    +0.000 C 
ATOM     87  C61 UNL A   1      32.208  -9.048  26.437  1.00  0.00    +0.000 C 
BRANCH    7    6
ATOM     97  C70 UNL A   1      34.928  -8.843  22.669  1.00  0.00    +0.000 C 
ATOM      3  C2  UNL A   1      35.479 -10.116  22.522  1.00  0.00    +0.000 C 
ATOM      4  C3  UNL A   1      35.459 -11.001  23.603  1.00  0.00    +0.000 C 
ATOM    101  H4  UNL A   1      35.867 -11.944  23.499  1.00  0.00    +0.000 H 
ATOM      5  C4  UNL A   1      34.892 -10.624  24.823  1.00  0.00    +0.000 C 
ATOM    102  H5  UNL A   1      34.897 -11.282  25.619  1.00  0.00    +0.000 H 
ATOM      6  C5  UNL A   1      34.318  -9.357  24.968  1.00  0.00    +0.000 C 
ATOM    140  H43 UNL A   1      33.949  -7.522  23.990  1.00  0.00    +0.000 H 
ATOM    141  H44 UNL A   1      34.945  -8.181  21.879  1.00  0.00    +0.000 H 
ATOM     96  C69 UNL A   1      34.352  -8.466  23.887  1.00  0.00    +0.000 C 
BRANCH    3    2
ATOM      2  O1  UNL A   1      36.040 -10.616  21.379  1.00  0.00    +0.000 O 
BRANCH    2    1
ATOM      1  C1  UNL A   1      37.330 -10.126  21.037  1.00  0.00    +0.000 C 
ATOM     98  H1  UNL A   1      37.256  -9.098  20.750  1.00  0.00    +0.000 H 
ATOM     99  H2  UNL A   1      37.725 -10.695  20.222  1.00  0.00    +0.000 H 
ATOM    100  H3  UNL A   1      37.981 -10.214  21.882  1.00  0.00    +0.000 H 
ENDBRANCH    2    1
ENDBRANCH    3    2
ENDBRANCH    7    6
BRANCH   87   88
ATOM    133  H36 UNL A   1      31.483 -11.553  25.921  1.00  0.00    +0.000 H 
ATOM    134  H37 UNL A   1      29.678 -12.328  24.507  1.00  0.00    +0.000 H 
ATOM    138  H41 UNL A   1      28.667  -8.358  23.595  1.00  0.00    +0.000 H 
ATOM    139  H42 UNL A   1      30.481  -7.573  25.005  1.00  0.00    +0.000 H 
ATOM     88  C62 UNL A   1      31.123  -9.499  25.586  1.00  0.00    +0.000 C 
ATOM     89  C63 UNL A   1      30.885 -10.870  25.429  1.00  0.00    +0.000 C 
ATOM     90  C64 UNL A   1      29.845 -11.315  24.614  1.00  0.00    +0.000 C 
ATOM     91  C65 UNL A   1      29.028 -10.406  23.943  1.00  0.00    +0.000 C 
ATOM     94  C67 UNL A   1      29.265  -9.038  24.089  1.00  0.00    +0.000 C 
ATOM     95  C68 UNL A   1      30.310  -8.586  24.906  1.00  0.00    +0.000 C 
BRANCH   91   92
ATOM     92  O5  UNL A   1      28.047 -10.979  23.183  1.00  0.00    +0.000 O 
BRANCH   92   93
ATOM    137  H40 UNL A   1      28.102 -11.643  21.251  1.00  0.00    +0.000 H 
ATOM     93  C66 UNL A   1      28.075 -10.717  21.787  1.00  0.00    +0.000 C 
ATOM    135  H38 UNL A   1      28.946 -10.143  21.549  1.00  0.00    +0.000 H 
ATOM    136  H39 UNL A   1      27.199 -10.170  21.508  1.00  0.00    +0.000 H 
ENDBRANCH   92   93
ENDBRANCH   91   92
ENDBRANCH   87   88
ENDBRANCH   11   10
ENDBRANCH   12   11
ENDBRANCH   14   12
ENDBRANCH   15   14
ENDBRANCH   16   15
ENDBRANCH   17   16
ENDBRANCH   18   17
ENDBRANCH   19   18
ENDBRANCH   20   19
ENDBRANCH   21   20
ENDBRANCH   22   21
ENDBRANCH   24   22
ENDBRANCH   28   27
BRANCH   32   33
ATOM     33  C25 UNL A   1      26.014 -10.866  28.679  1.00  0.00    +0.000 C 
ATOM     34  C26 UNL A   1      26.720  -9.696  28.361  1.00  0.00    +0.000 C 
ATOM     35  F1  UNL A   1      27.402  -9.040  29.312  1.00  0.00    +0.000 F 
ATOM     36  C27 UNL A   1      26.700  -9.177  27.069  1.00  0.00    +0.000 C 
ATOM     37  F2  UNL A   1      27.349  -8.036  26.799  1.00  0.00    +0.000 F 
ATOM     38  C28 UNL A   1      26.002  -9.832  26.065  1.00  0.00    +0.000 C 
ATOM     39  F3  UNL A   1      25.991  -9.335  24.821  1.00  0.00    +0.000 F 
ATOM     40  C29 UNL A   1      25.313 -11.000  26.353  1.00  0.00    +0.000 C 
ATOM     41  F4  UNL A   1      24.647 -11.641  25.382  1.00  0.00    +0.000 F 
ATOM     42  C30 UNL A   1      25.308 -11.508  27.650  1.00  0.00    +0.000 C 
ATOM     43  F5  UNL A   1      24.622 -12.633  27.900  1.00  0.00    +0.000 F 
ENDBRANCH   32   33
BRANCH   49   50
ATOM     50  C36 UNL A   1      22.263 -10.329  34.802  1.00  0.00    +0.000 C 
ATOM     51  C37 UNL A   1      22.378  -9.036  35.333  1.00  0.00    +0.000 C 
ATOM     52  F6  UNL A   1      23.584  -8.462  35.457  1.00  0.00    +0.000 F 
ATOM     53  C38 UNL A   1      21.253  -8.341  35.768  1.00  0.00    +0.000 C 
ATOM     54  F7  UNL A   1      21.388  -7.120  36.304  1.00  0.00    +0.000 F 
ATOM     55  C39 UNL A   1      19.994  -8.912  35.656  1.00  0.00    +0.000 C 
ATOM     56  F8  UNL A   1      18.911  -8.237  36.066  1.00  0.00    +0.000 F 
ATOM     57  C40 UNL A   1      19.858 -10.186  35.125  1.00  0.00    +0.000 C 
ATOM     58  F9  UNL A   1      18.640 -10.735  35.007  1.00  0.00    +0.000 F 
ATOM     59  C41 UNL A   1      20.983 -10.894  34.712  1.00  0.00    +0.000 C 
ATOM     60  F10 UNL A   1      20.822 -12.127  34.208  1.00  0.00    +0.000 F 
ENDBRANCH   49   50
BRANCH   64   65
ATOM     65  C45 UNL A   1      26.718 -14.729  37.850  1.00  0.00    +0.000 C 
ATOM     66  C46 UNL A   1      27.510 -14.074  38.803  1.00  0.00    +0.000 C 
ATOM     67  F11 UNL A   1      28.187 -12.968  38.463  1.00  0.00    +0.000 F 
ATOM     68  C47 UNL A   1      27.640 -14.574  40.096  1.00  0.00    +0.000 C 
ATOM     69  F12 UNL A   1      28.434 -13.950  40.977  1.00  0.00    +0.000 F 
ATOM     70  C48 UNL A   1      26.959 -15.724  40.469  1.00  0.00    +0.000 C 
ATOM     71  F13 UNL A   1      27.080 -16.202  41.716  1.00  0.00    +0.000 F 
ATOM     72  C49 UNL A   1      26.159 -16.381  39.548  1.00  0.00    +0.000 C 
ATOM     73  F14 UNL A   1      25.491 -17.486  39.908  1.00  0.00    +0.000 F 
ATOM     74  C50 UNL A   1      26.047 -15.896  38.247  1.00  0.00    +0.000 C 
ATOM     75  F15 UNL A   1      25.276 -16.557  37.371  1.00  0.00    +0.000 F 
ENDBRANCH   64   65
TORSDOF 22
ENDMDL
MODEL 5
REMARK VINA RESULT:      -7.6     66.379     71.530
ROOT
ATOM    129  H32 UNL A   1      12.044  54.676   4.540  1.00  0.00    +0.000 H 
ATOM    130  H33 UNL A   1      11.626  52.158   4.757  1.00  0.00    +0.000 H 
ATOM     28  C21 UNL A   1      13.149  50.585   2.936  1.00  0.00    +0.000 C 
ATOM     29  C22 UNL A   1      13.228  52.068   3.154  1.00  0.00    +0.000 C 
ATOM     30  N4  UNL A   1      14.000  52.950   2.570  1.00  0.00    +0.000 N 
ATOM     31  C23 UNL A   1      13.639  54.180   3.106  1.00  0.00    +0.000 C 
ATOM     32  C24 UNL A   1      14.179  55.397   2.859  1.00  0.00    +0.000 C 
ATOM     44  C31 UNL A   1      15.279  55.630   1.960  1.00  0.00    +0.000 C 
ATOM     45  C32 UNL A   1      15.947  56.815   1.703  1.00  0.00    +0.000 C 
ATOM     46  C33 UNL A   1      16.914  56.568   0.723  1.00  0.00    +0.000 C 
ATOM     47  C34 UNL A   1      16.874  55.222   0.396  1.00  0.00    +0.000 C 
ATOM     48  N5  UNL A   1      15.869  54.658   1.166  1.00  0.00    +0.000 N 
ATOM     49  C35 UNL A   1      17.682  54.503  -0.555  1.00  0.00    +0.000 C 
ATOM     61  C42 UNL A   1      17.626  53.167  -0.771  1.00  0.00    +0.000 C 
ATOM     62  N6  UNL A   1      16.810  52.221  -0.167  1.00  0.00    +0.000 N 
ATOM     63  C43 UNL A   1      17.118  51.075  -0.721  1.00  0.00    +0.000 C 
ATOM     64  C44 UNL A   1      16.555  49.707  -0.446  1.00  0.00    +0.000 C 
ATOM     76  C51 UNL A   1      15.604  49.562   0.496  1.00  0.00    +0.000 C 
ATOM     77  C52 UNL A   1      14.952  48.305   0.852  1.00  0.00    +0.000 C 
ATOM     78  C53 UNL A   1      13.995  48.552   1.761  1.00  0.00    +0.000 C 
ATOM     79  C54 UNL A   1      13.996  49.980   2.082  1.00  0.00    +0.000 C 
ATOM     80  N7  UNL A   1      15.006  50.494   1.308  1.00  0.00    +0.000 N 
ATOM     81  C55 UNL A   1      18.157  51.167  -1.757  1.00  0.00    +0.000 C 
ATOM     82  C56 UNL A   1      18.452  52.459  -1.726  1.00  0.00    +0.000 C 
ATOM     83  C57 UNL A   1      12.554  53.936   4.031  1.00  0.00    +0.000 C 
ATOM     84  C58 UNL A   1      12.300  52.640   4.141  1.00  0.00    +0.000 C 
ATOM    121  H24 UNL A   1      15.765  57.724   2.157  1.00  0.00    +0.000 H 
ATOM    122  H25 UNL A   1      17.549  57.269   0.312  1.00  0.00    +0.000 H 
ATOM    123  H26 UNL A   1      15.613  53.707   1.153  1.00  0.00    +0.000 H 
ATOM    124  H27 UNL A   1      15.188  47.378   0.467  1.00  0.00    +0.000 H 
ATOM    125  H28 UNL A   1      13.360  47.847   2.168  1.00  0.00    +0.000 H 
ATOM    126  H29 UNL A   1      15.277  51.441   1.334  1.00  0.00    +0.000 H 
ATOM    127  H30 UNL A   1      18.552  50.422  -2.352  1.00  0.00    +0.000 H 
ATOM    128  H31 UNL A   1      19.180  52.904  -2.308  1.00  0.00    +0.000 H 
ENDROOT
BRANCH   28   27
ATOM    131  H34 UNL A   1      10.672  50.122   2.048  1.00  0.00    +0.000 H 
ATOM    132  H35 UNL A   1       8.898  48.839   3.087  1.00  0.00    +0.000 H 
ATOM     27  C20 UNL A   1      12.080  49.791   3.592  1.00  0.00    +0.000 C 
ATOM     85  C59 UNL A   1      10.838  49.653   2.951  1.00  0.00    +0.000 C 
ATOM     86  C60 UNL A   1       9.829  48.886   3.529  1.00  0.00    +0.000 C 
ATOM    119  H22 UNL A   1      11.462  47.866   6.278  1.00  0.00    +0.000 H 
ATOM     24  C17 UNL A   1      10.082  48.182   4.710  1.00  0.00    +0.000 C 
ATOM     25  C18 UNL A   1      11.297  48.347   5.379  1.00  0.00    +0.000 C 
ATOM     26  C19 UNL A   1      12.289  49.161   4.829  1.00  0.00    +0.000 C 
ATOM    120  H23 UNL A   1      13.179  49.301   5.332  1.00  0.00    +0.000 H 
BRANCH   24   22
ATOM     22  C16 UNL A   1       9.068  47.270   5.281  1.00  0.00    +0.000 C 
ATOM     23  O4  UNL A   1       7.935  47.686   5.510  1.00  0.00    +0.000 O 
BRANCH   22   21
ATOM     21  N3  UNL A   1       9.395  45.967   5.563  1.00  0.00    +0.000 N 
ATOM    118  H21 UNL A   1       9.698  45.432   4.794  1.00  0.00    +0.000 H 
BRANCH   21   20
ATOM    116  H19 UNL A   1       8.453  45.523   7.348  1.00  0.00    +0.000 H 
ATOM     20  C15 UNL A   1       9.357  45.263   6.837  1.00  0.00    +0.000 C 
ATOM    117  H20 UNL A   1       9.401  44.213   6.634  1.00  0.00    +0.000 H 
BRANCH   20   19
ATOM    114  H17 UNL A   1      10.803  44.755   8.301  1.00  0.00    +0.000 H 
ATOM     19  C14 UNL A   1      10.545  45.619   7.726  1.00  0.00    +0.000 C 
ATOM    115  H18 UNL A   1      11.328  45.939   7.071  1.00  0.00    +0.000 H 
BRANCH   19   18
ATOM    113  H16 UNL A   1       9.452  46.491   9.290  1.00  0.00    +0.000 H 
ATOM     18  C13 UNL A   1      10.293  46.779   8.695  1.00  0.00    +0.000 C 
ATOM    112  H15 UNL A   1      10.126  47.663   8.116  1.00  0.00    +0.000 H 
BRANCH   18   17
ATOM     17  C12 UNL A   1      11.432  47.068   9.681  1.00  0.00    +0.000 C 
ATOM    110  H13 UNL A   1      11.789  48.059   9.494  1.00  0.00    +0.000 H 
ATOM    111  H14 UNL A   1      11.017  46.942  10.659  1.00  0.00    +0.000 H 
BRANCH   17   16
ATOM    108  H11 UNL A   1      12.682  45.557  10.513  1.00  0.00    +0.000 H 
ATOM    109  H12 UNL A   1      12.462  45.476   8.750  1.00  0.00    +0.000 H 
ATOM     16  C11 UNL A   1      12.627  46.109   9.598  1.00  0.00    +0.000 C 
BRANCH   16   15
ATOM    106  H9  UNL A   1      14.097  47.558  10.137  1.00  0.00    +0.000 H 
ATOM    107  H10 UNL A   1      14.746  46.086   9.421  1.00  0.00    +0.000 H 
ATOM     15  C10 UNL A   1      13.965  46.816   9.377  1.00  0.00    +0.000 C 
BRANCH   15   14
ATOM    105  H8  UNL A   1      13.145  47.767   7.725  1.00  0.00    +0.000 H 
ATOM     14  N2  UNL A   1      14.010  47.459   8.079  1.00  0.00    +0.000 N 
BRANCH   14   12
ATOM     12  C9  UNL A   1      15.094  47.694   7.279  1.00  0.00    +0.000 C 
ATOM     13  O3  UNL A   1      15.258  46.969   6.295  1.00  0.00    +0.000 O 
BRANCH   12   11
ATOM     11  C8  UNL A   1      16.118  48.745   7.663  1.00  0.00    +0.000 C 
ATOM    103  H6  UNL A   1      16.347  48.636   8.703  1.00  0.00    +0.000 H 
ATOM    104  H7  UNL A   1      16.983  48.593   7.052  1.00  0.00    +0.000 H 
BRANCH   11   10
ATOM      7  C6  UNL A   1      14.791  52.174   7.313  1.00  0.00    +0.000 C 
ATOM      8  N1  UNL A   1      15.111  51.826   6.058  1.00  0.00    +0.000 N 
ATOM      9  O2  UNL A   1      15.658  50.561   6.136  1.00  0.00    +0.000 O 
ATOM     10  C7  UNL A   1      15.636  50.126   7.424  1.00  0.00    +0.000 C 
ATOM     87  C61 UNL A   1      15.127  51.128   8.226  1.00  0.00    +0.000 C 
BRANCH    7    6
ATOM     97  C70 UNL A   1      14.295  55.774   8.307  1.00  0.00    +0.000 C 
ATOM      3  C2  UNL A   1      12.906  55.840   8.416  1.00  0.00    +0.000 C 
ATOM      4  C3  UNL A   1      12.140  54.711   8.114  1.00  0.00    +0.000 C 
ATOM    101  H4  UNL A   1      11.111  54.757   8.193  1.00  0.00    +0.000 H 
ATOM      5  C4  UNL A   1      12.750  53.523   7.706  1.00  0.00    +0.000 C 
ATOM    102  H5  UNL A   1      12.172  52.701   7.470  1.00  0.00    +0.000 H 
ATOM      6  C5  UNL A   1      14.144  53.445   7.617  1.00  0.00    +0.000 C 
ATOM    140  H43 UNL A   1      15.937  54.541   7.824  1.00  0.00    +0.000 H 
ATOM    141  H44 UNL A   1      14.868  56.603   8.522  1.00  0.00    +0.000 H 
ATOM     96  C69 UNL A   1      14.909  54.582   7.907  1.00  0.00    +0.000 C 
BRANCH    3    2
ATOM      2  O1  UNL A   1      12.188  56.930   8.827  1.00  0.00    +0.000 O 
BRANCH    2    1
ATOM      1  C1  UNL A   1      11.139  57.359   7.969  1.00  0.00    +0.000 C 
ATOM     98  H1  UNL A   1      11.372  57.091   6.959  1.00  0.00    +0.000 H 
ATOM     99  H2  UNL A   1      11.033  58.421   8.039  1.00  0.00    +0.000 H 
ATOM    100  H3  UNL A   1      10.224  56.888   8.261  1.00  0.00    +0.000 H 
ENDBRANCH    2    1
ENDBRANCH    3    2
ENDBRANCH    7    6
BRANCH   87   88
ATOM    133  H36 UNL A   1      16.653  51.987  10.225  1.00  0.00    +0.000 H 
ATOM    134  H37 UNL A   1      16.251  51.798  12.605  1.00  0.00    +0.000 H 
ATOM    138  H41 UNL A   1      12.638  49.799  11.850  1.00  0.00    +0.000 H 
ATOM    139  H42 UNL A   1      13.038  49.978   9.462  1.00  0.00    +0.000 H 
ATOM     88  C62 UNL A   1      14.873  51.007   9.649  1.00  0.00    +0.000 C 
ATOM     89  C63 UNL A   1      15.797  51.523  10.566  1.00  0.00    +0.000 C 
ATOM     90  C64 UNL A   1      15.564  51.412  11.938  1.00  0.00    +0.000 C 
ATOM     91  C65 UNL A   1      14.412  50.788  12.416  1.00  0.00    +0.000 C 
ATOM     94  C67 UNL A   1      13.491  50.265  11.506  1.00  0.00    +0.000 C 
ATOM     95  C68 UNL A   1      13.722  50.371  10.128  1.00  0.00    +0.000 C 
BRANCH   91   92
ATOM     92  O5  UNL A   1      14.311  50.754  13.778  1.00  0.00    +0.000 O 
BRANCH   92   93
ATOM    137  H40 UNL A   1      12.320  50.773  14.239  1.00  0.00    +0.000 H 
ATOM     93  C66 UNL A   1      13.183  51.394  14.359  1.00  0.00    +0.000 C 
ATOM    135  H38 UNL A   1      13.016  52.332  13.874  1.00  0.00    +0.000 H 
ATOM    136  H39 UNL A   1      13.362  51.557  15.401  1.00  0.00    +0.000 H 
ENDBRANCH   92   93
ENDBRANCH   91   92
ENDBRANCH   87   88
ENDBRANCH   11   10
ENDBRANCH   12   11
ENDBRANCH   14   12
ENDBRANCH   15   14
ENDBRANCH   16   15
ENDBRANCH   17   16
ENDBRANCH   18   17
ENDBRANCH   19   18
ENDBRANCH   20   19
ENDBRANCH   21   20
ENDBRANCH   22   21
ENDBRANCH   24   22
ENDBRANCH   28   27
BRANCH   32   33
ATOM     33  C25 UNL A   1      13.589  56.575   3.573  1.00  0.00    +0.000 C 
ATOM     34  C26 UNL A   1      14.170  57.093   4.741  1.00  0.00    +0.000 C 
ATOM     35  F1  UNL A   1      15.250  56.505   5.275  1.00  0.00    +0.000 F 
ATOM     36  C27 UNL A   1      13.621  58.200   5.382  1.00  0.00    +0.000 C 
ATOM     37  F2  UNL A   1      14.170  58.652   6.519  1.00  0.00    +0.000 F 
ATOM     38  C28 UNL A   1      12.503  58.829   4.855  1.00  0.00    +0.000 C 
ATOM     39  F3  UNL A   1      11.981  59.899   5.470  1.00  0.00    +0.000 F 
ATOM     40  C29 UNL A   1      11.924  58.345   3.691  1.00  0.00    +0.000 C 
ATOM     41  F4  UNL A   1      10.850  58.958   3.173  1.00  0.00    +0.000 F 
ATOM     42  C30 UNL A   1      12.454  57.222   3.061  1.00  0.00    +0.000 C 
ATOM     43  F5  UNL A   1      11.864  56.771   1.944  1.00  0.00    +0.000 F 
ENDBRANCH   32   33
BRANCH   49   50
ATOM     50  C36 UNL A   1      18.676  55.287  -1.358  1.00  0.00    +0.000 C 
ATOM     51  C37 UNL A   1      19.877  55.739  -0.792  1.00  0.00    +0.000 C 
ATOM     52  F6  UNL A   1      20.130  55.531   0.509  1.00  0.00    +0.000 F 
ATOM     53  C38 UNL A   1      20.808  56.435  -1.557  1.00  0.00    +0.000 C 
ATOM     54  F7  UNL A   1      21.934  56.888  -0.988  1.00  0.00    +0.000 F 
ATOM     55  C39 UNL A   1      20.571  56.667  -2.903  1.00  0.00    +0.000 C 
ATOM     56  F8  UNL A   1      21.474  57.329  -3.641  1.00  0.00    +0.000 F 
ATOM     57  C40 UNL A   1      19.393  56.221  -3.485  1.00  0.00    +0.000 C 
ATOM     58  F9  UNL A   1      19.168  56.436  -4.789  1.00  0.00    +0.000 F 
ATOM     59  C41 UNL A   1      18.448  55.546  -2.718  1.00  0.00    +0.000 C 
ATOM     60  F10 UNL A   1      17.316  55.132  -3.305  1.00  0.00    +0.000 F 
ENDBRANCH   49   50
BRANCH   64   65
ATOM     65  C45 UNL A   1      17.042  48.520  -1.193  1.00  0.00    +0.000 C 
ATOM     66  C46 UNL A   1      16.404  48.102  -2.368  1.00  0.00    +0.000 C 
ATOM     67  F11 UNL A   1      15.324  48.760  -2.813  1.00  0.00    +0.000 F 
ATOM     68  C47 UNL A   1      16.849  46.984  -3.070  1.00  0.00    +0.000 C 
ATOM     69  F12 UNL A   1      16.198  46.582  -4.170  1.00  0.00    +0.000 F 
ATOM     70  C48 UNL A   1      17.958  46.279  -2.624  1.00  0.00    +0.000 C 
ATOM     71  F13 UNL A   1      18.390  45.206  -3.302  1.00  0.00    +0.000 F 
ATOM     72  C49 UNL A   1      18.613  46.682  -1.471  1.00  0.00    +0.000 C 
ATOM     73  F14 UNL A   1      19.691  46.010  -1.043  1.00  0.00    +0.000 F 
ATOM     74  C50 UNL A   1      18.154  47.786  -0.755  1.00  0.00    +0.000 C 
ATOM     75  F15 UNL A   1      18.800  48.148   0.363  1.00  0.00    +0.000 F 
ENDBRANCH   64   65
TORSDOF 22
ENDMDL
MODEL 6
REMARK VINA RESULT:      -7.6     34.647     39.770
ROOT
ATOM    129  H32 UNL A   1      16.054  14.940  10.582  1.00  0.00    +0.000 H 
ATOM    130  H33 UNL A   1      18.145  14.431   9.192  1.00  0.00    +0.000 H 
ATOM     28  C21 UNL A   1      18.510  16.195   6.987  1.00  0.00    +0.000 C 
ATOM     29  C22 UNL A   1      17.461  16.273   8.059  1.00  0.00    +0.000 C 
ATOM     30  N4  UNL A   1      16.504  17.152   8.218  1.00  0.00    +0.000 N 
ATOM     31  C23 UNL A   1      15.794  16.738   9.337  1.00  0.00    +0.000 C 
ATOM     32  C24 UNL A   1      14.740  17.340   9.936  1.00  0.00    +0.000 C 
ATOM     44  C31 UNL A   1      14.153  18.578   9.495  1.00  0.00    +0.000 C 
ATOM     45  C32 UNL A   1      13.134  19.308  10.082  1.00  0.00    +0.000 C 
ATOM     46  C33 UNL A   1      12.868  20.417   9.272  1.00  0.00    +0.000 C 
ATOM     47  C34 UNL A   1      13.747  20.399   8.200  1.00  0.00    +0.000 C 
ATOM     48  N5  UNL A   1      14.533  19.268   8.353  1.00  0.00    +0.000 N 
ATOM     49  C35 UNL A   1      13.856  21.336   7.112  1.00  0.00    +0.000 C 
ATOM     61  C42 UNL A   1      14.790  21.283   6.132  1.00  0.00    +0.000 C 
ATOM     62  N6  UNL A   1      15.806  20.357   5.945  1.00  0.00    +0.000 N 
ATOM     63  C43 UNL A   1      16.432  20.724   4.856  1.00  0.00    +0.000 C 
ATOM     64  C44 UNL A   1      17.621  20.091   4.186  1.00  0.00    +0.000 C 
ATOM     76  C51 UNL A   1      18.180  18.994   4.732  1.00  0.00    +0.000 C 
ATOM     77  C52 UNL A   1      19.317  18.262   4.182  1.00  0.00    +0.000 C 
ATOM     78  C53 UNL A   1      19.542  17.174   4.937  1.00  0.00    +0.000 C 
ATOM     79  C54 UNL A   1      18.590  17.156   6.048  1.00  0.00    +0.000 C 
ATOM     80  N7  UNL A   1      17.842  18.293   5.864  1.00  0.00    +0.000 N 
ATOM     81  C55 UNL A   1      15.871  21.921   4.214  1.00  0.00    +0.000 C 
ATOM     82  C56 UNL A   1      14.891  22.239   5.049  1.00  0.00    +0.000 C 
ATOM     83  C57 UNL A   1      16.405  15.509   9.795  1.00  0.00    +0.000 C 
ATOM     84  C58 UNL A   1      17.476  15.209   9.074  1.00  0.00    +0.000 C 
ATOM    121  H24 UNL A   1      12.654  19.075  10.965  1.00  0.00    +0.000 H 
ATOM    122  H25 UNL A   1      12.140  21.128   9.443  1.00  0.00    +0.000 H 
ATOM    123  H26 UNL A   1      15.254  18.994   7.741  1.00  0.00    +0.000 H 
ATOM    124  H27 UNL A   1      19.859  18.536   3.349  1.00  0.00    +0.000 H 
ATOM    125  H28 UNL A   1      20.270  16.464   4.760  1.00  0.00    +0.000 H 
ATOM    126  H29 UNL A   1      17.132  18.578   6.484  1.00  0.00    +0.000 H 
ATOM    127  H30 UNL A   1      16.162  22.391   3.342  1.00  0.00    +0.000 H 
ATOM    128  H31 UNL A   1      14.279  23.063   4.941  1.00  0.00    +0.000 H 
ENDROOT
BRANCH   28   27
ATOM    131  H34 UNL A   1      20.962  15.918   8.012  1.00  0.00    +0.000 H 
ATOM    132  H35 UNL A   1      22.453  14.011   7.894  1.00  0.00    +0.000 H 
ATOM     27  C20 UNL A   1      19.404  15.013   6.903  1.00  0.00    +0.000 C 
ATOM     85  C59 UNL A   1      20.661  15.059   7.526  1.00  0.00    +0.000 C 
ATOM     86  C60 UNL A   1      21.505  13.952   7.490  1.00  0.00    +0.000 C 
ATOM    119  H22 UNL A   1      19.534  11.852   5.768  1.00  0.00    +0.000 H 
ATOM     24  C17 UNL A   1      21.065  12.761   6.905  1.00  0.00    +0.000 C 
ATOM     25  C18 UNL A   1      19.835  12.717   6.244  1.00  0.00    +0.000 C 
ATOM     26  C19 UNL A   1      19.011  13.845   6.231  1.00  0.00    +0.000 C 
ATOM    120  H23 UNL A   1      18.113  13.821   5.725  1.00  0.00    +0.000 H 
BRANCH   24   22
ATOM     22  C16 UNL A   1      21.895  11.538   6.957  1.00  0.00    +0.000 C 
ATOM     23  O4  UNL A   1      21.628  10.656   7.769  1.00  0.00    +0.000 O 
BRANCH   22   21
ATOM     21  N3  UNL A   1      22.963  11.395   6.108  1.00  0.00    +0.000 N 
ATOM    118  H21 UNL A   1      23.559  10.636   6.305  1.00  0.00    +0.000 H 
BRANCH   21   20
ATOM    116  H19 UNL A   1      23.236  13.237   5.213  1.00  0.00    +0.000 H 
ATOM     20  C15 UNL A   1      23.342  12.203   4.958  1.00  0.00    +0.000 C 
ATOM    117  H20 UNL A   1      24.355  11.967   4.708  1.00  0.00    +0.000 H 
BRANCH   20   19
ATOM    114  H17 UNL A   1      23.090  11.438   2.998  1.00  0.00    +0.000 H 
ATOM     19  C14 UNL A   1      22.475  11.907   3.736  1.00  0.00    +0.000 C 
ATOM    115  H18 UNL A   1      21.676  11.283   4.078  1.00  0.00    +0.000 H 
BRANCH   19   18
ATOM    113  H16 UNL A   1      20.766  12.993   3.188  1.00  0.00    +0.000 H 
ATOM     18  C13 UNL A   1      21.822  13.139   3.102  1.00  0.00    +0.000 C 
ATOM    112  H15 UNL A   1      22.164  13.210   2.090  1.00  0.00    +0.000 H 
BRANCH   18   17
ATOM     17  C12 UNL A   1      22.125  14.472   3.798  1.00  0.00    +0.000 C 
ATOM    110  H13 UNL A   1      21.209  15.018   3.881  1.00  0.00    +0.000 H 
ATOM    111  H14 UNL A   1      22.559  14.222   4.743  1.00  0.00    +0.000 H 
BRANCH   17   16
ATOM    108  H11 UNL A   1      24.119  15.146   3.471  1.00  0.00    +0.000 H 
ATOM    109  H12 UNL A   1      23.071  15.150   2.035  1.00  0.00    +0.000 H 
ATOM     16  C11 UNL A   1      23.147  15.364   3.081  1.00  0.00    +0.000 C 
BRANCH   16   15
ATOM    106  H9  UNL A   1      22.938  17.338   2.297  1.00  0.00    +0.000 H 
ATOM    107  H10 UNL A   1      21.907  16.985   3.680  1.00  0.00    +0.000 H 
ATOM     15  C10 UNL A   1      22.881  16.861   3.254  1.00  0.00    +0.000 C 
BRANCH   15   14
ATOM    105  H8  UNL A   1      24.196  16.886   4.858  1.00  0.00    +0.000 H 
ATOM     14  N2  UNL A   1      23.852  17.467   4.142  1.00  0.00    +0.000 N 
BRANCH   14   12
ATOM     12  C9  UNL A   1      24.354  18.739   4.118  1.00  0.00    +0.000 C 
ATOM     13  O3  UNL A   1      25.280  18.983   3.342  1.00  0.00    +0.000 O 
BRANCH   12   11
ATOM     11  C8  UNL A   1      23.854  19.780   5.102  1.00  0.00    +0.000 C 
ATOM    103  H6  UNL A   1      24.647  20.469   5.304  1.00  0.00    +0.000 H 
ATOM    104  H7  UNL A   1      23.011  20.268   4.657  1.00  0.00    +0.000 H 
BRANCH   11   10
ATOM      7  C6  UNL A   1      22.988  18.203   8.328  1.00  0.00    +0.000 C 
ATOM      8  N1  UNL A   1      21.799  18.397   7.738  1.00  0.00    +0.000 N 
ATOM      9  O2  UNL A   1      22.061  19.029   6.539  1.00  0.00    +0.000 O 
ATOM     10  C7  UNL A   1      23.403  19.185   6.383  1.00  0.00    +0.000 C 
ATOM     87  C61 UNL A   1      24.043  18.710   7.510  1.00  0.00    +0.000 C 
BRANCH    7    6
ATOM     97  C70 UNL A   1      23.506  15.477  10.876  1.00  0.00    +0.000 C 
ATOM      3  C2  UNL A   1      23.129  16.124  12.052  1.00  0.00    +0.000 C 
ATOM      4  C3  UNL A   1      22.754  17.469  12.005  1.00  0.00    +0.000 C 
ATOM    101  H4  UNL A   1      22.475  17.952  12.874  1.00  0.00    +0.000 H 
ATOM      5  C4  UNL A   1      22.752  18.167  10.795  1.00  0.00    +0.000 C 
ATOM    102  H5  UNL A   1      22.488  19.165  10.775  1.00  0.00    +0.000 H 
ATOM      6  C5  UNL A   1      23.108  17.516   9.609  1.00  0.00    +0.000 C 
ATOM    140  H43 UNL A   1      23.780  15.687   8.794  1.00  0.00    +0.000 H 
ATOM    141  H44 UNL A   1      23.790  14.486  10.902  1.00  0.00    +0.000 H 
ATOM     96  C69 UNL A   1      23.497  16.171   9.661  1.00  0.00    +0.000 C 
BRANCH    3    2
ATOM      2  O1  UNL A   1      23.063  15.552  13.293  1.00  0.00    +0.000 O 
BRANCH    2    1
ATOM      1  C1  UNL A   1      22.692  16.406  14.367  1.00  0.00    +0.000 C 
ATOM     98  H1  UNL A   1      21.625  16.466  14.422  1.00  0.00    +0.000 H 
ATOM     99  H2  UNL A   1      23.095  17.383  14.202  1.00  0.00    +0.000 H 
ATOM    100  H3  UNL A   1      23.075  16.011  15.286  1.00  0.00    +0.000 H 
ENDBRANCH    2    1
ENDBRANCH    3    2
ENDBRANCH    7    6
BRANCH   87   88
ATOM    133  H36 UNL A   1      25.652  16.709   6.823  1.00  0.00    +0.000 H 
ATOM    134  H37 UNL A   1      28.052  16.556   7.093  1.00  0.00    +0.000 H 
ATOM    138  H41 UNL A   1      28.111  20.364   8.858  1.00  0.00    +0.000 H 
ATOM    139  H42 UNL A   1      25.702  20.521   8.597  1.00  0.00    +0.000 H 
ATOM     88  C62 UNL A   1      25.482  18.632   7.679  1.00  0.00    +0.000 C 
ATOM     89  C63 UNL A   1      26.171  17.489   7.254  1.00  0.00    +0.000 C 
ATOM     90  C64 UNL A   1      27.555  17.402   7.411  1.00  0.00    +0.000 C 
ATOM     91  C65 UNL A   1      28.272  18.448   7.992  1.00  0.00    +0.000 C 
ATOM     94  C67 UNL A   1      27.589  19.587   8.424  1.00  0.00    +0.000 C 
ATOM     95  C68 UNL A   1      26.199  19.677   8.271  1.00  0.00    +0.000 C 
BRANCH   91   92
ATOM     92  O5  UNL A   1      29.618  18.231   8.080  1.00  0.00    +0.000 O 
BRANCH   92   93
ATOM    137  H40 UNL A   1      31.360  18.077   7.023  1.00  0.00    +0.000 H 
ATOM     93  C66 UNL A   1      30.309  17.954   6.869  1.00  0.00    +0.000 C 
ATOM    135  H38 UNL A   1      29.979  18.628   6.108  1.00  0.00    +0.000 H 
ATOM    136  H39 UNL A   1      30.109  16.948   6.566  1.00  0.00    +0.000 H 
ENDBRANCH   92   93
ENDBRANCH   91   92
ENDBRANCH   87   88
ENDBRANCH   11   10
ENDBRANCH   12   11
ENDBRANCH   14   12
ENDBRANCH   15   14
ENDBRANCH   16   15
ENDBRANCH   17   16
ENDBRANCH   18   17
ENDBRANCH   19   18
ENDBRANCH   20   19
ENDBRANCH   21   20
ENDBRANCH   22   21
ENDBRANCH   24   22
ENDBRANCH   28   27
BRANCH   32   33
ATOM     33  C25 UNL A   1      14.148  16.668  11.139  1.00  0.00    +0.000 C 
ATOM     34  C26 UNL A   1      13.242  15.604  11.015  1.00  0.00    +0.000 C 
ATOM     35  F1  UNL A   1      12.845  15.195   9.801  1.00  0.00    +0.000 F 
ATOM     36  C27 UNL A   1      12.716  14.977  12.141  1.00  0.00    +0.000 C 
ATOM     37  F2  UNL A   1      11.821  13.990  11.998  1.00  0.00    +0.000 F 
ATOM     38  C28 UNL A   1      13.106  15.380  13.410  1.00  0.00    +0.000 C 
ATOM     39  F3  UNL A   1      12.604  14.770  14.492  1.00  0.00    +0.000 F 
ATOM     40  C29 UNL A   1      14.015  16.417  13.555  1.00  0.00    +0.000 C 
ATOM     41  F4  UNL A   1      14.403  16.800  14.780  1.00  0.00    +0.000 F 
ATOM     42  C30 UNL A   1      14.524  17.064  12.432  1.00  0.00    +0.000 C 
ATOM     43  F5  UNL A   1      15.392  18.072  12.606  1.00  0.00    +0.000 F 
ENDBRANCH   32   33
BRANCH   49   50
ATOM     50  C36 UNL A   1      12.874  22.466   7.065  1.00  0.00    +0.000 C 
ATOM     51  C37 UNL A   1      11.711  22.389   6.285  1.00  0.00    +0.000 C 
ATOM     52  F6  UNL A   1      11.489  21.317   5.509  1.00  0.00    +0.000 F 
ATOM     53  C38 UNL A   1      10.787  23.430   6.276  1.00  0.00    +0.000 C 
ATOM     54  F7  UNL A   1       9.699  23.351   5.497  1.00  0.00    +0.000 F 
ATOM     55  C39 UNL A   1      10.993  24.552   7.065  1.00  0.00    +0.000 C 
ATOM     56  F8  UNL A   1      10.097  25.549   7.063  1.00  0.00    +0.000 F 
ATOM     57  C40 UNL A   1      12.132  24.644   7.851  1.00  0.00    +0.000 C 
ATOM     58  F9  UNL A   1      12.328  25.724   8.622  1.00  0.00    +0.000 F 
ATOM     59  C41 UNL A   1      13.071  23.616   7.844  1.00  0.00    +0.000 C 
ATOM     60  F10 UNL A   1      14.166  23.735   8.609  1.00  0.00    +0.000 F 
ENDBRANCH   49   50
BRANCH   64   65
ATOM     65  C45 UNL A   1      18.187  20.665   2.939  1.00  0.00    +0.000 C 
ATOM     66  C46 UNL A   1      19.317  21.493   2.980  1.00  0.00    +0.000 C 
ATOM     67  F11 UNL A   1      19.881  21.796   4.159  1.00  0.00    +0.000 F 
ATOM     68  C47 UNL A   1      19.848  22.044   1.817  1.00  0.00    +0.000 C 
ATOM     69  F12 UNL A   1      20.906  22.863   1.887  1.00  0.00    +0.000 F 
ATOM     70  C48 UNL A   1      19.275  21.755   0.586  1.00  0.00    +0.000 C 
ATOM     71  F13 UNL A   1      19.790  22.280  -0.535  1.00  0.00    +0.000 F 
ATOM     72  C49 UNL A   1      18.165  20.928   0.520  1.00  0.00    +0.000 C 
ATOM     73  F14 UNL A   1      17.616  20.638  -0.668  1.00  0.00    +0.000 F 
ATOM     74  C50 UNL A   1      17.618  20.396   1.685  1.00  0.00    +0.000 C 
ATOM     75  F15 UNL A   1      16.537  19.608   1.594  1.00  0.00    +0.000 F 
ENDBRANCH   64   65
TORSDOF 22
ENDMDL
MODEL 7
REMARK VINA RESULT:      -7.5     61.987     67.556
ROOT
ATOM    129  H32 UNL A   1      45.864  53.696  15.130  1.00  0.00    +0.000 H 
ATOM    130  H33 UNL A   1      44.778  51.615  16.157  1.00  0.00    +0.000 H 
ATOM     28  C21 UNL A   1      46.332  50.413  18.219  1.00  0.00    +0.000 C 
ATOM     29  C22 UNL A   1      46.614  51.694  17.487  1.00  0.00    +0.000 C 
ATOM     30  N4  UNL A   1      47.613  52.528  17.632  1.00  0.00    +0.000 N 
ATOM     31  C23 UNL A   1      47.416  53.521  16.682  1.00  0.00    +0.000 C 
ATOM     32  C24 UNL A   1      48.153  54.635  16.464  1.00  0.00    +0.000 C 
ATOM     44  C31 UNL A   1      49.320  54.999  17.224  1.00  0.00    +0.000 C 
ATOM     45  C32 UNL A   1      50.088  56.147  17.130  1.00  0.00    +0.000 C 
ATOM     46  C33 UNL A   1      51.148  56.039  18.036  1.00  0.00    +0.000 C 
ATOM     47  C34 UNL A   1      51.019  54.842  18.722  1.00  0.00    +0.000 C 
ATOM     48  N5  UNL A   1      49.891  54.216  18.217  1.00  0.00    +0.000 N 
ATOM     49  C35 UNL A   1      51.866  54.302  19.754  1.00  0.00    +0.000 C 
ATOM     61  C42 UNL A   1      51.635  53.147  20.424  1.00  0.00    +0.000 C 
ATOM     62  N6  UNL A   1      50.586  52.250  20.279  1.00  0.00    +0.000 N 
ATOM     63  C43 UNL A   1      50.814  51.289  21.139  1.00  0.00    +0.000 C 
ATOM     64  C44 UNL A   1      49.998  50.057  21.421  1.00  0.00    +0.000 C 
ATOM     76  C51 UNL A   1      48.855  49.852  20.739  1.00  0.00    +0.000 C 
ATOM     77  C52 UNL A   1      47.977  48.695  20.889  1.00  0.00    +0.000 C 
ATOM     78  C53 UNL A   1      46.986  48.778  19.987  1.00  0.00    +0.000 C 
ATOM     79  C54 UNL A   1      47.135  50.018  19.225  1.00  0.00    +0.000 C 
ATOM     80  N7  UNL A   1      48.253  50.607  19.762  1.00  0.00    +0.000 N 
ATOM     81  C55 UNL A   1      52.048  51.459  21.919  1.00  0.00    +0.000 C 
ATOM     82  C56 UNL A   1      52.493  52.623  21.465  1.00  0.00    +0.000 C 
ATOM     83  C57 UNL A   1      46.225  53.167  15.940  1.00  0.00    +0.000 C 
ATOM     84  C58 UNL A   1      45.659  52.076  16.436  1.00  0.00    +0.000 C 
ATOM    121  H24 UNL A   1      49.909  56.946  16.500  1.00  0.00    +0.000 H 
ATOM    122  H25 UNL A   1      51.899  56.734  18.172  1.00  0.00    +0.000 H 
ATOM    123  H26 UNL A   1      49.544  53.345  18.518  1.00  0.00    +0.000 H 
ATOM    124  H27 UNL A   1      48.100  47.935  21.576  1.00  0.00    +0.000 H 
ATOM    125  H28 UNL A   1      46.238  48.080  19.854  1.00  0.00    +0.000 H 
ATOM    126  H29 UNL A   1      48.591  51.486  19.475  1.00  0.00    +0.000 H 
ATOM    127  H30 UNL A   1      52.459  50.836  22.632  1.00  0.00    +0.000 H 
ATOM    128  H31 UNL A   1      53.344  53.094  21.811  1.00  0.00    +0.000 H 
ENDROOT
BRANCH   28   27
ATOM    131  H34 UNL A   1      43.720  50.705  18.696  1.00  0.00    +0.000 H 
ATOM    132  H35 UNL A   1      41.880  49.289  18.001  1.00  0.00    +0.000 H 
ATOM     27  C20 UNL A   1      45.223  49.532  17.779  1.00  0.00    +0.000 C 
ATOM     85  C59 UNL A   1      43.904  49.868  18.123  1.00  0.00    +0.000 C 
ATOM     86  C60 UNL A   1      42.841  49.075  17.694  1.00  0.00    +0.000 C 
ATOM    119  H22 UNL A   1      44.570  46.786  15.953  1.00  0.00    +0.000 H 
ATOM     24  C17 UNL A   1      43.081  47.989  16.848  1.00  0.00    +0.000 C 
ATOM     25  C18 UNL A   1      44.392  47.619  16.535  1.00  0.00    +0.000 C 
ATOM     26  C19 UNL A   1      45.462  48.381  17.012  1.00  0.00    +0.000 C 
ATOM    120  H23 UNL A   1      46.431  48.097  16.800  1.00  0.00    +0.000 H 
BRANCH   24   22
ATOM     22  C16 UNL A   1      41.962  47.203  16.286  1.00  0.00    +0.000 C 
ATOM     23  O4  UNL A   1      40.932  47.775  15.939  1.00  0.00    +0.000 O 
BRANCH   22   21
ATOM     21  N3  UNL A   1      42.072  45.841  16.161  1.00  0.00    +0.000 N 
ATOM    118  H21 UNL A   1      42.653  45.530  15.431  1.00  0.00    +0.000 H 
BRANCH   21   20
ATOM    116  H19 UNL A   1      40.581  45.189  17.434  1.00  0.00    +0.000 H 
ATOM     20  C15 UNL A   1      41.451  44.790  16.955  1.00  0.00    +0.000 C 
ATOM    117  H20 UNL A   1      41.198  43.986  16.296  1.00  0.00    +0.000 H 
BRANCH   20   19
ATOM    114  H17 UNL A   1      42.540  43.201  17.837  1.00  0.00    +0.000 H 
ATOM     19  C14 UNL A   1      42.394  44.243  18.023  1.00  0.00    +0.000 C 
ATOM    115  H18 UNL A   1      43.296  44.815  17.952  1.00  0.00    +0.000 H 
BRANCH   19   18
ATOM    113  H16 UNL A   1      40.938  44.882  19.392  1.00  0.00    +0.000 H 
ATOM     18  C13 UNL A   1      41.893  44.405  19.462  1.00  0.00    +0.000 C 
ATOM    112  H15 UNL A   1      42.619  44.976  20.002  1.00  0.00    +0.000 H 
BRANCH   18   17
ATOM     17  C12 UNL A   1      41.659  43.095  20.225  1.00  0.00    +0.000 C 
ATOM    110  H13 UNL A   1      40.889  43.266  20.948  1.00  0.00    +0.000 H 
ATOM    111  H14 UNL A   1      41.397  42.365  19.488  1.00  0.00    +0.000 H 
BRANCH   17   16
ATOM    108  H11 UNL A   1      42.549  41.874  21.726  1.00  0.00    +0.000 H 
ATOM    109  H12 UNL A   1      43.490  42.043  20.228  1.00  0.00    +0.000 H 
ATOM     16  C11 UNL A   1      42.886  42.539  20.959  1.00  0.00    +0.000 C 
BRANCH   16   15
ATOM    106  H9  UNL A   1      43.218  44.545  21.604  1.00  0.00    +0.000 H 
ATOM    107  H10 UNL A   1      43.992  43.317  22.600  1.00  0.00    +0.000 H 
ATOM     15  C10 UNL A   1      43.757  43.620  21.602  1.00  0.00    +0.000 C 
BRANCH   15   14
ATOM    105  H8  UNL A   1      45.403  42.975  20.516  1.00  0.00    +0.000 H 
ATOM     14  N2  UNL A   1      44.996  43.798  20.872  1.00  0.00    +0.000 N 
BRANCH   14   12
ATOM     12  C9  UNL A   1      45.676  44.955  20.613  1.00  0.00    +0.000 C 
ATOM     13  O3  UNL A   1      45.615  45.863  21.444  1.00  0.00    +0.000 O 
BRANCH   12   11
ATOM     11  C8  UNL A   1      46.389  45.146  19.287  1.00  0.00    +0.000 C 
ATOM    103  H6  UNL A   1      45.894  44.556  18.544  1.00  0.00    +0.000 H 
ATOM    104  H7  UNL A   1      46.355  46.189  19.049  1.00  0.00    +0.000 H 
BRANCH   11   10
ATOM      7  C6  UNL A   1      49.977  44.275  19.183  1.00  0.00    +0.000 C 
ATOM      8  N1  UNL A   1      49.463  43.409  20.070  1.00  0.00    +0.000 N 
ATOM      9  O2  UNL A   1      48.123  43.721  20.182  1.00  0.00    +0.000 O 
ATOM     10  C7  UNL A   1      47.814  44.744  19.342  1.00  0.00    +0.000 C 
ATOM     87  C61 UNL A   1      48.966  45.163  18.705  1.00  0.00    +0.000 C 
BRANCH    7    6
ATOM     97  C70 UNL A   1      53.164  43.151  17.519  1.00  0.00    +0.000 C 
ATOM      3  C2  UNL A   1      54.105  43.962  18.151  1.00  0.00    +0.000 C 
ATOM      4  C3  UNL A   1      53.678  44.909  19.086  1.00  0.00    +0.000 C 
ATOM    101  H4  UNL A   1      54.372  45.512  19.555  1.00  0.00    +0.000 H 
ATOM      5  C4  UNL A   1      52.322  45.047  19.391  1.00  0.00    +0.000 C 
ATOM    102  H5  UNL A   1      52.017  45.761  20.072  1.00  0.00    +0.000 H 
ATOM      6  C5  UNL A   1      51.376  44.220  18.777  1.00  0.00    +0.000 C 
ATOM    140  H43 UNL A   1      51.114  42.680  17.355  1.00  0.00    +0.000 H 
ATOM    141  H44 UNL A   1      53.469  42.454  16.823  1.00  0.00    +0.000 H 
ATOM     96  C69 UNL A   1      51.806  43.282  17.829  1.00  0.00    +0.000 C 
BRANCH    3    2
ATOM      2  O1  UNL A   1      55.459  43.911  17.962  1.00  0.00    +0.000 O 
BRANCH    2    1
ATOM      1  C1  UNL A   1      55.952  42.822  17.192  1.00  0.00    +0.000 C 
ATOM     98  H1  UNL A   1      56.253  42.031  17.846  1.00  0.00    +0.000 H 
ATOM     99  H2  UNL A   1      56.792  43.145  16.613  1.00  0.00    +0.000 H 
ATOM    100  H3  UNL A   1      55.182  42.470  16.537  1.00  0.00    +0.000 H 
ENDBRANCH    2    1
ENDBRANCH    3    2
ENDBRANCH    7    6
BRANCH   87   88
ATOM    133  H36 UNL A   1      49.985  47.611  18.895  1.00  0.00    +0.000 H 
ATOM    134  H37 UNL A   1      50.092  49.326  17.190  1.00  0.00    +0.000 H 
ATOM    138  H41 UNL A   1      48.177  46.763  14.473  1.00  0.00    +0.000 H 
ATOM    139  H42 UNL A   1      48.059  45.041  16.180  1.00  0.00    +0.000 H 
ATOM     88  C62 UNL A   1      49.022  46.182  17.673  1.00  0.00    +0.000 C 
ATOM     89  C63 UNL A   1      49.601  47.426  17.955  1.00  0.00    +0.000 C 
ATOM     90  C64 UNL A   1      49.661  48.413  16.972  1.00  0.00    +0.000 C 
ATOM     91  C65 UNL A   1      49.148  48.179  15.696  1.00  0.00    +0.000 C 
ATOM     94  C67 UNL A   1      48.562  46.944  15.412  1.00  0.00    +0.000 C 
ATOM     95  C68 UNL A   1      48.497  45.950  16.398  1.00  0.00    +0.000 C 
BRANCH   91   92
ATOM     92  O5  UNL A   1      49.276  49.230  14.833  1.00  0.00    +0.000 O 
BRANCH   92   93
ATOM    137  H40 UNL A   1      47.655  49.829  13.743  1.00  0.00    +0.000 H 
ATOM     93  C66 UNL A   1      48.144  50.071  14.663  1.00  0.00    +0.000 C 
ATOM    135  H38 UNL A   1      48.458  51.093  14.641  1.00  0.00    +0.000 H 
ATOM    136  H39 UNL A   1      47.465  49.924  15.477  1.00  0.00    +0.000 H 
ENDBRANCH   92   93
ENDBRANCH   91   92
ENDBRANCH   87   88
ENDBRANCH   11   10
ENDBRANCH   12   11
ENDBRANCH   14   12
ENDBRANCH   15   14
ENDBRANCH   16   15
ENDBRANCH   17   16
ENDBRANCH   18   17
ENDBRANCH   19   18
ENDBRANCH   20   19
ENDBRANCH   21   20
ENDBRANCH   22   21
ENDBRANCH   24   22
ENDBRANCH   28   27
BRANCH   32   33
ATOM     33  C25 UNL A   1      47.720  55.548  15.355  1.00  0.00    +0.000 C 
ATOM     34  C26 UNL A   1      47.978  55.243  14.010  1.00  0.00    +0.000 C 
ATOM     35  F1  UNL A   1      48.670  54.139  13.689  1.00  0.00    +0.000 F 
ATOM     36  C27 UNL A   1      47.553  56.090  12.990  1.00  0.00    +0.000 C 
ATOM     37  F2  UNL A   1      47.846  55.798  11.715  1.00  0.00    +0.000 F 
ATOM     38  C28 UNL A   1      46.838  57.239  13.291  1.00  0.00    +0.000 C 
ATOM     39  F3  UNL A   1      46.424  58.049  12.307  1.00  0.00    +0.000 F 
ATOM     40  C29 UNL A   1      46.556  57.550  14.613  1.00  0.00    +0.000 C 
ATOM     41  F4  UNL A   1      45.855  58.655  14.905  1.00  0.00    +0.000 F 
ATOM     42  C30 UNL A   1      47.002  56.719  15.637  1.00  0.00    +0.000 C 
ATOM     43  F5  UNL A   1      46.724  57.053  16.906  1.00  0.00    +0.000 F 
ENDBRANCH   32   33
BRANCH   49   50
ATOM     50  C36 UNL A   1      53.091  55.081  20.129  1.00  0.00    +0.000 C 
ATOM     51  C37 UNL A   1      54.316  54.870  19.480  1.00  0.00    +0.000 C 
ATOM     52  F6  UNL A   1      54.429  53.913  18.547  1.00  0.00    +0.000 F 
ATOM     53  C38 UNL A   1      55.437  55.625  19.811  1.00  0.00    +0.000 C 
ATOM     54  F7  UNL A   1      56.607  55.384  19.203  1.00  0.00    +0.000 F 
ATOM     55  C39 UNL A   1      55.350  56.618  20.774  1.00  0.00    +0.000 C 
ATOM     56  F8  UNL A   1      56.429  57.350  21.085  1.00  0.00    +0.000 F 
ATOM     57  C40 UNL A   1      54.145  56.849  21.422  1.00  0.00    +0.000 C 
ATOM     58  F9  UNL A   1      54.057  57.816  22.346  1.00  0.00    +0.000 F 
ATOM     59  C41 UNL A   1      53.027  56.080  21.111  1.00  0.00    +0.000 C 
ATOM     60  F10 UNL A   1      51.877  56.321  21.758  1.00  0.00    +0.000 F 
ENDBRANCH   49   50
BRANCH   64   65
ATOM     65  C45 UNL A   1      50.434  49.075  22.445  1.00  0.00    +0.000 C 
ATOM     66  C46 UNL A   1      51.231  47.978  22.093  1.00  0.00    +0.000 C 
ATOM     67  F11 UNL A   1      51.585  47.793  20.813  1.00  0.00    +0.000 F 
ATOM     68  C47 UNL A   1      51.636  47.048  23.047  1.00  0.00    +0.000 C 
ATOM     69  F12 UNL A   1      52.367  45.987  22.678  1.00  0.00    +0.000 F 
ATOM     70  C48 UNL A   1      51.273  47.211  24.376  1.00  0.00    +0.000 C 
ATOM     71  F13 UNL A   1      51.668  46.318  25.295  1.00  0.00    +0.000 F 
ATOM     72  C49 UNL A   1      50.495  48.296  24.750  1.00  0.00    +0.000 C 
ATOM     73  F14 UNL A   1      50.152  48.462  26.035  1.00  0.00    +0.000 F 
ATOM     74  C50 UNL A   1      50.069  49.214  23.793  1.00  0.00    +0.000 C 
ATOM     75  F15 UNL A   1      49.309  50.248  24.180  1.00  0.00    +0.000 F 
ENDBRANCH   64   65
TORSDOF 22
ENDMDL
MODEL 8
REMARK VINA RESULT:      -7.3     41.057     46.452
ROOT
ATOM    129  H32 UNL A   1      15.381  24.228   4.998  1.00  0.00    +0.000 H 
ATOM    130  H33 UNL A   1      17.474  23.963   3.545  1.00  0.00    +0.000 H 
ATOM     28  C21 UNL A   1      18.990  21.627   4.139  1.00  0.00    +0.000 C 
ATOM     29  C22 UNL A   1      17.664  22.030   4.717  1.00  0.00    +0.000 C 
ATOM     30  N4  UNL A   1      16.923  21.411   5.601  1.00  0.00    +0.000 N 
ATOM     31  C23 UNL A   1      15.826  22.233   5.816  1.00  0.00    +0.000 C 
ATOM     32  C24 UNL A   1      14.750  22.012   6.609  1.00  0.00    +0.000 C 
ATOM     44  C31 UNL A   1      14.552  20.823   7.395  1.00  0.00    +0.000 C 
ATOM     45  C32 UNL A   1      13.458  20.472   8.168  1.00  0.00    +0.000 C 
ATOM     46  C33 UNL A   1      13.735  19.249   8.786  1.00  0.00    +0.000 C 
ATOM     47  C34 UNL A   1      14.984  18.818   8.370  1.00  0.00    +0.000 C 
ATOM     48  N5  UNL A   1      15.472  19.792   7.512  1.00  0.00    +0.000 N 
ATOM     49  C35 UNL A   1      15.687  17.615   8.732  1.00  0.00    +0.000 C 
ATOM     61  C42 UNL A   1      16.885  17.233   8.228  1.00  0.00    +0.000 C 
ATOM     62  N6  UNL A   1      17.685  17.880   7.297  1.00  0.00    +0.000 N 
ATOM     63  C43 UNL A   1      18.744  17.124   7.145  1.00  0.00    +0.000 C 
ATOM     64  C44 UNL A   1      19.937  17.331   6.253  1.00  0.00    +0.000 C 
ATOM     76  C51 UNL A   1      19.988  18.420   5.462  1.00  0.00    +0.000 C 
ATOM     77  C52 UNL A   1      21.089  18.763   4.566  1.00  0.00    +0.000 C 
ATOM     78  C53 UNL A   1      20.842  19.959   4.008  1.00  0.00    +0.000 C 
ATOM     79  C54 UNL A   1      19.544  20.446   4.475  1.00  0.00    +0.000 C 
ATOM     80  N7  UNL A   1      19.095  19.453   5.309  1.00  0.00    +0.000 N 
ATOM     81  C55 UNL A   1      18.744  15.915   7.981  1.00  0.00    +0.000 C 
ATOM     82  C56 UNL A   1      17.575  16.015   8.598  1.00  0.00    +0.000 C 
ATOM     83  C57 UNL A   1      16.015  23.413   5.001  1.00  0.00    +0.000 C 
ATOM     84  C58 UNL A   1      17.108  23.312   4.258  1.00  0.00    +0.000 C 
ATOM    121  H24 UNL A   1      12.588  21.019   8.270  1.00  0.00    +0.000 H 
ATOM    122  H25 UNL A   1      13.113  18.750   9.443  1.00  0.00    +0.000 H 
ATOM    123  H26 UNL A   1      16.342  19.757   7.054  1.00  0.00    +0.000 H 
ATOM    124  H27 UNL A   1      21.922  18.181   4.391  1.00  0.00    +0.000 H 
ATOM    125  H28 UNL A   1      21.468  20.454   3.353  1.00  0.00    +0.000 H 
ATOM    126  H29 UNL A   1      18.217  19.477   5.755  1.00  0.00    +0.000 H 
ATOM    127  H30 UNL A   1      19.465  15.181   8.065  1.00  0.00    +0.000 H 
ATOM    128  H31 UNL A   1      17.204  15.314   9.258  1.00  0.00    +0.000 H 
ENDROOT
BRANCH   28   27
ATOM    131  H34 UNL A   1      18.692  22.016   1.513  1.00  0.00    +0.000 H 
ATOM    132  H35 UNL A   1      19.895  23.531   0.054  1.00  0.00    +0.000 H 
ATOM     27  C20 UNL A   1      19.739  22.565   3.267  1.00  0.00    +0.000 C 
ATOM     85  C59 UNL A   1      19.422  22.633   1.901  1.00  0.00    +0.000 C 
ATOM     86  C60 UNL A   1      20.087  23.528   1.067  1.00  0.00    +0.000 C 
ATOM    119  H22 UNL A   1      22.096  24.960   3.342  1.00  0.00    +0.000 H 
ATOM     24  C17 UNL A   1      21.016  24.422   1.608  1.00  0.00    +0.000 C 
ATOM     25  C18 UNL A   1      21.373  24.334   2.956  1.00  0.00    +0.000 C 
ATOM     26  C19 UNL A   1      20.746  23.397   3.781  1.00  0.00    +0.000 C 
ATOM    120  H23 UNL A   1      21.024  23.316   4.771  1.00  0.00    +0.000 H 
BRANCH   24   22
ATOM     22  C16 UNL A   1      21.650  25.460   0.766  1.00  0.00    +0.000 C 
ATOM     23  O4  UNL A   1      22.771  25.873   1.051  1.00  0.00    +0.000 O 
BRANCH   22   21
ATOM     21  N3  UNL A   1      20.983  25.965  -0.322  1.00  0.00    +0.000 N 
ATOM    118  H21 UNL A   1      20.025  26.143  -0.184  1.00  0.00    +0.000 H 
BRANCH   21   20
ATOM    116  H19 UNL A   1      22.536  26.491  -1.579  1.00  0.00    +0.000 H 
ATOM     20  C15 UNL A   1      21.490  26.277  -1.650  1.00  0.00    +0.000 C 
ATOM    117  H20 UNL A   1      21.309  25.431  -2.279  1.00  0.00    +0.000 H 
BRANCH   20   19
ATOM    114  H17 UNL A   1      21.065  27.541  -3.298  1.00  0.00    +0.000 H 
ATOM     19  C14 UNL A   1      20.783  27.481  -2.268  1.00  0.00    +0.000 C 
ATOM    115  H18 UNL A   1      19.735  27.320  -2.126  1.00  0.00    +0.000 H 
BRANCH   19   18
ATOM    113  H16 UNL A   1      22.053  29.128  -2.002  1.00  0.00    +0.000 H 
ATOM     18  C13 UNL A   1      21.108  28.823  -1.605  1.00  0.00    +0.000 C 
ATOM    112  H15 UNL A   1      21.116  28.674  -0.545  1.00  0.00    +0.000 H 
BRANCH   18   17
ATOM     17  C12 UNL A   1      20.129  29.961  -1.916  1.00  0.00    +0.000 C 
ATOM    110  H13 UNL A   1      20.601  30.624  -2.612  1.00  0.00    +0.000 H 
ATOM    111  H14 UNL A   1      19.246  29.497  -2.302  1.00  0.00    +0.000 H 
BRANCH   17   16
ATOM    108  H11 UNL A   1      20.486  30.815   0.002  1.00  0.00    +0.000 H 
ATOM    109  H12 UNL A   1      19.422  31.760  -1.064  1.00  0.00    +0.000 H 
ATOM     16  C11 UNL A   1      19.681  30.787  -0.702  1.00  0.00    +0.000 C 
BRANCH   16   15
ATOM    106  H9  UNL A   1      17.988  29.489  -0.635  1.00  0.00    +0.000 H 
ATOM    107  H10 UNL A   1      18.747  29.786   0.925  1.00  0.00    +0.000 H 
ATOM     15  C10 UNL A   1      18.443  30.223  -0.002  1.00  0.00    +0.000 C 
BRANCH   15   14
ATOM    105  H8  UNL A   1      17.855  32.133   0.557  1.00  0.00    +0.000 H 
ATOM     14  N2  UNL A   1      17.478  31.268   0.277  1.00  0.00    +0.000 N 
BRANCH   14   12
ATOM     12  C9  UNL A   1      16.114  31.213   0.204  1.00  0.00    +0.000 C 
ATOM     13  O3  UNL A   1      15.607  30.655  -0.772  1.00  0.00    +0.000 O 
BRANCH   12   11
ATOM     11  C8  UNL A   1      15.260  31.917   1.241  1.00  0.00    +0.000 C 
ATOM    103  H6  UNL A   1      15.027  31.222   2.021  1.00  0.00    +0.000 H 
ATOM    104  H7  UNL A   1      15.820  32.750   1.611  1.00  0.00    +0.000 H 
BRANCH   11   10
ATOM      7  C6  UNL A   1      11.999  32.973  -0.135  1.00  0.00    +0.000 C 
ATOM      8  N1  UNL A   1      12.844  33.929  -0.547  1.00  0.00    +0.000 N 
ATOM      9  O2  UNL A   1      14.079  33.607  -0.020  1.00  0.00    +0.000 O 
ATOM     10  C7  UNL A   1      13.994  32.442   0.677  1.00  0.00    +0.000 C 
ATOM     87  C61 UNL A   1      12.683  32.010   0.668  1.00  0.00    +0.000 C 
BRANCH    7    6
ATOM     97  C70 UNL A   1       8.249  32.651   0.019  1.00  0.00    +0.000 C 
ATOM      3  C2  UNL A   1       7.911  32.715  -1.332  1.00  0.00    +0.000 C 
ATOM      4  C3  UNL A   1       8.917  32.914  -2.281  1.00  0.00    +0.000 C 
ATOM    101  H4  UNL A   1       8.671  32.963  -3.283  1.00  0.00    +0.000 H 
ATOM      5  C4  UNL A   1      10.251  33.046  -1.890  1.00  0.00    +0.000 C 
ATOM    102  H5  UNL A   1      10.983  33.208  -2.600  1.00  0.00    +0.000 H 
ATOM      6  C5  UNL A   1      10.597  32.960  -0.537  1.00  0.00    +0.000 C 
ATOM    140  H43 UNL A   1       9.828  32.730   1.416  1.00  0.00    +0.000 H 
ATOM    141  H44 UNL A   1       7.512  32.511   0.728  1.00  0.00    +0.000 H 
ATOM     96  C69 UNL A   1       9.585  32.775   0.414  1.00  0.00    +0.000 C 
BRANCH    3    2
ATOM      2  O1  UNL A   1       6.652  32.576  -1.848  1.00  0.00    +0.000 O 
BRANCH    2    1
ATOM      1  C1  UNL A   1       5.665  32.037  -0.978  1.00  0.00    +0.000 C 
ATOM     98  H1  UNL A   1       4.895  32.763  -0.818  1.00  0.00    +0.000 H 
ATOM     99  H2  UNL A   1       6.115  31.783  -0.041  1.00  0.00    +0.000 H 
ATOM    100  H3  UNL A   1       5.240  31.159  -1.420  1.00  0.00    +0.000 H 
ENDBRANCH    2    1
ENDBRANCH    3    2
ENDBRANCH    7    6
BRANCH   87   88
ATOM    133  H36 UNL A   1      11.745  31.595   3.121  1.00  0.00    +0.000 H 
ATOM    134  H37 UNL A   1      10.959  29.523   4.094  1.00  0.00    +0.000 H 
ATOM    138  H41 UNL A   1      11.777  27.510   0.502  1.00  0.00    +0.000 H 
ATOM    139  H42 UNL A   1      12.575  29.583  -0.477  1.00  0.00    +0.000 H 
ATOM     88  C62 UNL A   1      12.215  30.760   1.238  1.00  0.00    +0.000 C 
ATOM     89  C63 UNL A   1      11.752  30.729   2.559  1.00  0.00    +0.000 C 
ATOM     90  C64 UNL A   1      11.299  29.534   3.119  1.00  0.00    +0.000 C 
ATOM     91  C65 UNL A   1      11.301  28.355   2.375  1.00  0.00    +0.000 C 
ATOM     94  C67 UNL A   1      11.769  28.378   1.060  1.00  0.00    +0.000 C 
ATOM     95  C68 UNL A   1      12.227  29.576   0.494  1.00  0.00    +0.000 C 
BRANCH   91   92
ATOM     92  O5  UNL A   1      10.829  27.262   3.045  1.00  0.00    +0.000 O 
BRANCH   92   93
ATOM    137  H40 UNL A   1       9.925  27.627   4.841  1.00  0.00    +0.000 H 
ATOM     93  C66 UNL A   1       9.653  27.439   3.824  1.00  0.00    +0.000 C 
ATOM    135  H38 UNL A   1       9.055  26.553   3.773  1.00  0.00    +0.000 H 
ATOM    136  H39 UNL A   1       9.095  28.269   3.445  1.00  0.00    +0.000 H 
ENDBRANCH   92   93
ENDBRANCH   91   92
ENDBRANCH   87   88
ENDBRANCH   11   10
ENDBRANCH   12   11
ENDBRANCH   14   12
ENDBRANCH   15   14
ENDBRANCH   16   15
ENDBRANCH   17   16
ENDBRANCH   18   17
ENDBRANCH   19   18
ENDBRANCH   20   19
ENDBRANCH   21   20
ENDBRANCH   22   21
ENDBRANCH   24   22
ENDBRANCH   28   27
BRANCH   32   33
ATOM     33  C25 UNL A   1      13.700  23.080   6.667  1.00  0.00    +0.000 C 
ATOM     34  C26 UNL A   1      12.805  23.289   5.605  1.00  0.00    +0.000 C 
ATOM     35  F1  UNL A   1      12.907  22.560   4.484  1.00  0.00    +0.000 F 
ATOM     36  C27 UNL A   1      11.823  24.272   5.681  1.00  0.00    +0.000 C 
ATOM     37  F2  UNL A   1      11.006  24.480   4.639  1.00  0.00    +0.000 F 
ATOM     38  C28 UNL A   1      11.694  25.044   6.827  1.00  0.00    +0.000 C 
ATOM     39  F3  UNL A   1      10.743  25.984   6.900  1.00  0.00    +0.000 F 
ATOM     40  C29 UNL A   1      12.556  24.842   7.894  1.00  0.00    +0.000 C 
ATOM     41  F4  UNL A   1      12.426  25.578   9.007  1.00  0.00    +0.000 F 
ATOM     42  C30 UNL A   1      13.557  23.877   7.813  1.00  0.00    +0.000 C 
ATOM     43  F5  UNL A   1      14.382  23.713   8.858  1.00  0.00    +0.000 F 
ENDBRANCH   32   33
BRANCH   49   50
ATOM     50  C36 UNL A   1      15.041  16.705   9.732  1.00  0.00    +0.000 C 
ATOM     51  C37 UNL A   1      14.284  15.596   9.327  1.00  0.00    +0.000 C 
ATOM     52  F6  UNL A   1      14.069  15.367   8.023  1.00  0.00    +0.000 F 
ATOM     53  C38 UNL A   1      13.720  14.737  10.265  1.00  0.00    +0.000 C 
ATOM     54  F7  UNL A   1      12.970  13.703   9.856  1.00  0.00    +0.000 F 
ATOM     55  C39 UNL A   1      13.923  14.952  11.619  1.00  0.00    +0.000 C 
ATOM     56  F8  UNL A   1      13.386  14.117  12.520  1.00  0.00    +0.000 F 
ATOM     57  C40 UNL A   1      14.676  16.038  12.041  1.00  0.00    +0.000 C 
ATOM     58  F9  UNL A   1      14.881  16.241  13.351  1.00  0.00    +0.000 F 
ATOM     59  C41 UNL A   1      15.222  16.913  11.108  1.00  0.00    +0.000 C 
ATOM     60  F10 UNL A   1      15.940  17.958  11.545  1.00  0.00    +0.000 F 
ENDBRANCH   49   50
BRANCH   64   65
ATOM     65  C45 UNL A   1      21.048  16.348   6.228  1.00  0.00    +0.000 C 
ATOM     66  C46 UNL A   1      22.146  16.484   7.089  1.00  0.00    +0.000 C 
ATOM     67  F11 UNL A   1      22.212  17.529   7.927  1.00  0.00    +0.000 F 
ATOM     68  C47 UNL A   1      23.196  15.570   7.066  1.00  0.00    +0.000 C 
ATOM     69  F12 UNL A   1      24.252  15.745   7.873  1.00  0.00    +0.000 F 
ATOM     70  C48 UNL A   1      23.157  14.487   6.200  1.00  0.00    +0.000 C 
ATOM     71  F13 UNL A   1      24.166  13.605   6.181  1.00  0.00    +0.000 F 
ATOM     72  C49 UNL A   1      22.076  14.324   5.348  1.00  0.00    +0.000 C 
ATOM     73  F14 UNL A   1      22.030  13.273   4.518  1.00  0.00    +0.000 F 
ATOM     74  C50 UNL A   1      21.036  15.251   5.353  1.00  0.00    +0.000 C 
ATOM     75  F15 UNL A   1      20.006  15.076   4.512  1.00  0.00    +0.000 F 
ENDBRANCH   64   65
TORSDOF 22
ENDMDL
MODEL 9
REMARK VINA RESULT:      -7.2     43.629     47.104
ROOT
ATOM    129  H32 UNL A   1      50.818  22.578  14.940  1.00  0.00    +0.000 H 
ATOM    130  H33 UNL A   1      50.413  21.635  12.593  1.00  0.00    +0.000 H 
ATOM     28  C21 UNL A   1      52.687  20.337  11.474  1.00  0.00    +0.000 C 
ATOM     29  C22 UNL A   1      52.542  20.899  12.859  1.00  0.00    +0.000 C 
ATOM     30  N4  UNL A   1      53.408  20.916  13.841  1.00  0.00    +0.000 N 
ATOM     31  C23 UNL A   1      52.786  21.593  14.881  1.00  0.00    +0.000 C 
ATOM     32  C24 UNL A   1      53.253  21.831  16.129  1.00  0.00    +0.000 C 
ATOM     44  C31 UNL A   1      54.536  21.393  16.614  1.00  0.00    +0.000 C 
ATOM     45  C32 UNL A   1      55.066  21.517  17.887  1.00  0.00    +0.000 C 
ATOM     46  C33 UNL A   1      56.360  20.986  17.875  1.00  0.00    +0.000 C 
ATOM     47  C34 UNL A   1      56.622  20.498  16.605  1.00  0.00    +0.000 C 
ATOM     48  N5  UNL A   1      55.493  20.750  15.843  1.00  0.00    +0.000 N 
ATOM     49  C35 UNL A   1      57.817  19.858  16.117  1.00  0.00    +0.000 C 
ATOM     61  C42 UNL A   1      57.973  19.347  14.872  1.00  0.00    +0.000 C 
ATOM     62  N6  UNL A   1      57.068  19.327  13.819  1.00  0.00    +0.000 N 
ATOM     63  C43 UNL A   1      57.686  18.738  12.826  1.00  0.00    +0.000 C 
ATOM     64  C44 UNL A   1      57.182  18.437  11.441  1.00  0.00    +0.000 C 
ATOM     76  C51 UNL A   1      55.924  18.782  11.107  1.00  0.00    +0.000 C 
ATOM     77  C52 UNL A   1      55.310  18.575   9.799  1.00  0.00    +0.000 C 
ATOM     78  C53 UNL A   1      54.084  19.125   9.799  1.00  0.00    +0.000 C 
ATOM     79  C54 UNL A   1      53.812  19.685  11.123  1.00  0.00    +0.000 C 
ATOM     80  N7  UNL A   1      54.947  19.406  11.843  1.00  0.00    +0.000 N 
ATOM     81  C55 UNL A   1      59.066  18.332  13.131  1.00  0.00    +0.000 C 
ATOM     82  C56 UNL A   1      59.178  18.699  14.401  1.00  0.00    +0.000 C 
ATOM     83  C57 UNL A   1      51.485  22.006  14.400  1.00  0.00    +0.000 C 
ATOM     84  C58 UNL A   1      51.262  21.552  13.174  1.00  0.00    +0.000 C 
ATOM    121  H24 UNL A   1      54.588  21.929  18.704  1.00  0.00    +0.000 H 
ATOM    122  H25 UNL A   1      57.010  20.963  18.676  1.00  0.00    +0.000 H 
ATOM    123  H26 UNL A   1      55.384  20.507  14.895  1.00  0.00    +0.000 H 
ATOM    124  H27 UNL A   1      55.747  18.086   9.003  1.00  0.00    +0.000 H 
ATOM    125  H28 UNL A   1      53.439  19.147   8.995  1.00  0.00    +0.000 H 
ATOM    126  H29 UNL A   1      55.050  19.631  12.797  1.00  0.00    +0.000 H 
ATOM    127  H30 UNL A   1      59.763  17.880  12.519  1.00  0.00    +0.000 H 
ATOM    128  H31 UNL A   1      60.019  18.543  14.979  1.00  0.00    +0.000 H 
ENDROOT
BRANCH   28   27
ATOM    131  H34 UNL A   1      52.359  22.486   9.921  1.00  0.00    +0.000 H 
ATOM    132  H35 UNL A   1      50.649  22.912   8.257  1.00  0.00    +0.000 H 
ATOM     27  C20 UNL A   1      51.631  20.574  10.459  1.00  0.00    +0.000 C 
ATOM     85  C59 UNL A   1      51.639  21.772   9.729  1.00  0.00    +0.000 C 
ATOM     86  C60 UNL A   1      50.679  22.005   8.747  1.00  0.00    +0.000 C 
ATOM    119  H22 UNL A   1      48.993  19.112   8.974  1.00  0.00    +0.000 H 
ATOM     24  C17 UNL A   1      49.755  21.005   8.428  1.00  0.00    +0.000 C 
ATOM     25  C18 UNL A   1      49.709  19.827   9.177  1.00  0.00    +0.000 C 
ATOM     26  C19 UNL A   1      50.637  19.617  10.200  1.00  0.00    +0.000 C 
ATOM    120  H23 UNL A   1      50.591  18.758  10.769  1.00  0.00    +0.000 H 
BRANCH   24   22
ATOM     22  C16 UNL A   1      48.801  21.182   7.312  1.00  0.00    +0.000 C 
ATOM     23  O4  UNL A   1      47.989  22.102   7.346  1.00  0.00    +0.000 O 
BRANCH   22   21
ATOM     21  N3  UNL A   1      48.818  20.314   6.248  1.00  0.00    +0.000 N 
ATOM    118  H21 UNL A   1      47.938  19.973   5.969  1.00  0.00    +0.000 H 
BRANCH   21   20
ATOM    116  H19 UNL A   1      49.916  20.265   4.499  1.00  0.00    +0.000 H 
ATOM     20  C15 UNL A   1      49.951  19.827   5.474  1.00  0.00    +0.000 C 
ATOM    117  H20 UNL A   1      50.846  20.101   5.992  1.00  0.00    +0.000 H 
BRANCH   20   19
ATOM    114  H17 UNL A   1      48.919  17.984   5.299  1.00  0.00    +0.000 H 
ATOM     19  C14 UNL A   1      49.937  18.307   5.331  1.00  0.00    +0.000 C 
ATOM    115  H18 UNL A   1      50.480  18.083   4.437  1.00  0.00    +0.000 H 
BRANCH   19   18
ATOM    113  H16 UNL A   1      50.109  16.632   6.583  1.00  0.00    +0.000 H 
ATOM     18  C13 UNL A   1      50.641  17.552   6.464  1.00  0.00    +0.000 C 
ATOM    112  H15 UNL A   1      50.624  18.173   7.335  1.00  0.00    +0.000 H 
BRANCH   18   17
ATOM     17  C12 UNL A   1      52.099  17.166   6.187  1.00  0.00    +0.000 C 
ATOM    110  H13 UNL A   1      52.114  16.511   5.342  1.00  0.00    +0.000 H 
ATOM    111  H14 UNL A   1      52.623  18.084   6.024  1.00  0.00    +0.000 H 
BRANCH   17   16
ATOM    108  H11 UNL A   1      53.220  17.212   7.998  1.00  0.00    +0.000 H 
ATOM    109  H12 UNL A   1      52.098  15.843   7.834  1.00  0.00    +0.000 H 
ATOM     16  C11 UNL A   1      52.820  16.464   7.346  1.00  0.00    +0.000 C 
BRANCH   16   15
ATOM    106  H9  UNL A   1      53.762  14.554   7.221  1.00  0.00    +0.000 H 
ATOM    107  H10 UNL A   1      54.027  15.595   5.826  1.00  0.00    +0.000 H 
ATOM     15  C10 UNL A   1      53.962  15.553   6.893  1.00  0.00    +0.000 C 
BRANCH   15   14
ATOM    105  H8  UNL A   1      55.248  16.106   8.424  1.00  0.00    +0.000 H 
ATOM     14  N2  UNL A   1      55.229  15.986   7.448  1.00  0.00    +0.000 N 
BRANCH   14   12
ATOM     12  C9  UNL A   1      56.401  16.250   6.795  1.00  0.00    +0.000 C 
ATOM     13  O3  UNL A   1      56.767  17.424   6.711  1.00  0.00    +0.000 O 
BRANCH   12   11
ATOM     11  C8  UNL A   1      57.163  15.135   6.103  1.00  0.00    +0.000 C 
ATOM    103  H6  UNL A   1      57.975  14.834   6.732  1.00  0.00    +0.000 H 
ATOM    104  H7  UNL A   1      56.477  14.331   5.933  1.00  0.00    +0.000 H 
BRANCH   11   10
ATOM      7  C6  UNL A   1      58.293  16.049   2.708  1.00  0.00    +0.000 C 
ATOM      8  N1  UNL A   1      59.410  16.121   3.446  1.00  0.00    +0.000 N 
ATOM      9  O2  UNL A   1      59.036  15.830   4.743  1.00  0.00    +0.000 O 
ATOM     10  C7  UNL A   1      57.707  15.547   4.787  1.00  0.00    +0.000 C 
ATOM     87  C61 UNL A   1      57.173  15.706   3.524  1.00  0.00    +0.000 C 
BRANCH    7    6
ATOM     97  C70 UNL A   1      57.828  17.655  -0.669  1.00  0.00    +0.000 C 
ATOM      3  C2  UNL A   1      58.134  16.595  -1.521  1.00  0.00    +0.000 C 
ATOM      4  C3  UNL A   1      58.539  15.373  -0.979  1.00  0.00    +0.000 C 
ATOM    101  H4  UNL A   1      58.767  14.586  -1.607  1.00  0.00    +0.000 H 
ATOM      5  C4  UNL A   1      58.639  15.205   0.404  1.00  0.00    +0.000 C 
ATOM    102  H5  UNL A   1      58.955  14.301   0.792  1.00  0.00    +0.000 H 
ATOM      6  C5  UNL A   1      58.311  16.258   1.264  1.00  0.00    +0.000 C 
ATOM    140  H43 UNL A   1      57.694  18.276   1.343  1.00  0.00    +0.000 H 
ATOM    141  H44 UNL A   1      57.534  18.563  -1.060  1.00  0.00    +0.000 H 
ATOM     96  C69 UNL A   1      57.919  17.487   0.718  1.00  0.00    +0.000 C 
BRANCH    3    2
ATOM      2  O1  UNL A   1      58.053  16.620  -2.887  1.00  0.00    +0.000 O 
BRANCH    2    1
ATOM      1  C1  UNL A   1      57.274  17.664  -3.458  1.00  0.00    +0.000 C 
ATOM     98  H1  UNL A   1      56.385  17.251  -3.888  1.00  0.00    +0.000 H 
ATOM     99  H2  UNL A   1      57.841  18.157  -4.219  1.00  0.00    +0.000 H 
ATOM    100  H3  UNL A   1      57.009  18.368  -2.697  1.00  0.00    +0.000 H 
ENDBRANCH    2    1
ENDBRANCH    3    2
ENDBRANCH    7    6
BRANCH   87   88
ATOM    133  H36 UNL A   1      56.225  13.483   2.417  1.00  0.00    +0.000 H 
ATOM    134  H37 UNL A   1      53.941  12.973   1.800  1.00  0.00    +0.000 H 
ATOM    138  H41 UNL A   1      52.714  16.747   3.165  1.00  0.00    +0.000 H 
ATOM    139  H42 UNL A   1      55.004  17.269   3.780  1.00  0.00    +0.000 H 
ATOM     88  C62 UNL A   1      55.799  15.414   3.158  1.00  0.00    +0.000 C 
ATOM     89  C63 UNL A   1      55.481  14.180   2.580  1.00  0.00    +0.000 C 
ATOM     90  C64 UNL A   1      54.164  13.887   2.224  1.00  0.00    +0.000 C 
ATOM     91  C65 UNL A   1      53.146  14.816   2.437  1.00  0.00    +0.000 C 
ATOM     94  C67 UNL A   1      53.459  16.052   3.007  1.00  0.00    +0.000 C 
ATOM     95  C68 UNL A   1      54.781  16.351   3.363  1.00  0.00    +0.000 C 
BRANCH   91   92
ATOM     92  O5  UNL A   1      51.906  14.398   2.046  1.00  0.00    +0.000 O 
BRANCH   92   93
ATOM    137  H40 UNL A   1      52.752  13.811   0.281  1.00  0.00    +0.000 H 
ATOM     93  C66 UNL A   1      51.810  13.752   0.783  1.00  0.00    +0.000 C 
ATOM    135  H38 UNL A   1      51.060  14.235   0.193  1.00  0.00    +0.000 H 
ATOM    136  H39 UNL A   1      51.545  12.726   0.927  1.00  0.00    +0.000 H 
ENDBRANCH   92   93
ENDBRANCH   91   92
ENDBRANCH   87   88
ENDBRANCH   11   10
ENDBRANCH   12   11
ENDBRANCH   14   12
ENDBRANCH   15   14
ENDBRANCH   16   15
ENDBRANCH   17   16
ENDBRANCH   18   17
ENDBRANCH   19   18
ENDBRANCH   20   19
ENDBRANCH   21   20
ENDBRANCH   22   21
ENDBRANCH   24   22
ENDBRANCH   28   27
BRANCH   32   33
ATOM     33  C25 UNL A   1      52.371  22.602  17.065  1.00  0.00    +0.000 C 
ATOM     34  C26 UNL A   1      52.284  24.002  17.006  1.00  0.00    +0.000 C 
ATOM     35  F1  UNL A   1      53.035  24.688  16.133  1.00  0.00    +0.000 F 
ATOM     36  C27 UNL A   1      51.446  24.703  17.869  1.00  0.00    +0.000 C 
ATOM     37  F2  UNL A   1      51.409  26.042  17.821  1.00  0.00    +0.000 F 
ATOM     38  C28 UNL A   1      50.658  24.021  18.784  1.00  0.00    +0.000 C 
ATOM     39  F3  UNL A   1      49.846  24.698  19.608  1.00  0.00    +0.000 F 
ATOM     40  C29 UNL A   1      50.715  22.637  18.846  1.00  0.00    +0.000 C 
ATOM     41  F4  UNL A   1      49.945  21.974  19.722  1.00  0.00    +0.000 F 
ATOM     42  C30 UNL A   1      51.571  21.933  18.003  1.00  0.00    +0.000 C 
ATOM     43  F5  UNL A   1      51.612  20.596  18.096  1.00  0.00    +0.000 F 
ENDBRANCH   32   33
BRANCH   49   50
ATOM     50  C36 UNL A   1      58.975  19.732  17.061  1.00  0.00    +0.000 C 
ATOM     51  C37 UNL A   1      59.324  18.496  17.624  1.00  0.00    +0.000 C 
ATOM     52  F6  UNL A   1      58.580  17.408  17.377  1.00  0.00    +0.000 F 
ATOM     53  C38 UNL A   1      60.423  18.384  18.471  1.00  0.00    +0.000 C 
ATOM     54  F7  UNL A   1      60.719  17.201  19.027  1.00  0.00    +0.000 F 
ATOM     55  C39 UNL A   1      61.208  19.494  18.746  1.00  0.00    +0.000 C 
ATOM     56  F8  UNL A   1      62.272  19.381  19.554  1.00  0.00    +0.000 F 
ATOM     57  C40 UNL A   1      60.885  20.723  18.191  1.00  0.00    +0.000 C 
ATOM     58  F9  UNL A   1      61.648  21.795  18.449  1.00  0.00    +0.000 F 
ATOM     59  C41 UNL A   1      59.772  20.845  17.364  1.00  0.00    +0.000 C 
ATOM     60  F10 UNL A   1      59.480  22.048  16.847  1.00  0.00    +0.000 F 
ENDBRANCH   49   50
BRANCH   64   65
ATOM     65  C45 UNL A   1      58.050  17.757  10.447  1.00  0.00    +0.000 C 
ATOM     66  C46 UNL A   1      58.111  16.358  10.386  1.00  0.00    +0.000 C 
ATOM     67  F11 UNL A   1      57.399  15.620  11.251  1.00  0.00    +0.000 F 
ATOM     68  C47 UNL A   1      58.929  15.713   9.463  1.00  0.00    +0.000 C 
ATOM     69  F12 UNL A   1      58.998  14.375   9.450  1.00  0.00    +0.000 F 
ATOM     70  C48 UNL A   1      59.684  16.455   8.565  1.00  0.00    +0.000 C 
ATOM     71  F13 UNL A   1      60.468  15.834   7.673  1.00  0.00    +0.000 F 
ATOM     72  C49 UNL A   1      59.631  17.840   8.598  1.00  0.00    +0.000 C 
ATOM     73  F14 UNL A   1      60.350  18.559   7.725  1.00  0.00    +0.000 F 
ATOM     74  C50 UNL A   1      58.830  18.486   9.537  1.00  0.00    +0.000 C 
ATOM     75  F15 UNL A   1      58.805  19.827   9.555  1.00  0.00    +0.000 F 
ENDBRANCH   64   65
TORSDOF 22
ENDMDL
MODEL 10
REMARK VINA RESULT:      -7.2     34.728     42.327
ROOT
ATOM    129  H32 UNL A   1      -1.245  20.520  43.150  1.00  0.00    +0.000 H 
ATOM    130  H33 UNL A   1       0.062  18.325  42.960  1.00  0.00    +0.000 H 
ATOM     28  C21 UNL A   1       2.461  18.285  44.492  1.00  0.00    +0.000 C 
ATOM     29  C22 UNL A   1       1.412  19.359  44.460  1.00  0.00    +0.000 C 
ATOM     30  N4  UNL A   1       1.365  20.491  45.117  1.00  0.00    +0.000 N 
ATOM     31  C23 UNL A   1       0.208  21.128  44.689  1.00  0.00    +0.000 C 
ATOM     32  C24 UNL A   1      -0.308  22.307  45.108  1.00  0.00    +0.000 C 
ATOM     44  C31 UNL A   1       0.283  23.136  46.126  1.00  0.00    +0.000 C 
ATOM     45  C32 UNL A   1      -0.207  24.309  46.675  1.00  0.00    +0.000 C 
ATOM     46  C33 UNL A   1       0.732  24.786  47.595  1.00  0.00    +0.000 C 
ATOM     47  C34 UNL A   1       1.789  23.891  47.648  1.00  0.00    +0.000 C 
ATOM     48  N5  UNL A   1       1.497  22.881  46.745  1.00  0.00    +0.000 N 
ATOM     49  C35 UNL A   1       2.981  23.954  48.454  1.00  0.00    +0.000 C 
ATOM     61  C42 UNL A   1       3.942  23.001  48.496  1.00  0.00    +0.000 C 
ATOM     62  N6  UNL A   1       4.010  21.801  47.802  1.00  0.00    +0.000 N 
ATOM     63  C43 UNL A   1       5.133  21.236  48.171  1.00  0.00    +0.000 C 
ATOM     64  C44 UNL A   1       5.715  19.916  47.743  1.00  0.00    +0.000 C 
ATOM     76  C51 UNL A   1       5.038  19.149  46.868  1.00  0.00    +0.000 C 
ATOM     77  C52 UNL A   1       5.490  17.862  46.347  1.00  0.00    +0.000 C 
ATOM     78  C53 UNL A   1       4.609  17.428  45.431  1.00  0.00    +0.000 C 
ATOM     79  C54 UNL A   1       3.509  18.388  45.332  1.00  0.00    +0.000 C 
ATOM     80  N7  UNL A   1       3.832  19.360  46.245  1.00  0.00    +0.000 N 
ATOM     81  C55 UNL A   1       5.917  22.025  49.131  1.00  0.00    +0.000 C 
ATOM     82  C56 UNL A   1       5.131  23.077  49.318  1.00  0.00    +0.000 C 
ATOM     83  C57 UNL A   1      -0.397  20.277  43.688  1.00  0.00    +0.000 C 
ATOM     84  C58 UNL A   1       0.277  19.144  43.551  1.00  0.00    +0.000 C 
ATOM    121  H24 UNL A   1      -1.109  24.755  46.445  1.00  0.00    +0.000 H 
ATOM    122  H25 UNL A   1       0.652  25.657  48.143  1.00  0.00    +0.000 H 
ATOM    123  H26 UNL A   1       2.067  22.098  46.569  1.00  0.00    +0.000 H 
ATOM    124  H27 UNL A   1       6.347  17.366  46.636  1.00  0.00    +0.000 H 
ATOM    125  H28 UNL A   1       4.695  16.557  44.885  1.00  0.00    +0.000 H 
ATOM    126  H29 UNL A   1       3.255  20.135  46.436  1.00  0.00    +0.000 H 
ATOM    127  H30 UNL A   1       6.837  21.816  49.549  1.00  0.00    +0.000 H 
ATOM    128  H31 UNL A   1       5.341  23.851  49.968  1.00  0.00    +0.000 H 
ENDROOT
BRANCH   28   27
ATOM    131  H34 UNL A   1       1.433  15.853  44.900  1.00  0.00    +0.000 H 
ATOM    132  H35 UNL A   1       1.314  13.977  43.370  1.00  0.00    +0.000 H 
ATOM     27  C20 UNL A   1       2.398  17.152  43.537  1.00  0.00    +0.000 C 
ATOM     85  C59 UNL A   1       1.799  15.948  43.940  1.00  0.00    +0.000 C 
ATOM     86  C60 UNL A   1       1.697  14.880  43.051  1.00  0.00    +0.000 C 
ATOM    119  H22 UNL A   1       3.108  16.307  40.361  1.00  0.00    +0.000 H 
ATOM     24  C17 UNL A   1       2.115  15.036  41.727  1.00  0.00    +0.000 C 
ATOM     25  C18 UNL A   1       2.753  16.213  41.326  1.00  0.00    +0.000 C 
ATOM     26  C19 UNL A   1       2.907  17.264  42.233  1.00  0.00    +0.000 C 
ATOM    120  H23 UNL A   1       3.396  18.125  41.945  1.00  0.00    +0.000 H 
BRANCH   24   22
ATOM     22  C16 UNL A   1       1.911  13.959  40.735  1.00  0.00    +0.000 C 
ATOM     23  O4  UNL A   1       1.228  12.982  41.030  1.00  0.00    +0.000 O 
BRANCH   22   21
ATOM     21  N3  UNL A   1       2.491  14.046  39.494  1.00  0.00    +0.000 N 
ATOM    118  H21 UNL A   1       3.458  13.865  39.467  1.00  0.00    +0.000 H 
BRANCH   21   20
ATOM    116  H19 UNL A   1       0.973  13.812  38.113  1.00  0.00    +0.000 H 
ATOM     20  C15 UNL A   1       1.881  14.369  38.212  1.00  0.00    +0.000 C 
ATOM    117  H20 UNL A   1       1.696  15.422  38.191  1.00  0.00    +0.000 H 
BRANCH   20   19
ATOM    114  H17 UNL A   1       2.693  12.986  36.825  1.00  0.00    +0.000 H 
ATOM     19  C14 UNL A   1       2.797  14.029  37.038  1.00  0.00    +0.000 C 
ATOM    115  H18 UNL A   1       2.494  14.657  36.227  1.00  0.00    +0.000 H 
BRANCH   19   18
ATOM    113  H16 UNL A   1       4.511  13.912  38.241  1.00  0.00    +0.000 H 
ATOM     18  C13 UNL A   1       4.281  14.320  37.280  1.00  0.00    +0.000 C 
ATOM    112  H15 UNL A   1       4.424  15.379  37.219  1.00  0.00    +0.000 H 
BRANCH   18   17
ATOM     17  C12 UNL A   1       5.248  13.655  36.293  1.00  0.00    +0.000 C 
ATOM    110  H13 UNL A   1       4.704  12.918  35.741  1.00  0.00    +0.000 H 
ATOM    111  H14 UNL A   1       5.638  14.443  35.683  1.00  0.00    +0.000 H 
BRANCH   17   16
ATOM    108  H11 UNL A   1       7.346  13.490  36.626  1.00  0.00    +0.000 H 
ATOM    109  H12 UNL A   1       6.319  13.000  37.992  1.00  0.00    +0.000 H 
ATOM     16  C11 UNL A   1       6.463  12.969  36.932  1.00  0.00    +0.000 C 
BRANCH   16   15
ATOM    106  H9  UNL A   1       5.731  11.186  36.016  1.00  0.00    +0.000 H 
ATOM    107  H10 UNL A   1       7.476  11.395  35.923  1.00  0.00    +0.000 H 
ATOM     15  C10 UNL A   1       6.610  11.497  36.542  1.00  0.00    +0.000 C 
BRANCH   15   14
ATOM    105  H8  UNL A   1       7.709  10.528  38.011  1.00  0.00    +0.000 H 
ATOM     14  N2  UNL A   1       6.781  10.659  37.712  1.00  0.00    +0.000 N 
BRANCH   14   12
ATOM     12  C9  UNL A   1       5.824  10.027  38.457  1.00  0.00    +0.000 C 
ATOM     13  O3  UNL A   1       6.024   8.855  38.784  1.00  0.00    +0.000 O 
BRANCH   12   11
ATOM     11  C8  UNL A   1       4.511  10.720  38.769  1.00  0.00    +0.000 C 
ATOM    103  H6  UNL A   1       4.461  11.628  38.205  1.00  0.00    +0.000 H 
ATOM    104  H7  UNL A   1       3.720  10.049  38.506  1.00  0.00    +0.000 H 
BRANCH   11   10
ATOM      7  C6  UNL A   1       4.388  11.662  42.338  1.00  0.00    +0.000 C 
ATOM      8  N1  UNL A   1       3.520  10.645  42.247  1.00  0.00    +0.000 N 
ATOM      9  O2  UNL A   1       3.492  10.279  40.916  1.00  0.00    +0.000 O 
ATOM     10  C7  UNL A   1       4.365  11.044  40.208  1.00  0.00    +0.000 C 
ATOM     87  C61 UNL A   1       4.940  11.969  41.057  1.00  0.00    +0.000 C 
BRANCH    7    6
ATOM     97  C70 UNL A   1       4.756  12.203  46.048  1.00  0.00    +0.000 C 
ATOM      3  C2  UNL A   1       5.119  13.549  46.095  1.00  0.00    +0.000 C 
ATOM      4  C3  UNL A   1       5.288  14.256  44.902  1.00  0.00    +0.000 C 
ATOM    101  H4  UNL A   1       5.558  15.252  44.933  1.00  0.00    +0.000 H 
ATOM      5  C4  UNL A   1       5.097  13.629  43.669  1.00  0.00    +0.000 C 
ATOM    102  H5  UNL A   1       5.240  14.158  42.793  1.00  0.00    +0.000 H 
ATOM      6  C5  UNL A   1       4.710  12.286  43.617  1.00  0.00    +0.000 C 
ATOM    140  H43 UNL A   1       4.290  10.578  44.786  1.00  0.00    +0.000 H 
ATOM    141  H44 UNL A   1       4.635  11.672  46.924  1.00  0.00    +0.000 H 
ATOM     96  C69 UNL A   1       4.555  11.575  44.814  1.00  0.00    +0.000 C 
BRANCH    3    2
ATOM      2  O1  UNL A   1       5.312  14.285  47.233  1.00  0.00    +0.000 O 
BRANCH    2    1
ATOM      1  C1  UNL A   1       6.403  13.900  48.060  1.00  0.00    +0.000 C 
ATOM     98  H1  UNL A   1       7.321  14.044  47.530  1.00  0.00    +0.000 H 
ATOM     99  H2  UNL A   1       6.303  12.869  48.326  1.00  0.00    +0.000 H 
ATOM    100  H3  UNL A   1       6.406  14.499  48.947  1.00  0.00    +0.000 H 
ENDBRANCH    2    1
ENDBRANCH    3    2
ENDBRANCH    7    6
BRANCH   87   88
ATOM    133  H36 UNL A   1       4.684  14.566  40.553  1.00  0.00    +0.000 H 
ATOM    134  H37 UNL A   1       6.406  16.148  39.930  1.00  0.00    +0.000 H 
ATOM    138  H41 UNL A   1       9.283  13.095  40.075  1.00  0.00    +0.000 H 
ATOM    139  H42 UNL A   1       7.559  11.501  40.693  1.00  0.00    +0.000 H 
ATOM     88  C62 UNL A   1       5.983  12.906  40.683  1.00  0.00    +0.000 C 
ATOM     89  C63 UNL A   1       5.661  14.249  40.454  1.00  0.00    +0.000 C 
ATOM     90  C64 UNL A   1       6.655  15.160  40.094  1.00  0.00    +0.000 C 
ATOM     91  C65 UNL A   1       7.981  14.749  39.957  1.00  0.00    +0.000 C 
ATOM     94  C67 UNL A   1       8.306  13.409  40.177  1.00  0.00    +0.000 C 
ATOM     95  C68 UNL A   1       7.310  12.490  40.536  1.00  0.00    +0.000 C 
BRANCH   91   92
ATOM     92  O5  UNL A   1       8.848  15.744  39.605  1.00  0.00    +0.000 O 
BRANCH   92   93
ATOM    137  H40 UNL A   1       9.320  17.211  40.947  1.00  0.00    +0.000 H 
ATOM     93  C66 UNL A   1       8.617  17.031  40.162  1.00  0.00    +0.000 C 
ATOM    135  H38 UNL A   1       7.624  17.076  40.555  1.00  0.00    +0.000 H 
ATOM    136  H39 UNL A   1       8.734  17.775  39.402  1.00  0.00    +0.000 H 
ENDBRANCH   92   93
ENDBRANCH   91   92
ENDBRANCH   87   88
ENDBRANCH   11   10
ENDBRANCH   12   11
ENDBRANCH   14   12
ENDBRANCH   15   14
ENDBRANCH   16   15
ENDBRANCH   17   16
ENDBRANCH   18   17
ENDBRANCH   19   18
ENDBRANCH   20   19
ENDBRANCH   21   20
ENDBRANCH   22   21
ENDBRANCH   24   22
ENDBRANCH   28   27
BRANCH   32   33
ATOM     33  C25 UNL A   1      -1.580  22.775  44.466  1.00  0.00    +0.000 C 
ATOM     34  C26 UNL A   1      -2.831  22.531  45.052  1.00  0.00    +0.000 C 
ATOM     35  F1  UNL A   1      -2.918  21.821  46.186  1.00  0.00    +0.000 F 
ATOM     36  C27 UNL A   1      -4.002  22.988  44.454  1.00  0.00    +0.000 C 
ATOM     37  F2  UNL A   1      -5.189  22.707  45.011  1.00  0.00    +0.000 F 
ATOM     38  C28 UNL A   1      -3.945  23.723  43.279  1.00  0.00    +0.000 C 
ATOM     39  F3  UNL A   1      -5.073  24.168  42.710  1.00  0.00    +0.000 F 
ATOM     40  C29 UNL A   1      -2.717  23.992  42.693  1.00  0.00    +0.000 C 
ATOM     41  F4  UNL A   1      -2.658  24.712  41.564  1.00  0.00    +0.000 F 
ATOM     42  C30 UNL A   1      -1.545  23.514  43.274  1.00  0.00    +0.000 C 
ATOM     43  F5  UNL A   1      -0.374  23.781  42.677  1.00  0.00    +0.000 F 
ENDBRANCH   32   33
BRANCH   49   50
ATOM     50  C36 UNL A   1       3.169  25.159  49.325  1.00  0.00    +0.000 C 
ATOM     51  C37 UNL A   1       2.609  25.224  50.610  1.00  0.00    +0.000 C 
ATOM     52  F6  UNL A   1       1.833  24.227  51.058  1.00  0.00    +0.000 F 
ATOM     53  C38 UNL A   1       2.822  26.332  51.425  1.00  0.00    +0.000 C 
ATOM     54  F7  UNL A   1       2.249  26.390  52.635  1.00  0.00    +0.000 F 
ATOM     55  C39 UNL A   1       3.617  27.379  50.985  1.00  0.00    +0.000 C 
ATOM     56  F8  UNL A   1       3.828  28.441  51.775  1.00  0.00    +0.000 F 
ATOM     57  C40 UNL A   1       4.188  27.330  49.721  1.00  0.00    +0.000 C 
ATOM     58  F9  UNL A   1       4.965  28.338  49.299  1.00  0.00    +0.000 F 
ATOM     59  C41 UNL A   1       3.958  26.235  48.894  1.00  0.00    +0.000 C 
ATOM     60  F10 UNL A   1       4.518  26.218  47.675  1.00  0.00    +0.000 F 
ENDBRANCH   49   50
BRANCH   64   65
ATOM     65  C45 UNL A   1       7.018  19.451  48.280  1.00  0.00    +0.000 C 
ATOM     66  C46 UNL A   1       8.219  20.034  47.854  1.00  0.00    +0.000 C 
ATOM     67  F11 UNL A   1       8.199  21.005  46.930  1.00  0.00    +0.000 F 
ATOM     68  C47 UNL A   1       9.446  19.597  48.347  1.00  0.00    +0.000 C 
ATOM     69  F12 UNL A   1      10.582  20.145  47.895  1.00  0.00    +0.000 F 
ATOM     70  C48 UNL A   1       9.494  18.585  49.295  1.00  0.00    +0.000 C 
ATOM     71  F13 UNL A   1      10.675  18.167  49.773  1.00  0.00    +0.000 F 
ATOM     72  C49 UNL A   1       8.318  18.002  49.741  1.00  0.00    +0.000 C 
ATOM     73  F14 UNL A   1       8.360  17.032  50.665  1.00  0.00    +0.000 F 
ATOM     74  C50 UNL A   1       7.092  18.422  49.231  1.00  0.00    +0.000 C 
ATOM     75  F15 UNL A   1       5.970  17.834  49.671  1.00  0.00    +0.000 F 
ENDBRANCH   64   65
TORSDOF 22
ENDMDL
