MODEL 1
REMARK VINA RESULT:     -12.7      0.000      0.000
ROOT
ATOM    129  H38 UNL A   1      25.273  30.027  46.046  1.00  0.00    +0.000 H 
ATOM     33  C26 UNL A   1      25.350  32.916  46.371  1.00  0.00    +0.000 C 
ATOM     34  C27 UNL A   1      26.289  31.849  46.953  1.00  0.00    +0.000 C 
ATOM     35  N4  UNL A   1      27.300  31.972  47.762  1.00  0.00    +0.000 N 
ATOM     36  C28 UNL A   1      27.888  30.696  47.898  1.00  0.00    +0.000 C 
ATOM     37  C29 UNL A   1      29.131  30.488  48.420  1.00  0.00    +0.000 C 
ATOM     49  C36 UNL A   1      29.707  31.711  48.864  1.00  0.00    +0.000 C 
ATOM     50  C37 UNL A   1      29.524  32.492  49.972  1.00  0.00    +0.000 C 
ATOM     51  C38 UNL A   1      29.866  33.795  49.550  1.00  0.00    +0.000 C 
ATOM     52  C39 UNL A   1      30.306  33.745  48.222  1.00  0.00    +0.000 C 
ATOM     53  N5  UNL A   1      30.466  32.407  47.957  1.00  0.00    +0.000 N 
ATOM     54  C40 UNL A   1      30.412  34.664  47.112  1.00  0.00    +0.000 C 
ATOM     66  C47 UNL A   1      30.011  35.943  47.320  1.00  0.00    +0.000 C 
ATOM     67  N6  UNL A   1      29.245  36.581  46.370  1.00  0.00    +0.000 N 
ATOM     68  C48 UNL A   1      28.300  37.117  47.083  1.00  0.00    +0.000 C 
ATOM     69  C49 UNL A   1      27.018  37.616  46.553  1.00  0.00    +0.000 C 
ATOM     81  C56 UNL A   1      26.273  36.503  46.267  1.00  0.00    +0.000 C 
ATOM     82  C57 UNL A   1      24.946  36.441  45.685  1.00  0.00    +0.000 C 
ATOM     83  C58 UNL A   1      24.524  35.163  45.639  1.00  0.00    +0.000 C 
ATOM     84  C59 UNL A   1      25.534  34.258  46.216  1.00  0.00    +0.000 C 
ATOM     85  N7  UNL A   1      26.564  35.135  46.504  1.00  0.00    +0.000 N 
ATOM     86  C60 UNL A   1      28.521  37.150  48.536  1.00  0.00    +0.000 C 
ATOM     87  C61 UNL A   1      29.716  36.571  48.583  1.00  0.00    +0.000 C 
ATOM     88  C62 UNL A   1      27.002  29.768  47.264  1.00  0.00    +0.000 C 
ATOM     89  C63 UNL A   1      26.030  30.421  46.627  1.00  0.00    +0.000 C 
ATOM    120  H29 UNL A   1      29.206  32.195  50.908  1.00  0.00    +0.000 H 
ATOM    121  H30 UNL A   1      29.803  34.648  50.127  1.00  0.00    +0.000 H 
ATOM    122  H31 UNL A   1      31.023  32.018  47.245  1.00  0.00    +0.000 H 
ATOM    123  H32 UNL A   1      24.405  37.256  45.354  1.00  0.00    +0.000 H 
ATOM    124  H33 UNL A   1      23.616  34.859  45.254  1.00  0.00    +0.000 H 
ATOM    125  H34 UNL A   1      27.436  34.831  46.848  1.00  0.00    +0.000 H 
ATOM    126  H35 UNL A   1      27.923  37.514  49.294  1.00  0.00    +0.000 H 
ATOM    127  H36 UNL A   1      30.340  36.570  49.406  1.00  0.00    +0.000 H 
ATOM    128  H37 UNL A   1      27.103  28.741  47.295  1.00  0.00    +0.000 H 
ENDROOT
BRANCH   33   32
ATOM    130  H39 UNL A   1      23.290  32.004  47.876  1.00  0.00    +0.000 H 
ATOM    131  H40 UNL A   1      21.071  31.369  47.121  1.00  0.00    +0.000 H 
ATOM    118  H27 UNL A   1      22.265  31.950  43.126  1.00  0.00    +0.000 H 
ATOM    119  H28 UNL A   1      24.499  32.529  43.871  1.00  0.00    +0.000 H 
ATOM     90  C64 UNL A   1      23.067  32.005  46.869  1.00  0.00    +0.000 C 
ATOM     91  C65 UNL A   1      21.789  31.653  46.436  1.00  0.00    +0.000 C 
ATOM     29  C22 UNL A   1      21.481  31.686  45.073  1.00  0.00    +0.000 C 
ATOM     30  C23 UNL A   1      22.481  31.981  44.135  1.00  0.00    +0.000 C 
ATOM     31  C24 UNL A   1      23.762  32.315  44.561  1.00  0.00    +0.000 C 
ATOM     32  C25 UNL A   1      24.047  32.359  45.930  1.00  0.00    +0.000 C 
BRANCH   29   27
ATOM     27  C21 UNL A   1      20.139  31.337  44.548  1.00  0.00    +0.000 C 
ATOM     28  O4  UNL A   1      19.526  30.407  45.034  1.00  0.00    +0.000 O 
BRANCH   27   26
ATOM     26  N3  UNL A   1      19.582  32.035  43.499  1.00  0.00    +0.000 N 
ATOM    117  H26 UNL A   1      20.186  32.238  42.749  1.00  0.00    +0.000 H 
BRANCH   26   25
ATOM     25  C20 UNL A   1      18.215  32.509  43.359  1.00  0.00    +0.000 C 
ATOM    115  H24 UNL A   1      17.655  32.224  44.225  1.00  0.00    +0.000 H 
ATOM    116  H25 UNL A   1      18.233  33.573  43.256  1.00  0.00    +0.000 H 
BRANCH   25   24
ATOM    113  H22 UNL A   1      17.459  32.684  41.381  1.00  0.00    +0.000 H 
ATOM    114  H23 UNL A   1      18.173  31.104  41.794  1.00  0.00    +0.000 H 
ATOM     24  C19 UNL A   1      17.551  31.912  42.117  1.00  0.00    +0.000 C 
BRANCH   24   23
ATOM    111  H20 UNL A   1      15.522  32.105  42.721  1.00  0.00    +0.000 H 
ATOM     23  C18 UNL A   1      16.156  31.319  42.366  1.00  0.00    +0.000 C 
ATOM    112  H21 UNL A   1      15.843  30.901  41.433  1.00  0.00    +0.000 H 
BRANCH   23   22
ATOM    110  H19 UNL A   1      15.089  29.832  43.387  1.00  0.00    +0.000 H 
ATOM    109  H18 UNL A   1      16.435  30.551  44.324  1.00  0.00    +0.000 H 
ATOM     22  C17 UNL A   1      16.103  30.173  43.381  1.00  0.00    +0.000 C 
BRANCH   22   21
ATOM    107  H16 UNL A   1      16.486  28.429  42.227  1.00  0.00    +0.000 H 
ATOM    108  H17 UNL A   1      17.930  29.319  42.794  1.00  0.00    +0.000 H 
ATOM     21  C16 UNL A   1      16.957  28.946  43.036  1.00  0.00    +0.000 C 
BRANCH   21   20
ATOM    105  H14 UNL A   1      18.200  27.852  44.380  1.00  0.00    +0.000 H 
ATOM    106  H15 UNL A   1      16.636  28.329  45.042  1.00  0.00    +0.000 H 
ATOM     20  C15 UNL A   1      17.153  27.953  44.184  1.00  0.00    +0.000 C 
BRANCH   20   19
ATOM     19  N2  UNL A   1      16.607  26.650  43.862  1.00  0.00    +0.000 N 
ATOM    104  H13 UNL A   1      17.222  25.885  43.790  1.00  0.00    +0.000 H 
BRANCH   19    2
ATOM      1  O1  UNL A   1      14.380  27.151  44.127  1.00  0.00    +0.000 O 
ATOM      2  C1  UNL A   1      15.259  26.438  43.650  1.00  0.00    +0.000 C 
BRANCH    2    3
ATOM      3  C2  UNL A   1      14.932  25.179  42.852  1.00  0.00    +0.000 C 
ATOM     92  H1  UNL A   1      14.034  24.745  43.239  1.00  0.00    +0.000 H 
ATOM     93  H2  UNL A   1      15.754  24.500  42.945  1.00  0.00    +0.000 H 
BRANCH    3    4
ATOM      4  C3  UNL A   1      14.736  25.490  41.394  1.00  0.00    +0.000 C 
ATOM      5  C4  UNL A   1      15.033  26.672  40.735  1.00  0.00    +0.000 C 
ATOM      6  C5  UNL A   1      14.866  26.456  39.353  1.00  0.00    +0.000 C 
ATOM      7  C6  UNL A   1      14.464  25.150  39.196  1.00  0.00    +0.000 C 
ATOM      8  N1  UNL A   1      14.297  24.577  40.441  1.00  0.00    +0.000 N 
ATOM     94  H3  UNL A   1      15.326  27.557  41.179  1.00  0.00    +0.000 H 
ATOM     95  H4  UNL A   1      15.017  27.147  38.601  1.00  0.00    +0.000 H 
ATOM     96  H5  UNL A   1      14.312  24.675  38.293  1.00  0.00    +0.000 H 
BRANCH    8    9
ATOM     97  H6  UNL A   1      13.182  23.647  42.648  1.00  0.00    +0.000 H 
ATOM     98  H7  UNL A   1      12.236  21.435  42.993  1.00  0.00    +0.000 H 
ATOM     99  H8  UNL A   1      14.302  22.549  38.734  1.00  0.00    +0.000 H 
ATOM    100  H9  UNL A   1      13.010  18.197  38.375  1.00  0.00    +0.000 H 
ATOM    101  H10 UNL A   1      11.662  19.237  38.822  1.00  0.00    +0.000 H 
ATOM    102  H11 UNL A   1      13.785  18.270  40.705  1.00  0.00    +0.000 H 
ATOM    103  H12 UNL A   1      12.167  17.599  40.561  1.00  0.00    +0.000 H 
ATOM      9  C7  UNL A   1      13.780  23.274  40.652  1.00  0.00    +0.000 C 
ATOM     10  C8  UNL A   1      13.212  22.947  41.891  1.00  0.00    +0.000 C 
ATOM     11  C9  UNL A   1      12.688  21.669  42.096  1.00  0.00    +0.000 C 
ATOM     12  C10 UNL A   1      12.776  20.709  41.089  1.00  0.00    +0.000 C 
ATOM     13  C11 UNL A   1      13.361  21.031  39.861  1.00  0.00    +0.000 C 
ATOM     14  C12 UNL A   1      13.866  22.312  39.639  1.00  0.00    +0.000 C 
ATOM     15  O2  UNL A   1      13.496  20.134  38.832  1.00  0.00    +0.000 O 
ATOM     16  C13 UNL A   1      12.679  18.975  39.031  1.00  0.00    +0.000 C 
ATOM     17  C14 UNL A   1      12.763  18.482  40.467  1.00  0.00    +0.000 C 
ATOM     18  O3  UNL A   1      12.266  19.470  41.375  1.00  0.00    +0.000 O 
ENDBRANCH    8    9
ENDBRANCH    3    4
ENDBRANCH    2    3
ENDBRANCH   19    2
ENDBRANCH   20   19
ENDBRANCH   21   20
ENDBRANCH   22   21
ENDBRANCH   23   22
ENDBRANCH   24   23
ENDBRANCH   25   24
ENDBRANCH   26   25
ENDBRANCH   27   26
ENDBRANCH   29   27
ENDBRANCH   33   32
BRANCH   37   38
ATOM     38  C30 UNL A   1      30.036  29.284  48.392  1.00  0.00    +0.000 C 
ATOM     39  C31 UNL A   1      29.893  28.308  49.410  1.00  0.00    +0.000 C 
ATOM     40  F1  UNL A   1      28.774  28.248  50.150  1.00  0.00    +0.000 F 
ATOM     41  C32 UNL A   1      30.921  27.429  49.745  1.00  0.00    +0.000 C 
ATOM     42  F2  UNL A   1      30.789  26.618  50.805  1.00  0.00    +0.000 F 
ATOM     43  C33 UNL A   1      32.100  27.443  49.028  1.00  0.00    +0.000 C 
ATOM     44  F3  UNL A   1      33.117  26.649  49.388  1.00  0.00    +0.000 F 
ATOM     45  C34 UNL A   1      32.233  28.311  47.957  1.00  0.00    +0.000 C 
ATOM     46  F4  UNL A   1      33.375  28.323  47.254  1.00  0.00    +0.000 F 
ATOM     47  C35 UNL A   1      31.223  29.229  47.649  1.00  0.00    +0.000 C 
ATOM     48  F5  UNL A   1      31.475  30.120  46.682  1.00  0.00    +0.000 F 
ENDBRANCH   37   38
BRANCH   54   55
ATOM     65  F10 UNL A   1      28.157  33.773  45.488  1.00  0.00    +0.000 F 
ATOM     55  C41 UNL A   1      30.470  34.284  45.648  1.00  0.00    +0.000 C 
ATOM     56  C42 UNL A   1      31.671  34.418  44.938  1.00  0.00    +0.000 C 
ATOM     57  F6  UNL A   1      32.794  34.765  45.584  1.00  0.00    +0.000 F 
ATOM     58  C43 UNL A   1      31.731  34.201  43.559  1.00  0.00    +0.000 C 
ATOM     59  F7  UNL A   1      32.895  34.344  42.911  1.00  0.00    +0.000 F 
ATOM     60  C44 UNL A   1      30.595  33.835  42.854  1.00  0.00    +0.000 C 
ATOM     61  F8  UNL A   1      30.656  33.617  41.532  1.00  0.00    +0.000 F 
ATOM     62  C45 UNL A   1      29.399  33.687  43.525  1.00  0.00    +0.000 C 
ATOM     63  F9  UNL A   1      28.293  33.316  42.861  1.00  0.00    +0.000 F 
ATOM     64  C46 UNL A   1      29.342  33.916  44.899  1.00  0.00    +0.000 C 
ENDBRANCH   54   55
BRANCH   69   70
ATOM     70  C50 UNL A   1      26.816  39.121  46.544  1.00  0.00    +0.000 C 
ATOM     71  C51 UNL A   1      25.909  39.837  47.337  1.00  0.00    +0.000 C 
ATOM     72  F11 UNL A   1      24.964  39.216  48.049  1.00  0.00    +0.000 F 
ATOM     73  C52 UNL A   1      25.906  41.243  47.398  1.00  0.00    +0.000 C 
ATOM     74  F12 UNL A   1      25.030  41.870  48.198  1.00  0.00    +0.000 F 
ATOM     75  C53 UNL A   1      26.795  41.994  46.653  1.00  0.00    +0.000 C 
ATOM     76  F13 UNL A   1      26.821  43.330  46.750  1.00  0.00    +0.000 F 
ATOM     77  C54 UNL A   1      27.639  41.345  45.787  1.00  0.00    +0.000 C 
ATOM     78  F14 UNL A   1      28.494  42.042  45.025  1.00  0.00    +0.000 F 
ATOM     79  C55 UNL A   1      27.621  39.951  45.710  1.00  0.00    +0.000 C 
ATOM     80  F15 UNL A   1      28.428  39.438  44.772  1.00  0.00    +0.000 F 
ENDBRANCH   69   70
TORSDOF 17
ENDMDL
MODEL 2
REMARK VINA RESULT:     -12.6     21.325     24.871
ROOT
ATOM    129  H38 UNL A   1      39.310  26.486  26.899  1.00  0.00    +0.000 H 
ATOM     33  C26 UNL A   1      40.735  27.733  29.106  1.00  0.00    +0.000 C 
ATOM     34  C27 UNL A   1      40.889  26.318  28.527  1.00  0.00    +0.000 C 
ATOM     35  N4  UNL A   1      41.645  25.332  28.911  1.00  0.00    +0.000 N 
ATOM     36  C28 UNL A   1      41.488  24.290  27.973  1.00  0.00    +0.000 C 
ATOM     37  C29 UNL A   1      42.335  23.225  27.875  1.00  0.00    +0.000 C 
ATOM     49  C36 UNL A   1      43.337  23.279  28.883  1.00  0.00    +0.000 C 
ATOM     50  C37 UNL A   1      43.346  22.988  30.220  1.00  0.00    +0.000 C 
ATOM     51  C38 UNL A   1      44.363  23.809  30.756  1.00  0.00    +0.000 C 
ATOM     52  C39 UNL A   1      44.974  24.518  29.716  1.00  0.00    +0.000 C 
ATOM     53  N5  UNL A   1      44.503  23.930  28.567  1.00  0.00    +0.000 N 
ATOM     54  C40 UNL A   1      45.737  25.738  29.578  1.00  0.00    +0.000 C 
ATOM     66  C47 UNL A   1      45.986  26.449  30.705  1.00  0.00    +0.000 C 
ATOM     67  N6  UNL A   1      45.841  27.818  30.694  1.00  0.00    +0.000 N 
ATOM     68  C48 UNL A   1      45.163  28.038  31.782  1.00  0.00    +0.000 C 
ATOM     69  C49 UNL A   1      44.428  29.280  32.085  1.00  0.00    +0.000 C 
ATOM     81  C56 UNL A   1      43.305  29.251  31.301  1.00  0.00    +0.000 C 
ATOM     82  C57 UNL A   1      42.266  30.256  31.190  1.00  0.00    +0.000 C 
ATOM     83  C58 UNL A   1      41.287  29.818  30.376  1.00  0.00    +0.000 C 
ATOM     84  C59 UNL A   1      41.583  28.459  29.889  1.00  0.00    +0.000 C 
ATOM     85  N7  UNL A   1      42.831  28.228  30.439  1.00  0.00    +0.000 N 
ATOM     86  C60 UNL A   1      45.078  26.920  32.731  1.00  0.00    +0.000 C 
ATOM     87  C61 UNL A   1      45.795  26.020  32.068  1.00  0.00    +0.000 C 
ATOM     88  C62 UNL A   1      40.406  24.671  27.117  1.00  0.00    +0.000 C 
ATOM     89  C63 UNL A   1      40.030  25.923  27.379  1.00  0.00    +0.000 C 
ATOM    120  H29 UNL A   1      42.745  22.319  30.725  1.00  0.00    +0.000 H 
ATOM    121  H30 UNL A   1      44.615  23.876  31.754  1.00  0.00    +0.000 H 
ATOM    122  H31 UNL A   1      44.924  23.969  27.679  1.00  0.00    +0.000 H 
ATOM    123  H32 UNL A   1      42.275  31.173  31.666  1.00  0.00    +0.000 H 
ATOM    124  H33 UNL A   1      40.445  30.360  30.127  1.00  0.00    +0.000 H 
ATOM    125  H34 UNL A   1      43.351  27.415  30.247  1.00  0.00    +0.000 H 
ATOM    126  H35 UNL A   1      44.601  26.855  33.644  1.00  0.00    +0.000 H 
ATOM    127  H36 UNL A   1      46.160  25.142  32.470  1.00  0.00    +0.000 H 
ATOM    128  H37 UNL A   1      39.979  24.064  26.399  1.00  0.00    +0.000 H 
ENDROOT
BRANCH   33   32
ATOM    130  H39 UNL A   1      38.418  27.812  30.509  1.00  0.00    +0.000 H 
ATOM    131  H40 UNL A   1      36.424  29.102  30.005  1.00  0.00    +0.000 H 
ATOM    118  H27 UNL A   1      38.162  30.371  26.386  1.00  0.00    +0.000 H 
ATOM    119  H28 UNL A   1      40.133  29.040  26.858  1.00  0.00    +0.000 H 
ATOM     90  C64 UNL A   1      38.368  28.366  29.641  1.00  0.00    +0.000 C 
ATOM     91  C65 UNL A   1      37.228  29.118  29.357  1.00  0.00    +0.000 C 
ATOM     29  C22 UNL A   1      37.175  29.892  28.195  1.00  0.00    +0.000 C 
ATOM     30  C23 UNL A   1      38.227  29.842  27.270  1.00  0.00    +0.000 C 
ATOM     31  C24 UNL A   1      39.360  29.080  27.540  1.00  0.00    +0.000 C 
ATOM     32  C25 UNL A   1      39.444  28.368  28.741  1.00  0.00    +0.000 C 
BRANCH   29   27
ATOM     27  C21 UNL A   1      35.999  30.723  27.841  1.00  0.00    +0.000 C 
ATOM     28  O4  UNL A   1      36.056  31.931  27.966  1.00  0.00    +0.000 O 
BRANCH   27   26
ATOM     26  N3  UNL A   1      34.829  30.148  27.396  1.00  0.00    +0.000 N 
ATOM    117  H26 UNL A   1      34.050  30.747  27.337  1.00  0.00    +0.000 H 
BRANCH   26   25
ATOM     25  C20 UNL A   1      34.599  28.769  27.000  1.00  0.00    +0.000 C 
ATOM    115  H24 UNL A   1      34.839  28.658  25.963  1.00  0.00    +0.000 H 
ATOM    116  H25 UNL A   1      35.218  28.135  27.599  1.00  0.00    +0.000 H 
BRANCH   25   24
ATOM    113  H22 UNL A   1      33.062  27.892  28.175  1.00  0.00    +0.000 H 
ATOM    114  H23 UNL A   1      32.562  29.268  27.157  1.00  0.00    +0.000 H 
ATOM     24  C19 UNL A   1      33.139  28.369  27.220  1.00  0.00    +0.000 C 
BRANCH   24   23
ATOM    111  H20 UNL A   1      31.524  27.317  26.325  1.00  0.00    +0.000 H 
ATOM     23  C18 UNL A   1      32.577  27.412  26.159  1.00  0.00    +0.000 C 
ATOM    112  H21 UNL A   1      32.826  27.843  25.213  1.00  0.00    +0.000 H 
BRANCH   23   22
ATOM    110  H19 UNL A   1      32.375  25.335  25.959  1.00  0.00    +0.000 H 
ATOM    109  H18 UNL A   1      33.655  25.847  27.103  1.00  0.00    +0.000 H 
ATOM     22  C17 UNL A   1      33.185  26.006  26.155  1.00  0.00    +0.000 C 
BRANCH   22   21
ATOM    107  H16 UNL A   1      33.723  25.734  24.117  1.00  0.00    +0.000 H 
ATOM    108  H17 UNL A   1      34.956  26.518  25.148  1.00  0.00    +0.000 H 
ATOM     21  C16 UNL A   1      34.226  25.741  25.061  1.00  0.00    +0.000 C 
BRANCH   21   20
ATOM    105  H14 UNL A   1      34.855  23.847  24.309  1.00  0.00    +0.000 H 
ATOM    106  H15 UNL A   1      36.022  24.648  25.361  1.00  0.00    +0.000 H 
ATOM     20  C15 UNL A   1      34.988  24.421  25.201  1.00  0.00    +0.000 C 
BRANCH   20   19
ATOM     19  N2  UNL A   1      34.515  23.649  26.332  1.00  0.00    +0.000 N 
ATOM    104  H13 UNL A   1      34.240  24.126  27.148  1.00  0.00    +0.000 H 
BRANCH   19    2
ATOM      1  O1  UNL A   1      35.422  21.537  26.293  1.00  0.00    +0.000 O 
ATOM      2  C1  UNL A   1      34.436  22.271  26.312  1.00  0.00    +0.000 C 
BRANCH    2    3
ATOM      3  C2  UNL A   1      33.018  21.717  26.214  1.00  0.00    +0.000 C 
ATOM     92  H1  UNL A   1      32.330  22.533  26.138  1.00  0.00    +0.000 H 
ATOM     93  H2  UNL A   1      32.822  21.136  27.091  1.00  0.00    +0.000 H 
BRANCH    3    4
ATOM      4  C3  UNL A   1      32.857  20.829  25.011  1.00  0.00    +0.000 C 
ATOM      5  C4  UNL A   1      33.020  19.454  24.951  1.00  0.00    +0.000 C 
ATOM      6  C5  UNL A   1      32.589  19.019  23.682  1.00  0.00    +0.000 C 
ATOM      7  C6  UNL A   1      32.178  20.135  22.992  1.00  0.00    +0.000 C 
ATOM      8  N1  UNL A   1      32.420  21.256  23.763  1.00  0.00    +0.000 N 
ATOM     94  H3  UNL A   1      33.392  18.853  25.703  1.00  0.00    +0.000 H 
ATOM     95  H4  UNL A   1      32.582  18.046  23.336  1.00  0.00    +0.000 H 
ATOM     96  H5  UNL A   1      31.757  20.135  22.050  1.00  0.00    +0.000 H 
BRANCH    8    9
ATOM     97  H6  UNL A   1      33.806  22.530  21.910  1.00  0.00    +0.000 H 
ATOM     98  H7  UNL A   1      33.429  24.787  21.090  1.00  0.00    +0.000 H 
ATOM     99  H8  UNL A   1      30.630  23.001  24.644  1.00  0.00    +0.000 H 
ATOM    100  H9  UNL A   1      29.198  27.272  23.978  1.00  0.00    +0.000 H 
ATOM    101  H10 UNL A   1      29.162  26.338  22.487  1.00  0.00    +0.000 H 
ATOM    102  H11 UNL A   1      31.625  27.538  23.704  1.00  0.00    +0.000 H 
ATOM    103  H12 UNL A   1      30.724  28.211  22.353  1.00  0.00    +0.000 H 
ATOM      9  C7  UNL A   1      32.222  22.586  23.313  1.00  0.00    +0.000 C 
ATOM     10  C8  UNL A   1      33.050  23.107  22.310  1.00  0.00    +0.000 C 
ATOM     11  C9  UNL A   1      32.846  24.411  21.853  1.00  0.00    +0.000 C 
ATOM     12  C10 UNL A   1      31.857  25.205  22.431  1.00  0.00    +0.000 C 
ATOM     13  C11 UNL A   1      31.046  24.690  23.447  1.00  0.00    +0.000 C 
ATOM     14  C12 UNL A   1      31.226  23.381  23.892  1.00  0.00    +0.000 C 
ATOM     15  O2  UNL A   1      30.064  25.418  24.070  1.00  0.00    +0.000 O 
ATOM     16  C13 UNL A   1      29.747  26.609  23.342  1.00  0.00    +0.000 C 
ATOM     17  C14 UNL A   1      31.006  27.313  22.861  1.00  0.00    +0.000 C 
ATOM     18  O3  UNL A   1      31.737  26.483  21.951  1.00  0.00    +0.000 O 
ENDBRANCH    8    9
ENDBRANCH    3    4
ENDBRANCH    2    3
ENDBRANCH   19    2
ENDBRANCH   20   19
ENDBRANCH   21   20
ENDBRANCH   22   21
ENDBRANCH   23   22
ENDBRANCH   24   23
ENDBRANCH   25   24
ENDBRANCH   26   25
ENDBRANCH   27   26
ENDBRANCH   29   27
ENDBRANCH   33   32
BRANCH   37   38
ATOM     38  C30 UNL A   1      42.513  22.188  26.797  1.00  0.00    +0.000 C 
ATOM     39  C31 UNL A   1      41.980  20.892  27.013  1.00  0.00    +0.000 C 
ATOM     40  F1  UNL A   1      41.041  20.683  27.949  1.00  0.00    +0.000 F 
ATOM     41  C32 UNL A   1      42.456  19.772  26.333  1.00  0.00    +0.000 C 
ATOM     42  F2  UNL A   1      42.018  18.550  26.669  1.00  0.00    +0.000 F 
ATOM     43  C33 UNL A   1      43.426  19.916  25.362  1.00  0.00    +0.000 C 
ATOM     44  F3  UNL A   1      43.936  18.837  24.753  1.00  0.00    +0.000 F 
ATOM     45  C34 UNL A   1      43.892  21.183  25.051  1.00  0.00    +0.000 C 
ATOM     46  F4  UNL A   1      44.830  21.328  24.104  1.00  0.00    +0.000 F 
ATOM     47  C35 UNL A   1      43.454  22.304  25.765  1.00  0.00    +0.000 C 
ATOM     48  F5  UNL A   1      44.043  23.476  25.494  1.00  0.00    +0.000 F 
ENDBRANCH   37   38
BRANCH   54   55
ATOM     65  F10 UNL A   1      43.559  26.897  28.020  1.00  0.00    +0.000 F 
ATOM     55  C41 UNL A   1      45.890  26.550  28.310  1.00  0.00    +0.000 C 
ATOM     56  C42 UNL A   1      47.169  26.866  27.831  1.00  0.00    +0.000 C 
ATOM     57  F6  UNL A   1      48.253  26.345  28.426  1.00  0.00    +0.000 F 
ATOM     58  C43 UNL A   1      47.349  27.720  26.740  1.00  0.00    +0.000 C 
ATOM     59  F7  UNL A   1      48.587  28.003  26.312  1.00  0.00    +0.000 F 
ATOM     60  C44 UNL A   1      46.257  28.274  26.091  1.00  0.00    +0.000 C 
ATOM     61  F8  UNL A   1      46.430  29.085  25.038  1.00  0.00    +0.000 F 
ATOM     62  C45 UNL A   1      44.983  27.977  26.533  1.00  0.00    +0.000 C 
ATOM     63  F9  UNL A   1      43.914  28.491  25.907  1.00  0.00    +0.000 F 
ATOM     64  C46 UNL A   1      44.810  27.134  27.630  1.00  0.00    +0.000 C 
ENDBRANCH   54   55
BRANCH   69   70
ATOM     70  C50 UNL A   1      45.001  30.170  33.174  1.00  0.00    +0.000 C 
ATOM     71  C51 UNL A   1      46.119  31.006  33.052  1.00  0.00    +0.000 C 
ATOM     72  F11 UNL A   1      46.929  30.937  31.993  1.00  0.00    +0.000 F 
ATOM     73  C52 UNL A   1      46.481  31.931  34.049  1.00  0.00    +0.000 C 
ATOM     74  F12 UNL A   1      47.546  32.724  33.862  1.00  0.00    +0.000 F 
ATOM     75  C53 UNL A   1      45.755  32.044  35.220  1.00  0.00    +0.000 C 
ATOM     76  F13 UNL A   1      46.074  32.958  36.145  1.00  0.00    +0.000 F 
ATOM     77  C54 UNL A   1      44.709  31.180  35.429  1.00  0.00    +0.000 C 
ATOM     78  F14 UNL A   1      44.000  31.239  36.566  1.00  0.00    +0.000 F 
ATOM     79  C55 UNL A   1      44.369  30.247  34.449  1.00  0.00    +0.000 C 
ATOM     80  F15 UNL A   1      43.387  29.405  34.802  1.00  0.00    +0.000 F 
ENDBRANCH   69   70
TORSDOF 17
ENDMDL
MODEL 3
REMARK VINA RESULT:     -12.5     21.345     24.930
ROOT
ATOM    129  H38 UNL A   1      39.234  26.382  26.907  1.00  0.00    +0.000 H 
ATOM     33  C26 UNL A   1      40.713  27.691  29.042  1.00  0.00    +0.000 C 
ATOM     34  C27 UNL A   1      40.854  26.261  28.499  1.00  0.00    +0.000 C 
ATOM     35  N4  UNL A   1      41.621  25.286  28.890  1.00  0.00    +0.000 N 
ATOM     36  C28 UNL A   1      41.442  24.218  27.985  1.00  0.00    +0.000 C 
ATOM     37  C29 UNL A   1      42.288  23.152  27.896  1.00  0.00    +0.000 C 
ATOM     49  C36 UNL A   1      43.315  23.235  28.876  1.00  0.00    +0.000 C 
ATOM     50  C37 UNL A   1      43.359  22.981  30.220  1.00  0.00    +0.000 C 
ATOM     51  C38 UNL A   1      44.388  23.817  30.706  1.00  0.00    +0.000 C 
ATOM     52  C39 UNL A   1      44.971  24.497  29.631  1.00  0.00    +0.000 C 
ATOM     53  N5  UNL A   1      44.471  23.878  28.512  1.00  0.00    +0.000 N 
ATOM     54  C40 UNL A   1      45.729  25.714  29.440  1.00  0.00    +0.000 C 
ATOM     66  C47 UNL A   1      46.006  26.456  30.541  1.00  0.00    +0.000 C 
ATOM     67  N6  UNL A   1      45.858  27.824  30.496  1.00  0.00    +0.000 N 
ATOM     68  C48 UNL A   1      45.208  28.074  31.593  1.00  0.00    +0.000 C 
ATOM     69  C49 UNL A   1      44.479  29.323  31.881  1.00  0.00    +0.000 C 
ATOM     81  C56 UNL A   1      43.336  29.271  31.128  1.00  0.00    +0.000 C 
ATOM     82  C57 UNL A   1      42.293  30.272  31.016  1.00  0.00    +0.000 C 
ATOM     83  C58 UNL A   1      41.295  29.811  30.239  1.00  0.00    +0.000 C 
ATOM     84  C59 UNL A   1      41.579  28.439  29.782  1.00  0.00    +0.000 C 
ATOM     85  N7  UNL A   1      42.841  28.225  30.306  1.00  0.00    +0.000 N 
ATOM     86  C60 UNL A   1      45.149  26.982  32.576  1.00  0.00    +0.000 C 
ATOM     87  C61 UNL A   1      45.850  26.065  31.919  1.00  0.00    +0.000 C 
ATOM     88  C62 UNL A   1      40.337  24.574  27.147  1.00  0.00    +0.000 C 
ATOM     89  C63 UNL A   1      39.966  25.833  27.384  1.00  0.00    +0.000 C 
ATOM    120  H29 UNL A   1      42.772  22.325  30.758  1.00  0.00    +0.000 H 
ATOM    121  H30 UNL A   1      44.665  23.912  31.695  1.00  0.00    +0.000 H 
ATOM    122  H31 UNL A   1      44.870  23.892  27.613  1.00  0.00    +0.000 H 
ATOM    123  H32 UNL A   1      42.313  31.201  31.465  1.00  0.00    +0.000 H 
ATOM    124  H33 UNL A   1      40.445  30.345  29.997  1.00  0.00    +0.000 H 
ATOM    125  H34 UNL A   1      43.358  27.406  30.123  1.00  0.00    +0.000 H 
ATOM    126  H35 UNL A   1      44.695  26.942  33.502  1.00  0.00    +0.000 H 
ATOM    127  H36 UNL A   1      46.227  25.198  32.336  1.00  0.00    +0.000 H 
ATOM    128  H37 UNL A   1      39.894  23.948  26.458  1.00  0.00    +0.000 H 
ENDROOT
BRANCH   33   32
ATOM    130  H39 UNL A   1      38.409  27.737  30.467  1.00  0.00    +0.000 H 
ATOM    131  H40 UNL A   1      36.396  29.009  29.989  1.00  0.00    +0.000 H 
ATOM    118  H27 UNL A   1      38.087  30.318  26.362  1.00  0.00    +0.000 H 
ATOM    119  H28 UNL A   1      40.076  29.004  26.807  1.00  0.00    +0.000 H 
ATOM     90  C64 UNL A   1      38.344  28.296  29.603  1.00  0.00    +0.000 C 
ATOM     91  C65 UNL A   1      37.194  29.038  29.334  1.00  0.00    +0.000 C 
ATOM     29  C22 UNL A   1      37.122  29.818  28.177  1.00  0.00    +0.000 C 
ATOM     30  C23 UNL A   1      38.166  29.784  27.242  1.00  0.00    +0.000 C 
ATOM     31  C24 UNL A   1      39.309  29.032  27.497  1.00  0.00    +0.000 C 
ATOM     32  C25 UNL A   1      39.412  28.314  28.693  1.00  0.00    +0.000 C 
BRANCH   29   27
ATOM     27  C21 UNL A   1      35.935  30.639  27.839  1.00  0.00    +0.000 C 
ATOM     28  O4  UNL A   1      35.994  31.849  27.932  1.00  0.00    +0.000 O 
BRANCH   27   26
ATOM     26  N3  UNL A   1      34.753  30.051  27.444  1.00  0.00    +0.000 N 
ATOM    117  H26 UNL A   1      34.768  29.070  27.360  1.00  0.00    +0.000 H 
BRANCH   26   25
ATOM     25  C20 UNL A   1      33.486  30.695  27.139  1.00  0.00    +0.000 C 
ATOM    115  H24 UNL A   1      33.300  31.462  27.862  1.00  0.00    +0.000 H 
ATOM    116  H25 UNL A   1      33.545  31.111  26.156  1.00  0.00    +0.000 H 
BRANCH   25   24
ATOM    113  H22 UNL A   1      32.692  28.784  27.620  1.00  0.00    +0.000 H 
ATOM    114  H23 UNL A   1      31.544  30.144  27.729  1.00  0.00    +0.000 H 
ATOM     24  C19 UNL A   1      32.335  29.688  27.172  1.00  0.00    +0.000 C 
BRANCH   24   23
ATOM    111  H20 UNL A   1      30.774  29.761  25.732  1.00  0.00    +0.000 H 
ATOM     23  C18 UNL A   1      31.756  29.342  25.792  1.00  0.00    +0.000 C 
ATOM    112  H21 UNL A   1      32.441  29.747  25.076  1.00  0.00    +0.000 H 
BRANCH   23   22
ATOM    110  H19 UNL A   1      32.162  27.704  24.549  1.00  0.00    +0.000 H 
ATOM    109  H18 UNL A   1      30.616  27.587  25.446  1.00  0.00    +0.000 H 
ATOM     22  C17 UNL A   1      31.653  27.847  25.479  1.00  0.00    +0.000 C 
BRANCH   22   21
ATOM    107  H16 UNL A   1      32.623  27.493  27.337  1.00  0.00    +0.000 H 
ATOM    108  H17 UNL A   1      31.636  26.141  26.706  1.00  0.00    +0.000 H 
ATOM     21  C16 UNL A   1      32.342  26.913  26.483  1.00  0.00    +0.000 C 
BRANCH   21   20
ATOM    105  H14 UNL A   1      33.952  26.736  25.095  1.00  0.00    +0.000 H 
ATOM    106  H15 UNL A   1      34.327  26.203  26.734  1.00  0.00    +0.000 H 
ATOM     20  C15 UNL A   1      33.594  26.209  25.955  1.00  0.00    +0.000 C 
BRANCH   20   19
ATOM     19  N2  UNL A   1      33.318  24.836  25.583  1.00  0.00    +0.000 N 
ATOM    104  H13 UNL A   1      33.300  24.600  24.628  1.00  0.00    +0.000 H 
BRANCH   19    2
ATOM      1  O1  UNL A   1      31.965  23.611  26.979  1.00  0.00    +0.000 O 
ATOM      2  C1  UNL A   1      33.078  23.846  26.514  1.00  0.00    +0.000 C 
BRANCH    2    3
ATOM      3  C2  UNL A   1      34.327  23.120  27.005  1.00  0.00    +0.000 C 
ATOM     92  H1  UNL A   1      34.070  22.110  27.249  1.00  0.00    +0.000 H 
ATOM     93  H2  UNL A   1      34.698  23.636  27.866  1.00  0.00    +0.000 H 
BRANCH    3    4
ATOM      4  C3  UNL A   1      35.404  23.111  25.956  1.00  0.00    +0.000 C 
ATOM      5  C4  UNL A   1      36.422  24.036  25.784  1.00  0.00    +0.000 C 
ATOM      6  C5  UNL A   1      37.305  23.536  24.807  1.00  0.00    +0.000 C 
ATOM      7  C6  UNL A   1      36.808  22.321  24.399  1.00  0.00    +0.000 C 
ATOM      8  N1  UNL A   1      35.601  22.092  25.030  1.00  0.00    +0.000 N 
ATOM     94  H3  UNL A   1      36.516  24.934  26.283  1.00  0.00    +0.000 H 
ATOM     95  H4  UNL A   1      38.164  23.995  24.463  1.00  0.00    +0.000 H 
ATOM     96  H5  UNL A   1      37.263  21.683  23.728  1.00  0.00    +0.000 H 
BRANCH    8    9
ATOM     97  H6  UNL A   1      33.026  22.161  24.445  1.00  0.00    +0.000 H 
ATOM     98  H7  UNL A   1      31.593  20.272  23.910  1.00  0.00    +0.000 H 
ATOM     99  H8  UNL A   1      36.259  19.525  25.059  1.00  0.00    +0.000 H 
ATOM    100  H9  UNL A   1      34.477  15.388  24.391  1.00  0.00    +0.000 H 
ATOM    101  H10 UNL A   1      34.232  16.431  22.995  1.00  0.00    +0.000 H 
ATOM    102  H11 UNL A   1      32.617  16.528  25.518  1.00  0.00    +0.000 H 
ATOM    103  H12 UNL A   1      32.118  15.762  24.017  1.00  0.00    +0.000 H 
ATOM      9  C7  UNL A   1      34.759  20.985  24.756  1.00  0.00    +0.000 C 
ATOM     10  C8  UNL A   1      33.408  21.202  24.455  1.00  0.00    +0.000 C 
ATOM     11  C9  UNL A   1      32.579  20.115  24.168  1.00  0.00    +0.000 C 
ATOM     12  C10 UNL A   1      33.085  18.818  24.233  1.00  0.00    +0.000 C 
ATOM     13  C11 UNL A   1      34.428  18.602  24.554  1.00  0.00    +0.000 C 
ATOM     14  C12 UNL A   1      35.269  19.683  24.818  1.00  0.00    +0.000 C 
ATOM     15  O2  UNL A   1      34.989  17.354  24.650  1.00  0.00    +0.000 O 
ATOM     16  C13 UNL A   1      34.154  16.352  24.059  1.00  0.00    +0.000 C 
ATOM     17  C14 UNL A   1      32.698  16.548  24.451  1.00  0.00    +0.000 C 
ATOM     18  O3  UNL A   1      32.205  17.802  23.967  1.00  0.00    +0.000 O 
ENDBRANCH    8    9
ENDBRANCH    3    4
ENDBRANCH    2    3
ENDBRANCH   19    2
ENDBRANCH   20   19
ENDBRANCH   21   20
ENDBRANCH   22   21
ENDBRANCH   23   22
ENDBRANCH   24   23
ENDBRANCH   25   24
ENDBRANCH   26   25
ENDBRANCH   27   26
ENDBRANCH   29   27
ENDBRANCH   33   32
BRANCH   37   38
ATOM     38  C30 UNL A   1      42.440  22.086  26.843  1.00  0.00    +0.000 C 
ATOM     39  C31 UNL A   1      41.918  20.794  27.109  1.00  0.00    +0.000 C 
ATOM     40  F1  UNL A   1      41.005  20.610  28.077  1.00  0.00    +0.000 F 
ATOM     41  C32 UNL A   1      42.378  19.657  26.448  1.00  0.00    +0.000 C 
ATOM     42  F2  UNL A   1      41.954  18.444  26.830  1.00  0.00    +0.000 F 
ATOM     43  C33 UNL A   1      43.321  19.777  25.447  1.00  0.00    +0.000 C 
ATOM     44  F3  UNL A   1      43.817  18.683  24.854  1.00  0.00    +0.000 F 
ATOM     45  C34 UNL A   1      43.774  21.036  25.087  1.00  0.00    +0.000 C 
ATOM     46  F4  UNL A   1      44.684  21.156  24.111  1.00  0.00    +0.000 F 
ATOM     47  C35 UNL A   1      43.351  22.175  25.782  1.00  0.00    +0.000 C 
ATOM     48  F5  UNL A   1      43.928  23.340  25.462  1.00  0.00    +0.000 F 
ENDBRANCH   37   38
BRANCH   54   55
ATOM     65  F10 UNL A   1      43.508  26.802  27.892  1.00  0.00    +0.000 F 
ATOM     55  C41 UNL A   1      45.848  26.490  28.147  1.00  0.00    +0.000 C 
ATOM     56  C42 UNL A   1      47.114  26.806  27.634  1.00  0.00    +0.000 C 
ATOM     57  F6  UNL A   1      48.214  26.315  28.223  1.00  0.00    +0.000 F 
ATOM     58  C43 UNL A   1      47.262  27.631  26.516  1.00  0.00    +0.000 C 
ATOM     59  F7  UNL A   1      48.489  27.916  26.057  1.00  0.00    +0.000 F 
ATOM     60  C44 UNL A   1      46.151  28.153  25.873  1.00  0.00    +0.000 C 
ATOM     61  F8  UNL A   1      46.295  28.935  24.794  1.00  0.00    +0.000 F 
ATOM     62  C45 UNL A   1      44.890  27.854  26.348  1.00  0.00    +0.000 C 
ATOM     63  F9  UNL A   1      43.803  28.338  25.728  1.00  0.00    +0.000 F 
ATOM     64  C46 UNL A   1      44.748  27.042  27.471  1.00  0.00    +0.000 C 
ENDBRANCH   54   55
BRANCH   69   70
ATOM     70  C50 UNL A   1      45.078  30.243  32.930  1.00  0.00    +0.000 C 
ATOM     71  C51 UNL A   1      44.643  30.376  34.256  1.00  0.00    +0.000 C 
ATOM     72  F11 UNL A   1      43.494  29.837  34.670  1.00  0.00    +0.000 F 
ATOM     73  C52 UNL A   1      45.361  31.117  35.214  1.00  0.00    +0.000 C 
ATOM     74  F12 UNL A   1      44.907  31.184  36.474  1.00  0.00    +0.000 F 
ATOM     75  C53 UNL A   1      46.530  31.775  34.882  1.00  0.00    +0.000 C 
ATOM     76  F13 UNL A   1      47.234  32.439  35.808  1.00  0.00    +0.000 F 
ATOM     77  C54 UNL A   1      46.946  31.755  33.575  1.00  0.00    +0.000 C 
ATOM     78  F14 UNL A   1      48.060  32.407  33.209  1.00  0.00    +0.000 F 
ATOM     79  C55 UNL A   1      46.218  31.041  32.622  1.00  0.00    +0.000 C 
ATOM     80  F15 UNL A   1      46.674  31.165  31.368  1.00  0.00    +0.000 F 
ENDBRANCH   69   70
TORSDOF 17
ENDMDL
MODEL 4
REMARK VINA RESULT:     -12.5     21.231     24.934
ROOT
ATOM    129  H38 UNL A   1      39.435  26.638  26.982  1.00  0.00    +0.000 H 
ATOM     33  C26 UNL A   1      40.975  27.899  29.102  1.00  0.00    +0.000 C 
ATOM     34  C27 UNL A   1      41.073  26.468  28.551  1.00  0.00    +0.000 C 
ATOM     35  N4  UNL A   1      41.820  25.473  28.927  1.00  0.00    +0.000 N 
ATOM     36  C28 UNL A   1      41.601  24.414  28.020  1.00  0.00    +0.000 C 
ATOM     37  C29 UNL A   1      42.418  23.326  27.915  1.00  0.00    +0.000 C 
ATOM     49  C36 UNL A   1      43.460  23.379  28.881  1.00  0.00    +0.000 C 
ATOM     50  C37 UNL A   1      43.516  23.117  30.223  1.00  0.00    +0.000 C 
ATOM     51  C38 UNL A   1      44.572  23.925  30.699  1.00  0.00    +0.000 C 
ATOM     52  C39 UNL A   1      45.158  24.595  29.619  1.00  0.00    +0.000 C 
ATOM     53  N5  UNL A   1      44.628  23.993  28.505  1.00  0.00    +0.000 N 
ATOM     54  C40 UNL A   1      45.944  25.792  29.423  1.00  0.00    +0.000 C 
ATOM     66  C47 UNL A   1      46.255  26.522  30.523  1.00  0.00    +0.000 C 
ATOM     67  N6  UNL A   1      46.142  27.894  30.486  1.00  0.00    +0.000 N 
ATOM     68  C48 UNL A   1      45.513  28.155  31.593  1.00  0.00    +0.000 C 
ATOM     69  C49 UNL A   1      44.820  29.421  31.896  1.00  0.00    +0.000 C 
ATOM     81  C56 UNL A   1      43.666  29.402  31.158  1.00  0.00    +0.000 C 
ATOM     82  C57 UNL A   1      42.648  30.430  31.065  1.00  0.00    +0.000 C 
ATOM     83  C58 UNL A   1      41.627  29.998  30.300  1.00  0.00    +0.000 C 
ATOM     84  C59 UNL A   1      41.871  28.621  29.833  1.00  0.00    +0.000 C 
ATOM     85  N7  UNL A   1      43.134  28.372  30.339  1.00  0.00    +0.000 N 
ATOM     86  C60 UNL A   1      45.439  27.061  32.572  1.00  0.00    +0.000 C 
ATOM     87  C61 UNL A   1      46.108  26.129  31.902  1.00  0.00    +0.000 C 
ATOM     88  C62 UNL A   1      40.495  24.802  27.199  1.00  0.00    +0.000 C 
ATOM     89  C63 UNL A   1      40.159  26.068  27.446  1.00  0.00    +0.000 C 
ATOM    120  H29 UNL A   1      42.920  22.474  30.766  1.00  0.00    +0.000 H 
ATOM    121  H30 UNL A   1      44.865  24.008  31.685  1.00  0.00    +0.000 H 
ATOM    122  H31 UNL A   1      45.014  24.002  27.600  1.00  0.00    +0.000 H 
ATOM    123  H32 UNL A   1      42.697  31.356  31.518  1.00  0.00    +0.000 H 
ATOM    124  H33 UNL A   1      40.789  30.554  30.071  1.00  0.00    +0.000 H 
ATOM    125  H34 UNL A   1      43.626  27.542  30.146  1.00  0.00    +0.000 H 
ATOM    126  H35 UNL A   1      44.997  27.028  33.504  1.00  0.00    +0.000 H 
ATOM    127  H36 UNL A   1      46.468  25.251  32.309  1.00  0.00    +0.000 H 
ATOM    128  H37 UNL A   1      40.026  24.190  26.513  1.00  0.00    +0.000 H 
ENDROOT
BRANCH   33   32
ATOM    130  H39 UNL A   1      40.265  29.224  26.848  1.00  0.00    +0.000 H 
ATOM    131  H40 UNL A   1      38.058  30.036  26.240  1.00  0.00    +0.000 H 
ATOM    118  H27 UNL A   1      36.589  28.858  30.006  1.00  0.00    +0.000 H 
ATOM    119  H28 UNL A   1      38.803  28.097  30.639  1.00  0.00    +0.000 H 
ATOM     90  C64 UNL A   1      39.480  29.135  27.512  1.00  0.00    +0.000 C 
ATOM     91  C65 UNL A   1      38.210  29.589  27.158  1.00  0.00    +0.000 C 
ATOM     29  C22 UNL A   1      37.143  29.438  28.048  1.00  0.00    +0.000 C 
ATOM     30  C23 UNL A   1      37.367  28.917  29.330  1.00  0.00    +0.000 C 
ATOM     31  C24 UNL A   1      38.637  28.478  29.695  1.00  0.00    +0.000 C 
ATOM     32  C25 UNL A   1      39.686  28.557  28.773  1.00  0.00    +0.000 C 
BRANCH   29   27
ATOM     27  C21 UNL A   1      35.767  29.887  27.729  1.00  0.00    +0.000 C 
ATOM     28  O4  UNL A   1      35.515  31.075  27.690  1.00  0.00    +0.000 O 
BRANCH   27   26
ATOM     26  N3  UNL A   1      34.757  28.977  27.499  1.00  0.00    +0.000 N 
ATOM    117  H26 UNL A   1      34.396  28.525  28.296  1.00  0.00    +0.000 H 
BRANCH   26   25
ATOM     25  C20 UNL A   1      34.156  28.602  26.230  1.00  0.00    +0.000 C 
ATOM    115  H24 UNL A   1      33.393  29.310  25.981  1.00  0.00    +0.000 H 
ATOM    116  H25 UNL A   1      34.920  28.594  25.481  1.00  0.00    +0.000 H 
BRANCH   25   24
ATOM    113  H22 UNL A   1      33.681  26.828  27.297  1.00  0.00    +0.000 H 
ATOM    114  H23 UNL A   1      32.504  27.314  26.049  1.00  0.00    +0.000 H 
ATOM     24  C19 UNL A   1      33.537  27.206  26.306  1.00  0.00    +0.000 C 
BRANCH   24   23
ATOM    111  H20 UNL A   1      33.564  26.246  24.410  1.00  0.00    +0.000 H 
ATOM     23  C18 UNL A   1      34.131  26.194  25.316  1.00  0.00    +0.000 C 
ATOM    112  H21 UNL A   1      35.158  26.468  25.196  1.00  0.00    +0.000 H 
BRANCH   23   22
ATOM    110  H19 UNL A   1      33.194  24.326  25.487  1.00  0.00    +0.000 H 
ATOM    109  H18 UNL A   1      34.287  24.734  26.847  1.00  0.00    +0.000 H 
ATOM     22  C17 UNL A   1      34.135  24.737  25.788  1.00  0.00    +0.000 C 
BRANCH   22   21
ATOM    107  H16 UNL A   1      35.803  24.445  24.503  1.00  0.00    +0.000 H 
ATOM    108  H17 UNL A   1      35.761  23.418  25.967  1.00  0.00    +0.000 H 
ATOM     21  C16 UNL A   1      35.207  23.841  25.155  1.00  0.00    +0.000 C 
BRANCH   21   20
ATOM    105  H14 UNL A   1      35.490  22.093  23.966  1.00  0.00    +0.000 H 
ATOM    106  H15 UNL A   1      34.055  22.065  24.991  1.00  0.00    +0.000 H 
ATOM     20  C15 UNL A   1      34.666  22.661  24.345  1.00  0.00    +0.000 C 
BRANCH   20   19
ATOM     19  N2  UNL A   1      33.851  23.105  23.233  1.00  0.00    +0.000 N 
ATOM    104  H13 UNL A   1      34.200  23.811  22.644  1.00  0.00    +0.000 H 
BRANCH   19    2
ATOM      1  O1  UNL A   1      32.409  21.388  22.725  1.00  0.00    +0.000 O 
ATOM      2  C1  UNL A   1      32.603  22.577  22.967  1.00  0.00    +0.000 C 
BRANCH    2    3
ATOM      3  C2  UNL A   1      31.480  23.607  22.895  1.00  0.00    +0.000 C 
ATOM     92  H1  UNL A   1      30.682  23.212  22.302  1.00  0.00    +0.000 H 
ATOM     93  H2  UNL A   1      31.872  24.502  22.457  1.00  0.00    +0.000 H 
BRANCH    3    4
ATOM      4  C3  UNL A   1      30.953  23.941  24.263  1.00  0.00    +0.000 C 
ATOM      5  C4  UNL A   1      30.820  23.088  25.347  1.00  0.00    +0.000 C 
ATOM      6  C5  UNL A   1      30.467  23.862  26.470  1.00  0.00    +0.000 C 
ATOM      7  C6  UNL A   1      30.386  25.168  26.050  1.00  0.00    +0.000 C 
ATOM      8  N1  UNL A   1      30.594  25.216  24.685  1.00  0.00    +0.000 N 
ATOM     94  H3  UNL A   1      30.955  22.065  25.334  1.00  0.00    +0.000 H 
ATOM     95  H4  UNL A   1      30.301  23.514  27.429  1.00  0.00    +0.000 H 
ATOM     96  H5  UNL A   1      30.199  25.982  26.656  1.00  0.00    +0.000 H 
BRANCH    8    9
ATOM     97  H6  UNL A   1      32.506  26.430  23.326  1.00  0.00    +0.000 H 
ATOM     98  H7  UNL A   1      32.283  28.410  21.932  1.00  0.00    +0.000 H 
ATOM     99  H8  UNL A   1      28.420  26.691  24.334  1.00  0.00    +0.000 H 
ATOM    100  H9  UNL A   1      26.969  30.436  22.187  1.00  0.00    +0.000 H 
ATOM    101  H10 UNL A   1      27.697  29.290  21.068  1.00  0.00    +0.000 H 
ATOM    102  H11 UNL A   1      29.223  31.129  22.877  1.00  0.00    +0.000 H 
ATOM    103  H12 UNL A   1      28.941  31.388  21.162  1.00  0.00    +0.000 H 
ATOM      9  C7  UNL A   1      30.470  26.393  23.904  1.00  0.00    +0.000 C 
ATOM     10  C8  UNL A   1      31.592  26.903  23.238  1.00  0.00    +0.000 C 
ATOM     11  C9  UNL A   1      31.469  28.052  22.454  1.00  0.00    +0.000 C 
ATOM     12  C10 UNL A   1      30.246  28.716  22.379  1.00  0.00    +0.000 C 
ATOM     13  C11 UNL A   1      29.132  28.218  23.062  1.00  0.00    +0.000 C 
ATOM     14  C12 UNL A   1      29.240  27.057  23.827  1.00  0.00    +0.000 C 
ATOM     15  O2  UNL A   1      27.903  28.828  23.045  1.00  0.00    +0.000 O 
ATOM     16  C13 UNL A   1      27.811  29.802  22.000  1.00  0.00    +0.000 C 
ATOM     17  C14 UNL A   1      29.068  30.655  21.930  1.00  0.00    +0.000 C 
ATOM     18  O3  UNL A   1      30.211  29.853  21.615  1.00  0.00    +0.000 O 
ENDBRANCH    8    9
ENDBRANCH    3    4
ENDBRANCH    2    3
ENDBRANCH   19    2
ENDBRANCH   20   19
ENDBRANCH   21   20
ENDBRANCH   22   21
ENDBRANCH   23   22
ENDBRANCH   24   23
ENDBRANCH   25   24
ENDBRANCH   26   25
ENDBRANCH   27   26
ENDBRANCH   29   27
ENDBRANCH   33   32
BRANCH   37   38
ATOM     38  C30 UNL A   1      42.529  22.261  26.855  1.00  0.00    +0.000 C 
ATOM     39  C31 UNL A   1      41.944  20.994  27.108  1.00  0.00    +0.000 C 
ATOM     40  F1  UNL A   1      41.016  20.846  28.067  1.00  0.00    +0.000 F 
ATOM     41  C32 UNL A   1      42.356  19.842  26.442  1.00  0.00    +0.000 C 
ATOM     42  F2  UNL A   1      41.873  18.646  26.812  1.00  0.00    +0.000 F 
ATOM     43  C33 UNL A   1      43.311  19.924  25.449  1.00  0.00    +0.000 C 
ATOM     44  F3  UNL A   1      43.761  18.811  24.853  1.00  0.00    +0.000 F 
ATOM     45  C34 UNL A   1      43.826  21.162  25.103  1.00  0.00    +0.000 C 
ATOM     46  F4  UNL A   1      44.750  21.246  24.135  1.00  0.00    +0.000 F 
ATOM     47  C35 UNL A   1      43.452  22.315  25.803  1.00  0.00    +0.000 C 
ATOM     48  F5  UNL A   1      44.086  23.454  25.495  1.00  0.00    +0.000 F 
ENDBRANCH   37   38
BRANCH   54   55
ATOM     65  F10 UNL A   1      43.730  26.932  27.902  1.00  0.00    +0.000 F 
ATOM     55  C41 UNL A   1      46.065  26.572  28.132  1.00  0.00    +0.000 C 
ATOM     56  C42 UNL A   1      47.332  26.864  27.607  1.00  0.00    +0.000 C 
ATOM     57  F6  UNL A   1      48.429  26.349  28.182  1.00  0.00    +0.000 F 
ATOM     58  C43 UNL A   1      47.486  27.690  26.491  1.00  0.00    +0.000 C 
ATOM     59  F7  UNL A   1      48.713  27.952  26.020  1.00  0.00    +0.000 F 
ATOM     60  C44 UNL A   1      46.379  28.237  25.861  1.00  0.00    +0.000 C 
ATOM     61  F8  UNL A   1      46.528  29.021  24.783  1.00  0.00    +0.000 F 
ATOM     62  C45 UNL A   1      45.117  27.962  26.348  1.00  0.00    +0.000 C 
ATOM     63  F9  UNL A   1      44.034  28.470  25.741  1.00  0.00    +0.000 F 
ATOM     64  C46 UNL A   1      44.970  27.148  27.470  1.00  0.00    +0.000 C 
ENDBRANCH   54   55
BRANCH   69   70
ATOM     70  C50 UNL A   1      45.457  30.320  32.941  1.00  0.00    +0.000 C 
ATOM     71  C51 UNL A   1      46.617  31.088  32.771  1.00  0.00    +0.000 C 
ATOM     72  F11 UNL A   1      47.406  30.932  31.705  1.00  0.00    +0.000 F 
ATOM     73  C52 UNL A   1      47.044  32.031  33.725  1.00  0.00    +0.000 C 
ATOM     74  F12 UNL A   1      48.148  32.756  33.492  1.00  0.00    +0.000 F 
ATOM     75  C53 UNL A   1      46.342  32.230  34.899  1.00  0.00    +0.000 C 
ATOM     76  F13 UNL A   1      46.725  33.162  35.782  1.00  0.00    +0.000 F 
ATOM     77  C54 UNL A   1      45.253  31.435  35.157  1.00  0.00    +0.000 C 
ATOM     78  F14 UNL A   1      44.566  31.578  36.299  1.00  0.00    +0.000 F 
ATOM     79  C55 UNL A   1      44.849  30.483  34.220  1.00  0.00    +0.000 C 
ATOM     80  F15 UNL A   1      43.828  29.712  34.619  1.00  0.00    +0.000 F 
ENDBRANCH   69   70
TORSDOF 17
ENDMDL
MODEL 5
REMARK VINA RESULT:     -12.4     21.573     25.216
ROOT
ATOM    129  H38 UNL A   1      39.462  26.597  27.030  1.00  0.00    +0.000 H 
ATOM     33  C26 UNL A   1      41.124  27.925  29.012  1.00  0.00    +0.000 C 
ATOM     34  C27 UNL A   1      41.175  26.470  28.521  1.00  0.00    +0.000 C 
ATOM     35  N4  UNL A   1      41.927  25.481  28.904  1.00  0.00    +0.000 N 
ATOM     36  C28 UNL A   1      41.648  24.387  28.057  1.00  0.00    +0.000 C 
ATOM     37  C29 UNL A   1      42.445  23.284  27.959  1.00  0.00    +0.000 C 
ATOM     49  C36 UNL A   1      43.535  23.362  28.869  1.00  0.00    +0.000 C 
ATOM     50  C37 UNL A   1      43.655  23.159  30.217  1.00  0.00    +0.000 C 
ATOM     51  C38 UNL A   1      44.744  23.970  30.603  1.00  0.00    +0.000 C 
ATOM     52  C39 UNL A   1      45.283  24.583  29.467  1.00  0.00    +0.000 C 
ATOM     53  N5  UNL A   1      44.690  23.942  28.408  1.00  0.00    +0.000 N 
ATOM     54  C40 UNL A   1      46.074  25.759  29.179  1.00  0.00    +0.000 C 
ATOM     66  C47 UNL A   1      46.449  26.531  30.229  1.00  0.00    +0.000 C 
ATOM     67  N6  UNL A   1      46.353  27.901  30.137  1.00  0.00    +0.000 N 
ATOM     68  C48 UNL A   1      45.784  28.220  31.262  1.00  0.00    +0.000 C 
ATOM     69  C49 UNL A   1      45.123  29.508  31.542  1.00  0.00    +0.000 C 
ATOM     81  C56 UNL A   1      43.934  29.475  30.864  1.00  0.00    +0.000 C 
ATOM     82  C57 UNL A   1      42.926  30.513  30.776  1.00  0.00    +0.000 C 
ATOM     83  C58 UNL A   1      41.863  30.064  30.083  1.00  0.00    +0.000 C 
ATOM     84  C59 UNL A   1      42.064  28.665  29.666  1.00  0.00    +0.000 C 
ATOM     85  N7  UNL A   1      43.348  28.419  30.119  1.00  0.00    +0.000 N 
ATOM     86  C60 UNL A   1      45.745  27.171  32.290  1.00  0.00    +0.000 C 
ATOM     87  C61 UNL A   1      46.367  26.200  31.630  1.00  0.00    +0.000 C 
ATOM     88  C62 UNL A   1      40.507  24.756  27.275  1.00  0.00    +0.000 C 
ATOM     89  C63 UNL A   1      40.202  26.037  27.482  1.00  0.00    +0.000 C 
ATOM    120  H29 UNL A   1      43.078  22.549  30.817  1.00  0.00    +0.000 H 
ATOM    121  H30 UNL A   1      45.087  24.091  31.568  1.00  0.00    +0.000 H 
ATOM    122  H31 UNL A   1      45.030  23.905  27.486  1.00  0.00    +0.000 H 
ATOM    123  H32 UNL A   1      43.011  31.457  31.185  1.00  0.00    +0.000 H 
ATOM    124  H33 UNL A   1      41.021  30.623  29.872  1.00  0.00    +0.000 H 
ATOM    125  H34 UNL A   1      43.819  27.573  29.938  1.00  0.00    +0.000 H 
ATOM    126  H35 UNL A   1      45.350  27.185  33.244  1.00  0.00    +0.000 H 
ATOM    127  H36 UNL A   1      46.735  25.336  32.057  1.00  0.00    +0.000 H 
ATOM    128  H37 UNL A   1      39.997  24.122  26.641  1.00  0.00    +0.000 H 
ENDROOT
BRANCH   33   32
ATOM    130  H39 UNL A   1      40.333  29.197  26.755  1.00  0.00    +0.000 H 
ATOM    131  H40 UNL A   1      38.111  30.017  26.217  1.00  0.00    +0.000 H 
ATOM    118  H27 UNL A   1      36.788  28.955  30.070  1.00  0.00    +0.000 H 
ATOM    119  H28 UNL A   1      39.019  28.188  30.632  1.00  0.00    +0.000 H 
ATOM     90  C64 UNL A   1      39.576  29.134  27.453  1.00  0.00    +0.000 C 
ATOM     91  C65 UNL A   1      38.297  29.592  27.140  1.00  0.00    +0.000 C 
ATOM     29  C22 UNL A   1      37.266  29.477  28.076  1.00  0.00    +0.000 C 
ATOM     30  C23 UNL A   1      37.538  28.987  29.362  1.00  0.00    +0.000 C 
ATOM     31  C24 UNL A   1      38.817  28.545  29.685  1.00  0.00    +0.000 C 
ATOM     32  C25 UNL A   1      39.829  28.588  28.720  1.00  0.00    +0.000 C 
BRANCH   29   27
ATOM     27  C21 UNL A   1      35.882  29.931  27.802  1.00  0.00    +0.000 C 
ATOM     28  O4  UNL A   1      35.487  30.978  28.276  1.00  0.00    +0.000 O 
BRANCH   27   26
ATOM     26  N3  UNL A   1      35.023  29.174  27.036  1.00  0.00    +0.000 N 
ATOM    117  H26 UNL A   1      35.350  28.926  26.141  1.00  0.00    +0.000 H 
BRANCH   26   25
ATOM     25  C20 UNL A   1      33.696  28.693  27.382  1.00  0.00    +0.000 C 
ATOM    115  H24 UNL A   1      33.776  27.993  28.188  1.00  0.00    +0.000 H 
ATOM    116  H25 UNL A   1      33.095  29.530  27.669  1.00  0.00    +0.000 H 
BRANCH   25   24
ATOM    113  H22 UNL A   1      33.579  28.261  25.305  1.00  0.00    +0.000 H 
ATOM    114  H23 UNL A   1      33.043  26.955  26.394  1.00  0.00    +0.000 H 
ATOM     24  C19 UNL A   1      33.031  28.005  26.188  1.00  0.00    +0.000 C 
BRANCH   24   23
ATOM    111  H20 UNL A   1      31.049  27.539  25.580  1.00  0.00    +0.000 H 
ATOM     23  C18 UNL A   1      31.561  28.393  25.972  1.00  0.00    +0.000 C 
ATOM    112  H21 UNL A   1      31.197  28.712  26.926  1.00  0.00    +0.000 H 
BRANCH   23   22
ATOM    110  H19 UNL A   1      32.278  30.035  24.884  1.00  0.00    +0.000 H 
ATOM    109  H18 UNL A   1      30.588  30.205  25.454  1.00  0.00    +0.000 H 
ATOM     22  C17 UNL A   1      31.326  29.566  25.016  1.00  0.00    +0.000 C 
BRANCH   22   21
ATOM    107  H16 UNL A   1      30.095  28.429  23.707  1.00  0.00    +0.000 H 
ATOM    108  H17 UNL A   1      30.484  30.088  23.163  1.00  0.00    +0.000 H 
ATOM     21  C16 UNL A   1      30.846  29.186  23.609  1.00  0.00    +0.000 C 
BRANCH   21   20
ATOM    105  H14 UNL A   1      32.033  29.317  21.843  1.00  0.00    +0.000 H 
ATOM    106  H15 UNL A   1      32.850  28.597  23.231  1.00  0.00    +0.000 H 
ATOM     20  C15 UNL A   1      31.936  28.654  22.677  1.00  0.00    +0.000 C 
BRANCH   20   19
ATOM     19  N2  UNL A   1      31.620  27.327  22.187  1.00  0.00    +0.000 N 
ATOM    104  H13 UNL A   1      30.782  27.194  21.690  1.00  0.00    +0.000 H 
BRANCH   19    2
ATOM      1  O1  UNL A   1      33.661  26.270  22.198  1.00  0.00    +0.000 O 
ATOM      2  C1  UNL A   1      32.448  26.241  22.391  1.00  0.00    +0.000 C 
BRANCH    2    3
ATOM      3  C2  UNL A   1      31.725  24.956  22.783  1.00  0.00    +0.000 C 
ATOM     92  H1  UNL A   1      32.385  24.126  22.637  1.00  0.00    +0.000 H 
ATOM     93  H2  UNL A   1      30.853  24.860  22.170  1.00  0.00    +0.000 H 
BRANCH    3    4
ATOM      4  C3  UNL A   1      31.291  24.988  24.223  1.00  0.00    +0.000 C 
ATOM      5  C4  UNL A   1      30.094  25.468  24.732  1.00  0.00    +0.000 C 
ATOM      6  C5  UNL A   1      30.036  25.129  26.098  1.00  0.00    +0.000 C 
ATOM      7  C6  UNL A   1      31.197  24.456  26.397  1.00  0.00    +0.000 C 
ATOM      8  N1  UNL A   1      32.010  24.442  25.280  1.00  0.00    +0.000 N 
ATOM     94  H3  UNL A   1      29.373  25.983  24.204  1.00  0.00    +0.000 H 
ATOM     95  H4  UNL A   1      29.266  25.344  26.752  1.00  0.00    +0.000 H 
ATOM     96  H5  UNL A   1      31.425  24.031  27.309  1.00  0.00    +0.000 H 
BRANCH    8    9
ATOM     97  H6  UNL A   1      34.246  25.807  25.610  1.00  0.00    +0.000 H 
ATOM     98  H7  UNL A   1      36.510  24.924  25.653  1.00  0.00    +0.000 H 
ATOM     99  H8  UNL A   1      32.758  21.934  24.857  1.00  0.00    +0.000 H 
ATOM    100  H9  UNL A   1      36.485  19.330  24.593  1.00  0.00    +0.000 H 
ATOM    101  H10 UNL A   1      36.409  20.198  26.122  1.00  0.00    +0.000 H 
ATOM    102  H11 UNL A   1      37.269  21.391  23.510  1.00  0.00    +0.000 H 
ATOM    103  H12 UNL A   1      38.347  20.860  24.792  1.00  0.00    +0.000 H 
ATOM      9  C7  UNL A   1      33.331  23.929  25.267  1.00  0.00    +0.000 C 
ATOM     10  C8  UNL A   1      34.412  24.798  25.466  1.00  0.00    +0.000 C 
ATOM     11  C9  UNL A   1      35.714  24.294  25.470  1.00  0.00    +0.000 C 
ATOM     12  C10 UNL A   1      35.938  22.940  25.225  1.00  0.00    +0.000 C 
ATOM     13  C11 UNL A   1      34.860  22.078  25.005  1.00  0.00    +0.000 C 
ATOM     14  C12 UNL A   1      33.554  22.569  25.023  1.00  0.00    +0.000 C 
ATOM     15  O2  UNL A   1      35.006  20.740  24.742  1.00  0.00    +0.000 O 
ATOM     16  C13 UNL A   1      36.325  20.281  25.058  1.00  0.00    +0.000 C 
ATOM     17  C14 UNL A   1      37.381  21.257  24.565  1.00  0.00    +0.000 C 
ATOM     18  O3  UNL A   1      37.244  22.526  25.215  1.00  0.00    +0.000 O 
ENDBRANCH    8    9
ENDBRANCH    3    4
ENDBRANCH    2    3
ENDBRANCH   19    2
ENDBRANCH   20   19
ENDBRANCH   21   20
ENDBRANCH   22   21
ENDBRANCH   23   22
ENDBRANCH   24   23
ENDBRANCH   25   24
ENDBRANCH   26   25
ENDBRANCH   27   26
ENDBRANCH   29   27
ENDBRANCH   33   32
BRANCH   37   38
ATOM     38  C30 UNL A   1      42.488  22.172  26.943  1.00  0.00    +0.000 C 
ATOM     39  C31 UNL A   1      41.875  20.936  27.269  1.00  0.00    +0.000 C 
ATOM     40  F1  UNL A   1      40.976  20.857  28.263  1.00  0.00    +0.000 F 
ATOM     41  C32 UNL A   1      42.230  19.744  26.640  1.00  0.00    +0.000 C 
ATOM     42  F2  UNL A   1      41.724  18.581  27.077  1.00  0.00    +0.000 F 
ATOM     43  C33 UNL A   1      43.153  19.754  25.615  1.00  0.00    +0.000 C 
ATOM     44  F3  UNL A   1      43.549  18.604  25.053  1.00  0.00    +0.000 F 
ATOM     45  C34 UNL A   1      43.692  20.960  25.198  1.00  0.00    +0.000 C 
ATOM     46  F4  UNL A   1      44.585  20.975  24.198  1.00  0.00    +0.000 F 
ATOM     47  C35 UNL A   1      43.377  22.153  25.860  1.00  0.00    +0.000 C 
ATOM     48  F5  UNL A   1      44.033  23.258  25.483  1.00  0.00    +0.000 F 
ENDBRANCH   37   38
BRANCH   54   55
ATOM     65  F10 UNL A   1      48.487  26.209  27.601  1.00  0.00    +0.000 F 
ATOM     55  C41 UNL A   1      46.141  26.479  27.850  1.00  0.00    +0.000 C 
ATOM     56  C42 UNL A   1      44.963  26.931  27.239  1.00  0.00    +0.000 C 
ATOM     57  F6  UNL A   1      43.794  26.835  27.889  1.00  0.00    +0.000 F 
ATOM     58  C43 UNL A   1      44.973  27.483  25.956  1.00  0.00    +0.000 C 
ATOM     59  F7  UNL A   1      43.827  27.900  25.400  1.00  0.00    +0.000 F 
ATOM     60  C44 UNL A   1      46.161  27.607  25.251  1.00  0.00    +0.000 C 
ATOM     61  F8  UNL A   1      46.170  28.147  24.024  1.00  0.00    +0.000 F 
ATOM     62  C45 UNL A   1      47.339  27.179  25.828  1.00  0.00    +0.000 C 
ATOM     63  F9  UNL A   1      48.500  27.308  25.168  1.00  0.00    +0.000 F 
ATOM     64  C46 UNL A   1      47.322  26.618  27.104  1.00  0.00    +0.000 C 
ENDBRANCH   54   55
BRANCH   69   70
ATOM     70  C50 UNL A   1      45.824  30.442  32.513  1.00  0.00    +0.000 C 
ATOM     71  C51 UNL A   1      45.469  30.658  33.852  1.00  0.00    +0.000 C 
ATOM     72  F11 UNL A   1      44.319  30.198  34.352  1.00  0.00    +0.000 F 
ATOM     73  C52 UNL A   1      46.273  31.403  34.735  1.00  0.00    +0.000 C 
ATOM     74  F12 UNL A   1      45.894  31.550  36.013  1.00  0.00    +0.000 F 
ATOM     75  C53 UNL A   1      47.454  31.984  34.312  1.00  0.00    +0.000 C 
ATOM     76  F13 UNL A   1      48.240  32.652  35.166  1.00  0.00    +0.000 F 
ATOM     77  C54 UNL A   1      47.797  31.884  32.986  1.00  0.00    +0.000 C 
ATOM     78  F14 UNL A   1      48.919  32.460  32.532  1.00  0.00    +0.000 F 
ATOM     79  C55 UNL A   1      46.983  31.166  32.108  1.00  0.00    +0.000 C 
ATOM     80  F15 UNL A   1      47.376  31.210  30.828  1.00  0.00    +0.000 F 
ENDBRANCH   69   70
TORSDOF 17
ENDMDL
MODEL 6
REMARK VINA RESULT:     -12.3     21.455     25.084
ROOT
ATOM    129  H38 UNL A   1      39.340  26.353  26.904  1.00  0.00    +0.000 H 
ATOM     33  C26 UNL A   1      40.882  27.686  28.977  1.00  0.00    +0.000 C 
ATOM     34  C27 UNL A   1      41.008  26.250  28.446  1.00  0.00    +0.000 C 
ATOM     35  N4  UNL A   1      41.787  25.280  28.824  1.00  0.00    +0.000 N 
ATOM     36  C28 UNL A   1      41.580  24.202  27.937  1.00  0.00    +0.000 C 
ATOM     37  C29 UNL A   1      42.424  23.135  27.833  1.00  0.00    +0.000 C 
ATOM     49  C36 UNL A   1      43.481  23.229  28.780  1.00  0.00    +0.000 C 
ATOM     50  C37 UNL A   1      43.567  22.990  30.125  1.00  0.00    +0.000 C 
ATOM     51  C38 UNL A   1      44.609  23.831  30.570  1.00  0.00    +0.000 C 
ATOM     52  C39 UNL A   1      45.159  24.500  29.470  1.00  0.00    +0.000 C 
ATOM     53  N5  UNL A   1      44.625  23.868  28.374  1.00  0.00    +0.000 N 
ATOM     54  C40 UNL A   1      45.909  25.714  29.243  1.00  0.00    +0.000 C 
ATOM     66  C47 UNL A   1      46.220  26.468  30.326  1.00  0.00    +0.000 C 
ATOM     67  N6  UNL A   1      46.070  27.836  30.271  1.00  0.00    +0.000 N 
ATOM     68  C48 UNL A   1      45.454  28.097  31.385  1.00  0.00    +0.000 C 
ATOM     69  C49 UNL A   1      44.733  29.349  31.681  1.00  0.00    +0.000 C 
ATOM     81  C56 UNL A   1      43.568  29.289  30.964  1.00  0.00    +0.000 C 
ATOM     82  C57 UNL A   1      42.521  30.289  30.873  1.00  0.00    +0.000 C 
ATOM     83  C58 UNL A   1      41.500  29.819  30.133  1.00  0.00    +0.000 C 
ATOM     84  C59 UNL A   1      41.771  28.443  29.682  1.00  0.00    +0.000 C 
ATOM     85  N7  UNL A   1      43.049  28.234  30.170  1.00  0.00    +0.000 N 
ATOM     86  C60 UNL A   1      45.425  27.017  32.381  1.00  0.00    +0.000 C 
ATOM     87  C61 UNL A   1      46.107  26.093  31.713  1.00  0.00    +0.000 C 
ATOM     88  C62 UNL A   1      40.451  24.549  27.129  1.00  0.00    +0.000 C 
ATOM     89  C63 UNL A   1      40.086  25.810  27.364  1.00  0.00    +0.000 C 
ATOM    120  H29 UNL A   1      42.997  22.340  30.688  1.00  0.00    +0.000 H 
ATOM    121  H30 UNL A   1      44.917  23.937  31.549  1.00  0.00    +0.000 H 
ATOM    122  H31 UNL A   1      44.996  23.872  27.463  1.00  0.00    +0.000 H 
ATOM    123  H32 UNL A   1      42.555  31.223  31.312  1.00  0.00    +0.000 H 
ATOM    124  H33 UNL A   1      40.643  30.350  29.911  1.00  0.00    +0.000 H 
ATOM    125  H34 UNL A   1      43.560  27.414  29.980  1.00  0.00    +0.000 H 
ATOM    126  H35 UNL A   1      45.000  26.987  33.321  1.00  0.00    +0.000 H 
ATOM    127  H36 UNL A   1      46.497  25.231  32.127  1.00  0.00    +0.000 H 
ATOM    128  H37 UNL A   1      39.986  23.914  26.461  1.00  0.00    +0.000 H 
ENDROOT
BRANCH   33   32
ATOM    130  H39 UNL A   1      38.606  27.697  30.447  1.00  0.00    +0.000 H 
ATOM    131  H40 UNL A   1      36.576  28.962  30.024  1.00  0.00    +0.000 H 
ATOM    118  H27 UNL A   1      38.189  30.331  26.384  1.00  0.00    +0.000 H 
ATOM    119  H28 UNL A   1      40.195  29.025  26.773  1.00  0.00    +0.000 H 
ATOM     90  C64 UNL A   1      38.521  28.268  29.592  1.00  0.00    +0.000 C 
ATOM     91  C65 UNL A   1      37.362  29.005  29.355  1.00  0.00    +0.000 C 
ATOM     29  C22 UNL A   1      37.262  29.801  28.210  1.00  0.00    +0.000 C 
ATOM     30  C23 UNL A   1      38.288  29.786  27.255  1.00  0.00    +0.000 C 
ATOM     31  C24 UNL A   1      39.441  29.039  27.478  1.00  0.00    +0.000 C 
ATOM     32  C25 UNL A   1      39.571  28.305  28.662  1.00  0.00    +0.000 C 
BRANCH   29   27
ATOM     27  C21 UNL A   1      36.063  30.618  27.906  1.00  0.00    +0.000 C 
ATOM     28  O4  UNL A   1      35.974  31.745  28.352  1.00  0.00    +0.000 O 
BRANCH   27   26
ATOM     26  N3  UNL A   1      35.032  30.112  27.145  1.00  0.00    +0.000 N 
ATOM    117  H26 UNL A   1      34.882  30.553  26.277  1.00  0.00    +0.000 H 
BRANCH   26   25
ATOM     25  C20 UNL A   1      34.139  29.010  27.459  1.00  0.00    +0.000 C 
ATOM    115  H24 UNL A   1      34.459  28.548  28.370  1.00  0.00    +0.000 H 
ATOM    116  H25 UNL A   1      33.146  29.396  27.562  1.00  0.00    +0.000 H 
BRANCH   25   24
ATOM    113  H22 UNL A   1      35.108  27.513  26.305  1.00  0.00    +0.000 H 
ATOM    114  H23 UNL A   1      33.363  27.267  26.574  1.00  0.00    +0.000 H 
ATOM     24  C19 UNL A   1      34.139  27.966  26.341  1.00  0.00    +0.000 C 
BRANCH   24   23
ATOM    111  H20 UNL A   1      32.904  29.078  25.017  1.00  0.00    +0.000 H 
ATOM     23  C18 UNL A   1      33.819  28.528  24.949  1.00  0.00    +0.000 C 
ATOM    112  H21 UNL A   1      34.661  29.126  24.672  1.00  0.00    +0.000 H 
BRANCH   23   22
ATOM    110  H19 UNL A   1      34.000  26.558  24.255  1.00  0.00    +0.000 H 
ATOM    109  H18 UNL A   1      34.232  27.810  22.995  1.00  0.00    +0.000 H 
ATOM     22  C17 UNL A   1      33.661  27.483  23.839  1.00  0.00    +0.000 C 
BRANCH   22   21
ATOM    107  H16 UNL A   1      31.763  26.550  24.053  1.00  0.00    +0.000 H 
ATOM    108  H17 UNL A   1      31.747  28.190  23.339  1.00  0.00    +0.000 H 
ATOM     21  C16 UNL A   1      32.223  27.232  23.369  1.00  0.00    +0.000 C 
BRANCH   21   20
ATOM    105  H14 UNL A   1      31.369  27.211  21.415  1.00  0.00    +0.000 H 
ATOM    106  H15 UNL A   1      33.057  26.704  21.489  1.00  0.00    +0.000 H 
ATOM     20  C15 UNL A   1      32.097  26.648  21.960  1.00  0.00    +0.000 C 
BRANCH   20   19
ATOM     19  N2  UNL A   1      31.689  25.258  21.992  1.00  0.00    +0.000 N 
ATOM    104  H13 UNL A   1      30.810  25.016  21.622  1.00  0.00    +0.000 H 
BRANCH   19    2
ATOM      1  O1  UNL A   1      33.696  24.193  22.337  1.00  0.00    +0.000 O 
ATOM      2  C1  UNL A   1      32.483  24.260  22.521  1.00  0.00    +0.000 C 
BRANCH    2    3
ATOM      3  C2  UNL A   1      31.721  23.177  23.279  1.00  0.00    +0.000 C 
ATOM     92  H1  UNL A   1      32.113  22.220  23.006  1.00  0.00    +0.000 H 
ATOM     93  H2  UNL A   1      30.685  23.251  23.020  1.00  0.00    +0.000 H 
BRANCH    3    4
ATOM      4  C3  UNL A   1      31.852  23.353  24.766  1.00  0.00    +0.000 C 
ATOM      5  C4  UNL A   1      31.405  24.418  25.532  1.00  0.00    +0.000 C 
ATOM      6  C5  UNL A   1      31.570  24.078  26.890  1.00  0.00    +0.000 C 
ATOM      7  C6  UNL A   1      32.118  22.818  26.926  1.00  0.00    +0.000 C 
ATOM      8  N1  UNL A   1      32.376  22.401  25.634  1.00  0.00    +0.000 N 
ATOM     94  H3  UNL A   1      31.019  25.305  25.172  1.00  0.00    +0.000 H 
ATOM     95  H4  UNL A   1      31.324  24.665  27.704  1.00  0.00    +0.000 H 
ATOM     96  H5  UNL A   1      32.307  22.271  27.780  1.00  0.00    +0.000 H 
BRANCH    8    9
ATOM     97  H6  UNL A   1      34.971  22.073  25.273  1.00  0.00    +0.000 H 
ATOM     98  H7  UNL A   1      36.132  19.995  24.779  1.00  0.00    +0.000 H 
ATOM     99  H8  UNL A   1      31.287  20.024  25.197  1.00  0.00    +0.000 H 
ATOM    100  H9  UNL A   1      32.405  15.739  24.137  1.00  0.00    +0.000 H 
ATOM    101  H10 UNL A   1      33.260  16.295  25.571  1.00  0.00    +0.000 H 
ATOM    102  H11 UNL A   1      33.993  17.000  22.751  1.00  0.00    +0.000 H 
ATOM    103  H12 UNL A   1      34.789  15.782  23.737  1.00  0.00    +0.000 H 
ATOM      9  C7  UNL A   1      33.046  21.195  25.308  1.00  0.00    +0.000 C 
ATOM     10  C8  UNL A   1      34.439  21.196  25.159  1.00  0.00    +0.000 C 
ATOM     11  C9  UNL A   1      35.103  20.007  24.854  1.00  0.00    +0.000 C 
ATOM     12  C10 UNL A   1      34.376  18.835  24.649  1.00  0.00    +0.000 C 
ATOM     13  C11 UNL A   1      32.984  18.841  24.778  1.00  0.00    +0.000 C 
ATOM     14  C12 UNL A   1      32.314  20.019  25.106  1.00  0.00    +0.000 C 
ATOM     15  O2  UNL A   1      32.204  17.730  24.576  1.00  0.00    +0.000 O 
ATOM     16  C13 UNL A   1      32.986  16.530  24.564  1.00  0.00    +0.000 C 
ATOM     17  C14 UNL A   1      34.256  16.709  23.747  1.00  0.00    +0.000 C 
ATOM     18  O3  UNL A   1      35.095  17.715  24.324  1.00  0.00    +0.000 O 
ENDBRANCH    8    9
ENDBRANCH    3    4
ENDBRANCH    2    3
ENDBRANCH   19    2
ENDBRANCH   20   19
ENDBRANCH   21   20
ENDBRANCH   22   21
ENDBRANCH   23   22
ENDBRANCH   24   23
ENDBRANCH   25   24
ENDBRANCH   26   25
ENDBRANCH   27   26
ENDBRANCH   29   27
ENDBRANCH   33   32
BRANCH   37   38
ATOM     38  C30 UNL A   1      42.544  22.057  26.788  1.00  0.00    +0.000 C 
ATOM     39  C31 UNL A   1      42.008  20.776  27.074  1.00  0.00    +0.000 C 
ATOM     40  F1  UNL A   1      41.109  20.613  28.057  1.00  0.00    +0.000 F 
ATOM     41  C32 UNL A   1      42.442  19.627  26.416  1.00  0.00    +0.000 C 
ATOM     42  F2  UNL A   1      42.007  18.423  26.815  1.00  0.00    +0.000 F 
ATOM     43  C33 UNL A   1      43.370  19.724  25.399  1.00  0.00    +0.000 C 
ATOM     44  F3  UNL A   1      43.841  18.617  24.809  1.00  0.00    +0.000 F 
ATOM     45  C34 UNL A   1      43.835  20.973  25.021  1.00  0.00    +0.000 C 
ATOM     46  F4  UNL A   1      44.732  21.072  24.029  1.00  0.00    +0.000 F 
ATOM     47  C35 UNL A   1      43.440  22.124  25.712  1.00  0.00    +0.000 C 
ATOM     48  F5  UNL A   1      44.028  23.278  25.372  1.00  0.00    +0.000 F 
ENDBRANCH   37   38
BRANCH   54   55
ATOM     65  F10 UNL A   1      48.354  26.346  27.781  1.00  0.00    +0.000 F 
ATOM     55  C41 UNL A   1      45.988  26.477  27.938  1.00  0.00    +0.000 C 
ATOM     56  C42 UNL A   1      44.812  26.880  27.290  1.00  0.00    +0.000 C 
ATOM     57  F6  UNL A   1      43.625  26.699  27.888  1.00  0.00    +0.000 F 
ATOM     58  C43 UNL A   1      44.843  27.469  26.024  1.00  0.00    +0.000 C 
ATOM     59  F7  UNL A   1      43.698  27.838  25.433  1.00  0.00    +0.000 F 
ATOM     60  C44 UNL A   1      46.049  27.681  25.374  1.00  0.00    +0.000 C 
ATOM     61  F8  UNL A   1      46.077  28.257  24.164  1.00  0.00    +0.000 F 
ATOM     62  C45 UNL A   1      47.225  27.303  25.988  1.00  0.00    +0.000 C 
ATOM     63  F9  UNL A   1      48.403  27.516  25.381  1.00  0.00    +0.000 F 
ATOM     64  C46 UNL A   1      47.189  26.704  27.246  1.00  0.00    +0.000 C 
ENDBRANCH   54   55
BRANCH   69   70
ATOM     70  C50 UNL A   1      45.364  30.281  32.701  1.00  0.00    +0.000 C 
ATOM     71  C51 UNL A   1      46.295  31.293  32.429  1.00  0.00    +0.000 C 
ATOM     72  F11 UNL A   1      46.885  31.395  31.235  1.00  0.00    +0.000 F 
ATOM     73  C52 UNL A   1      46.699  32.228  33.401  1.00  0.00    +0.000 C 
ATOM     74  F12 UNL A   1      47.573  33.190  33.071  1.00  0.00    +0.000 F 
ATOM     75  C53 UNL A   1      46.206  32.178  34.691  1.00  0.00    +0.000 C 
ATOM     76  F13 UNL A   1      46.555  33.098  35.599  1.00  0.00    +0.000 F 
ATOM     77  C54 UNL A   1      45.365  31.149  35.034  1.00  0.00    +0.000 C 
ATOM     78  F14 UNL A   1      44.891  31.050  36.284  1.00  0.00    +0.000 F 
ATOM     79  C55 UNL A   1      44.988  30.208  34.074  1.00  0.00    +0.000 C 
ATOM     80  F15 UNL A   1      44.235  29.206  34.547  1.00  0.00    +0.000 F 
ENDBRANCH   69   70
TORSDOF 17
ENDMDL
MODEL 7
REMARK VINA RESULT:     -12.1      3.721      6.866
ROOT
ATOM    129  H38 UNL A   1      23.344  34.790  43.730  1.00  0.00    +0.000 H 
ATOM     33  C26 UNL A   1      22.827  34.598  46.584  1.00  0.00    +0.000 C 
ATOM     34  C27 UNL A   1      24.167  34.751  45.849  1.00  0.00    +0.000 C 
ATOM     35  N4  UNL A   1      25.381  34.778  46.314  1.00  0.00    +0.000 N 
ATOM     36  C28 UNL A   1      26.242  35.047  45.229  1.00  0.00    +0.000 C 
ATOM     37  C29 UNL A   1      27.540  35.443  45.373  1.00  0.00    +0.000 C 
ATOM     49  C36 UNL A   1      27.912  35.474  46.745  1.00  0.00    +0.000 C 
ATOM     50  C37 UNL A   1      28.251  34.508  47.653  1.00  0.00    +0.000 C 
ATOM     51  C38 UNL A   1      27.895  35.056  48.904  1.00  0.00    +0.000 C 
ATOM     52  C39 UNL A   1      27.415  36.356  48.715  1.00  0.00    +0.000 C 
ATOM     53  N5  UNL A   1      27.727  36.659  47.413  1.00  0.00    +0.000 N 
ATOM     54  C40 UNL A   1      26.561  37.279  49.430  1.00  0.00    +0.000 C 
ATOM     66  C47 UNL A   1      26.051  36.866  50.616  1.00  0.00    +0.000 C 
ATOM     67  N6  UNL A   1      24.727  37.106  50.910  1.00  0.00    +0.000 N 
ATOM     68  C48 UNL A   1      24.324  35.954  51.358  1.00  0.00    +0.000 C 
ATOM     69  C49 UNL A   1      22.915  35.540  51.485  1.00  0.00    +0.000 C 
ATOM     81  C56 UNL A   1      22.485  35.279  50.211  1.00  0.00    +0.000 C 
ATOM     82  C57 UNL A   1      21.161  34.875  49.779  1.00  0.00    +0.000 C 
ATOM     83  C58 UNL A   1      21.163  34.636  48.454  1.00  0.00    +0.000 C 
ATOM     84  C59 UNL A   1      22.508  34.838  47.888  1.00  0.00    +0.000 C 
ATOM     85  N7  UNL A   1      23.214  35.280  48.993  1.00  0.00    +0.000 N 
ATOM     86  C60 UNL A   1      25.375  34.981  51.686  1.00  0.00    +0.000 C 
ATOM     87  C61 UNL A   1      26.444  35.709  51.380  1.00  0.00    +0.000 C 
ATOM     88  C62 UNL A   1      25.444  34.963  44.043  1.00  0.00    +0.000 C 
ATOM     89  C63 UNL A   1      24.157  34.830  44.364  1.00  0.00    +0.000 C 
ATOM    120  H29 UNL A   1      28.673  33.586  47.465  1.00  0.00    +0.000 H 
ATOM    121  H30 UNL A   1      27.976  34.575  49.813  1.00  0.00    +0.000 H 
ATOM    122  H31 UNL A   1      27.805  37.561  47.028  1.00  0.00    +0.000 H 
ATOM    123  H32 UNL A   1      20.338  34.784  50.397  1.00  0.00    +0.000 H 
ATOM    124  H33 UNL A   1      20.334  34.349  47.909  1.00  0.00    +0.000 H 
ATOM    125  H34 UNL A   1      24.152  35.574  48.938  1.00  0.00    +0.000 H 
ATOM    126  H35 UNL A   1      25.303  34.017  52.048  1.00  0.00    +0.000 H 
ATOM    127  H36 UNL A   1      27.414  35.478  51.650  1.00  0.00    +0.000 H 
ATOM    128  H37 UNL A   1      25.813  35.002  43.081  1.00  0.00    +0.000 H 
ENDROOT
BRANCH   33   32
ATOM    130  H39 UNL A   1      22.192  32.043  45.943  1.00  0.00    +0.000 H 
ATOM    131  H40 UNL A   1      20.236  31.262  44.734  1.00  0.00    +0.000 H 
ATOM    118  H27 UNL A   1      19.066  35.249  44.053  1.00  0.00    +0.000 H 
ATOM    119  H28 UNL A   1      21.047  36.035  45.209  1.00  0.00    +0.000 H 
ATOM     90  C64 UNL A   1      21.520  32.722  45.552  1.00  0.00    +0.000 C 
ATOM     91  C65 UNL A   1      20.390  32.274  44.870  1.00  0.00    +0.000 C 
ATOM     29  C22 UNL A   1      19.466  33.196  44.370  1.00  0.00    +0.000 C 
ATOM     30  C23 UNL A   1      19.722  34.571  44.471  1.00  0.00    +0.000 C 
ATOM     31  C24 UNL A   1      20.857  35.024  45.137  1.00  0.00    +0.000 C 
ATOM     32  C25 UNL A   1      21.740  34.099  45.706  1.00  0.00    +0.000 C 
BRANCH   29   27
ATOM     27  C21 UNL A   1      18.239  32.786  43.647  1.00  0.00    +0.000 C 
ATOM     28  O4  UNL A   1      17.915  33.369  42.631  1.00  0.00    +0.000 O 
BRANCH   27   26
ATOM     26  N3  UNL A   1      17.441  31.767  44.121  1.00  0.00    +0.000 N 
ATOM    117  H26 UNL A   1      17.914  30.995  44.508  1.00  0.00    +0.000 H 
BRANCH   26   25
ATOM     25  C20 UNL A   1      15.990  31.688  44.123  1.00  0.00    +0.000 C 
ATOM    115  H24 UNL A   1      15.680  30.968  44.853  1.00  0.00    +0.000 H 
ATOM    116  H25 UNL A   1      15.597  32.654  44.359  1.00  0.00    +0.000 H 
BRANCH   25   24
ATOM    113  H22 UNL A   1      14.390  31.305  42.780  1.00  0.00    +0.000 H 
ATOM    114  H23 UNL A   1      15.879  31.949  42.039  1.00  0.00    +0.000 H 
ATOM     24  C19 UNL A   1      15.459  31.269  42.751  1.00  0.00    +0.000 C 
BRANCH   24   23
ATOM    111  H20 UNL A   1      15.336  29.614  41.424  1.00  0.00    +0.000 H 
ATOM     23  C18 UNL A   1      15.880  29.859  42.312  1.00  0.00    +0.000 C 
ATOM    112  H21 UNL A   1      16.940  29.900  42.170  1.00  0.00    +0.000 H 
BRANCH   23   22
ATOM    110  H19 UNL A   1      14.779  28.210  42.991  1.00  0.00    +0.000 H 
ATOM    109  H18 UNL A   1      15.492  29.211  44.294  1.00  0.00    +0.000 H 
ATOM     22  C17 UNL A   1      15.634  28.750  43.339  1.00  0.00    +0.000 C 
BRANCH   22   21
ATOM    107  H16 UNL A   1      16.900  27.250  42.524  1.00  0.00    +0.000 H 
ATOM    108  H17 UNL A   1      17.619  28.254  43.818  1.00  0.00    +0.000 H 
ATOM     21  C16 UNL A   1      16.759  27.716  43.476  1.00  0.00    +0.000 C 
BRANCH   21   20
ATOM    105  H14 UNL A   1      17.415  26.408  45.027  1.00  0.00    +0.000 H 
ATOM    106  H15 UNL A   1      15.749  26.963  45.185  1.00  0.00    +0.000 H 
ATOM     20  C15 UNL A   1      16.503  26.617  44.509  1.00  0.00    +0.000 C 
BRANCH   20   19
ATOM     19  N2  UNL A   1      16.027  25.399  43.886  1.00  0.00    +0.000 N 
ATOM    104  H13 UNL A   1      16.654  24.648  43.777  1.00  0.00    +0.000 H 
BRANCH   19    2
ATOM      1  O1  UNL A   1      13.771  25.837  43.935  1.00  0.00    +0.000 O 
ATOM      2  C1  UNL A   1      14.729  25.248  43.439  1.00  0.00    +0.000 C 
BRANCH    2    3
ATOM      3  C2  UNL A   1      14.554  24.208  42.337  1.00  0.00    +0.000 C 
ATOM     92  H1  UNL A   1      13.628  23.693  42.488  1.00  0.00    +0.000 H 
ATOM     93  H2  UNL A   1      15.378  23.527  42.383  1.00  0.00    +0.000 H 
BRANCH    3    4
ATOM      4  C3  UNL A   1      14.541  24.847  40.976  1.00  0.00    +0.000 C 
ATOM      5  C4  UNL A   1      14.791  26.175  40.666  1.00  0.00    +0.000 C 
ATOM      6  C5  UNL A   1      14.858  26.289  39.263  1.00  0.00    +0.000 C 
ATOM      7  C6  UNL A   1      14.644  25.033  38.746  1.00  0.00    +0.000 C 
ATOM      8  N1  UNL A   1      14.361  24.162  39.780  1.00  0.00    +0.000 N 
ATOM     94  H3  UNL A   1      14.906  26.945  41.343  1.00  0.00    +0.000 H 
ATOM     95  H4  UNL A   1      15.036  27.153  38.725  1.00  0.00    +0.000 H 
ATOM     96  H5  UNL A   1      14.686  24.782  37.746  1.00  0.00    +0.000 H 
BRANCH    8    9
ATOM     97  H6  UNL A   1      14.956  22.608  37.729  1.00  0.00    +0.000 H 
ATOM     98  H7  UNL A   1      14.357  20.269  37.440  1.00  0.00    +0.000 H 
ATOM     99  H8  UNL A   1      12.852  22.685  41.383  1.00  0.00    +0.000 H 
ATOM    100  H9  UNL A   1      11.089  18.503  41.754  1.00  0.00    +0.000 H 
ATOM    101  H10 UNL A   1      12.837  18.453  41.557  1.00  0.00    +0.000 H 
ATOM    102  H11 UNL A   1      10.870  18.897  39.339  1.00  0.00    +0.000 H 
ATOM    103  H12 UNL A   1      11.678  17.378  39.696  1.00  0.00    +0.000 H 
ATOM      9  C7  UNL A   1      13.978  22.809  39.596  1.00  0.00    +0.000 C 
ATOM     10  C8  UNL A   1      14.389  22.125  38.444  1.00  0.00    +0.000 C 
ATOM     11  C9  UNL A   1      14.027  20.788  38.268  1.00  0.00    +0.000 C 
ATOM     12  C10 UNL A   1      13.219  20.155  39.210  1.00  0.00    +0.000 C 
ATOM     13  C11 UNL A   1      12.793  20.845  40.349  1.00  0.00    +0.000 C 
ATOM     14  C12 UNL A   1      13.169  22.174  40.545  1.00  0.00    +0.000 C 
ATOM     15  O2  UNL A   1      11.985  20.291  41.308  1.00  0.00    +0.000 O 
ATOM     16  C13 UNL A   1      11.921  18.866  41.187  1.00  0.00    +0.000 C 
ATOM     17  C14 UNL A   1      11.754  18.444  39.736  1.00  0.00    +0.000 C 
ATOM     18  O3  UNL A   1      12.882  18.852  38.954  1.00  0.00    +0.000 O 
ENDBRANCH    8    9
ENDBRANCH    3    4
ENDBRANCH    2    3
ENDBRANCH   19    2
ENDBRANCH   20   19
ENDBRANCH   21   20
ENDBRANCH   22   21
ENDBRANCH   23   22
ENDBRANCH   24   23
ENDBRANCH   25   24
ENDBRANCH   26   25
ENDBRANCH   27   26
ENDBRANCH   29   27
ENDBRANCH   33   32
BRANCH   37   38
ATOM     38  C30 UNL A   1      28.514  36.041  44.392  1.00  0.00    +0.000 C 
ATOM     39  C31 UNL A   1      29.408  35.174  43.714  1.00  0.00    +0.000 C 
ATOM     40  F1  UNL A   1      29.167  33.854  43.649  1.00  0.00    +0.000 F 
ATOM     41  C32 UNL A   1      30.604  35.627  43.161  1.00  0.00    +0.000 C 
ATOM     42  F2  UNL A   1      31.481  34.748  42.652  1.00  0.00    +0.000 F 
ATOM     43  C33 UNL A   1      30.916  36.970  43.199  1.00  0.00    +0.000 C 
ATOM     44  F3  UNL A   1      32.094  37.402  42.730  1.00  0.00    +0.000 F 
ATOM     45  C34 UNL A   1      30.015  37.861  43.759  1.00  0.00    +0.000 C 
ATOM     46  F4  UNL A   1      30.311  39.168  43.792  1.00  0.00    +0.000 F 
ATOM     47  C35 UNL A   1      28.836  37.405  44.360  1.00  0.00    +0.000 C 
ATOM     48  F5  UNL A   1      28.077  38.309  44.991  1.00  0.00    +0.000 F 
ENDBRANCH   37   38
BRANCH   54   55
ATOM     65  F10 UNL A   1      24.622  37.099  47.257  1.00  0.00    +0.000 F 
ATOM     55  C41 UNL A   1      25.803  38.439  48.821  1.00  0.00    +0.000 C 
ATOM     56  C42 UNL A   1      25.952  39.728  49.352  1.00  0.00    +0.000 C 
ATOM     57  F6  UNL A   1      26.856  39.953  50.317  1.00  0.00    +0.000 F 
ATOM     58  C43 UNL A   1      25.172  40.796  48.902  1.00  0.00    +0.000 C 
ATOM     59  F7  UNL A   1      25.337  42.014  49.436  1.00  0.00    +0.000 F 
ATOM     60  C44 UNL A   1      24.231  40.609  47.902  1.00  0.00    +0.000 C 
ATOM     61  F8  UNL A   1      23.491  41.637  47.463  1.00  0.00    +0.000 F 
ATOM     62  C45 UNL A   1      24.066  39.354  47.352  1.00  0.00    +0.000 C 
ATOM     63  F9  UNL A   1      23.171  39.158  46.372  1.00  0.00    +0.000 F 
ATOM     64  C46 UNL A   1      24.837  38.288  47.814  1.00  0.00    +0.000 C 
ENDBRANCH   54   55
BRANCH   69   70
ATOM     70  C50 UNL A   1      22.357  35.422  52.892  1.00  0.00    +0.000 C 
ATOM     71  C51 UNL A   1      22.619  34.386  53.799  1.00  0.00    +0.000 C 
ATOM     72  F11 UNL A   1      23.241  33.267  53.419  1.00  0.00    +0.000 F 
ATOM     73  C52 UNL A   1      22.207  34.438  55.144  1.00  0.00    +0.000 C 
ATOM     74  F12 UNL A   1      22.512  33.427  55.970  1.00  0.00    +0.000 F 
ATOM     75  C53 UNL A   1      21.496  35.518  55.634  1.00  0.00    +0.000 C 
ATOM     76  F13 UNL A   1      21.147  35.586  56.925  1.00  0.00    +0.000 F 
ATOM     77  C54 UNL A   1      21.131  36.514  54.763  1.00  0.00    +0.000 C 
ATOM     78  F14 UNL A   1      20.415  37.562  55.195  1.00  0.00    +0.000 F 
ATOM     79  C55 UNL A   1      21.519  36.445  53.424  1.00  0.00    +0.000 C 
ATOM     80  F15 UNL A   1      21.033  37.429  52.655  1.00  0.00    +0.000 F 
ENDBRANCH   69   70
TORSDOF 17
ENDMDL
MODEL 8
REMARK VINA RESULT:     -11.8      1.849      3.077
ROOT
ATOM    129  H38 UNL A   1      24.350  30.982  45.609  1.00  0.00    +0.000 H 
ATOM     33  C26 UNL A   1      25.004  33.760  46.167  1.00  0.00    +0.000 C 
ATOM     34  C27 UNL A   1      25.690  32.482  46.672  1.00  0.00    +0.000 C 
ATOM     35  N4  UNL A   1      26.681  32.332  47.500  1.00  0.00    +0.000 N 
ATOM     36  C28 UNL A   1      26.993  30.956  47.540  1.00  0.00    +0.000 C 
ATOM     37  C29 UNL A   1      28.153  30.458  48.058  1.00  0.00    +0.000 C 
ATOM     49  C36 UNL A   1      28.952  31.499  48.607  1.00  0.00    +0.000 C 
ATOM     50  C37 UNL A   1      28.900  32.213  49.772  1.00  0.00    +0.000 C 
ATOM     51  C38 UNL A   1      29.513  33.447  49.461  1.00  0.00    +0.000 C 
ATOM     52  C39 UNL A   1      29.970  33.410  48.139  1.00  0.00    +0.000 C 
ATOM     53  N5  UNL A   1      29.862  32.092  47.768  1.00  0.00    +0.000 N 
ATOM     54  C40 UNL A   1      30.293  34.370  47.108  1.00  0.00    +0.000 C 
ATOM     66  C47 UNL A   1      30.155  35.684  47.414  1.00  0.00    +0.000 C 
ATOM     67  N6  UNL A   1      29.562  36.537  46.510  1.00  0.00    +0.000 N 
ATOM     68  C48 UNL A   1      28.726  37.200  47.253  1.00  0.00    +0.000 C 
ATOM     69  C49 UNL A   1      27.588  37.990  46.750  1.00  0.00    +0.000 C 
ATOM     81  C56 UNL A   1      26.640  37.079  46.365  1.00  0.00    +0.000 C 
ATOM     82  C57 UNL A   1      25.346  37.335  45.764  1.00  0.00    +0.000 C 
ATOM     83  C58 UNL A   1      24.674  36.178  45.610  1.00  0.00    +0.000 C 
ATOM     84  C59 UNL A   1      25.462  35.044  46.123  1.00  0.00    +0.000 C 
ATOM     85  N7  UNL A   1      26.641  35.666  46.494  1.00  0.00    +0.000 N 
ATOM     86  C60 UNL A   1      28.908  37.074  48.706  1.00  0.00    +0.000 C 
ATOM     87  C61 UNL A   1      29.958  36.260  48.721  1.00  0.00    +0.000 C 
ATOM     88  C62 UNL A   1      25.955  30.281  46.822  1.00  0.00    +0.000 C 
ATOM     89  C63 UNL A   1      25.154  31.166  46.229  1.00  0.00    +0.000 C 
ATOM    120  H29 UNL A   1      28.503  31.917  50.677  1.00  0.00    +0.000 H 
ATOM    121  H30 UNL A   1      29.608  34.248  50.104  1.00  0.00    +0.000 H 
ATOM    122  H31 UNL A   1      30.348  31.653  47.034  1.00  0.00    +0.000 H 
ATOM    123  H32 UNL A   1      24.992  38.267  45.494  1.00  0.00    +0.000 H 
ATOM    124  H33 UNL A   1      23.734  36.097  45.190  1.00  0.00    +0.000 H 
ATOM    125  H34 UNL A   1      27.422  35.164  46.823  1.00  0.00    +0.000 H 
ATOM    126  H35 UNL A   1      28.376  37.494  49.484  1.00  0.00    +0.000 H 
ATOM    127  H36 UNL A   1      30.546  36.068  49.548  1.00  0.00    +0.000 H 
ATOM    128  H37 UNL A   1      25.844  29.256  46.771  1.00  0.00    +0.000 H 
ENDROOT
BRANCH   33   32
ATOM    130  H39 UNL A   1      24.210  32.804  43.759  1.00  0.00    +0.000 H 
ATOM    131  H40 UNL A   1      21.967  32.158  43.089  1.00  0.00    +0.000 H 
ATOM    118  H27 UNL A   1      20.471  33.520  46.781  1.00  0.00    +0.000 H 
ATOM    119  H28 UNL A   1      22.700  34.220  47.433  1.00  0.00    +0.000 H 
ATOM     90  C64 UNL A   1      23.417  32.943  44.404  1.00  0.00    +0.000 C 
ATOM     91  C65 UNL A   1      22.131  32.560  44.025  1.00  0.00    +0.000 C 
ATOM     29  C22 UNL A   1      21.065  32.721  44.914  1.00  0.00    +0.000 C 
ATOM     30  C23 UNL A   1      21.270  33.352  46.149  1.00  0.00    +0.000 C 
ATOM     31  C24 UNL A   1      22.549  33.753  46.526  1.00  0.00    +0.000 C 
ATOM     32  C25 UNL A   1      23.628  33.518  45.667  1.00  0.00    +0.000 C 
BRANCH   29   27
ATOM     27  C21 UNL A   1      19.677  32.322  44.578  1.00  0.00    +0.000 C 
ATOM     28  O4  UNL A   1      18.745  32.994  44.974  1.00  0.00    +0.000 O 
BRANCH   27   26
ATOM     26  N3  UNL A   1      19.422  31.184  43.844  1.00  0.00    +0.000 N 
ATOM    117  H26 UNL A   1      19.704  31.209  42.901  1.00  0.00    +0.000 H 
BRANCH   26   25
ATOM     25  C20 UNL A   1      18.791  29.952  44.284  1.00  0.00    +0.000 C 
ATOM    115  H24 UNL A   1      19.184  29.134  43.716  1.00  0.00    +0.000 H 
ATOM    116  H25 UNL A   1      18.996  29.818  45.326  1.00  0.00    +0.000 H 
BRANCH   25   24
ATOM    113  H22 UNL A   1      16.810  29.883  45.048  1.00  0.00    +0.000 H 
ATOM    114  H23 UNL A   1      17.058  30.960  43.649  1.00  0.00    +0.000 H 
ATOM     24  C19 UNL A   1      17.274  30.011  44.092  1.00  0.00    +0.000 C 
BRANCH   24   23
ATOM    111  H20 UNL A   1      15.653  29.072  43.089  1.00  0.00    +0.000 H 
ATOM     23  C18 UNL A   1      16.714  28.944  43.140  1.00  0.00    +0.000 C 
ATOM    112  H21 UNL A   1      17.211  29.095  42.205  1.00  0.00    +0.000 H 
BRANCH   23   22
ATOM    110  H19 UNL A   1      17.837  27.528  44.203  1.00  0.00    +0.000 H 
ATOM    109  H18 UNL A   1      17.179  26.934  42.646  1.00  0.00    +0.000 H 
ATOM     22  C17 UNL A   1      16.998  27.493  43.540  1.00  0.00    +0.000 C 
BRANCH   22   21
ATOM    107  H16 UNL A   1      16.135  25.757  44.412  1.00  0.00    +0.000 H 
ATOM    108  H17 UNL A   1      15.801  27.299  45.256  1.00  0.00    +0.000 H 
ATOM     21  C16 UNL A   1      15.877  26.791  44.317  1.00  0.00    +0.000 C 
BRANCH   21   20
ATOM    105  H14 UNL A   1      13.844  27.436  44.314  1.00  0.00    +0.000 H 
ATOM    106  H15 UNL A   1      14.597  27.357  42.721  1.00  0.00    +0.000 H 
ATOM     20  C15 UNL A   1      14.492  26.877  43.671  1.00  0.00    +0.000 C 
BRANCH   20   19
ATOM     19  N2  UNL A   1      13.921  25.564  43.455  1.00  0.00    +0.000 N 
ATOM    104  H13 UNL A   1      13.642  25.035  44.237  1.00  0.00    +0.000 H 
BRANCH   19    2
ATOM      1  O1  UNL A   1      12.788  25.277  41.476  1.00  0.00    +0.000 O 
ATOM      2  C1  UNL A   1      13.751  25.023  42.196  1.00  0.00    +0.000 C 
BRANCH    2    3
ATOM      3  C2  UNL A   1      14.807  23.997  41.797  1.00  0.00    +0.000 C 
ATOM     92  H1  UNL A   1      15.463  23.832  42.626  1.00  0.00    +0.000 H 
ATOM     93  H2  UNL A   1      15.347  24.380  40.956  1.00  0.00    +0.000 H 
BRANCH    3    4
ATOM      4  C3  UNL A   1      14.180  22.689  41.402  1.00  0.00    +0.000 C 
ATOM      5  C4  UNL A   1      13.619  21.736  42.238  1.00  0.00    +0.000 C 
ATOM      6  C5  UNL A   1      12.987  20.768  41.433  1.00  0.00    +0.000 C 
ATOM      7  C6  UNL A   1      13.179  21.144  40.125  1.00  0.00    +0.000 C 
ATOM      8  N1  UNL A   1      13.981  22.268  40.092  1.00  0.00    +0.000 N 
ATOM     94  H3  UNL A   1      13.657  21.735  43.269  1.00  0.00    +0.000 H 
ATOM     95  H4  UNL A   1      12.476  19.933  41.763  1.00  0.00    +0.000 H 
ATOM     96  H5  UNL A   1      12.788  20.664  39.300  1.00  0.00    +0.000 H 
BRANCH    8    9
ATOM     97  H6  UNL A   1      13.060  24.435  38.896  1.00  0.00    +0.000 H 
ATOM     98  H7  UNL A   1      13.939  25.489  36.890  1.00  0.00    +0.000 H 
ATOM     99  H8  UNL A   1      15.968  21.400  38.567  1.00  0.00    +0.000 H 
ATOM    100  H9  UNL A   1      18.241  22.430  34.758  1.00  0.00    +0.000 H 
ATOM    101  H10 UNL A   1      18.254  23.768  35.900  1.00  0.00    +0.000 H 
ATOM    102  H11 UNL A   1      15.950  23.048  34.124  1.00  0.00    +0.000 H 
ATOM    103  H12 UNL A   1      17.096  24.347  33.830  1.00  0.00    +0.000 H 
ATOM      9  C7  UNL A   1      14.473  22.859  38.900  1.00  0.00    +0.000 C 
ATOM     10  C8  UNL A   1      13.866  24.020  38.403  1.00  0.00    +0.000 C 
ATOM     11  C9  UNL A   1      14.358  24.614  37.239  1.00  0.00    +0.000 C 
ATOM     12  C10 UNL A   1      15.415  24.022  36.548  1.00  0.00    +0.000 C 
ATOM     13  C11 UNL A   1      16.005  22.852  37.034  1.00  0.00    +0.000 C 
ATOM     14  C12 UNL A   1      15.536  22.266  38.210  1.00  0.00    +0.000 C 
ATOM     15  O2  UNL A   1      17.036  22.208  36.399  1.00  0.00    +0.000 O 
ATOM     16  C13 UNL A   1      17.646  23.039  35.406  1.00  0.00    +0.000 C 
ATOM     17  C14 UNL A   1      16.599  23.767  34.578  1.00  0.00    +0.000 C 
ATOM     18  O3  UNL A   1      15.822  24.646  35.399  1.00  0.00    +0.000 O 
ENDBRANCH    8    9
ENDBRANCH    3    4
ENDBRANCH    2    3
ENDBRANCH   19    2
ENDBRANCH   20   19
ENDBRANCH   21   20
ENDBRANCH   22   21
ENDBRANCH   23   22
ENDBRANCH   24   23
ENDBRANCH   25   24
ENDBRANCH   26   25
ENDBRANCH   27   26
ENDBRANCH   29   27
ENDBRANCH   33   32
BRANCH   37   38
ATOM     38  C30 UNL A   1      28.794  29.100  47.943  1.00  0.00    +0.000 C 
ATOM     39  C31 UNL A   1      30.192  29.030  47.716  1.00  0.00    +0.000 C 
ATOM     40  F1  UNL A   1      30.980  30.089  47.962  1.00  0.00    +0.000 F 
ATOM     41  C32 UNL A   1      30.797  27.906  47.158  1.00  0.00    +0.000 C 
ATOM     42  F2  UNL A   1      32.098  27.938  46.834  1.00  0.00    +0.000 F 
ATOM     43  C33 UNL A   1      30.042  26.786  46.875  1.00  0.00    +0.000 C 
ATOM     44  F3  UNL A   1      30.604  25.728  46.276  1.00  0.00    +0.000 F 
ATOM     45  C34 UNL A   1      28.692  26.781  47.184  1.00  0.00    +0.000 C 
ATOM     46  F4  UNL A   1      27.957  25.693  46.917  1.00  0.00    +0.000 F 
ATOM     47  C35 UNL A   1      28.070  27.925  47.699  1.00  0.00    +0.000 C 
ATOM     48  F5  UNL A   1      26.741  27.886  47.853  1.00  0.00    +0.000 F 
ENDBRANCH   37   38
BRANCH   54   55
ATOM     65  F10 UNL A   1      27.964  33.811  45.441  1.00  0.00    +0.000 F 
ATOM     55  C41 UNL A   1      30.314  34.100  45.619  1.00  0.00    +0.000 C 
ATOM     56  C42 UNL A   1      31.521  34.181  44.911  1.00  0.00    +0.000 C 
ATOM     57  F6  UNL A   1      32.672  34.375  45.571  1.00  0.00    +0.000 F 
ATOM     58  C43 UNL A   1      31.558  34.066  43.519  1.00  0.00    +0.000 C 
ATOM     59  F7  UNL A   1      32.730  34.153  42.874  1.00  0.00    +0.000 F 
ATOM     60  C44 UNL A   1      30.393  33.857  42.798  1.00  0.00    +0.000 C 
ATOM     61  F8  UNL A   1      30.431  33.736  41.463  1.00  0.00    +0.000 F 
ATOM     62  C45 UNL A   1      29.189  33.765  43.466  1.00  0.00    +0.000 C 
ATOM     63  F9  UNL A   1      28.053  33.546  42.785  1.00  0.00    +0.000 F 
ATOM     64  C46 UNL A   1      29.156  33.893  44.854  1.00  0.00    +0.000 C 
ENDBRANCH   54   55
BRANCH   69   70
ATOM     70  C50 UNL A   1      27.697  39.501  46.860  1.00  0.00    +0.000 C 
ATOM     71  C51 UNL A   1      28.256  40.359  45.903  1.00  0.00    +0.000 C 
ATOM     72  F11 UNL A   1      28.950  39.888  44.864  1.00  0.00    +0.000 F 
ATOM     73  C52 UNL A   1      28.160  41.760  46.000  1.00  0.00    +0.000 C 
ATOM     74  F12 UNL A   1      28.691  42.528  45.037  1.00  0.00    +0.000 F 
ATOM     75  C53 UNL A   1      27.523  42.363  47.068  1.00  0.00    +0.000 C 
ATOM     76  F13 UNL A   1      27.393  43.695  47.132  1.00  0.00    +0.000 F 
ATOM     77  C54 UNL A   1      27.044  41.569  48.080  1.00  0.00    +0.000 C 
ATOM     78  F14 UNL A   1      26.447  42.120  49.147  1.00  0.00    +0.000 F 
ATOM     79  C55 UNL A   1      27.164  40.181  47.993  1.00  0.00    +0.000 C 
ATOM     80  F15 UNL A   1      26.737  39.520  49.077  1.00  0.00    +0.000 F 
ENDBRANCH   69   70
TORSDOF 17
ENDMDL
MODEL 9
REMARK VINA RESULT:     -11.7     24.351     27.679
ROOT
ATOM    129  H38 UNL A   1      43.948  23.201  31.603  1.00  0.00    +0.000 H 
ATOM     33  C26 UNL A   1      45.073  25.843  31.144  1.00  0.00    +0.000 C 
ATOM     34  C27 UNL A   1      44.796  24.718  30.136  1.00  0.00    +0.000 C 
ATOM     35  N4  UNL A   1      45.042  24.654  28.860  1.00  0.00    +0.000 N 
ATOM     36  C28 UNL A   1      44.492  23.445  28.384  1.00  0.00    +0.000 C 
ATOM     37  C29 UNL A   1      44.290  23.174  27.063  1.00  0.00    +0.000 C 
ATOM     49  C36 UNL A   1      44.772  24.235  26.247  1.00  0.00    +0.000 C 
ATOM     50  C37 UNL A   1      46.020  24.617  25.836  1.00  0.00    +0.000 C 
ATOM     51  C38 UNL A   1      45.911  26.008  25.617  1.00  0.00    +0.000 C 
ATOM     52  C39 UNL A   1      44.589  26.405  25.841  1.00  0.00    +0.000 C 
ATOM     53  N5  UNL A   1      43.882  25.231  25.933  1.00  0.00    +0.000 N 
ATOM     54  C40 UNL A   1      43.899  27.630  26.179  1.00  0.00    +0.000 C 
ATOM     66  C47 UNL A   1      44.651  28.748  26.330  1.00  0.00    +0.000 C 
ATOM     67  N6  UNL A   1      44.409  29.594  27.390  1.00  0.00    +0.000 N 
ATOM     68  C48 UNL A   1      45.603  29.813  27.854  1.00  0.00    +0.000 C 
ATOM     69  C49 UNL A   1      45.906  30.359  29.190  1.00  0.00    +0.000 C 
ATOM     81  C56 UNL A   1      45.667  29.340  30.074  1.00  0.00    +0.000 C 
ATOM     82  C57 UNL A   1      45.774  29.368  31.520  1.00  0.00    +0.000 C 
ATOM     83  C58 UNL A   1      45.537  28.141  32.021  1.00  0.00    +0.000 C 
ATOM     84  C59 UNL A   1      45.273  27.176  30.940  1.00  0.00    +0.000 C 
ATOM     85  N7  UNL A   1      45.308  27.991  29.822  1.00  0.00    +0.000 N 
ATOM     86  C60 UNL A   1      46.720  29.407  26.990  1.00  0.00    +0.000 C 
ATOM     87  C61 UNL A   1      46.032  28.929  25.960  1.00  0.00    +0.000 C 
ATOM     88  C62 UNL A   1      44.086  22.699  29.537  1.00  0.00    +0.000 C 
ATOM     89  C63 UNL A   1      44.205  23.447  30.634  1.00  0.00    +0.000 C 
ATOM    120  H29 UNL A   1      46.853  24.022  25.713  1.00  0.00    +0.000 H 
ATOM    121  H30 UNL A   1      46.684  26.632  25.337  1.00  0.00    +0.000 H 
ATOM    122  H31 UNL A   1      42.913  25.124  25.799  1.00  0.00    +0.000 H 
ATOM    123  H32 UNL A   1      45.999  30.205  32.081  1.00  0.00    +0.000 H 
ATOM    124  H33 UNL A   1      45.540  27.908  33.027  1.00  0.00    +0.000 H 
ATOM    125  H34 UNL A   1      45.100  27.658  28.919  1.00  0.00    +0.000 H 
ATOM    126  H35 UNL A   1      47.739  29.474  27.141  1.00  0.00    +0.000 H 
ATOM    127  H36 UNL A   1      46.428  28.716  25.031  1.00  0.00    +0.000 H 
ATOM    128  H37 UNL A   1      43.749  21.724  29.519  1.00  0.00    +0.000 H 
ENDROOT
BRANCH   33   32
ATOM    130  H39 UNL A   1      43.084  25.676  32.977  1.00  0.00    +0.000 H 
ATOM    131  H40 UNL A   1      43.168  24.616  35.160  1.00  0.00    +0.000 H 
ATOM    118  H27 UNL A   1      47.277  23.863  34.637  1.00  0.00    +0.000 H 
ATOM    119  H28 UNL A   1      47.212  24.971  32.481  1.00  0.00    +0.000 H 
ATOM     90  C64 UNL A   1      43.970  25.278  33.325  1.00  0.00    +0.000 C 
ATOM     91  C65 UNL A   1      44.016  24.658  34.573  1.00  0.00    +0.000 C 
ATOM     29  C22 UNL A   1      45.211  24.094  35.028  1.00  0.00    +0.000 C 
ATOM     30  C23 UNL A   1      46.384  24.232  34.273  1.00  0.00    +0.000 C 
ATOM     31  C24 UNL A   1      46.348  24.866  33.035  1.00  0.00    +0.000 C 
ATOM     32  C25 UNL A   1      45.134  25.360  32.546  1.00  0.00    +0.000 C 
BRANCH   29   27
ATOM     27  C21 UNL A   1      45.323  23.409  36.338  1.00  0.00    +0.000 C 
ATOM     28  O4  UNL A   1      44.978  23.986  37.350  1.00  0.00    +0.000 O 
BRANCH   27   26
ATOM     26  N3  UNL A   1      45.837  22.134  36.433  1.00  0.00    +0.000 N 
ATOM    117  H26 UNL A   1      46.462  21.977  37.177  1.00  0.00    +0.000 H 
BRANCH   26   25
ATOM     25  C20 UNL A   1      45.572  20.991  35.575  1.00  0.00    +0.000 C 
ATOM    115  H24 UNL A   1      44.814  20.384  36.025  1.00  0.00    +0.000 H 
ATOM    116  H25 UNL A   1      45.249  21.350  34.621  1.00  0.00    +0.000 H 
BRANCH   25   24
ATOM    113  H22 UNL A   1      46.720  19.239  35.928  1.00  0.00    +0.000 H 
ATOM    114  H23 UNL A   1      46.929  19.986  34.322  1.00  0.00    +0.000 H 
ATOM     24  C19 UNL A   1      46.833  20.149  35.375  1.00  0.00    +0.000 C 
BRANCH   24   23
ATOM    111  H20 UNL A   1      48.817  20.818  35.014  1.00  0.00    +0.000 H 
ATOM     23  C18 UNL A   1      48.130  20.831  35.834  1.00  0.00    +0.000 C 
ATOM    112  H21 UNL A   1      47.850  21.815  36.145  1.00  0.00    +0.000 H 
BRANCH   23   22
ATOM    110  H19 UNL A   1      49.866  20.185  36.815  1.00  0.00    +0.000 H 
ATOM    109  H18 UNL A   1      48.407  19.209  37.173  1.00  0.00    +0.000 H 
ATOM     22  C17 UNL A   1      48.820  20.187  37.040  1.00  0.00    +0.000 C 
BRANCH   22   21
ATOM    107  H16 UNL A   1      49.548  21.551  38.499  1.00  0.00    +0.000 H 
ATOM    108  H17 UNL A   1      47.772  21.512  38.288  1.00  0.00    +0.000 H 
ATOM     21  C16 UNL A   1      48.676  20.945  38.365  1.00  0.00    +0.000 C 
BRANCH   21   20
ATOM    105  H14 UNL A   1      49.452  20.030  40.129  1.00  0.00    +0.000 H 
ATOM    106  H15 UNL A   1      47.747  20.472  40.214  1.00  0.00    +0.000 H 
ATOM     20  C15 UNL A   1      48.521  20.058  39.603  1.00  0.00    +0.000 C 
BRANCH   20   19
ATOM     19  N2  UNL A   1      48.143  18.706  39.247  1.00  0.00    +0.000 N 
ATOM    104  H13 UNL A   1      48.847  18.074  38.977  1.00  0.00    +0.000 H 
BRANCH   19    2
ATOM      1  O1  UNL A   1      46.005  18.569  38.414  1.00  0.00    +0.000 O 
ATOM      2  C1  UNL A   1      46.834  18.267  39.270  1.00  0.00    +0.000 C 
BRANCH    2    3
ATOM      3  C2  UNL A   1      46.459  17.452  40.503  1.00  0.00    +0.000 C 
ATOM     92  H1  UNL A   1      47.352  17.174  41.022  1.00  0.00    +0.000 H 
ATOM     93  H2  UNL A   1      45.921  16.584  40.182  1.00  0.00    +0.000 H 
BRANCH    3    4
ATOM      4  C3  UNL A   1      45.577  18.238  41.434  1.00  0.00    +0.000 C 
ATOM      5  C4  UNL A   1      45.850  19.465  42.019  1.00  0.00    +0.000 C 
ATOM      6  C5  UNL A   1      44.677  19.913  42.658  1.00  0.00    +0.000 C 
ATOM      7  C6  UNL A   1      43.715  18.952  42.456  1.00  0.00    +0.000 C 
ATOM      8  N1  UNL A   1      44.279  17.884  41.785  1.00  0.00    +0.000 N 
ATOM     94  H3  UNL A   1      46.753  19.962  41.991  1.00  0.00    +0.000 H 
ATOM     95  H4  UNL A   1      44.561  20.798  43.179  1.00  0.00    +0.000 H 
ATOM     96  H5  UNL A   1      42.731  19.017  42.757  1.00  0.00    +0.000 H 
BRANCH    8    9
ATOM     97  H6  UNL A   1      43.178  17.158  39.497  1.00  0.00    +0.000 H 
ATOM     98  H7  UNL A   1      42.071  15.051  39.005  1.00  0.00    +0.000 H 
ATOM     99  H8  UNL A   1      43.794  15.899  43.473  1.00  0.00    +0.000 H 
ATOM    100  H9  UNL A   1      41.819  11.800  43.673  1.00  0.00    +0.000 H 
ATOM    101  H10 UNL A   1      43.033  11.872  42.401  1.00  0.00    +0.000 H 
ATOM    102  H11 UNL A   1      40.265  13.004  42.199  1.00  0.00    +0.000 H 
ATOM    103  H12 UNL A   1      40.796  11.479  41.505  1.00  0.00    +0.000 H 
ATOM      9  C7  UNL A   1      43.600  16.670  41.513  1.00  0.00    +0.000 C 
ATOM     10  C8  UNL A   1      43.079  16.441  40.232  1.00  0.00    +0.000 C 
ATOM     11  C9  UNL A   1      42.424  15.239  39.956  1.00  0.00    +0.000 C 
ATOM     12  C10 UNL A   1      42.246  14.295  40.965  1.00  0.00    +0.000 C 
ATOM     13  C11 UNL A   1      42.749  14.533  42.248  1.00  0.00    +0.000 C 
ATOM     14  C12 UNL A   1      43.426  15.720  42.526  1.00  0.00    +0.000 C 
ATOM     15  O2  UNL A   1      42.598  13.656  43.292  1.00  0.00    +0.000 O 
ATOM     16  C13 UNL A   1      42.188  12.361  42.839  1.00  0.00    +0.000 C 
ATOM     17  C14 UNL A   1      41.094  12.466  41.789  1.00  0.00    +0.000 C 
ATOM     18  O3  UNL A   1      41.569  13.153  40.626  1.00  0.00    +0.000 O 
ENDBRANCH    8    9
ENDBRANCH    3    4
ENDBRANCH    2    3
ENDBRANCH   19    2
ENDBRANCH   20   19
ENDBRANCH   21   20
ENDBRANCH   22   21
ENDBRANCH   23   22
ENDBRANCH   24   23
ENDBRANCH   25   24
ENDBRANCH   26   25
ENDBRANCH   27   26
ENDBRANCH   29   27
ENDBRANCH   33   32
BRANCH   37   38
ATOM     38  C30 UNL A   1      43.479  22.106  26.376  1.00  0.00    +0.000 C 
ATOM     39  C31 UNL A   1      42.088  22.041  26.640  1.00  0.00    +0.000 C 
ATOM     40  F1  UNL A   1      41.441  23.090  27.173  1.00  0.00    +0.000 F 
ATOM     41  C32 UNL A   1      41.349  20.875  26.442  1.00  0.00    +0.000 C 
ATOM     42  F2  UNL A   1      40.068  20.820  26.836  1.00  0.00    +0.000 F 
ATOM     43  C33 UNL A   1      41.956  19.759  25.904  1.00  0.00    +0.000 C 
ATOM     44  F3  UNL A   1      41.269  18.615  25.775  1.00  0.00    +0.000 F 
ATOM     45  C34 UNL A   1      43.289  19.822  25.535  1.00  0.00    +0.000 C 
ATOM     46  F4  UNL A   1      43.880  18.741  25.006  1.00  0.00    +0.000 F 
ATOM     47  C35 UNL A   1      44.047  20.973  25.778  1.00  0.00    +0.000 C 
ATOM     48  F5  UNL A   1      45.358  20.915  25.510  1.00  0.00    +0.000 F 
ENDBRANCH   37   38
BRANCH   54   55
ATOM     65  F10 UNL A   1      43.121  26.401  28.709  1.00  0.00    +0.000 F 
ATOM     55  C41 UNL A   1      42.536  27.729  26.829  1.00  0.00    +0.000 C 
ATOM     56  C42 UNL A   1      41.540  28.526  26.248  1.00  0.00    +0.000 C 
ATOM     57  F6  UNL A   1      41.753  29.098  25.054  1.00  0.00    +0.000 F 
ATOM     58  C43 UNL A   1      40.317  28.744  26.887  1.00  0.00    +0.000 C 
ATOM     59  F7  UNL A   1      39.389  29.516  26.303  1.00  0.00    +0.000 F 
ATOM     60  C44 UNL A   1      40.051  28.166  28.118  1.00  0.00    +0.000 C 
ATOM     61  F8  UNL A   1      38.873  28.368  28.725  1.00  0.00    +0.000 F 
ATOM     62  C45 UNL A   1      41.008  27.370  28.714  1.00  0.00    +0.000 C 
ATOM     63  F9  UNL A   1      40.762  26.789  29.898  1.00  0.00    +0.000 F 
ATOM     64  C46 UNL A   1      42.232  27.165  28.078  1.00  0.00    +0.000 C 
ENDBRANCH   54   55
BRANCH   69   70
ATOM     70  C50 UNL A   1      46.454  31.774  29.246  1.00  0.00    +0.000 C 
ATOM     71  C51 UNL A   1      47.759  32.139  29.607  1.00  0.00    +0.000 C 
ATOM     72  F11 UNL A   1      48.604  31.259  30.151  1.00  0.00    +0.000 F 
ATOM     73  C52 UNL A   1      48.241  33.454  29.464  1.00  0.00    +0.000 C 
ATOM     74  F12 UNL A   1      49.508  33.735  29.802  1.00  0.00    +0.000 F 
ATOM     75  C53 UNL A   1      47.434  34.463  28.975  1.00  0.00    +0.000 C 
ATOM     76  F13 UNL A   1      47.911  35.702  28.795  1.00  0.00    +0.000 F 
ATOM     77  C54 UNL A   1      46.121  34.178  28.697  1.00  0.00    +0.000 C 
ATOM     78  F14 UNL A   1      45.299  35.140  28.250  1.00  0.00    +0.000 F 
ATOM     79  C55 UNL A   1      45.639  32.879  28.865  1.00  0.00    +0.000 C 
ATOM     80  F15 UNL A   1      44.325  32.743  28.644  1.00  0.00    +0.000 F 
ENDBRANCH   69   70
TORSDOF 17
ENDMDL
MODEL 10
REMARK VINA RESULT:     -11.6      1.630      2.215
ROOT
ATOM    129  H38 UNL A   1      24.788  31.182  45.650  1.00  0.00    +0.000 H 
ATOM     33  C26 UNL A   1      25.628  33.905  46.230  1.00  0.00    +0.000 C 
ATOM     34  C27 UNL A   1      26.235  32.579  46.712  1.00  0.00    +0.000 C 
ATOM     35  N4  UNL A   1      27.224  32.356  47.526  1.00  0.00    +0.000 N 
ATOM     36  C28 UNL A   1      27.446  30.962  47.548  1.00  0.00    +0.000 C 
ATOM     37  C29 UNL A   1      28.577  30.384  48.046  1.00  0.00    +0.000 C 
ATOM     49  C36 UNL A   1      29.449  31.364  48.595  1.00  0.00    +0.000 C 
ATOM     50  C37 UNL A   1      29.458  32.067  49.769  1.00  0.00    +0.000 C 
ATOM     51  C38 UNL A   1      30.146  33.261  49.463  1.00  0.00    +0.000 C 
ATOM     52  C39 UNL A   1      30.584  33.210  48.135  1.00  0.00    +0.000 C 
ATOM     53  N5  UNL A   1      30.386  31.906  47.751  1.00  0.00    +0.000 N 
ATOM     54  C40 UNL A   1      30.956  34.159  47.110  1.00  0.00    +0.000 C 
ATOM     66  C47 UNL A   1      30.907  35.476  47.432  1.00  0.00    +0.000 C 
ATOM     67  N6  UNL A   1      30.361  36.376  46.544  1.00  0.00    +0.000 N 
ATOM     68  C48 UNL A   1      29.579  37.082  47.305  1.00  0.00    +0.000 C 
ATOM     69  C49 UNL A   1      28.488  37.951  46.824  1.00  0.00    +0.000 C 
ATOM     81  C56 UNL A   1      27.479  37.108  46.443  1.00  0.00    +0.000 C 
ATOM     82  C57 UNL A   1      26.197  37.454  45.861  1.00  0.00    +0.000 C 
ATOM     83  C58 UNL A   1      25.449  36.345  45.703  1.00  0.00    +0.000 C 
ATOM     84  C59 UNL A   1      26.167  35.157  46.194  1.00  0.00    +0.000 C 
ATOM     85  N7  UNL A   1      27.389  35.696  46.556  1.00  0.00    +0.000 N 
ATOM     86  C60 UNL A   1      29.769  36.929  48.754  1.00  0.00    +0.000 C 
ATOM     87  C61 UNL A   1      30.764  36.048  48.747  1.00  0.00    +0.000 C 
ATOM     88  C62 UNL A   1      26.358  30.363  46.836  1.00  0.00    +0.000 C 
ATOM     89  C63 UNL A   1      25.609  31.306  46.262  1.00  0.00    +0.000 C 
ATOM    120  H29 UNL A   1      29.053  31.787  50.675  1.00  0.00    +0.000 H 
ATOM    121  H30 UNL A   1      30.301  34.047  50.113  1.00  0.00    +0.000 H 
ATOM    122  H31 UNL A   1      30.833  31.445  47.006  1.00  0.00    +0.000 H 
ATOM    123  H32 UNL A   1      25.901  38.410  45.605  1.00  0.00    +0.000 H 
ATOM    124  H33 UNL A   1      24.501  36.330  45.294  1.00  0.00    +0.000 H 
ATOM    125  H34 UNL A   1      28.139  35.141  46.870  1.00  0.00    +0.000 H 
ATOM    126  H35 UNL A   1      29.275  37.374  49.543  1.00  0.00    +0.000 H 
ATOM    127  H36 UNL A   1      31.348  35.809  49.564  1.00  0.00    +0.000 H 
ATOM    128  H37 UNL A   1      26.180  29.349  46.775  1.00  0.00    +0.000 H 
ENDROOT
BRANCH   33   32
ATOM    130  H39 UNL A   1      24.719  33.728  43.683  1.00  0.00    +0.000 H 
ATOM    131  H40 UNL A   1      22.465  33.204  42.947  1.00  0.00    +0.000 H 
ATOM    118  H27 UNL A   1      21.156  33.225  46.949  1.00  0.00    +0.000 H 
ATOM    119  H28 UNL A   1      23.393  33.804  47.685  1.00  0.00    +0.000 H 
ATOM     90  C64 UNL A   1      23.965  33.607  44.376  1.00  0.00    +0.000 C 
ATOM     91  C65 UNL A   1      22.673  33.294  43.955  1.00  0.00    +0.000 C 
ATOM     29  C22 UNL A   1      21.660  33.101  44.898  1.00  0.00    +0.000 C 
ATOM     30  C23 UNL A   1      21.919  33.314  46.260  1.00  0.00    +0.000 C 
ATOM     31  C24 UNL A   1      23.202  33.644  46.684  1.00  0.00    +0.000 C 
ATOM     32  C25 UNL A   1      24.233  33.758  45.745  1.00  0.00    +0.000 C 
BRANCH   29   27
ATOM     27  C21 UNL A   1      20.269  32.753  44.518  1.00  0.00    +0.000 C 
ATOM     28  O4  UNL A   1      19.401  33.601  44.569  1.00  0.00    +0.000 O 
BRANCH   27   26
ATOM     26  N3  UNL A   1      19.937  31.473  44.130  1.00  0.00    +0.000 N 
ATOM    117  H26 UNL A   1      20.489  31.084  43.413  1.00  0.00    +0.000 H 
BRANCH   26   25
ATOM     25  C20 UNL A   1      18.877  30.623  44.646  1.00  0.00    +0.000 C 
ATOM    115  H24 UNL A   1      19.228  29.613  44.689  1.00  0.00    +0.000 H 
ATOM    116  H25 UNL A   1      18.608  30.969  45.621  1.00  0.00    +0.000 H 
BRANCH   25   24
ATOM    113  H22 UNL A   1      16.836  31.109  44.317  1.00  0.00    +0.000 H 
ATOM    114  H23 UNL A   1      17.904  31.274  42.899  1.00  0.00    +0.000 H 
ATOM     24  C19 UNL A   1      17.638  30.684  43.751  1.00  0.00    +0.000 C 
BRANCH   24   23
ATOM    111  H20 UNL A   1      16.812  29.465  42.219  1.00  0.00    +0.000 H 
ATOM     23  C18 UNL A   1      17.177  29.321  43.214  1.00  0.00    +0.000 C 
ATOM    112  H21 UNL A   1      18.030  28.678  43.271  1.00  0.00    +0.000 H 
BRANCH   23   22
ATOM    110  H19 UNL A   1      15.330  29.379  44.205  1.00  0.00    +0.000 H 
ATOM    109  H18 UNL A   1      16.519  28.246  44.921  1.00  0.00    +0.000 H 
ATOM     22  C17 UNL A   1      16.076  28.633  44.028  1.00  0.00    +0.000 C 
BRANCH   22   21
ATOM    107  H16 UNL A   1      14.535  27.887  42.767  1.00  0.00    +0.000 H 
ATOM    108  H17 UNL A   1      16.089  27.003  42.702  1.00  0.00    +0.000 H 
ATOM     21  C16 UNL A   1      15.356  27.479  43.319  1.00  0.00    +0.000 C 
BRANCH   21   20
ATOM    105  H14 UNL A   1      15.586  25.686  44.451  1.00  0.00    +0.000 H 
ATOM    106  H15 UNL A   1      14.472  26.862  45.149  1.00  0.00    +0.000 H 
ATOM     20  C15 UNL A   1      14.809  26.393  44.248  1.00  0.00    +0.000 C 
BRANCH   20   19
ATOM     19  N2  UNL A   1      13.685  25.698  43.653  1.00  0.00    +0.000 N 
ATOM    104  H13 UNL A   1      12.776  26.033  43.827  1.00  0.00    +0.000 H 
BRANCH   19    2
ATOM      1  O1  UNL A   1      14.651  23.692  43.083  1.00  0.00    +0.000 O 
ATOM      2  C1  UNL A   1      13.837  24.583  42.853  1.00  0.00    +0.000 C 
BRANCH    2    3
ATOM      3  C2  UNL A   1      12.980  24.586  41.591  1.00  0.00    +0.000 C 
ATOM     92  H1  UNL A   1      12.298  25.409  41.634  1.00  0.00    +0.000 H 
ATOM     93  H2  UNL A   1      12.450  23.657  41.542  1.00  0.00    +0.000 H 
BRANCH    3    4
ATOM      4  C3  UNL A   1      13.825  24.714  40.354  1.00  0.00    +0.000 C 
ATOM      5  C4  UNL A   1      14.461  25.852  39.881  1.00  0.00    +0.000 C 
ATOM      6  C5  UNL A   1      15.289  25.473  38.806  1.00  0.00    +0.000 C 
ATOM      7  C6  UNL A   1      15.138  24.117  38.640  1.00  0.00    +0.000 C 
ATOM      8  N1  UNL A   1      14.180  23.658  39.522  1.00  0.00    +0.000 N 
ATOM     94  H3  UNL A   1      14.347  26.808  40.251  1.00  0.00    +0.000 H 
ATOM     95  H4  UNL A   1      15.895  26.097  38.248  1.00  0.00    +0.000 H 
ATOM     96  H5  UNL A   1      15.658  23.535  37.964  1.00  0.00    +0.000 H 
BRANCH    8    9
ATOM     97  H6  UNL A   1      14.599  21.784  37.710  1.00  0.00    +0.000 H 
ATOM     98  H7  UNL A   1      13.823  19.481  37.775  1.00  0.00    +0.000 H 
ATOM     99  H8  UNL A   1      12.615  22.547  41.351  1.00  0.00    +0.000 H 
ATOM    100  H9  UNL A   1      10.562  18.610  42.360  1.00  0.00    +0.000 H 
ATOM    101  H10 UNL A   1      12.295  18.398  42.140  1.00  0.00    +0.000 H 
ATOM    102  H11 UNL A   1      10.302  18.667  39.918  1.00  0.00    +0.000 H 
ATOM    103  H12 UNL A   1      11.006  17.158  40.477  1.00  0.00    +0.000 H 
ATOM      9  C7  UNL A   1      13.694  22.326  39.545  1.00  0.00    +0.000 C 
ATOM     10  C8  UNL A   1      14.019  21.454  38.497  1.00  0.00    +0.000 C 
ATOM     11  C9  UNL A   1      13.556  20.137  38.524  1.00  0.00    +0.000 C 
ATOM     12  C10 UNL A   1      12.731  19.710  39.564  1.00  0.00    +0.000 C 
ATOM     13  C11 UNL A   1      12.391  20.588  40.597  1.00  0.00    +0.000 C 
ATOM     14  C12 UNL A   1      12.869  21.898  40.591  1.00  0.00    +0.000 C 
ATOM     15  O2  UNL A   1      11.573  20.240  41.642  1.00  0.00    +0.000 O 
ATOM     16  C13 UNL A   1      11.402  18.822  41.731  1.00  0.00    +0.000 C 
ATOM     17  C14 UNL A   1      11.162  18.209  40.360  1.00  0.00    +0.000 C 
ATOM     18  O3  UNL A   1      12.293  18.413  39.506  1.00  0.00    +0.000 O 
ENDBRANCH    8    9
ENDBRANCH    3    4
ENDBRANCH    2    3
ENDBRANCH   19    2
ENDBRANCH   20   19
ENDBRANCH   21   20
ENDBRANCH   22   21
ENDBRANCH   23   22
ENDBRANCH   24   23
ENDBRANCH   25   24
ENDBRANCH   26   25
ENDBRANCH   27   26
ENDBRANCH   29   27
ENDBRANCH   33   32
BRANCH   37   38
ATOM     38  C30 UNL A   1      29.127  28.988  47.908  1.00  0.00    +0.000 C 
ATOM     39  C31 UNL A   1      30.517  28.830  47.678  1.00  0.00    +0.000 C 
ATOM     40  F1  UNL A   1      31.374  29.830  47.939  1.00  0.00    +0.000 F 
ATOM     41  C32 UNL A   1      31.046  27.677  47.101  1.00  0.00    +0.000 C 
ATOM     42  F2  UNL A   1      32.347  27.628  46.776  1.00  0.00    +0.000 F 
ATOM     43  C33 UNL A   1      30.219  26.614  46.801  1.00  0.00    +0.000 C 
ATOM     44  F3  UNL A   1      30.710  25.531  46.184  1.00  0.00    +0.000 F 
ATOM     45  C34 UNL A   1      28.872  26.694  47.112  1.00  0.00    +0.000 C 
ATOM     46  F4  UNL A   1      28.066  25.660  46.829  1.00  0.00    +0.000 F 
ATOM     47  C35 UNL A   1      28.327  27.867  47.646  1.00  0.00    +0.000 C 
ATOM     48  F5  UNL A   1      26.998  27.914  47.802  1.00  0.00    +0.000 F 
ENDBRANCH   37   38
BRANCH   54   55
ATOM     65  F10 UNL A   1      28.576  33.773  45.467  1.00  0.00    +0.000 F 
ATOM     55  C41 UNL A   1      30.942  33.905  45.618  1.00  0.00    +0.000 C 
ATOM     56  C42 UNL A   1      32.143  33.915  44.895  1.00  0.00    +0.000 C 
ATOM     57  F6  UNL A   1      33.312  34.026  45.543  1.00  0.00    +0.000 F 
ATOM     58  C43 UNL A   1      32.155  33.814  43.502  1.00  0.00    +0.000 C 
ATOM     59  F7  UNL A   1      33.322  33.832  42.843  1.00  0.00    +0.000 F 
ATOM     60  C44 UNL A   1      30.971  33.690  42.793  1.00  0.00    +0.000 C 
ATOM     61  F8  UNL A   1      30.985  33.582  41.457  1.00  0.00    +0.000 F 
ATOM     62  C45 UNL A   1      29.771  33.669  43.476  1.00  0.00    +0.000 C 
ATOM     63  F9  UNL A   1      28.616  33.533  42.807  1.00  0.00    +0.000 F 
ATOM     64  C46 UNL A   1      29.763  33.783  44.865  1.00  0.00    +0.000 C 
ENDBRANCH   54   55
BRANCH   69   70
ATOM     70  C50 UNL A   1      28.697  39.450  46.950  1.00  0.00    +0.000 C 
ATOM     71  C51 UNL A   1      27.923  40.329  47.719  1.00  0.00    +0.000 C 
ATOM     72  F11 UNL A   1      26.768  39.944  48.267  1.00  0.00    +0.000 F 
ATOM     73  C52 UNL A   1      28.287  41.674  47.923  1.00  0.00    +0.000 C 
ATOM     74  F12 UNL A   1      27.519  42.458  48.693  1.00  0.00    +0.000 F 
ATOM     75  C53 UNL A   1      29.427  42.202  47.348  1.00  0.00    +0.000 C 
ATOM     76  F13 UNL A   1      29.796  43.468  47.584  1.00  0.00    +0.000 F 
ATOM     77  C54 UNL A   1      30.168  41.408  46.508  1.00  0.00    +0.000 C 
ATOM     78  F14 UNL A   1      31.264  41.895  45.909  1.00  0.00    +0.000 F 
ATOM     79  C55 UNL A   1      29.789  40.083  46.288  1.00  0.00    +0.000 C 
ATOM     80  F15 UNL A   1      30.538  39.435  45.385  1.00  0.00    +0.000 F 
ENDBRANCH   69   70
TORSDOF 17
ENDMDL
