MODEL 1
REMARK VINA RESULT:      -8.5      0.000      0.000
ROOT
ATOM    129  H26 UNL A   1      21.814  39.418  51.665  1.00  0.00    +0.000 H 
ATOM    130  H27 UNL A   1      24.283  40.013  51.658  1.00  0.00    +0.000 H 
ATOM    131  H28 UNL A   1      23.704  36.951  48.906  1.00  0.00    +0.000 H 
ATOM    132  H29 UNL A   1      18.733  36.199  48.711  1.00  0.00    +0.000 H 
ATOM    133  H30 UNL A   1      19.205  34.388  46.965  1.00  0.00    +0.000 H 
ATOM    134  H31 UNL A   1      28.983  36.695  47.090  1.00  0.00    +0.000 H 
ATOM    135  H32 UNL A   1      28.593  38.239  49.096  1.00  0.00    +0.000 H 
ATOM     27  C20 UNL A   1      25.853  38.486  49.832  1.00  0.00    +0.000 C 
ATOM     28  C21 UNL A   1      26.444  37.583  48.788  1.00  0.00    +0.000 C 
ATOM     29  N3  UNL A   1      25.845  36.725  48.001  1.00  0.00    +0.000 N 
ATOM     30  C22 UNL A   1      26.843  36.187  47.201  1.00  0.00    +0.000 C 
ATOM     31  C23 UNL A   1      26.740  35.213  46.265  1.00  0.00    +0.000 C 
ATOM     43  C30 UNL A   1      25.513  34.545  45.924  1.00  0.00    +0.000 C 
ATOM     44  C31 UNL A   1      25.316  33.499  45.039  1.00  0.00    +0.000 C 
ATOM     45  C32 UNL A   1      23.947  33.217  44.993  1.00  0.00    +0.000 C 
ATOM     46  C33 UNL A   1      23.295  34.054  45.885  1.00  0.00    +0.000 C 
ATOM     47  N4  UNL A   1      24.269  34.862  46.451  1.00  0.00    +0.000 N 
ATOM     48  C34 UNL A   1      21.889  34.121  46.190  1.00  0.00    +0.000 C 
ATOM     60  C41 UNL A   1      21.332  34.937  47.116  1.00  0.00    +0.000 C 
ATOM     61  N5  UNL A   1      21.949  35.859  47.950  1.00  0.00    +0.000 N 
ATOM     62  C42 UNL A   1      20.989  36.408  48.653  1.00  0.00    +0.000 C 
ATOM     63  C43 UNL A   1      21.081  37.461  49.724  1.00  0.00    +0.000 C 
ATOM     75  C50 UNL A   1      22.289  37.954  50.060  1.00  0.00    +0.000 C 
ATOM     76  C51 UNL A   1      22.532  38.988  51.060  1.00  0.00    +0.000 C 
ATOM     77  C52 UNL A   1      23.839  39.293  51.066  1.00  0.00    +0.000 C 
ATOM     78  C53 UNL A   1      24.534  38.440  50.101  1.00  0.00    +0.000 C 
ATOM     79  N6  UNL A   1      23.539  37.658  49.572  1.00  0.00    +0.000 N 
ATOM     80  C54 UNL A   1      19.646  35.909  48.328  1.00  0.00    +0.000 C 
ATOM     81  C55 UNL A   1      19.915  34.989  47.411  1.00  0.00    +0.000 C 
ATOM     82  C56 UNL A   1      28.079  36.849  47.563  1.00  0.00    +0.000 C 
ATOM     83  C57 UNL A   1      27.896  37.676  48.582  1.00  0.00    +0.000 C 
ATOM    126  H23 UNL A   1      26.053  33.012  44.505  1.00  0.00    +0.000 H 
ATOM    127  H24 UNL A   1      23.497  32.505  44.395  1.00  0.00    +0.000 H 
ATOM    128  H25 UNL A   1      24.102  35.557  47.128  1.00  0.00    +0.000 H 
ENDROOT
BRANCH   27   26
ATOM    136  H33 UNL A   1      26.152  41.058  49.179  1.00  0.00    +0.000 H 
ATOM    137  H34 UNL A   1      27.508  42.751  50.260  1.00  0.00    +0.000 H 
ATOM     84  C58 UNL A   1      26.705  40.818  50.017  1.00  0.00    +0.000 C 
ATOM     85  C59 UNL A   1      27.452  41.801  50.659  1.00  0.00    +0.000 C 
ATOM     23  C16 UNL A   1      28.124  41.497  51.846  1.00  0.00    +0.000 C 
ATOM     24  C17 UNL A   1      28.172  40.181  52.313  1.00  0.00    +0.000 C 
ATOM     25  C18 UNL A   1      27.475  39.181  51.631  1.00  0.00    +0.000 C 
ATOM     26  C19 UNL A   1      26.700  39.502  50.504  1.00  0.00    +0.000 C 
ATOM    124  H21 UNL A   1      28.719  39.950  53.156  1.00  0.00    +0.000 H 
ATOM    125  H22 UNL A   1      27.530  38.204  51.956  1.00  0.00    +0.000 H 
BRANCH   23   21
ATOM     21  C15 UNL A   1      28.778  42.565  52.631  1.00  0.00    +0.000 C 
ATOM     22  O4  UNL A   1      28.824  42.487  53.854  1.00  0.00    +0.000 O 
BRANCH   21   20
ATOM    123  H20 UNL A   1      28.679  44.336  51.691  1.00  0.00    +0.000 H 
ATOM     20  N2  UNL A   1      29.320  43.646  51.979  1.00  0.00    +0.000 N 
BRANCH   20   19
ATOM    121  H18 UNL A   1      30.763  44.467  50.747  1.00  0.00    +0.000 H 
ATOM    122  H19 UNL A   1      31.146  44.450  52.471  1.00  0.00    +0.000 H 
ATOM     19  C14 UNL A   1      30.716  43.906  51.657  1.00  0.00    +0.000 C 
BRANCH   19   18
ATOM     18  C13 UNL A   1      31.510  42.615  51.481  1.00  0.00    +0.000 C 
ATOM    119  H16 UNL A   1      32.425  42.707  52.029  1.00  0.00    +0.000 H 
ATOM    120  H17 UNL A   1      30.890  41.820  51.839  1.00  0.00    +0.000 H 
BRANCH   18   17
ATOM     17  C12 UNL A   1      31.854  42.283  50.026  1.00  0.00    +0.000 C 
ATOM    117  H14 UNL A   1      32.223  43.174  49.561  1.00  0.00    +0.000 H 
ATOM    118  H15 UNL A   1      32.575  41.493  50.063  1.00  0.00    +0.000 H 
BRANCH   17   16
ATOM    115  H12 UNL A   1      29.786  42.226  49.541  1.00  0.00    +0.000 H 
ATOM    116  H13 UNL A   1      30.913  41.992  48.171  1.00  0.00    +0.000 H 
ATOM     16  C11 UNL A   1      30.682  41.758  49.189  1.00  0.00    +0.000 C 
BRANCH   16   15
ATOM    113  H10 UNL A   1      29.884  40.001  50.099  1.00  0.00    +0.000 H 
ATOM    114  H11 UNL A   1      29.990  39.953  48.326  1.00  0.00    +0.000 H 
ATOM     15  C10 UNL A   1      30.474  40.235  49.239  1.00  0.00    +0.000 C 
BRANCH   15   14
ATOM     14  C9  UNL A   1      31.782  39.441  49.317  1.00  0.00    +0.000 C 
ATOM    111  H8  UNL A   1      32.495  39.987  49.900  1.00  0.00    +0.000 H 
ATOM    112  H9  UNL A   1      31.594  38.493  49.775  1.00  0.00    +0.000 H 
BRANCH   14   13
ATOM     13  N1  UNL A   1      32.309  39.233  47.983  1.00  0.00    +0.000 N 
ATOM    110  H7  UNL A   1      31.982  38.403  47.565  1.00  0.00    +0.000 H 
BRANCH   13   11
ATOM     11  C8  UNL A   1      33.155  39.934  47.185  1.00  0.00    +0.000 C 
ATOM     12  O3  UNL A   1      34.311  40.048  47.600  1.00  0.00    +0.000 O 
BRANCH   11   10
ATOM     10  C7  UNL A   1      32.717  40.652  45.926  1.00  0.00    +0.000 C 
BRANCH   10    9
ATOM      9  C6  UNL A   1      33.450  41.638  45.358  1.00  0.00    +0.000 C 
ATOM    109  H6  UNL A   1      34.091  41.337  44.607  1.00  0.00    +0.000 H 
BRANCH    9    8
ATOM      5  C2  UNL A   1      33.534  45.879  46.013  1.00  0.00    +0.000 C 
ATOM    102  C73 UNL A   1      34.488  43.863  45.090  1.00  0.00    +0.000 C 
ATOM      6  C3  UNL A   1      32.535  45.126  46.631  1.00  0.00    +0.000 C 
ATOM    103  C74 UNL A   1      34.528  45.250  45.263  1.00  0.00    +0.000 C 
ATOM      7  C4  UNL A   1      32.518  43.734  46.470  1.00  0.00    +0.000 C 
ATOM      8  C5  UNL A   1      33.464  43.089  45.662  1.00  0.00    +0.000 C 
ATOM    107  H4  UNL A   1      31.814  45.591  47.203  1.00  0.00    +0.000 H 
ATOM    108  H5  UNL A   1      31.798  43.176  46.953  1.00  0.00    +0.000 H 
ATOM    149  H46 UNL A   1      35.224  43.399  44.534  1.00  0.00    +0.000 H 
ATOM    150  H47 UNL A   1      35.288  45.805  44.838  1.00  0.00    +0.000 H 
BRANCH    5    2
ATOM      2  S1  UNL A   1      33.563  47.648  46.205  1.00  0.00    +0.000 S 
ATOM      3  O1  UNL A   1      32.975  48.222  45.009  1.00  0.00    +0.000 O 
ATOM      4  O2  UNL A   1      34.910  47.994  46.616  1.00  0.00    +0.000 O 
BRANCH    2    1
ATOM      1  C1  UNL A   1      32.462  47.992  47.552  1.00  0.00    +0.000 C 
ATOM    106  H3  UNL A   1      33.029  48.281  48.412  1.00  0.00    +0.000 H 
ATOM    105  H2  UNL A   1      31.799  48.786  47.278  1.00  0.00    +0.000 H 
ATOM    104  H1  UNL A   1      31.892  47.115  47.781  1.00  0.00    +0.000 H 
ENDBRANCH    2    1
ENDBRANCH    5    2
ENDBRANCH    9    8
ENDBRANCH   10    9
BRANCH   10   86
ATOM    101  C72 UNL A   1      30.237  41.119  45.778  1.00  0.00    +0.000 C 
ATOM    138  H35 UNL A   1      31.963  38.598  44.407  1.00  0.00    +0.000 H 
ATOM    139  H36 UNL A   1      29.737  37.908  43.758  1.00  0.00    +0.000 H 
ATOM    140  H37 UNL A   1      27.818  39.186  44.492  1.00  0.00    +0.000 H 
ATOM    148  H45 UNL A   1      30.377  42.024  46.256  1.00  0.00    +0.000 H 
ATOM     86  C60 UNL A   1      31.350  40.344  45.426  1.00  0.00    +0.000 C 
ATOM     87  C61 UNL A   1      31.150  39.167  44.687  1.00  0.00    +0.000 C 
ATOM     88  C62 UNL A   1      29.869  38.758  44.327  1.00  0.00    +0.000 C 
ATOM     89  C63 UNL A   1      28.768  39.503  44.740  1.00  0.00    +0.000 C 
ATOM     90  C64 UNL A   1      28.932  40.680  45.488  1.00  0.00    +0.000 C 
BRANCH   90   91
ATOM     99  C70 UNL A   1      26.763  43.293  47.169  1.00  0.00    +0.000 C 
ATOM    100  C71 UNL A   1      27.857  42.684  46.548  1.00  0.00    +0.000 C 
ATOM    141  H38 UNL A   1      26.476  39.707  45.873  1.00  0.00    +0.000 H 
ATOM    142  H39 UNL A   1      24.580  40.746  46.968  1.00  0.00    +0.000 H 
ATOM    146  H43 UNL A   1      26.835  44.262  47.517  1.00  0.00    +0.000 H 
ATOM    147  H44 UNL A   1      28.738  43.211  46.437  1.00  0.00    +0.000 H 
ATOM     91  C65 UNL A   1      27.772  41.367  46.072  1.00  0.00    +0.000 C 
ATOM     92  C66 UNL A   1      26.556  40.673  46.227  1.00  0.00    +0.000 C 
ATOM     93  C67 UNL A   1      25.462  41.268  46.851  1.00  0.00    +0.000 C 
ATOM     94  C68 UNL A   1      25.573  42.579  47.315  1.00  0.00    +0.000 C 
BRANCH   94   95
ATOM     97  O5  UNL A   1      24.686  43.782  49.431  1.00  0.00    +0.000 O 
ATOM     98  O6  UNL A   1      23.523  44.197  47.228  1.00  0.00    +0.000 O 
ATOM     95  S2  UNL A   1      24.188  43.303  48.158  1.00  0.00    +0.000 S 
BRANCH   95   96
ATOM    145  H42 UNL A   1      22.953  41.815  49.507  1.00  0.00    +0.000 H 
ATOM    144  H41 UNL A   1      22.170  42.099  47.970  1.00  0.00    +0.000 H 
ATOM    143  H40 UNL A   1      23.553  41.035  48.064  1.00  0.00    +0.000 H 
ATOM     96  C69 UNL A   1      23.109  41.926  48.454  1.00  0.00    +0.000 C 
ENDBRANCH   95   96
ENDBRANCH   94   95
ENDBRANCH   90   91
ENDBRANCH   10   86
ENDBRANCH   11   10
ENDBRANCH   13   11
ENDBRANCH   14   13
ENDBRANCH   15   14
ENDBRANCH   16   15
ENDBRANCH   17   16
ENDBRANCH   18   17
ENDBRANCH   19   18
ENDBRANCH   20   19
ENDBRANCH   21   20
ENDBRANCH   23   21
ENDBRANCH   27   26
BRANCH   31   32
ATOM     33  C25 UNL A   1      28.795  33.755  45.988  1.00  0.00    +0.000 C 
ATOM     34  F1  UNL A   1      28.482  33.102  47.118  1.00  0.00    +0.000 F 
ATOM     35  C26 UNL A   1      29.947  33.386  45.298  1.00  0.00    +0.000 C 
ATOM     36  F2  UNL A   1      30.725  32.403  45.772  1.00  0.00    +0.000 F 
ATOM     37  C27 UNL A   1      30.298  34.044  44.129  1.00  0.00    +0.000 C 
ATOM     38  F3  UNL A   1      31.403  33.683  43.462  1.00  0.00    +0.000 F 
ATOM     39  C28 UNL A   1      29.507  35.079  43.654  1.00  0.00    +0.000 C 
ATOM     40  F4  UNL A   1      29.838  35.706  42.517  1.00  0.00    +0.000 F 
ATOM     41  C29 UNL A   1      28.370  35.468  44.357  1.00  0.00    +0.000 C 
ATOM     42  F5  UNL A   1      27.633  36.484  43.880  1.00  0.00    +0.000 F 
ATOM     32  C24 UNL A   1      27.991  34.814  45.539  1.00  0.00    +0.000 C 
ENDBRANCH   31   32
BRANCH   48   49
ATOM     49  C35 UNL A   1      20.970  33.203  45.438  1.00  0.00    +0.000 C 
ATOM     50  C36 UNL A   1      20.839  31.851  45.789  1.00  0.00    +0.000 C 
ATOM     51  F6  UNL A   1      21.592  31.332  46.769  1.00  0.00    +0.000 F 
ATOM     52  C37 UNL A   1      19.951  31.021  45.110  1.00  0.00    +0.000 C 
ATOM     53  F7  UNL A   1      19.868  29.724  45.436  1.00  0.00    +0.000 F 
ATOM     54  C38 UNL A   1      19.159  31.531  44.092  1.00  0.00    +0.000 C 
ATOM     55  F8  UNL A   1      18.296  30.732  43.449  1.00  0.00    +0.000 F 
ATOM     56  C39 UNL A   1      19.266  32.867  43.736  1.00  0.00    +0.000 C 
ATOM     57  F9  UNL A   1      18.493  33.364  42.761  1.00  0.00    +0.000 F 
ATOM     58  C40 UNL A   1      20.172  33.693  44.394  1.00  0.00    +0.000 C 
ATOM     59  F10 UNL A   1      20.258  34.980  44.024  1.00  0.00    +0.000 F 
ENDBRANCH   48   49
BRANCH   63   64
ATOM     65  C45 UNL A   1      19.445  37.376  51.626  1.00  0.00    +0.000 C 
ATOM     66  F11 UNL A   1      20.138  36.356  52.154  1.00  0.00    +0.000 F 
ATOM     67  C46 UNL A   1      18.296  37.820  52.276  1.00  0.00    +0.000 C 
ATOM     68  F12 UNL A   1      17.898  37.225  53.408  1.00  0.00    +0.000 F 
ATOM     69  C47 UNL A   1      17.557  38.867  51.746  1.00  0.00    +0.000 C 
ATOM     70  F13 UNL A   1      16.456  39.299  52.375  1.00  0.00    +0.000 F 
ATOM     71  C48 UNL A   1      17.959  39.463  50.560  1.00  0.00    +0.000 C 
ATOM     72  F14 UNL A   1      17.258  40.485  50.053  1.00  0.00    +0.000 F 
ATOM     73  C49 UNL A   1      19.092  39.001  49.895  1.00  0.00    +0.000 C 
ATOM     74  F15 UNL A   1      19.453  39.589  48.744  1.00  0.00    +0.000 F 
ATOM     64  C44 UNL A   1      19.862  37.952  50.417  1.00  0.00    +0.000 C 
ENDBRANCH   63   64
TORSDOF 23
ENDMDL
MODEL 2
REMARK VINA RESULT:      -8.1     29.373     34.606
ROOT
ATOM    129  H26 UNL A   1       4.859  33.859  24.122  1.00  0.00    +0.000 H 
ATOM    130  H27 UNL A   1       4.648  35.037  21.881  1.00  0.00    +0.000 H 
ATOM    131  H28 UNL A   1       5.530  31.042  21.142  1.00  0.00    +0.000 H 
ATOM    132  H29 UNL A   1       5.471  28.768  25.630  1.00  0.00    +0.000 H 
ATOM    133  H30 UNL A   1       6.018  26.595  24.392  1.00  0.00    +0.000 H 
ATOM    134  H31 UNL A   1       5.311  31.343  15.566  1.00  0.00    +0.000 H 
ATOM    135  H32 UNL A   1       5.140  33.588  16.787  1.00  0.00    +0.000 H 
ATOM     27  C20 UNL A   1       5.042  33.341  19.622  1.00  0.00    +0.000 C 
ATOM     28  C21 UNL A   1       5.258  32.249  18.615  1.00  0.00    +0.000 C 
ATOM     29  N3  UNL A   1       5.446  30.969  18.809  1.00  0.00    +0.000 N 
ATOM     30  C22 UNL A   1       5.547  30.406  17.545  1.00  0.00    +0.000 C 
ATOM     31  C23 UNL A   1       5.802  29.118  17.213  1.00  0.00    +0.000 C 
ATOM     43  C30 UNL A   1       6.017  28.063  18.168  1.00  0.00    +0.000 C 
ATOM     44  C31 UNL A   1       6.349  26.741  17.933  1.00  0.00    +0.000 C 
ATOM     45  C32 UNL A   1       6.398  26.077  19.164  1.00  0.00    +0.000 C 
ATOM     46  C33 UNL A   1       6.144  26.997  20.169  1.00  0.00    +0.000 C 
ATOM     47  N4  UNL A   1       5.914  28.212  19.544  1.00  0.00    +0.000 N 
ATOM     48  C34 UNL A   1       6.103  26.781  21.593  1.00  0.00    +0.000 C 
ATOM     60  C41 UNL A   1       5.896  27.747  22.520  1.00  0.00    +0.000 C 
ATOM     61  N5  UNL A   1       5.683  29.106  22.332  1.00  0.00    +0.000 N 
ATOM     62  C42 UNL A   1       5.523  29.615  23.528  1.00  0.00    +0.000 C 
ATOM     63  C43 UNL A   1       5.278  31.046  23.925  1.00  0.00    +0.000 C 
ATOM     75  C50 UNL A   1       5.201  31.990  22.967  1.00  0.00    +0.000 C 
ATOM     76  C51 UNL A   1       4.949  33.408  23.198  1.00  0.00    +0.000 C 
ATOM     77  C52 UNL A   1       4.852  34.034  22.013  1.00  0.00    +0.000 C 
ATOM     78  C53 UNL A   1       5.083  33.065  20.940  1.00  0.00    +0.000 C 
ATOM     79  N6  UNL A   1       5.310  31.884  21.602  1.00  0.00    +0.000 N 
ATOM     80  C54 UNL A   1       5.595  28.629  24.615  1.00  0.00    +0.000 C 
ATOM     81  C55 UNL A   1       5.859  27.513  23.948  1.00  0.00    +0.000 C 
ATOM     82  C56 UNL A   1       5.351  31.475  16.588  1.00  0.00    +0.000 C 
ATOM     83  C57 UNL A   1       5.230  32.645  17.199  1.00  0.00    +0.000 C 
ATOM    126  H23 UNL A   1       6.529  26.317  17.009  1.00  0.00    +0.000 H 
ATOM    127  H24 UNL A   1       6.591  25.072  19.300  1.00  0.00    +0.000 H 
ATOM    128  H25 UNL A   1       5.709  29.056  20.007  1.00  0.00    +0.000 H 
ENDROOT
BRANCH   27   26
ATOM    136  H33 UNL A   1       2.604  34.347  19.206  1.00  0.00    +0.000 H 
ATOM    137  H34 UNL A   1       1.983  36.578  18.493  1.00  0.00    +0.000 H 
ATOM     84  C58 UNL A   1       3.335  35.055  19.033  1.00  0.00    +0.000 C 
ATOM     85  C59 UNL A   1       2.974  36.346  18.662  1.00  0.00    +0.000 C 
ATOM     23  C16 UNL A   1       3.959  37.328  18.521  1.00  0.00    +0.000 C 
ATOM     24  C17 UNL A   1       5.312  36.988  18.605  1.00  0.00    +0.000 C 
ATOM     25  C18 UNL A   1       5.675  35.675  18.914  1.00  0.00    +0.000 C 
ATOM     26  C19 UNL A   1       4.688  34.710  19.174  1.00  0.00    +0.000 C 
ATOM    124  H21 UNL A   1       6.037  37.702  18.441  1.00  0.00    +0.000 H 
ATOM    125  H22 UNL A   1       6.672  35.413  18.950  1.00  0.00    +0.000 H 
BRANCH   23   21
ATOM     21  C15 UNL A   1       3.583  38.739  18.297  1.00  0.00    +0.000 C 
ATOM     22  O4  UNL A   1       3.876  39.292  17.243  1.00  0.00    +0.000 O 
BRANCH   21   20
ATOM    123  H20 UNL A   1       1.958  39.219  19.374  1.00  0.00    +0.000 H 
ATOM     20  N2  UNL A   1       2.917  39.425  19.284  1.00  0.00    +0.000 N 
BRANCH   20   19
ATOM    121  H18 UNL A   1       4.026  41.126  19.669  1.00  0.00    +0.000 H 
ATOM    122  H19 UNL A   1       2.612  40.884  20.700  1.00  0.00    +0.000 H 
ATOM     19  C14 UNL A   1       3.442  40.414  20.214  1.00  0.00    +0.000 C 
BRANCH   19   18
ATOM     18  C13 UNL A   1       4.319  39.777  21.289  1.00  0.00    +0.000 C 
ATOM    119  H16 UNL A   1       5.294  39.620  20.876  1.00  0.00    +0.000 H 
ATOM    120  H17 UNL A   1       4.323  40.450  22.120  1.00  0.00    +0.000 H 
BRANCH   18   17
ATOM     17  C12 UNL A   1       3.798  38.436  21.811  1.00  0.00    +0.000 C 
ATOM    117  H14 UNL A   1       2.735  38.509  21.910  1.00  0.00    +0.000 H 
ATOM    118  H15 UNL A   1       4.108  37.698  21.101  1.00  0.00    +0.000 H 
BRANCH   17   16
ATOM    115  H12 UNL A   1       3.581  37.570  23.739  1.00  0.00    +0.000 H 
ATOM    116  H13 UNL A   1       5.163  37.313  22.945  1.00  0.00    +0.000 H 
ATOM     16  C11 UNL A   1       4.374  38.001  23.164  1.00  0.00    +0.000 C 
BRANCH   16   15
ATOM    113  H10 UNL A   1       6.062  39.132  23.815  1.00  0.00    +0.000 H 
ATOM    114  H11 UNL A   1       4.541  40.043  23.696  1.00  0.00    +0.000 H 
ATOM     15  C10 UNL A   1       5.009  39.128  23.997  1.00  0.00    +0.000 C 
BRANCH   15   14
ATOM     14  C9  UNL A   1       4.777  38.978  25.504  1.00  0.00    +0.000 C 
ATOM    111  H8  UNL A   1       4.294  39.856  25.879  1.00  0.00    +0.000 H 
ATOM    112  H9  UNL A   1       4.160  38.123  25.684  1.00  0.00    +0.000 H 
BRANCH   14   13
ATOM     13  N1  UNL A   1       6.048  38.802  26.179  1.00  0.00    +0.000 N 
ATOM    110  H7  UNL A   1       6.197  39.459  26.897  1.00  0.00    +0.000 H 
BRANCH   13   11
ATOM     11  C8  UNL A   1       7.077  37.928  26.034  1.00  0.00    +0.000 C 
ATOM     12  O3  UNL A   1       8.206  38.398  26.199  1.00  0.00    +0.000 O 
BRANCH   11   10
ATOM     10  C7  UNL A   1       6.902  36.496  25.577  1.00  0.00    +0.000 C 
BRANCH   10    9
ATOM      9  C6  UNL A   1       6.220  35.578  26.302  1.00  0.00    +0.000 C 
ATOM    109  H6  UNL A   1       6.797  34.846  26.744  1.00  0.00    +0.000 H 
BRANCH    9    8
ATOM      5  C2  UNL A   1       1.995  35.096  26.883  1.00  0.00    +0.000 C 
ATOM    102  C73 UNL A   1       3.933  35.210  25.448  1.00  0.00    +0.000 C 
ATOM      6  C3  UNL A   1       2.791  35.408  27.986  1.00  0.00    +0.000 C 
ATOM    103  C74 UNL A   1       2.556  35.021  25.608  1.00  0.00    +0.000 C 
ATOM      7  C4  UNL A   1       4.165  35.618  27.811  1.00  0.00    +0.000 C 
ATOM      8  C5  UNL A   1       4.762  35.476  26.551  1.00  0.00    +0.000 C 
ATOM    107  H4  UNL A   1       2.370  35.485  28.924  1.00  0.00    +0.000 H 
ATOM    108  H5  UNL A   1       4.746  35.880  28.622  1.00  0.00    +0.000 H 
ATOM    149  H46 UNL A   1       4.346  35.153  24.504  1.00  0.00    +0.000 H 
ATOM    150  H47 UNL A   1       1.959  34.827  24.788  1.00  0.00    +0.000 H 
BRANCH    5    2
ATOM      2  S1  UNL A   1       0.249  34.822  27.094  1.00  0.00    +0.000 S 
ATOM      3  O1  UNL A   1      -0.441  35.933  26.466  1.00  0.00    +0.000 O 
ATOM      4  O2  UNL A   1       0.049  34.513  28.496  1.00  0.00    +0.000 O 
BRANCH    2    1
ATOM      1  C1  UNL A   1      -0.117  33.369  26.144  1.00  0.00    +0.000 C 
ATOM    106  H3  UNL A   1      -1.079  32.994  26.421  1.00  0.00    +0.000 H 
ATOM    105  H2  UNL A   1      -0.115  33.614  25.102  1.00  0.00    +0.000 H 
ATOM    104  H1  UNL A   1       0.625  32.621  26.336  1.00  0.00    +0.000 H 
ENDBRANCH    2    1
ENDBRANCH    5    2
ENDBRANCH    9    8
ENDBRANCH   10    9
BRANCH   10   86
ATOM    101  C72 UNL A   1       7.907  36.969  23.306  1.00  0.00    +0.000 C 
ATOM    138  H35 UNL A   1       7.874  34.083  25.003  1.00  0.00    +0.000 H 
ATOM    139  H36 UNL A   1       8.906  33.292  22.963  1.00  0.00    +0.000 H 
ATOM    140  H37 UNL A   1       9.193  34.802  21.094  1.00  0.00    +0.000 H 
ATOM    148  H45 UNL A   1       7.709  37.976  23.425  1.00  0.00    +0.000 H 
ATOM     86  C60 UNL A   1       7.663  36.086  24.366  1.00  0.00    +0.000 C 
ATOM     87  C61 UNL A   1       8.033  34.739  24.224  1.00  0.00    +0.000 C 
ATOM     88  C62 UNL A   1       8.610  34.277  23.044  1.00  0.00    +0.000 C 
ATOM     89  C63 UNL A   1       8.786  35.152  21.976  1.00  0.00    +0.000 C 
ATOM     90  C64 UNL A   1       8.419  36.503  22.081  1.00  0.00    +0.000 C 
BRANCH   90   91
ATOM     99  C70 UNL A   1       7.778  39.423  19.754  1.00  0.00    +0.000 C 
ATOM    100  C71 UNL A   1       7.813  38.637  20.908  1.00  0.00    +0.000 C 
ATOM    141  H38 UNL A   1       9.515  36.017  19.695  1.00  0.00    +0.000 H 
ATOM    142  H39 UNL A   1       9.442  37.365  17.683  1.00  0.00    +0.000 H 
ATOM    146  H43 UNL A   1       7.314  40.345  19.765  1.00  0.00    +0.000 H 
ATOM    147  H44 UNL A   1       7.372  38.984  21.775  1.00  0.00    +0.000 H 
ATOM     91  C65 UNL A   1       8.440  37.381  20.903  1.00  0.00    +0.000 C 
ATOM     92  C66 UNL A   1       9.041  36.934  19.711  1.00  0.00    +0.000 C 
ATOM     93  C67 UNL A   1       9.007  37.708  18.553  1.00  0.00    +0.000 C 
ATOM     94  C68 UNL A   1       8.377  38.952  18.584  1.00  0.00    +0.000 C 
BRANCH   94   95
ATOM     97  O5  UNL A   1       9.630  39.910  16.528  1.00  0.00    +0.000 O 
ATOM     98  O6  UNL A   1       7.163  39.413  16.317  1.00  0.00    +0.000 O 
ATOM     95  S2  UNL A   1       8.292  39.901  17.086  1.00  0.00    +0.000 S 
BRANCH   95   96
ATOM    145  H42 UNL A   1       7.804  41.536  18.712  1.00  0.00    +0.000 H 
ATOM    144  H41 UNL A   1       8.686  42.208  17.361  1.00  0.00    +0.000 H 
ATOM    143  H40 UNL A   1       6.981  41.856  17.204  1.00  0.00    +0.000 H 
ATOM     96  C69 UNL A   1       7.902  41.538  17.646  1.00  0.00    +0.000 C 
ENDBRANCH   95   96
ENDBRANCH   94   95
ENDBRANCH   90   91
ENDBRANCH   10   86
ENDBRANCH   11   10
ENDBRANCH   13   11
ENDBRANCH   14   13
ENDBRANCH   15   14
ENDBRANCH   16   15
ENDBRANCH   17   16
ENDBRANCH   18   17
ENDBRANCH   19   18
ENDBRANCH   20   19
ENDBRANCH   21   20
ENDBRANCH   23   21
ENDBRANCH   27   26
BRANCH   31   32
ATOM     33  C25 UNL A   1       7.082  28.665  15.072  1.00  0.00    +0.000 C 
ATOM     34  F1  UNL A   1       8.236  28.913  15.711  1.00  0.00    +0.000 F 
ATOM     35  C26 UNL A   1       7.123  28.335  13.721  1.00  0.00    +0.000 C 
ATOM     36  F2  UNL A   1       8.299  28.282  13.080  1.00  0.00    +0.000 F 
ATOM     37  C27 UNL A   1       5.948  28.075  13.032  1.00  0.00    +0.000 C 
ATOM     38  F3  UNL A   1       5.989  27.750  11.732  1.00  0.00    +0.000 F 
ATOM     39  C28 UNL A   1       4.729  28.157  13.689  1.00  0.00    +0.000 C 
ATOM     40  F4  UNL A   1       3.594  27.893  13.029  1.00  0.00    +0.000 F 
ATOM     41  C29 UNL A   1       4.684  28.514  15.034  1.00  0.00    +0.000 C 
ATOM     42  F5  UNL A   1       3.489  28.600  15.638  1.00  0.00    +0.000 F 
ATOM     32  C24 UNL A   1       5.860  28.776  15.753  1.00  0.00    +0.000 C 
ENDBRANCH   31   32
BRANCH   48   49
ATOM     49  C35 UNL A   1       6.323  25.384  22.091  1.00  0.00    +0.000 C 
ATOM     50  C36 UNL A   1       5.250  24.564  22.471  1.00  0.00    +0.000 C 
ATOM     51  F6  UNL A   1       3.998  25.044  22.461  1.00  0.00    +0.000 F 
ATOM     52  C37 UNL A   1       5.466  23.255  22.892  1.00  0.00    +0.000 C 
ATOM     53  F7  UNL A   1       4.430  22.501  23.286  1.00  0.00    +0.000 F 
ATOM     54  C38 UNL A   1       6.750  22.732  22.912  1.00  0.00    +0.000 C 
ATOM     55  F8  UNL A   1       6.953  21.467  23.306  1.00  0.00    +0.000 F 
ATOM     56  C39 UNL A   1       7.824  23.522  22.532  1.00  0.00    +0.000 C 
ATOM     57  F9  UNL A   1       9.065  23.014  22.539  1.00  0.00    +0.000 F 
ATOM     58  C40 UNL A   1       7.616  24.839  22.137  1.00  0.00    +0.000 C 
ATOM     59  F10 UNL A   1       8.675  25.581  21.779  1.00  0.00    +0.000 F 
ENDBRANCH   48   49
BRANCH   63   64
ATOM     65  C45 UNL A   1       6.255  31.735  26.132  1.00  0.00    +0.000 C 
ATOM     66  F11 UNL A   1       7.481  31.665  25.592  1.00  0.00    +0.000 F 
ATOM     67  C46 UNL A   1       6.128  32.078  27.476  1.00  0.00    +0.000 C 
ATOM     68  F12 UNL A   1       7.222  32.329  28.207  1.00  0.00    +0.000 F 
ATOM     69  C47 UNL A   1       4.872  32.148  28.061  1.00  0.00    +0.000 C 
ATOM     70  F13 UNL A   1       4.749  32.486  29.351  1.00  0.00    +0.000 F 
ATOM     71  C48 UNL A   1       3.744  31.863  27.306  1.00  0.00    +0.000 C 
ATOM     72  F14 UNL A   1       2.528  31.945  27.863  1.00  0.00    +0.000 F 
ATOM     73  C49 UNL A   1       3.872  31.492  25.970  1.00  0.00    +0.000 C 
ATOM     74  F15 UNL A   1       2.765  31.211  25.267  1.00  0.00    +0.000 F 
ATOM     64  C44 UNL A   1       5.130  31.426  25.354  1.00  0.00    +0.000 C 
ENDBRANCH   63   64
TORSDOF 23
ENDMDL
MODEL 3
REMARK VINA RESULT:      -8.0     41.198     46.790
ROOT
ATOM    129  H26 UNL A   1      16.117  15.647  10.423  1.00  0.00    +0.000 H 
ATOM    130  H27 UNL A   1      18.217  15.370   9.023  1.00  0.00    +0.000 H 
ATOM    131  H28 UNL A   1      16.102  18.617   7.517  1.00  0.00    +0.000 H 
ATOM    132  H29 UNL A   1      12.228  19.308  10.652  1.00  0.00    +0.000 H 
ATOM    133  H30 UNL A   1      11.549  21.283   9.172  1.00  0.00    +0.000 H 
ATOM    134  H31 UNL A   1      19.807  20.046   3.584  1.00  0.00    +0.000 H 
ATOM    135  H32 UNL A   1      20.305  17.851   4.807  1.00  0.00    +0.000 H 
ATOM     27  C20 UNL A   1      18.500  17.295   6.938  1.00  0.00    +0.000 C 
ATOM     28  C21 UNL A   1      18.432  18.424   5.950  1.00  0.00    +0.000 C 
ATOM     29  N3  UNL A   1      17.546  19.382   5.848  1.00  0.00    +0.000 N 
ATOM     30  C22 UNL A   1      17.974  20.180   4.797  1.00  0.00    +0.000 C 
ATOM     31  C23 UNL A   1      17.367  21.267   4.263  1.00  0.00    +0.000 C 
ATOM     43  C30 UNL A   1      16.115  21.804   4.724  1.00  0.00    +0.000 C 
ATOM     44  C31 UNL A   1      15.384  22.859   4.206  1.00  0.00    +0.000 C 
ATOM     45  C32 UNL A   1      14.262  23.054   5.018  1.00  0.00    +0.000 C 
ATOM     46  C33 UNL A   1      14.267  22.090   6.014  1.00  0.00    +0.000 C 
ATOM     47  N4  UNL A   1      15.409  21.329   5.820  1.00  0.00    +0.000 N 
ATOM     48  C34 UNL A   1      13.310  21.886   7.071  1.00  0.00    +0.000 C 
ATOM     60  C41 UNL A   1      13.358  20.885   7.982  1.00  0.00    +0.000 C 
ATOM     61  N5  UNL A   1      14.294  19.868   8.112  1.00  0.00    +0.000 N 
ATOM     62  C42 UNL A   1      13.917  19.160   9.148  1.00  0.00    +0.000 C 
ATOM     63  C43 UNL A   1      14.551  17.929   9.737  1.00  0.00    +0.000 C 
ATOM     75  C50 UNL A   1      15.665  17.427   9.170  1.00  0.00    +0.000 C 
ATOM     76  C51 UNL A   1      16.399  16.258   9.640  1.00  0.00    +0.000 C 
ATOM     77  C52 UNL A   1      17.502  16.103   8.891  1.00  0.00    +0.000 C 
ATOM     78  C53 UNL A   1      17.527  17.137   7.856  1.00  0.00    +0.000 C 
ATOM     79  N6  UNL A   1      16.383  17.861   8.081  1.00  0.00    +0.000 N 
ATOM     80  C54 UNL A   1      12.705  19.663   9.809  1.00  0.00    +0.000 C 
ATOM     81  C55 UNL A   1      12.385  20.694   9.037  1.00  0.00    +0.000 C 
ATOM     82  C56 UNL A   1      19.223  19.624   4.323  1.00  0.00    +0.000 C 
ATOM     83  C57 UNL A   1      19.518  18.501   4.962  1.00  0.00    +0.000 C 
ATOM    126  H23 UNL A   1      15.626  23.407   3.366  1.00  0.00    +0.000 H 
ATOM    127  H24 UNL A   1      13.550  23.791   4.897  1.00  0.00    +0.000 H 
ATOM    128  H25 UNL A   1      15.678  20.563   6.377  1.00  0.00    +0.000 H 
ENDROOT
BRANCH   27   26
ATOM    136  H33 UNL A   1      20.584  17.409   8.603  1.00  0.00    +0.000 H 
ATOM    137  H34 UNL A   1      22.529  15.966   8.704  1.00  0.00    +0.000 H 
ATOM     84  C58 UNL A   1      20.674  16.618   7.947  1.00  0.00    +0.000 C 
ATOM     85  C59 UNL A   1      21.771  15.768   8.032  1.00  0.00    +0.000 C 
ATOM     23  C16 UNL A   1      21.843  14.643   7.205  1.00  0.00    +0.000 C 
ATOM     24  C17 UNL A   1      20.898  14.447   6.195  1.00  0.00    +0.000 C 
ATOM     25  C18 UNL A   1      19.830  15.339   6.068  1.00  0.00    +0.000 C 
ATOM     26  C19 UNL A   1      19.686  16.405   6.971  1.00  0.00    +0.000 C 
ATOM    124  H21 UNL A   1      20.987  13.650   5.548  1.00  0.00    +0.000 H 
ATOM    125  H22 UNL A   1      19.145  15.215   5.307  1.00  0.00    +0.000 H 
BRANCH   23   21
ATOM     21  C15 UNL A   1      22.910  13.639   7.397  1.00  0.00    +0.000 C 
ATOM     22  O4  UNL A   1      22.823  12.818   8.304  1.00  0.00    +0.000 O 
BRANCH   21   20
ATOM    123  H20 UNL A   1      24.361  12.759   6.323  1.00  0.00    +0.000 H 
ATOM     20  N2  UNL A   1      24.000  13.644   6.562  1.00  0.00    +0.000 N 
BRANCH   20   19
ATOM    121  H18 UNL A   1      25.282  14.449   5.153  1.00  0.00    +0.000 H 
ATOM    122  H19 UNL A   1      23.956  15.495   5.669  1.00  0.00    +0.000 H 
ATOM     19  C14 UNL A   1      24.693  14.786   5.981  1.00  0.00    +0.000 C 
BRANCH   19   18
ATOM     18  C13 UNL A   1      25.609  15.471   6.991  1.00  0.00    +0.000 C 
ATOM    119  H16 UNL A   1      25.081  16.302   7.413  1.00  0.00    +0.000 H 
ATOM    120  H17 UNL A   1      25.871  14.733   7.719  1.00  0.00    +0.000 H 
BRANCH   18   17
ATOM     17  C12 UNL A   1      26.921  15.989   6.398  1.00  0.00    +0.000 C 
ATOM    117  H14 UNL A   1      27.529  15.144   6.148  1.00  0.00    +0.000 H 
ATOM    118  H15 UNL A   1      26.652  16.583   5.549  1.00  0.00    +0.000 H 
BRANCH   17   16
ATOM    115  H12 UNL A   1      27.046  17.492   7.894  1.00  0.00    +0.000 H 
ATOM    116  H13 UNL A   1      28.341  16.258   7.922  1.00  0.00    +0.000 H 
ATOM     16  C11 UNL A   1      27.733  16.903   7.323  1.00  0.00    +0.000 C 
BRANCH   16   15
ATOM    113  H10 UNL A   1      28.394  18.866   6.809  1.00  0.00    +0.000 H 
ATOM    114  H11 UNL A   1      29.683  17.655   6.986  1.00  0.00    +0.000 H 
ATOM     15  C10 UNL A   1      28.702  17.861   6.609  1.00  0.00    +0.000 C 
BRANCH   15   14
ATOM     14  C9  UNL A   1      28.752  17.662   5.091  1.00  0.00    +0.000 C 
ATOM    111  H8  UNL A   1      29.715  17.289   4.812  1.00  0.00    +0.000 H 
ATOM    112  H9  UNL A   1      27.997  16.961   4.801  1.00  0.00    +0.000 H 
BRANCH   14   13
ATOM     13  N1  UNL A   1      28.513  18.926   4.423  1.00  0.00    +0.000 N 
ATOM    110  H7  UNL A   1      29.144  19.631   4.696  1.00  0.00    +0.000 H 
BRANCH   13   11
ATOM     11  C8  UNL A   1      27.607  19.348   3.503  1.00  0.00    +0.000 C 
ATOM     12  O3  UNL A   1      27.811  20.466   3.026  1.00  0.00    +0.000 O 
BRANCH   11   10
ATOM     10  C7  UNL A   1      26.350  18.581   3.153  1.00  0.00    +0.000 C 
BRANCH   10    9
ATOM      9  C6  UNL A   1      26.160  18.008   1.940  1.00  0.00    +0.000 C 
ATOM    109  H6  UNL A   1      26.245  16.980   1.919  1.00  0.00    +0.000 H 
BRANCH    9    8
ATOM      5  C2  UNL A   1      25.434  19.740  -1.919  1.00  0.00    +0.000 C 
ATOM    102  C73 UNL A   1      26.929  19.110  -0.131  1.00  0.00    +0.000 C 
ATOM      6  C3  UNL A   1      24.342  19.334  -1.151  1.00  0.00    +0.000 C 
ATOM    103  C74 UNL A   1      26.728  19.655  -1.403  1.00  0.00    +0.000 C 
ATOM      7  C4  UNL A   1      24.553  18.810   0.132  1.00  0.00    +0.000 C 
ATOM      8  C5  UNL A   1      25.849  18.648   0.640  1.00  0.00    +0.000 C 
ATOM    107  H4  UNL A   1      23.384  19.418  -1.525  1.00  0.00    +0.000 H 
ATOM    108  H5  UNL A   1      23.743  18.540   0.710  1.00  0.00    +0.000 H 
ATOM    149  H46 UNL A   1      27.887  19.047   0.248  1.00  0.00    +0.000 H 
ATOM    150  H47 UNL A   1      27.531  19.991  -1.958  1.00  0.00    +0.000 H 
BRANCH    5    2
ATOM      2  S1  UNL A   1      25.178  20.401  -3.551  1.00  0.00    +0.000 S 
ATOM      3  O1  UNL A   1      24.316  21.561  -3.417  1.00  0.00    +0.000 O 
ATOM      4  O2  UNL A   1      24.801  19.282  -4.392  1.00  0.00    +0.000 O 
BRANCH    2    1
ATOM      1  C1  UNL A   1      26.769  20.985  -4.076  1.00  0.00    +0.000 C 
ATOM    106  H3  UNL A   1      27.041  21.845  -3.502  1.00  0.00    +0.000 H 
ATOM    105  H2  UNL A   1      27.497  20.214  -3.932  1.00  0.00    +0.000 H 
ATOM    104  H1  UNL A   1      26.728  21.247  -5.113  1.00  0.00    +0.000 H 
ENDBRANCH    2    1
ENDBRANCH    5    2
ENDBRANCH    9    8
ENDBRANCH   10    9
BRANCH   10   86
ATOM    101  C72 UNL A   1      25.429  19.120   5.445  1.00  0.00    +0.000 C 
ATOM    138  H35 UNL A   1      23.858  17.687   2.858  1.00  0.00    +0.000 H 
ATOM    139  H36 UNL A   1      22.088  17.514   4.499  1.00  0.00    +0.000 H 
ATOM    140  H37 UNL A   1      22.477  18.247   6.772  1.00  0.00    +0.000 H 
ATOM    148  H45 UNL A   1      26.301  19.622   5.679  1.00  0.00    +0.000 H 
ATOM     86  C60 UNL A   1      25.244  18.627   4.147  1.00  0.00    +0.000 C 
ATOM     87  C61 UNL A   1      24.013  18.038   3.816  1.00  0.00    +0.000 C 
ATOM     88  C62 UNL A   1      22.999  17.921   4.763  1.00  0.00    +0.000 C 
ATOM     89  C63 UNL A   1      23.221  18.356   6.065  1.00  0.00    +0.000 C 
ATOM     90  C64 UNL A   1      24.444  18.941   6.433  1.00  0.00    +0.000 C 
BRANCH   90   91
ATOM     99  C70 UNL A   1      25.915  20.516   9.548  1.00  0.00    +0.000 C 
ATOM    100  C71 UNL A   1      25.583  20.299   8.209  1.00  0.00    +0.000 C 
ATOM    141  H38 UNL A   1      23.607  17.620   8.597  1.00  0.00    +0.000 H 
ATOM    142  H39 UNL A   1      24.195  17.976  10.921  1.00  0.00    +0.000 H 
ATOM    146  H43 UNL A   1      26.535  21.299   9.811  1.00  0.00    +0.000 H 
ATOM    147  H44 UNL A   1      25.959  20.927   7.482  1.00  0.00    +0.000 H 
ATOM     91  C65 UNL A   1      24.743  19.237   7.841  1.00  0.00    +0.000 C 
ATOM     92  C66 UNL A   1      24.235  18.398   8.852  1.00  0.00    +0.000 C 
ATOM     93  C67 UNL A   1      24.565  18.603  10.190  1.00  0.00    +0.000 C 
ATOM     94  C68 UNL A   1      25.403  19.665  10.529  1.00  0.00    +0.000 C 
BRANCH   94   95
ATOM     97  O5  UNL A   1      24.727  19.438  13.020  1.00  0.00    +0.000 O 
ATOM     98  O6  UNL A   1      27.174  19.290  12.413  1.00  0.00    +0.000 O 
ATOM     95  S2  UNL A   1      25.860  19.878  12.232  1.00  0.00    +0.000 S 
BRANCH   95   96
ATOM    145  H42 UNL A   1      26.676  22.011  11.648  1.00  0.00    +0.000 H 
ATOM    144  H41 UNL A   1      25.060  22.094  12.308  1.00  0.00    +0.000 H 
ATOM    143  H40 UNL A   1      26.428  21.862  13.371  1.00  0.00    +0.000 H 
ATOM     96  C69 UNL A   1      26.022  21.635  12.407  1.00  0.00    +0.000 C 
ENDBRANCH   95   96
ENDBRANCH   94   95
ENDBRANCH   90   91
ENDBRANCH   10   86
ENDBRANCH   11   10
ENDBRANCH   13   11
ENDBRANCH   14   13
ENDBRANCH   15   14
ENDBRANCH   16   15
ENDBRANCH   17   16
ENDBRANCH   18   17
ENDBRANCH   19   18
ENDBRANCH   20   19
ENDBRANCH   21   20
ENDBRANCH   23   21
ENDBRANCH   27   26
BRANCH   31   32
ATOM     33  C25 UNL A   1      17.797  21.589   1.785  1.00  0.00    +0.000 C 
ATOM     34  F1  UNL A   1      16.960  20.577   1.510  1.00  0.00    +0.000 F 
ATOM     35  C26 UNL A   1      18.431  22.240   0.730  1.00  0.00    +0.000 C 
ATOM     36  F2  UNL A   1      18.208  21.845  -0.531  1.00  0.00    +0.000 F 
ATOM     37  C27 UNL A   1      19.303  23.287   0.983  1.00  0.00    +0.000 C 
ATOM     38  F3  UNL A   1      19.908  23.918  -0.034  1.00  0.00    +0.000 F 
ATOM     39  C28 UNL A   1      19.555  23.678   2.290  1.00  0.00    +0.000 C 
ATOM     40  F4  UNL A   1      20.387  24.698   2.534  1.00  0.00    +0.000 F 
ATOM     41  C29 UNL A   1      18.944  23.010   3.348  1.00  0.00    +0.000 C 
ATOM     42  F5  UNL A   1      19.220  23.401   4.601  1.00  0.00    +0.000 F 
ATOM     32  C24 UNL A   1      18.052  21.951   3.116  1.00  0.00    +0.000 C 
ENDBRANCH   31   32
BRANCH   48   49
ATOM     49  C35 UNL A   1      12.159  22.844   7.161  1.00  0.00    +0.000 C 
ATOM     50  C36 UNL A   1      12.260  24.044   7.881  1.00  0.00    +0.000 C 
ATOM     51  F6  UNL A   1      13.376  24.326   8.568  1.00  0.00    +0.000 F 
ATOM     52  C37 UNL A   1      11.198  24.943   7.921  1.00  0.00    +0.000 C 
ATOM     53  F7  UNL A   1      11.302  26.066   8.646  1.00  0.00    +0.000 F 
ATOM     54  C38 UNL A   1      10.031  24.677   7.221  1.00  0.00    +0.000 C 
ATOM     55  F8  UNL A   1       9.016  25.551   7.251  1.00  0.00    +0.000 F 
ATOM     56  C39 UNL A   1       9.914  23.501   6.494  1.00  0.00    +0.000 C 
ATOM     57  F9  UNL A   1       8.792  23.248   5.806  1.00  0.00    +0.000 F 
ATOM     58  C40 UNL A   1      10.963  22.587   6.474  1.00  0.00    +0.000 C 
ATOM     59  F10 UNL A   1      10.819  21.456   5.767  1.00  0.00    +0.000 F 
ENDBRANCH   48   49
BRANCH   63   64
ATOM     65  C45 UNL A   1      12.978  16.268  10.771  1.00  0.00    +0.000 C 
ATOM     66  F11 UNL A   1      12.552  15.933   9.544  1.00  0.00    +0.000 F 
ATOM     67  C46 UNL A   1      12.406  15.645  11.877  1.00  0.00    +0.000 C 
ATOM     68  F12 UNL A   1      11.443  14.730  11.705  1.00  0.00    +0.000 F 
ATOM     69  C47 UNL A   1      12.822  15.980  13.157  1.00  0.00    +0.000 C 
ATOM     70  F13 UNL A   1      12.277  15.376  14.221  1.00  0.00    +0.000 F 
ATOM     71  C48 UNL A   1      13.801  16.947  13.332  1.00  0.00    +0.000 C 
ATOM     72  F14 UNL A   1      14.218  17.262  14.565  1.00  0.00    +0.000 F 
ATOM     73  C49 UNL A   1      14.354  17.590  12.227  1.00  0.00    +0.000 C 
ATOM     74  F15 UNL A   1      15.291  18.529  12.426  1.00  0.00    +0.000 F 
ATOM     64  C44 UNL A   1      13.957  17.260  10.923  1.00  0.00    +0.000 C 
ENDBRANCH   63   64
TORSDOF 23
ENDMDL
MODEL 4
REMARK VINA RESULT:      -7.9     50.137     54.091
ROOT
ATOM    129  H26 UNL A   1      21.634   1.130  10.461  1.00  0.00    +0.000 H 
ATOM    130  H27 UNL A   1      23.763  -0.211  10.121  1.00  0.00    +0.000 H 
ATOM    131  H28 UNL A   1      24.135   3.332   7.979  1.00  0.00    +0.000 H 
ATOM    132  H29 UNL A   1      20.059   6.056   9.109  1.00  0.00    +0.000 H 
ATOM    133  H30 UNL A   1      21.003   7.870   7.569  1.00  0.00    +0.000 H 
ATOM    134  H31 UNL A   1      29.342   2.449   6.150  1.00  0.00    +0.000 H 
ATOM    135  H32 UNL A   1      28.265   0.472   7.371  1.00  0.00    +0.000 H 
ATOM     27  C20 UNL A   1      25.701   1.062   8.461  1.00  0.00    +0.000 C 
ATOM     28  C21 UNL A   1      26.553   1.943   7.594  1.00  0.00    +0.000 C 
ATOM     29  N3  UNL A   1      26.313   3.152   7.153  1.00  0.00    +0.000 N 
ATOM     30  C22 UNL A   1      27.441   3.522   6.434  1.00  0.00    +0.000 C 
ATOM     31  C23 UNL A   1      27.658   4.662   5.735  1.00  0.00    +0.000 C 
ATOM     43  C30 UNL A   1      26.707   5.735   5.619  1.00  0.00    +0.000 C 
ATOM     44  C31 UNL A   1      26.805   6.899   4.878  1.00  0.00    +0.000 C 
ATOM     45  C32 UNL A   1      25.662   7.669   5.119  1.00  0.00    +0.000 C 
ATOM     46  C33 UNL A   1      24.829   6.962   5.972  1.00  0.00    +0.000 C 
ATOM     47  N4  UNL A   1      25.482   5.776   6.269  1.00  0.00    +0.000 N 
ATOM     48  C34 UNL A   1      23.539   7.345   6.488  1.00  0.00    +0.000 C 
ATOM     60  C41 UNL A   1      22.759   6.574   7.283  1.00  0.00    +0.000 C 
ATOM     61  N5  UNL A   1      23.002   5.296   7.768  1.00  0.00    +0.000 N 
ATOM     62  C42 UNL A   1      21.961   4.984   8.500  1.00  0.00    +0.000 C 
ATOM     63  C43 UNL A   1      21.679   3.713   9.254  1.00  0.00    +0.000 C 
ATOM     75  C50 UNL A   1      22.579   2.711   9.216  1.00  0.00    +0.000 C 
ATOM     76  C51 UNL A   1      22.452   1.435   9.910  1.00  0.00    +0.000 C 
ATOM     77  C52 UNL A   1      23.572   0.719   9.719  1.00  0.00    +0.000 C 
ATOM     78  C53 UNL A   1      24.477   1.470   8.847  1.00  0.00    +0.000 C 
ATOM     79  N6  UNL A   1      23.791   2.628   8.576  1.00  0.00    +0.000 N 
ATOM     80  C54 UNL A   1      20.944   6.042   8.579  1.00  0.00    +0.000 C 
ATOM     81  C55 UNL A   1      21.464   6.974   7.791  1.00  0.00    +0.000 C 
ATOM     82  C56 UNL A   1      28.386   2.431   6.537  1.00  0.00    +0.000 C 
ATOM     83  C57 UNL A   1      27.861   1.405   7.191  1.00  0.00    +0.000 C 
ATOM    126  H23 UNL A   1      27.587   7.155   4.255  1.00  0.00    +0.000 H 
ATOM    127  H24 UNL A   1      25.471   8.604   4.728  1.00  0.00    +0.000 H 
ATOM    128  H25 UNL A   1      25.128   5.068   6.854  1.00  0.00    +0.000 H 
ENDROOT
BRANCH   27   26
ATOM    136  H33 UNL A   1      27.132   0.661  10.679  1.00  0.00    +0.000 H 
ATOM    137  H34 UNL A   1      28.012  -1.416  11.564  1.00  0.00    +0.000 H 
ATOM     84  C58 UNL A   1      26.955  -0.227  10.183  1.00  0.00    +0.000 C 
ATOM     85  C59 UNL A   1      27.427  -1.423  10.713  1.00  0.00    +0.000 C 
ATOM     23  C16 UNL A   1      27.106  -2.632  10.091  1.00  0.00    +0.000 C 
ATOM     24  C17 UNL A   1      26.440  -2.640   8.863  1.00  0.00    +0.000 C 
ATOM     25  C18 UNL A   1      26.023  -1.432   8.297  1.00  0.00    +0.000 C 
ATOM     26  C19 UNL A   1      26.238  -0.221   8.976  1.00  0.00    +0.000 C 
ATOM    124  H21 UNL A   1      26.258  -3.530   8.377  1.00  0.00    +0.000 H 
ATOM    125  H22 UNL A   1      25.556  -1.430   7.377  1.00  0.00    +0.000 H 
BRANCH   23   21
ATOM     21  C15 UNL A   1      27.451  -3.919  10.731  1.00  0.00    +0.000 C 
ATOM     22  O4  UNL A   1      26.566  -4.638  11.180  1.00  0.00    +0.000 O 
BRANCH   21   20
ATOM    123  H20 UNL A   1      29.114  -4.414  11.743  1.00  0.00    +0.000 H 
ATOM     20  N2  UNL A   1      28.770  -4.291  10.828  1.00  0.00    +0.000 N 
BRANCH   20   19
ATOM    121  H18 UNL A   1      30.308  -5.395   9.997  1.00  0.00    +0.000 H 
ATOM    122  H19 UNL A   1      29.179  -4.669   8.849  1.00  0.00    +0.000 H 
ATOM     19  C14 UNL A   1      29.727  -4.528   9.757  1.00  0.00    +0.000 C 
BRANCH   19   18
ATOM     18  C13 UNL A   1      30.669  -3.343   9.560  1.00  0.00    +0.000 C 
ATOM    119  H16 UNL A   1      30.645  -2.746  10.448  1.00  0.00    +0.000 H 
ATOM    120  H17 UNL A   1      31.638  -3.751   9.360  1.00  0.00    +0.000 H 
BRANCH   18   17
ATOM     17  C12 UNL A   1      30.313  -2.449   8.370  1.00  0.00    +0.000 C 
ATOM    117  H14 UNL A   1      30.177  -3.076   7.513  1.00  0.00    +0.000 H 
ATOM    118  H15 UNL A   1      29.428  -1.917   8.651  1.00  0.00    +0.000 H 
BRANCH   17   16
ATOM    115  H12 UNL A   1      30.850  -0.476   7.793  1.00  0.00    +0.000 H 
ATOM    116  H13 UNL A   1      32.005  -1.311   8.875  1.00  0.00    +0.000 H 
ATOM     16  C11 UNL A   1      31.362  -1.387   8.022  1.00  0.00    +0.000 C 
BRANCH   16   15
ATOM    113  H10 UNL A   1      32.267  -2.794   6.697  1.00  0.00    +0.000 H 
ATOM    114  H11 UNL A   1      31.888  -1.213   5.979  1.00  0.00    +0.000 H 
ATOM     15  C10 UNL A   1      32.273  -1.733   6.832  1.00  0.00    +0.000 C 
BRANCH   15   14
ATOM     14  C9  UNL A   1      33.724  -1.277   7.020  1.00  0.00    +0.000 C 
ATOM    111  H8  UNL A   1      34.353  -2.134   7.144  1.00  0.00    +0.000 H 
ATOM    112  H9  UNL A   1      34.035  -0.724   6.159  1.00  0.00    +0.000 H 
BRANCH   14   13
ATOM     13  N1  UNL A   1      33.823  -0.433   8.194  1.00  0.00    +0.000 N 
ATOM    110  H7  UNL A   1      33.816  -0.941   9.037  1.00  0.00    +0.000 H 
BRANCH   13   11
ATOM     11  C8  UNL A   1      33.924   0.909   8.382  1.00  0.00    +0.000 C 
ATOM     12  O3  UNL A   1      34.910   1.287   9.019  1.00  0.00    +0.000 O 
BRANCH   11   10
ATOM     10  C7  UNL A   1      32.855   1.896   7.964  1.00  0.00    +0.000 C 
BRANCH   10    9
ATOM      9  C6  UNL A   1      32.867   2.515   6.760  1.00  0.00    +0.000 C 
ATOM    109  H6  UNL A   1      33.211   3.487   6.766  1.00  0.00    +0.000 H 
BRANCH    9    8
ATOM      5  C2  UNL A   1      31.878   0.906   2.906  1.00  0.00    +0.000 C 
ATOM    102  C73 UNL A   1      33.385   2.075   4.386  1.00  0.00    +0.000 C 
ATOM      6  C3  UNL A   1      30.919   0.857   3.918  1.00  0.00    +0.000 C 
ATOM    103  C74 UNL A   1      33.103   1.537   3.126  1.00  0.00    +0.000 C 
ATOM      7  C4  UNL A   1      31.203   1.419   5.169  1.00  0.00    +0.000 C 
ATOM      8  C5  UNL A   1      32.453   1.994   5.435  1.00  0.00    +0.000 C 
ATOM    107  H4  UNL A   1      30.006   0.409   3.746  1.00  0.00    +0.000 H 
ATOM    108  H5  UNL A   1      30.481   1.411   5.906  1.00  0.00    +0.000 H 
ATOM    149  H46 UNL A   1      34.291   2.541   4.547  1.00  0.00    +0.000 H 
ATOM    150  H47 UNL A   1      33.797   1.605   2.365  1.00  0.00    +0.000 H 
BRANCH    5    2
ATOM      2  S1  UNL A   1      31.531   0.189   1.315  1.00  0.00    +0.000 S 
ATOM      3  O1  UNL A   1      32.126  -1.135   1.298  1.00  0.00    +0.000 O 
ATOM      4  O2  UNL A   1      31.897   1.186   0.327  1.00  0.00    +0.000 O 
BRANCH    2    1
ATOM      1  C1  UNL A   1      29.771  -0.024   1.269  1.00  0.00    +0.000 C 
ATOM    106  H3  UNL A   1      29.306   0.715   1.886  1.00  0.00    +0.000 H 
ATOM    105  H2  UNL A   1      29.425   0.082   0.262  1.00  0.00    +0.000 H 
ATOM    104  H1  UNL A   1      29.520  -0.999   1.631  1.00  0.00    +0.000 H 
ENDBRANCH    2    1
ENDBRANCH    5    2
ENDBRANCH    9    8
ENDBRANCH   10    9
BRANCH   10   86
ATOM    101  C72 UNL A   1      31.604   1.489  10.123  1.00  0.00    +0.000 C 
ATOM    138  H35 UNL A   1      31.295   4.054   7.993  1.00  0.00    +0.000 H 
ATOM    139  H36 UNL A   1      29.516   4.639   9.525  1.00  0.00    +0.000 H 
ATOM    140  H37 UNL A   1      28.980   3.164  11.367  1.00  0.00    +0.000 H 
ATOM    148  H45 UNL A   1      32.215   0.682  10.327  1.00  0.00    +0.000 H 
ATOM     86  C60 UNL A   1      31.872   2.293   9.007  1.00  0.00    +0.000 C 
ATOM     87  C61 UNL A   1      31.095   3.445   8.801  1.00  0.00    +0.000 C 
ATOM     88  C62 UNL A   1      30.060   3.774   9.671  1.00  0.00    +0.000 C 
ATOM     89  C63 UNL A   1      29.763   2.931  10.737  1.00  0.00    +0.000 C 
ATOM     90  C64 UNL A   1      30.513   1.766  10.967  1.00  0.00    +0.000 C 
BRANCH   90   91
ATOM     99  C70 UNL A   1      28.869   0.208  14.004  1.00  0.00    +0.000 C 
ATOM    100  C71 UNL A   1      29.198   1.129  13.007  1.00  0.00    +0.000 C 
ATOM    141  H38 UNL A   1      31.297  -0.774  11.217  1.00  0.00    +0.000 H 
ATOM    142  H39 UNL A   1      30.750  -2.372  12.954  1.00  0.00    +0.000 H 
ATOM    146  H43 UNL A   1      28.212   0.466  14.756  1.00  0.00    +0.000 H 
ATOM    147  H44 UNL A   1      28.777   2.072  13.025  1.00  0.00    +0.000 H 
ATOM     91  C65 UNL A   1      30.092   0.789  11.980  1.00  0.00    +0.000 C 
ATOM     92  C66 UNL A   1      30.646  -0.506  11.972  1.00  0.00    +0.000 C 
ATOM     93  C67 UNL A   1      30.330  -1.431  12.965  1.00  0.00    +0.000 C 
ATOM     94  C68 UNL A   1      29.439  -1.067  13.975  1.00  0.00    +0.000 C 
BRANCH   94   95
ATOM     97  O5  UNL A   1      30.272  -3.064  15.400  1.00  0.00    +0.000 O 
ATOM     98  O6  UNL A   1      28.556  -1.501  16.395  1.00  0.00    +0.000 O 
ATOM     95  S2  UNL A   1      29.090  -2.237  15.264  1.00  0.00    +0.000 S 
BRANCH   95   96
ATOM    145  H42 UNL A   1      28.145  -4.213  14.395  1.00  0.00    +0.000 H 
ATOM    144  H41 UNL A   1      26.975  -3.277  15.295  1.00  0.00    +0.000 H 
ATOM    143  H40 UNL A   1      27.433  -2.786  13.681  1.00  0.00    +0.000 H 
ATOM     96  C69 UNL A   1      27.781  -3.226  14.592  1.00  0.00    +0.000 C 
ENDBRANCH   95   96
ENDBRANCH   94   95
ENDBRANCH   90   91
ENDBRANCH   10   86
ENDBRANCH   11   10
ENDBRANCH   13   11
ENDBRANCH   14   13
ENDBRANCH   15   14
ENDBRANCH   16   15
ENDBRANCH   17   16
ENDBRANCH   18   17
ENDBRANCH   19   18
ENDBRANCH   20   19
ENDBRANCH   21   20
ENDBRANCH   23   21
ENDBRANCH   27   26
BRANCH   31   32
ATOM     33  C25 UNL A   1      30.079   5.413   5.668  1.00  0.00    +0.000 C 
ATOM     34  F1  UNL A   1      29.953   5.922   6.903  1.00  0.00    +0.000 F 
ATOM     35  C26 UNL A   1      31.303   5.531   5.016  1.00  0.00    +0.000 C 
ATOM     36  F2  UNL A   1      32.324   6.155   5.619  1.00  0.00    +0.000 F 
ATOM     37  C27 UNL A   1      31.463   5.016   3.739  1.00  0.00    +0.000 C 
ATOM     38  F3  UNL A   1      32.645   5.124   3.115  1.00  0.00    +0.000 F 
ATOM     39  C28 UNL A   1      30.398   4.394   3.105  1.00  0.00    +0.000 C 
ATOM     40  F4  UNL A   1      30.555   3.884   1.877  1.00  0.00    +0.000 F 
ATOM     41  C29 UNL A   1      29.164   4.300   3.744  1.00  0.00    +0.000 C 
ATOM     42  F5  UNL A   1      28.148   3.706   3.099  1.00  0.00    +0.000 F 
ATOM     32  C24 UNL A   1      28.980   4.807   5.039  1.00  0.00    +0.000 C 
ENDBRANCH   31   32
BRANCH   48   49
ATOM     49  C35 UNL A   1      23.009   8.694   6.102  1.00  0.00    +0.000 C 
ATOM     50  C36 UNL A   1      22.186   8.862   4.979  1.00  0.00    +0.000 C 
ATOM     51  F6  UNL A   1      21.913   7.820   4.180  1.00  0.00    +0.000 F 
ATOM     52  C37 UNL A   1      21.665  10.112   4.656  1.00  0.00    +0.000 C 
ATOM     53  F7  UNL A   1      20.912  10.259   3.557  1.00  0.00    +0.000 F 
ATOM     54  C38 UNL A   1      21.931  11.208   5.463  1.00  0.00    +0.000 C 
ATOM     55  F8  UNL A   1      21.419  12.408   5.157  1.00  0.00    +0.000 F 
ATOM     56  C39 UNL A   1      22.734  11.062   6.585  1.00  0.00    +0.000 C 
ATOM     57  F9  UNL A   1      22.982  12.117   7.373  1.00  0.00    +0.000 F 
ATOM     58  C40 UNL A   1      23.279   9.819   6.895  1.00  0.00    +0.000 C 
ATOM     59  F10 UNL A   1      24.056   9.709   7.983  1.00  0.00    +0.000 F 
ENDBRANCH   48   49
BRANCH   63   64
ATOM     65  C45 UNL A   1      19.255   3.076   9.406  1.00  0.00    +0.000 C 
ATOM     66  F11 UNL A   1      19.266   2.788   8.095  1.00  0.00    +0.000 F 
ATOM     67  C46 UNL A   1      18.067   2.932  10.119  1.00  0.00    +0.000 C 
ATOM     68  F12 UNL A   1      16.959   2.516   9.492  1.00  0.00    +0.000 F 
ATOM     69  C47 UNL A   1      18.027   3.231  11.472  1.00  0.00    +0.000 C 
ATOM     70  F13 UNL A   1      16.887   3.086  12.160  1.00  0.00    +0.000 F 
ATOM     71  C48 UNL A   1      19.171   3.686  12.111  1.00  0.00    +0.000 C 
ATOM     72  F14 UNL A   1      19.141   3.960  13.422  1.00  0.00    +0.000 F 
ATOM     73  C49 UNL A   1      20.352   3.856  11.393  1.00  0.00    +0.000 C 
ATOM     74  F15 UNL A   1      21.441   4.307  12.034  1.00  0.00    +0.000 F 
ATOM     64  C44 UNL A   1      20.420   3.549  10.026  1.00  0.00    +0.000 C 
ENDBRANCH   63   64
TORSDOF 23
ENDMDL
MODEL 5
REMARK VINA RESULT:      -7.9     47.207     50.409
ROOT
ATOM    129  H26 UNL A   1      17.566  50.951  -2.346  1.00  0.00    +0.000 H 
ATOM    130  H27 UNL A   1      17.781  53.481  -2.333  1.00  0.00    +0.000 H 
ATOM    131  H28 UNL A   1      15.978  52.339   1.234  1.00  0.00    +0.000 H 
ATOM    132  H29 UNL A   1      16.031  47.308   1.252  1.00  0.00    +0.000 H 
ATOM    133  H30 UNL A   1      14.893  47.433   3.542  1.00  0.00    +0.000 H 
ATOM    134  H31 UNL A   1      15.648  57.451   3.468  1.00  0.00    +0.000 H 
ATOM    135  H32 UNL A   1      16.435  57.374   1.032  1.00  0.00    +0.000 H 
ATOM     27  C20 UNL A   1      16.785  54.733   0.028  1.00  0.00    +0.000 C 
ATOM     28  C21 UNL A   1      16.229  55.139   1.362  1.00  0.00    +0.000 C 
ATOM     29  N3  UNL A   1      15.789  54.388   2.340  1.00  0.00    +0.000 N 
ATOM     30  C22 UNL A   1      15.431  55.263   3.356  1.00  0.00    +0.000 C 
ATOM     31  C23 UNL A   1      14.868  54.978   4.554  1.00  0.00    +0.000 C 
ATOM     43  C30 UNL A   1      14.535  53.650   4.996  1.00  0.00    +0.000 C 
ATOM     44  C31 UNL A   1      13.899  53.263   6.164  1.00  0.00    +0.000 C 
ATOM     45  C32 UNL A   1      13.842  51.865   6.187  1.00  0.00    +0.000 C 
ATOM     46  C33 UNL A   1      14.398  51.383   5.013  1.00  0.00    +0.000 C 
ATOM     47  N4  UNL A   1      14.816  52.489   4.291  1.00  0.00    +0.000 N 
ATOM     48  C34 UNL A   1      14.546  50.015   4.586  1.00  0.00    +0.000 C 
ATOM     60  C41 UNL A   1      15.058  49.623   3.394  1.00  0.00    +0.000 C 
ATOM     61  N5  UNL A   1      15.539  50.404   2.353  1.00  0.00    +0.000 N 
ATOM     62  C42 UNL A   1      15.935  49.566   1.426  1.00  0.00    +0.000 C 
ATOM     63  C43 UNL A   1      16.527  49.857   0.074  1.00  0.00    +0.000 C 
ATOM     75  C50 UNL A   1      16.701  51.138  -0.306  1.00  0.00    +0.000 C 
ATOM     76  C51 UNL A   1      17.279  51.572  -1.573  1.00  0.00    +0.000 C 
ATOM     77  C52 UNL A   1      17.380  52.911  -1.572  1.00  0.00    +0.000 C 
ATOM     78  C53 UNL A   1      16.829  53.432  -0.320  1.00  0.00    +0.000 C 
ATOM     79  N6  UNL A   1      16.424  52.309   0.357  1.00  0.00    +0.000 N 
ATOM     80  C54 UNL A   1      15.770  48.151   1.787  1.00  0.00    +0.000 C 
ATOM     81  C55 UNL A   1      15.198  48.243   2.981  1.00  0.00    +0.000 C 
ATOM     82  C56 UNL A   1      15.749  56.598   2.897  1.00  0.00    +0.000 C 
ATOM     83  C57 UNL A   1      16.187  56.581   1.646  1.00  0.00    +0.000 C 
ATOM    126  H23 UNL A   1      13.532  53.896   6.891  1.00  0.00    +0.000 H 
ATOM    127  H24 UNL A   1      13.451  51.290   6.950  1.00  0.00    +0.000 H 
ATOM    128  H25 UNL A   1      15.249  52.456   3.407  1.00  0.00    +0.000 H 
ENDROOT
BRANCH   27   26
ATOM    136  H33 UNL A   1      19.304  55.616  -0.012  1.00  0.00    +0.000 H 
ATOM    137  H34 UNL A   1      20.314  57.260  -1.479  1.00  0.00    +0.000 H 
ATOM     84  C58 UNL A   1      18.739  56.065  -0.750  1.00  0.00    +0.000 C 
ATOM     85  C59 UNL A   1      19.330  56.979  -1.616  1.00  0.00    +0.000 C 
ATOM     23  C16 UNL A   1      18.587  57.514  -2.672  1.00  0.00    +0.000 C 
ATOM     24  C17 UNL A   1      17.219  57.252  -2.777  1.00  0.00    +0.000 C 
ATOM     25  C18 UNL A   1      16.611  56.384  -1.867  1.00  0.00    +0.000 C 
ATOM     26  C19 UNL A   1      17.376  55.750  -0.875  1.00  0.00    +0.000 C 
ATOM    124  H21 UNL A   1      16.662  57.696  -3.522  1.00  0.00    +0.000 H 
ATOM    125  H22 UNL A   1      15.596  56.209  -1.924  1.00  0.00    +0.000 H 
BRANCH   23   21
ATOM     21  C15 UNL A   1      19.242  58.350  -3.700  1.00  0.00    +0.000 C 
ATOM     22  O4  UNL A   1      18.667  58.585  -4.757  1.00  0.00    +0.000 O 
BRANCH   21   20
ATOM    123  H20 UNL A   1      21.247  58.292  -3.788  1.00  0.00    +0.000 H 
ATOM     20  N2  UNL A   1      20.501  58.847  -3.464  1.00  0.00    +0.000 N 
BRANCH   20   19
ATOM    121  H18 UNL A   1      19.991  60.649  -2.587  1.00  0.00    +0.000 H 
ATOM    122  H19 UNL A   1      21.397  59.832  -1.898  1.00  0.00    +0.000 H 
ATOM     19  C14 UNL A   1      20.877  60.086  -2.798  1.00  0.00    +0.000 C 
BRANCH   19   18
ATOM     18  C13 UNL A   1      21.808  60.936  -3.658  1.00  0.00    +0.000 C 
ATOM    119  H16 UNL A   1      22.531  60.289  -4.109  1.00  0.00    +0.000 H 
ATOM    120  H17 UNL A   1      21.192  61.435  -4.376  1.00  0.00    +0.000 H 
BRANCH   18   17
ATOM     17  C12 UNL A   1      22.555  62.026  -2.885  1.00  0.00    +0.000 C 
ATOM    117  H14 UNL A   1      23.498  61.625  -2.575  1.00  0.00    +0.000 H 
ATOM    118  H15 UNL A   1      22.647  62.856  -3.554  1.00  0.00    +0.000 H 
BRANCH   17   16
ATOM    115  H12 UNL A   1      20.964  63.093  -1.968  1.00  0.00    +0.000 H 
ATOM    116  H13 UNL A   1      21.593  61.693  -1.048  1.00  0.00    +0.000 H 
ATOM     16  C11 UNL A   1      21.828  62.552  -1.642  1.00  0.00    +0.000 C 
BRANCH   16   15
ATOM    113  H10 UNL A   1      21.997  64.154  -0.244  1.00  0.00    +0.000 H 
ATOM    114  H11 UNL A   1      23.195  62.856  -0.055  1.00  0.00    +0.000 H 
ATOM     15  C10 UNL A   1      22.660  63.480  -0.741  1.00  0.00    +0.000 C 
BRANCH   15   14
ATOM     14  C9  UNL A   1      23.702  64.302  -1.507  1.00  0.00    +0.000 C 
ATOM    111  H8  UNL A   1      24.162  63.687  -2.253  1.00  0.00    +0.000 H 
ATOM    112  H9  UNL A   1      23.222  65.136  -1.974  1.00  0.00    +0.000 H 
BRANCH   14   13
ATOM     13  N1  UNL A   1      24.715  64.785  -0.590  1.00  0.00    +0.000 N 
ATOM    110  H7  UNL A   1      24.475  65.640  -0.166  1.00  0.00    +0.000 H 
BRANCH   13   11
ATOM     11  C8  UNL A   1      25.924  64.312  -0.189  1.00  0.00    +0.000 C 
ATOM     12  O3  UNL A   1      26.850  64.463  -0.989  1.00  0.00    +0.000 O 
BRANCH   11   10
ATOM     10  C7  UNL A   1      26.135  63.532   1.091  1.00  0.00    +0.000 C 
BRANCH   10    9
ATOM      9  C6  UNL A   1      27.119  63.832   1.973  1.00  0.00    +0.000 C 
ATOM    109  H6  UNL A   1      26.828  64.398   2.785  1.00  0.00    +0.000 H 
BRANCH    9    8
ATOM      5  C2  UNL A   1      31.254  62.688   2.082  1.00  0.00    +0.000 C 
ATOM    102  C73 UNL A   1      29.335  63.779   3.060  1.00  0.00    +0.000 C 
ATOM      6  C3  UNL A   1      30.512  62.407   0.934  1.00  0.00    +0.000 C 
ATOM    103  C74 UNL A   1      30.678  63.396   3.137  1.00  0.00    +0.000 C 
ATOM      7  C4  UNL A   1      29.173  62.815   0.858  1.00  0.00    +0.000 C 
ATOM      8  C5  UNL A   1      28.554  63.464   1.935  1.00  0.00    +0.000 C 
ATOM    107  H4  UNL A   1      30.946  61.902   0.146  1.00  0.00    +0.000 H 
ATOM    108  H5  UNL A   1      28.636  62.635  -0.004  1.00  0.00    +0.000 H 
ATOM    149  H46 UNL A   1      28.911  64.302   3.841  1.00  0.00    +0.000 H 
ATOM    150  H47 UNL A   1      31.240  63.636   3.969  1.00  0.00    +0.000 H 
BRANCH    5    2
ATOM      2  S1  UNL A   1      32.953  62.170   2.192  1.00  0.00    +0.000 S 
ATOM      3  O1  UNL A   1      33.558  62.393   0.893  1.00  0.00    +0.000 O 
ATOM      4  O2  UNL A   1      32.941  60.851   2.794  1.00  0.00    +0.000 O 
BRANCH    2    1
ATOM      1  C1  UNL A   1      33.715  63.297   3.330  1.00  0.00    +0.000 C 
ATOM    106  H3  UNL A   1      32.962  63.758   3.934  1.00  0.00    +0.000 H 
ATOM    105  H2  UNL A   1      34.399  62.763   3.957  1.00  0.00    +0.000 H 
ATOM    104  H1  UNL A   1      34.245  64.050   2.785  1.00  0.00    +0.000 H 
ENDBRANCH    2    1
ENDBRANCH    5    2
ENDBRANCH    9    8
ENDBRANCH   10    9
BRANCH   10   86
ATOM    101  C72 UNL A   1      25.320  61.267   0.320  1.00  0.00    +0.000 C 
ATOM    138  H35 UNL A   1      24.416  62.982   3.051  1.00  0.00    +0.000 H 
ATOM    139  H36 UNL A   1      22.887  61.121   3.269  1.00  0.00    +0.000 H 
ATOM    140  H37 UNL A   1      22.813  59.414   1.555  1.00  0.00    +0.000 H 
ATOM    148  H45 UNL A   1      26.027  61.267  -0.433  1.00  0.00    +0.000 H 
ATOM     86  C60 UNL A   1      25.317  62.302   1.264  1.00  0.00    +0.000 C 
ATOM     87  C61 UNL A   1      24.416  62.235   2.340  1.00  0.00    +0.000 C 
ATOM     88  C62 UNL A   1      23.523  61.174   2.458  1.00  0.00    +0.000 C 
ATOM     89  C63 UNL A   1      23.493  60.188   1.478  1.00  0.00    +0.000 C 
ATOM     90  C64 UNL A   1      24.373  60.228   0.384  1.00  0.00    +0.000 C 
BRANCH   90   91
ATOM     99  C70 UNL A   1      24.642  58.644  -3.046  1.00  0.00    +0.000 C 
ATOM    100  C71 UNL A   1      24.857  59.508  -1.970  1.00  0.00    +0.000 C 
ATOM    141  H38 UNL A   1      22.905  58.000   0.299  1.00  0.00    +0.000 H 
ATOM    142  H39 UNL A   1      22.508  56.509  -1.570  1.00  0.00    +0.000 H 
ATOM    146  H43 UNL A   1      25.110  58.812  -3.951  1.00  0.00    +0.000 H 
ATOM    147  H44 UNL A   1      25.491  60.314  -2.082  1.00  0.00    +0.000 H 
ATOM     91  C65 UNL A   1      24.224  59.290  -0.737  1.00  0.00    +0.000 C 
ATOM     92  C66 UNL A   1      23.370  58.178  -0.605  1.00  0.00    +0.000 C 
ATOM     93  C67 UNL A   1      23.143  57.314  -1.675  1.00  0.00    +0.000 C 
ATOM     94  C68 UNL A   1      23.785  57.553  -2.890  1.00  0.00    +0.000 C 
BRANCH   94   95
ATOM     97  O5  UNL A   1      24.635  55.684  -4.470  1.00  0.00    +0.000 O 
ATOM     98  O6  UNL A   1      22.156  55.848  -4.015  1.00  0.00    +0.000 O 
ATOM     95  S2  UNL A   1      23.441  56.477  -4.260  1.00  0.00    +0.000 S 
BRANCH   95   96
ATOM    145  H42 UNL A   1      22.736  57.088  -6.425  1.00  0.00    +0.000 H 
ATOM    144  H41 UNL A   1      22.684  58.441  -5.320  1.00  0.00    +0.000 H 
ATOM    143  H40 UNL A   1      24.214  57.903  -5.971  1.00  0.00    +0.000 H 
ATOM     96  C69 UNL A   1      23.250  57.587  -5.630  1.00  0.00    +0.000 C 
ENDBRANCH   95   96
ENDBRANCH   94   95
ENDBRANCH   90   91
ENDBRANCH   10   86
ENDBRANCH   11   10
ENDBRANCH   13   11
ENDBRANCH   14   13
ENDBRANCH   15   14
ENDBRANCH   16   15
ENDBRANCH   17   16
ENDBRANCH   18   17
ENDBRANCH   19   18
ENDBRANCH   20   19
ENDBRANCH   21   20
ENDBRANCH   23   21
ENDBRANCH   27   26
BRANCH   31   32
ATOM     33  C25 UNL A   1      13.294  56.684   5.573  1.00  0.00    +0.000 C 
ATOM     34  F1  UNL A   1      12.299  56.227   4.798  1.00  0.00    +0.000 F 
ATOM     35  C26 UNL A   1      13.036  57.742   6.440  1.00  0.00    +0.000 C 
ATOM     36  F2  UNL A   1      11.813  58.290   6.481  1.00  0.00    +0.000 F 
ATOM     37  C27 UNL A   1      14.044  58.238   7.252  1.00  0.00    +0.000 C 
ATOM     38  F3  UNL A   1      13.792  59.252   8.092  1.00  0.00    +0.000 F 
ATOM     39  C28 UNL A   1      15.316  57.688   7.189  1.00  0.00    +0.000 C 
ATOM     40  F4  UNL A   1      16.287  58.158   7.982  1.00  0.00    +0.000 F 
ATOM     41  C29 UNL A   1      15.584  56.649   6.302  1.00  0.00    +0.000 C 
ATOM     42  F5  UNL A   1      16.828  56.149   6.253  1.00  0.00    +0.000 F 
ATOM     32  C24 UNL A   1      14.578  56.126   5.475  1.00  0.00    +0.000 C 
ENDBRANCH   31   32
BRANCH   48   49
ATOM     49  C35 UNL A   1      14.083  48.940   5.523  1.00  0.00    +0.000 C 
ATOM     50  C36 UNL A   1      14.922  48.433   6.527  1.00  0.00    +0.000 C 
ATOM     51  F6  UNL A   1      16.191  48.855   6.623  1.00  0.00    +0.000 F 
ATOM     52  C37 UNL A   1      14.465  47.465   7.418  1.00  0.00    +0.000 C 
ATOM     53  F7  UNL A   1      15.294  46.967   8.346  1.00  0.00    +0.000 F 
ATOM     54  C38 UNL A   1      13.158  47.009   7.342  1.00  0.00    +0.000 C 
ATOM     55  F8  UNL A   1      12.717  46.087   8.209  1.00  0.00    +0.000 F 
ATOM     56  C39 UNL A   1      12.309  47.504   6.363  1.00  0.00    +0.000 C 
ATOM     57  F9  UNL A   1      11.041  47.074   6.297  1.00  0.00    +0.000 F 
ATOM     58  C40 UNL A   1      12.770  48.451   5.454  1.00  0.00    +0.000 C 
ATOM     59  F10 UNL A   1      11.927  48.908   4.515  1.00  0.00    +0.000 F 
ENDBRANCH   48   49
BRANCH   63   64
ATOM     65  C45 UNL A   1      18.192  48.193  -0.796  1.00  0.00    +0.000 C 
ATOM     66  F11 UNL A   1      19.098  48.670   0.071  1.00  0.00    +0.000 F 
ATOM     67  C46 UNL A   1      18.562  47.167  -1.663  1.00  0.00    +0.000 C 
ATOM     68  F12 UNL A   1      19.808  46.677  -1.623  1.00  0.00    +0.000 F 
ATOM     69  C47 UNL A   1      17.648  46.662  -2.575  1.00  0.00    +0.000 C 
ATOM     70  F13 UNL A   1      18.002  45.671  -3.404  1.00  0.00    +0.000 F 
ATOM     71  C48 UNL A   1      16.367  47.191  -2.630  1.00  0.00    +0.000 C 
ATOM     72  F14 UNL A   1      15.475  46.695  -3.499  1.00  0.00    +0.000 F 
ATOM     73  C49 UNL A   1      16.004  48.235  -1.783  1.00  0.00    +0.000 C 
ATOM     74  F15 UNL A   1      14.761  48.733  -1.865  1.00  0.00    +0.000 F 
ATOM     64  C44 UNL A   1      16.908  48.754  -0.845  1.00  0.00    +0.000 C 
ENDBRANCH   63   64
TORSDOF 23
ENDMDL
MODEL 6
REMARK VINA RESULT:      -7.7      3.828      9.419
ROOT
ATOM    129  H26 UNL A   1      23.889  34.762  45.207  1.00  0.00    +0.000 H 
ATOM    130  H27 UNL A   1      25.571  36.663  45.283  1.00  0.00    +0.000 H 
ATOM    131  H28 UNL A   1      22.108  37.949  47.191  1.00  0.00    +0.000 H 
ATOM    132  H29 UNL A   1      19.060  33.950  47.351  1.00  0.00    +0.000 H 
ATOM    133  H30 UNL A   1      17.375  35.444  48.568  1.00  0.00    +0.000 H 
ATOM    134  H31 UNL A   1      24.025  42.974  48.711  1.00  0.00    +0.000 H 
ATOM    135  H32 UNL A   1      25.574  41.635  47.173  1.00  0.00    +0.000 H 
ATOM     27  C20 UNL A   1      24.635  39.006  46.613  1.00  0.00    +0.000 C 
ATOM     28  C21 UNL A   1      23.927  40.089  47.376  1.00  0.00    +0.000 C 
ATOM     29  N3  UNL A   1      22.746  40.068  47.940  1.00  0.00    +0.000 N 
ATOM     30  C22 UNL A   1      22.596  41.307  48.545  1.00  0.00    +0.000 C 
ATOM     31  C23 UNL A   1      21.521  41.796  49.208  1.00  0.00    +0.000 C 
ATOM     43  C30 UNL A   1      20.295  41.071  49.409  1.00  0.00    +0.000 C 
ATOM     44  C31 UNL A   1      19.124  41.504  50.007  1.00  0.00    +0.000 C 
ATOM     45  C32 UNL A   1      18.222  40.435  50.025  1.00  0.00    +0.000 C 
ATOM     46  C33 UNL A   1      18.812  39.351  49.395  1.00  0.00    +0.000 C 
ATOM     47  N4  UNL A   1      20.083  39.756  49.020  1.00  0.00    +0.000 N 
ATOM     48  C34 UNL A   1      18.263  38.039  49.163  1.00  0.00    +0.000 C 
ATOM     60  C41 UNL A   1      18.887  37.042  48.491  1.00  0.00    +0.000 C 
ATOM     61  N5  UNL A   1      20.142  37.043  47.897  1.00  0.00    +0.000 N 
ATOM     62  C42 UNL A   1      20.300  35.847  47.387  1.00  0.00    +0.000 C 
ATOM     63  C43 UNL A   1      21.466  35.292  46.614  1.00  0.00    +0.000 C 
ATOM     75  C50 UNL A   1      22.532  36.081  46.375  1.00  0.00    +0.000 C 
ATOM     76  C51 UNL A   1      23.738  35.677  45.660  1.00  0.00    +0.000 C 
ATOM     77  C52 UNL A   1      24.622  36.687  45.688  1.00  0.00    +0.000 C 
ATOM     78  C53 UNL A   1      24.024  37.828  46.383  1.00  0.00    +0.000 C 
ATOM     79  N6  UNL A   1      22.772  37.386  46.731  1.00  0.00    +0.000 N 
ATOM     80  C54 UNL A   1      19.167  34.940  47.619  1.00  0.00    +0.000 C 
ATOM     81  C55 UNL A   1      18.319  35.730  48.265  1.00  0.00    +0.000 C 
ATOM     82  C56 UNL A   1      23.824  42.040  48.322  1.00  0.00    +0.000 C 
ATOM     83  C57 UNL A   1      24.655  41.354  47.551  1.00  0.00    +0.000 C 
ATOM    126  H23 UNL A   1      18.948  42.451  50.377  1.00  0.00    +0.000 H 
ATOM    127  H24 UNL A   1      17.276  40.451  50.438  1.00  0.00    +0.000 H 
ATOM    128  H25 UNL A   1      20.738  39.195  48.546  1.00  0.00    +0.000 H 
ENDROOT
BRANCH   27   26
ATOM    136  H33 UNL A   1      25.648  40.962  45.105  1.00  0.00    +0.000 H 
ATOM    137  H34 UNL A   1      27.943  41.311  44.409  1.00  0.00    +0.000 H 
ATOM     84  C58 UNL A   1      26.384  40.306  45.408  1.00  0.00    +0.000 C 
ATOM     85  C59 UNL A   1      27.707  40.529  45.041  1.00  0.00    +0.000 C 
ATOM     23  C16 UNL A   1      28.713  39.694  45.531  1.00  0.00    +0.000 C 
ATOM     24  C17 UNL A   1      28.388  38.551  46.266  1.00  0.00    +0.000 C 
ATOM     25  C18 UNL A   1      27.051  38.291  46.580  1.00  0.00    +0.000 C 
ATOM     26  C19 UNL A   1      26.045  39.191  46.191  1.00  0.00    +0.000 C 
ATOM    124  H21 UNL A   1      29.128  37.904  46.575  1.00  0.00    +0.000 H 
ATOM    125  H22 UNL A   1      26.803  37.434  47.099  1.00  0.00    +0.000 H 
BRANCH   23   21
ATOM     21  C15 UNL A   1      30.136  40.015  45.293  1.00  0.00    +0.000 C 
ATOM     22  O4  UNL A   1      30.686  39.639  44.264  1.00  0.00    +0.000 O 
BRANCH   21   20
ATOM    123  H20 UNL A   1      31.326  40.185  46.902  1.00  0.00    +0.000 H 
ATOM     20  N2  UNL A   1      30.835  40.725  46.240  1.00  0.00    +0.000 N 
BRANCH   20   19
ATOM    121  H18 UNL A   1      31.981  42.439  46.380  1.00  0.00    +0.000 H 
ATOM    122  H19 UNL A   1      30.416  42.628  45.586  1.00  0.00    +0.000 H 
ATOM     19  C14 UNL A   1      30.946  42.168  46.393  1.00  0.00    +0.000 C 
BRANCH   19   18
ATOM     18  C13 UNL A   1      30.326  42.652  47.701  1.00  0.00    +0.000 C 
ATOM    119  H16 UNL A   1      29.821  41.826  48.158  1.00  0.00    +0.000 H 
ATOM    120  H17 UNL A   1      31.128  43.030  48.300  1.00  0.00    +0.000 H 
BRANCH   18   17
ATOM     17  C12 UNL A   1      29.323  43.796  47.536  1.00  0.00    +0.000 C 
ATOM    117  H14 UNL A   1      29.191  44.262  48.490  1.00  0.00    +0.000 H 
ATOM    118  H15 UNL A   1      29.736  44.451  46.797  1.00  0.00    +0.000 H 
BRANCH   17   16
ATOM    115  H12 UNL A   1      27.963  43.425  45.946  1.00  0.00    +0.000 H 
ATOM    116  H13 UNL A   1      27.770  42.389  47.392  1.00  0.00    +0.000 H 
ATOM     16  C11 UNL A   1      27.944  43.375  47.015  1.00  0.00    +0.000 C 
BRANCH   16   15
ATOM    113  H10 UNL A   1      26.319  44.714  46.667  1.00  0.00    +0.000 H 
ATOM    114  H11 UNL A   1      26.089  43.578  48.015  1.00  0.00    +0.000 H 
ATOM     15  C10 UNL A   1      26.768  44.235  47.511  1.00  0.00    +0.000 C 
BRANCH   15   14
ATOM     14  C9  UNL A   1      27.182  45.313  48.518  1.00  0.00    +0.000 C 
ATOM    111  H8  UNL A   1      28.247  45.418  48.510  1.00  0.00    +0.000 H 
ATOM    112  H9  UNL A   1      26.726  46.243  48.248  1.00  0.00    +0.000 H 
BRANCH   14   13
ATOM     13  N1  UNL A   1      26.745  44.934  49.847  1.00  0.00    +0.000 N 
ATOM    110  H7  UNL A   1      25.767  44.976  49.958  1.00  0.00    +0.000 H 
BRANCH   13   11
ATOM     11  C8  UNL A   1      27.392  44.534  50.972  1.00  0.00    +0.000 C 
ATOM     12  O3  UNL A   1      28.399  45.183  51.269  1.00  0.00    +0.000 O 
BRANCH   11   10
ATOM     10  C7  UNL A   1      27.011  43.303  51.765  1.00  0.00    +0.000 C 
BRANCH   10    9
ATOM      9  C6  UNL A   1      26.924  43.305  53.117  1.00  0.00    +0.000 C 
ATOM    109  H6  UNL A   1      27.496  44.018  53.595  1.00  0.00    +0.000 H 
BRANCH    9    8
ATOM      5  C2  UNL A   1      24.435  40.780  55.535  1.00  0.00    +0.000 C 
ATOM    102  C73 UNL A   1      24.781  42.778  54.223  1.00  0.00    +0.000 C 
ATOM      6  C3  UNL A   1      25.778  40.439  55.373  1.00  0.00    +0.000 C 
ATOM    103  C74 UNL A   1      23.937  41.962  54.985  1.00  0.00    +0.000 C 
ATOM      7  C4  UNL A   1      26.620  41.275  54.627  1.00  0.00    +0.000 C 
ATOM      8  C5  UNL A   1      26.125  42.428  54.005  1.00  0.00    +0.000 C 
ATOM    107  H4  UNL A   1      26.149  39.576  55.799  1.00  0.00    +0.000 H 
ATOM    108  H5  UNL A   1      27.619  41.037  54.535  1.00  0.00    +0.000 H 
ATOM    149  H46 UNL A   1      24.411  43.651  53.817  1.00  0.00    +0.000 H 
ATOM    150  H47 UNL A   1      22.953  42.232  55.138  1.00  0.00    +0.000 H 
BRANCH    5    2
ATOM      2  S1  UNL A   1      23.354  39.724  56.474  1.00  0.00    +0.000 S 
ATOM      3  O1  UNL A   1      22.379  39.173  55.552  1.00  0.00    +0.000 O 
ATOM      4  O2  UNL A   1      22.938  40.489  57.634  1.00  0.00    +0.000 O 
BRANCH    2    1
ATOM      1  C1  UNL A   1      24.374  38.381  57.027  1.00  0.00    +0.000 C 
ATOM    106  H3  UNL A   1      25.301  38.395  56.495  1.00  0.00    +0.000 H 
ATOM    105  H2  UNL A   1      24.561  38.483  58.075  1.00  0.00    +0.000 H 
ATOM    104  H1  UNL A   1      23.872  37.453  56.843  1.00  0.00    +0.000 H 
ENDBRANCH    2    1
ENDBRANCH    5    2
ENDBRANCH    9    8
ENDBRANCH   10    9
BRANCH   10   86
ATOM    101  C72 UNL A   1      25.756  41.222  51.068  1.00  0.00    +0.000 C 
ATOM    138  H35 UNL A   1      28.864  42.151  50.237  1.00  0.00    +0.000 H 
ATOM    139  H36 UNL A   1      28.837  39.981  49.169  1.00  0.00    +0.000 H 
ATOM    140  H37 UNL A   1      26.903  38.545  49.408  1.00  0.00    +0.000 H 
ATOM    148  H45 UNL A   1      24.898  41.588  51.514  1.00  0.00    +0.000 H 
ATOM     86  C60 UNL A   1      26.899  42.030  51.004  1.00  0.00    +0.000 C 
ATOM     87  C61 UNL A   1      28.022  41.559  50.306  1.00  0.00    +0.000 C 
ATOM     88  C62 UNL A   1      28.016  40.303  49.706  1.00  0.00    +0.000 C 
ATOM     89  C63 UNL A   1      26.897  39.485  49.833  1.00  0.00    +0.000 C 
ATOM     90  C64 UNL A   1      25.760  39.921  50.533  1.00  0.00    +0.000 C 
BRANCH   90   91
ATOM     99  C70 UNL A   1      22.699  38.349  52.117  1.00  0.00    +0.000 C 
ATOM    100  C71 UNL A   1      23.699  39.274  51.809  1.00  0.00    +0.000 C 
ATOM    141  H38 UNL A   1      25.266  37.557  49.396  1.00  0.00    +0.000 H 
ATOM    142  H39 UNL A   1      23.549  35.935  49.938  1.00  0.00    +0.000 H 
ATOM    146  H43 UNL A   1      22.002  38.559  52.848  1.00  0.00    +0.000 H 
ATOM    147  H44 UNL A   1      23.736  40.173  52.316  1.00  0.00    +0.000 H 
ATOM     91  C65 UNL A   1      24.653  38.998  50.818  1.00  0.00    +0.000 C 
ATOM     92  C66 UNL A   1      24.577  37.769  50.134  1.00  0.00    +0.000 C 
ATOM     93  C67 UNL A   1      23.588  36.836  50.438  1.00  0.00    +0.000 C 
ATOM     94  C68 UNL A   1      22.651  37.136  51.428  1.00  0.00    +0.000 C 
BRANCH   94   95
ATOM     97  O5  UNL A   1      21.882  35.282  53.067  1.00  0.00    +0.000 O 
ATOM     98  O6  UNL A   1      20.128  36.544  51.760  1.00  0.00    +0.000 O 
ATOM     95  S2  UNL A   1      21.432  35.913  51.843  1.00  0.00    +0.000 S 
BRANCH   95   96
ATOM    145  H42 UNL A   1      22.003  35.200  49.670  1.00  0.00    +0.000 H 
ATOM    144  H41 UNL A   1      22.150  33.906  50.836  1.00  0.00    +0.000 H 
ATOM    143  H40 UNL A   1      20.572  34.391  50.262  1.00  0.00    +0.000 H 
ATOM     96  C69 UNL A   1      21.551  34.736  50.522  1.00  0.00    +0.000 C 
ENDBRANCH   95   96
ENDBRANCH   94   95
ENDBRANCH   90   91
ENDBRANCH   10   86
ENDBRANCH   11   10
ENDBRANCH   13   11
ENDBRANCH   14   13
ENDBRANCH   15   14
ENDBRANCH   16   15
ENDBRANCH   17   16
ENDBRANCH   18   17
ENDBRANCH   19   18
ENDBRANCH   20   19
ENDBRANCH   21   20
ENDBRANCH   23   21
ENDBRANCH   27   26
BRANCH   31   32
ATOM     33  C25 UNL A   1      21.213  44.307  49.033  1.00  0.00    +0.000 C 
ATOM     34  F1  UNL A   1      20.759  44.162  47.779  1.00  0.00    +0.000 F 
ATOM     35  C26 UNL A   1      21.303  45.588  49.569  1.00  0.00    +0.000 C 
ATOM     36  F2  UNL A   1      20.949  46.649  48.831  1.00  0.00    +0.000 F 
ATOM     37  C27 UNL A   1      21.771  45.770  50.862  1.00  0.00    +0.000 C 
ATOM     38  F3  UNL A   1      21.850  47.004  51.380  1.00  0.00    +0.000 F 
ATOM     39  C28 UNL A   1      22.162  44.674  51.616  1.00  0.00    +0.000 C 
ATOM     40  F4  UNL A   1      22.601  44.847  52.870  1.00  0.00    +0.000 F 
ATOM     41  C29 UNL A   1      22.100  43.394  51.072  1.00  0.00    +0.000 C 
ATOM     42  F5  UNL A   1      22.500  42.355  51.821  1.00  0.00    +0.000 F 
ATOM     32  C24 UNL A   1      21.624  43.185  49.769  1.00  0.00    +0.000 C 
ENDBRANCH   31   32
BRANCH   48   49
ATOM     49  C35 UNL A   1      16.886  37.759  49.688  1.00  0.00    +0.000 C 
ATOM     50  C36 UNL A   1      15.803  37.544  48.823  1.00  0.00    +0.000 C 
ATOM     51  F6  UNL A   1      15.965  37.656  47.497  1.00  0.00    +0.000 F 
ATOM     52  C37 UNL A   1      14.539  37.243  49.324  1.00  0.00    +0.000 C 
ATOM     53  F7  UNL A   1      13.509  37.079  48.482  1.00  0.00    +0.000 F 
ATOM     54  C38 UNL A   1      14.341  37.121  50.691  1.00  0.00    +0.000 C 
ATOM     55  F8  UNL A   1      13.126  36.819  51.169  1.00  0.00    +0.000 F 
ATOM     56  C39 UNL A   1      15.401  37.320  51.563  1.00  0.00    +0.000 C 
ATOM     57  F9  UNL A   1      15.214  37.190  52.884  1.00  0.00    +0.000 F 
ATOM     58  C40 UNL A   1      16.659  37.648  51.068  1.00  0.00    +0.000 C 
ATOM     59  F10 UNL A   1      17.664  37.839  51.936  1.00  0.00    +0.000 F 
ENDBRANCH   48   49
BRANCH   63   64
ATOM     65  C45 UNL A   1      20.874  33.592  44.864  1.00  0.00    +0.000 C 
ATOM     66  F11 UNL A   1      20.312  34.565  44.132  1.00  0.00    +0.000 F 
ATOM     67  C46 UNL A   1      20.841  32.284  44.387  1.00  0.00    +0.000 C 
ATOM     68  F12 UNL A   1      20.250  32.015  43.215  1.00  0.00    +0.000 F 
ATOM     69  C47 UNL A   1      21.407  31.258  45.129  1.00  0.00    +0.000 C 
ATOM     70  F13 UNL A   1      21.382  30.001  44.666  1.00  0.00    +0.000 F 
ATOM     71  C48 UNL A   1      21.996  31.536  46.353  1.00  0.00    +0.000 C 
ATOM     72  F14 UNL A   1      22.558  30.551  47.065  1.00  0.00    +0.000 F 
ATOM     73  C49 UNL A   1      22.005  32.840  46.844  1.00  0.00    +0.000 C 
ATOM     74  F15 UNL A   1      22.572  33.079  48.036  1.00  0.00    +0.000 F 
ATOM     64  C44 UNL A   1      21.449  33.896  46.107  1.00  0.00    +0.000 C 
ENDBRANCH   63   64
TORSDOF 23
ENDMDL
MODEL 7
REMARK VINA RESULT:      -7.7     46.102     51.634
ROOT
ATOM    129  H26 UNL A   1       4.958  -4.032  25.723  1.00  0.00    +0.000 H 
ATOM    130  H27 UNL A   1       6.066  -6.283  26.117  1.00  0.00    +0.000 H 
ATOM    131  H28 UNL A   1       5.028  -4.710  29.822  1.00  0.00    +0.000 H 
ATOM    132  H29 UNL A   1       2.460  -0.493  28.854  1.00  0.00    +0.000 H 
ATOM    133  H30 UNL A   1       2.209  -0.217  31.387  1.00  0.00    +0.000 H 
ATOM    134  H31 UNL A   1       6.729  -9.065  32.883  1.00  0.00    +0.000 H 
ATOM    135  H32 UNL A   1       7.325  -9.181  30.395  1.00  0.00    +0.000 H 
ATOM     27  C20 UNL A   1       6.244  -7.040  28.860  1.00  0.00    +0.000 C 
ATOM     28  C21 UNL A   1       6.190  -7.218  30.350  1.00  0.00    +0.000 C 
ATOM     29  N3  UNL A   1       5.647  -6.446  31.257  1.00  0.00    +0.000 N 
ATOM     30  C22 UNL A   1       5.842  -7.092  32.469  1.00  0.00    +0.000 C 
ATOM     31  C23 UNL A   1       5.512  -6.670  33.713  1.00  0.00    +0.000 C 
ATOM     43  C30 UNL A   1       4.867  -5.416  33.997  1.00  0.00    +0.000 C 
ATOM     44  C31 UNL A   1       4.553  -4.866  35.228  1.00  0.00    +0.000 C 
ATOM     45  C32 UNL A   1       3.882  -3.658  35.008  1.00  0.00    +0.000 C 
ATOM     46  C33 UNL A   1       3.820  -3.431  33.642  1.00  0.00    +0.000 C 
ATOM     47  N4  UNL A   1       4.431  -4.517  33.034  1.00  0.00    +0.000 N 
ATOM     48  C34 UNL A   1       3.238  -2.314  32.943  1.00  0.00    +0.000 C 
ATOM     60  C41 UNL A   1       3.262  -2.139  31.600  1.00  0.00    +0.000 C 
ATOM     61  N5  UNL A   1       3.822  -2.952  30.624  1.00  0.00    +0.000 N 
ATOM     62  C42 UNL A   1       3.574  -2.365  29.479  1.00  0.00    +0.000 C 
ATOM     63  C43 UNL A   1       3.962  -2.793  28.090  1.00  0.00    +0.000 C 
ATOM     75  C50 UNL A   1       4.666  -3.930  27.925  1.00  0.00    +0.000 C 
ATOM     76  C51 UNL A   1       5.094  -4.480  26.643  1.00  0.00    +0.000 C 
ATOM     77  C52 UNL A   1       5.692  -5.663  26.852  1.00  0.00    +0.000 C 
ATOM     78  C53 UNL A   1       5.732  -5.932  28.290  1.00  0.00    +0.000 C 
ATOM     79  N6  UNL A   1       5.125  -4.836  28.850  1.00  0.00    +0.000 N 
ATOM     80  C54 UNL A   1       2.806  -1.118  29.599  1.00  0.00    +0.000 C 
ATOM     81  C55 UNL A   1       2.673  -1.008  30.914  1.00  0.00    +0.000 C 
ATOM     82  C56 UNL A   1       6.509  -8.344  32.179  1.00  0.00    +0.000 C 
ATOM     83  C57 UNL A   1       6.803  -8.440  30.890  1.00  0.00    +0.000 C 
ATOM    126  H23 UNL A   1       4.775  -5.277  36.148  1.00  0.00    +0.000 H 
ATOM    127  H24 UNL A   1       3.497  -3.040  35.740  1.00  0.00    +0.000 H 
ATOM    128  H25 UNL A   1       4.540  -4.632  32.063  1.00  0.00    +0.000 H 
ENDROOT
BRANCH   27   26
ATOM    136  H33 UNL A   1       4.994  -9.264  28.072  1.00  0.00    +0.000 H 
ATOM    137  H34 UNL A   1       5.818 -11.048  26.654  1.00  0.00    +0.000 H 
ATOM     84  C58 UNL A   1       5.947  -9.211  27.679  1.00  0.00    +0.000 C 
ATOM     85  C59 UNL A   1       6.403 -10.217  26.833  1.00  0.00    +0.000 C 
ATOM     23  C16 UNL A   1       7.656 -10.097  26.226  1.00  0.00    +0.000 C 
ATOM     24  C17 UNL A   1       8.513  -9.050  26.576  1.00  0.00    +0.000 C 
ATOM     25  C18 UNL A   1       8.079  -8.074  27.476  1.00  0.00    +0.000 C 
ATOM     26  C19 UNL A   1       6.776  -8.124  27.999  1.00  0.00    +0.000 C 
ATOM    124  H21 UNL A   1       9.460  -8.997  26.171  1.00  0.00    +0.000 H 
ATOM    125  H22 UNL A   1       8.717  -7.315  27.759  1.00  0.00    +0.000 H 
BRANCH   23   21
ATOM     21  C15 UNL A   1       8.086 -11.065  25.195  1.00  0.00    +0.000 C 
ATOM     22  O4  UNL A   1       8.468 -12.182  25.525  1.00  0.00    +0.000 O 
BRANCH   21   20
ATOM    123  H20 UNL A   1       8.818 -11.016  23.326  1.00  0.00    +0.000 H 
ATOM     20  N2  UNL A   1       8.064 -10.696  23.872  1.00  0.00    +0.000 N 
BRANCH   20   19
ATOM    121  H18 UNL A   1       6.831 -10.374  22.244  1.00  0.00    +0.000 H 
ATOM    122  H19 UNL A   1       6.209  -9.812  23.798  1.00  0.00    +0.000 H 
ATOM     19  C14 UNL A   1       7.072  -9.894  23.170  1.00  0.00    +0.000 C 
BRANCH   19   18
ATOM     18  C13 UNL A   1       7.579  -8.485  22.878  1.00  0.00    +0.000 C 
ATOM    119  H16 UNL A   1       8.636  -8.468  23.048  1.00  0.00    +0.000 H 
ATOM    120  H17 UNL A   1       7.319  -8.269  21.863  1.00  0.00    +0.000 H 
BRANCH   18   17
ATOM     17  C12 UNL A   1       6.938  -7.395  23.740  1.00  0.00    +0.000 C 
ATOM    117  H14 UNL A   1       5.903  -7.328  23.474  1.00  0.00    +0.000 H 
ATOM    118  H15 UNL A   1       7.096  -7.687  24.757  1.00  0.00    +0.000 H 
BRANCH   17   16
ATOM    115  H12 UNL A   1       7.909  -5.901  22.583  1.00  0.00    +0.000 H 
ATOM    116  H13 UNL A   1       6.792  -5.303  23.846  1.00  0.00    +0.000 H 
ATOM     16  C11 UNL A   1       7.560  -6.002  23.590  1.00  0.00    +0.000 C 
BRANCH   16   15
ATOM    113  H10 UNL A   1       8.804  -6.498  25.251  1.00  0.00    +0.000 H 
ATOM    114  H11 UNL A   1       9.617  -5.635  23.927  1.00  0.00    +0.000 H 
ATOM     15  C10 UNL A   1       8.738  -5.707  24.534  1.00  0.00    +0.000 C 
BRANCH   15   14
ATOM     14  C9  UNL A   1       8.600  -4.380  25.288  1.00  0.00    +0.000 C 
ATOM    111  H8  UNL A   1       7.592  -4.029  25.208  1.00  0.00    +0.000 H 
ATOM    112  H9  UNL A   1       8.849  -4.530  26.317  1.00  0.00    +0.000 H 
BRANCH   14   13
ATOM     13  N1  UNL A   1       9.498  -3.397  24.716  1.00  0.00    +0.000 N 
ATOM    110  H7  UNL A   1       9.027  -2.661  24.263  1.00  0.00    +0.000 H 
BRANCH   13   11
ATOM     11  C8  UNL A   1      10.850  -3.273  24.670  1.00  0.00    +0.000 C 
ATOM     12  O3  UNL A   1      11.443  -3.473  25.733  1.00  0.00    +0.000 O 
BRANCH   11   10
ATOM     10  C7  UNL A   1      11.606  -2.798  23.447  1.00  0.00    +0.000 C 
BRANCH   10    9
ATOM      9  C6  UNL A   1      11.956  -3.631  22.438  1.00  0.00    +0.000 C 
ATOM    109  H6  UNL A   1      12.911  -4.016  22.494  1.00  0.00    +0.000 H 
BRANCH    9    8
ATOM      5  C2  UNL A   1       9.589  -4.669  19.012  1.00  0.00    +0.000 C 
ATOM    102  C73 UNL A   1       9.865  -3.539  21.127  1.00  0.00    +0.000 C 
ATOM      6  C3  UNL A   1      10.853  -5.242  19.150  1.00  0.00    +0.000 C 
ATOM    103  C74 UNL A   1       9.079  -3.837  20.010  1.00  0.00    +0.000 C 
ATOM      7  C4  UNL A   1      11.623  -4.955  20.285  1.00  0.00    +0.000 C 
ATOM      8  C5  UNL A   1      11.161  -4.066  21.265  1.00  0.00    +0.000 C 
ATOM    107  H4  UNL A   1      11.219  -5.874  18.422  1.00  0.00    +0.000 H 
ATOM    108  H5  UNL A   1      12.544  -5.405  20.402  1.00  0.00    +0.000 H 
ATOM    149  H46 UNL A   1       9.487  -2.924  21.864  1.00  0.00    +0.000 H 
ATOM    150  H47 UNL A   1       8.129  -3.444  19.923  1.00  0.00    +0.000 H 
BRANCH    5    2
ATOM      2  S1  UNL A   1       8.604  -5.021  17.572  1.00  0.00    +0.000 S 
ATOM      3  O1  UNL A   1       7.266  -5.343  18.032  1.00  0.00    +0.000 O 
ATOM      4  O2  UNL A   1       9.367  -5.961  16.774  1.00  0.00    +0.000 O 
BRANCH    2    1
ATOM      1  C1  UNL A   1       8.503  -3.488  16.685  1.00  0.00    +0.000 C 
ATOM    106  H3  UNL A   1       8.450  -3.686  15.635  1.00  0.00    +0.000 H 
ATOM    105  H2  UNL A   1       7.627  -2.955  16.992  1.00  0.00    +0.000 H 
ATOM    104  H1  UNL A   1       9.371  -2.897  16.893  1.00  0.00    +0.000 H 
ENDBRANCH    2    1
ENDBRANCH    5    2
ENDBRANCH    9    8
ENDBRANCH   10    9
BRANCH   10   86
ATOM    101  C72 UNL A   1      11.622  -0.416  22.602  1.00  0.00    +0.000 C 
ATOM    138  H35 UNL A   1      13.540  -1.791  24.977  1.00  0.00    +0.000 H 
ATOM    139  H36 UNL A   1      14.559   0.402  24.912  1.00  0.00    +0.000 H 
ATOM    140  H37 UNL A   1      13.798   2.037  23.298  1.00  0.00    +0.000 H 
ATOM    148  H45 UNL A   1      10.781  -0.610  22.033  1.00  0.00    +0.000 H 
ATOM     86  C60 UNL A   1      12.106  -1.397  23.477  1.00  0.00    +0.000 C 
ATOM     87  C61 UNL A   1      13.186  -1.082  24.317  1.00  0.00    +0.000 C 
ATOM     88  C62 UNL A   1      13.786   0.173  24.269  1.00  0.00    +0.000 C 
ATOM     89  C63 UNL A   1      13.337   1.115  23.349  1.00  0.00    +0.000 C 
ATOM     90  C64 UNL A   1      12.265   0.830  22.487  1.00  0.00    +0.000 C 
BRANCH   90   91
ATOM     99  C70 UNL A   1      12.251   2.647  19.163  1.00  0.00    +0.000 C 
ATOM    100  C71 UNL A   1      12.552   1.711  20.156  1.00  0.00    +0.000 C 
ATOM    141  H38 UNL A   1      10.453   2.791  22.535  1.00  0.00    +0.000 H 
ATOM    142  H39 UNL A   1       9.939   4.431  20.827  1.00  0.00    +0.000 H 
ATOM    146  H43 UNL A   1      12.730   2.610  18.250  1.00  0.00    +0.000 H 
ATOM    147  H44 UNL A   1      13.257   0.980  19.970  1.00  0.00    +0.000 H 
ATOM     91  C65 UNL A   1      11.907   1.753  21.401  1.00  0.00    +0.000 C 
ATOM     92  C66 UNL A   1      10.943   2.754  21.627  1.00  0.00    +0.000 C 
ATOM     93  C67 UNL A   1      10.640   3.696  20.646  1.00  0.00    +0.000 C 
ATOM     94  C68 UNL A   1      11.295   3.632  19.416  1.00  0.00    +0.000 C 
BRANCH   94   95
ATOM     97  O5  UNL A   1      11.517   4.407  16.953  1.00  0.00    +0.000 O 
ATOM     98  O6  UNL A   1       9.527   5.196  18.294  1.00  0.00    +0.000 O 
ATOM     95  S2  UNL A   1      10.939   4.874  18.197  1.00  0.00    +0.000 S 
BRANCH   95   96
ATOM    145  H42 UNL A   1      11.593   7.138  18.164  1.00  0.00    +0.000 H 
ATOM    144  H41 UNL A   1      11.629   6.477  19.782  1.00  0.00    +0.000 H 
ATOM    143  H40 UNL A   1      12.905   6.093  18.651  1.00  0.00    +0.000 H 
ATOM     96  C69 UNL A   1      11.858   6.285  18.754  1.00  0.00    +0.000 C 
ENDBRANCH   95   96
ENDBRANCH   94   95
ENDBRANCH   90   91
ENDBRANCH   10   86
ENDBRANCH   11   10
ENDBRANCH   13   11
ENDBRANCH   14   13
ENDBRANCH   15   14
ENDBRANCH   16   15
ENDBRANCH   17   16
ENDBRANCH   18   17
ENDBRANCH   19   18
ENDBRANCH   20   19
ENDBRANCH   21   20
ENDBRANCH   23   21
ENDBRANCH   27   26
BRANCH   31   32
ATOM     33  C25 UNL A   1       7.017  -7.411  35.613  1.00  0.00    +0.000 C 
ATOM     34  F1  UNL A   1       7.903  -6.460  35.281  1.00  0.00    +0.000 F 
ATOM     35  C26 UNL A   1       7.306  -8.250  36.686  1.00  0.00    +0.000 C 
ATOM     36  F2  UNL A   1       8.457  -8.106  37.357  1.00  0.00    +0.000 F 
ATOM     37  C27 UNL A   1       6.411  -9.244  37.052  1.00  0.00    +0.000 C 
ATOM     38  F3  UNL A   1       6.687 -10.047  38.090  1.00  0.00    +0.000 F 
ATOM     39  C28 UNL A   1       5.232  -9.410  36.340  1.00  0.00    +0.000 C 
ATOM     40  F4  UNL A   1       4.361 -10.361  36.702  1.00  0.00    +0.000 F 
ATOM     41  C29 UNL A   1       4.955  -8.591  35.249  1.00  0.00    +0.000 C 
ATOM     42  F5  UNL A   1       3.814  -8.787  34.570  1.00  0.00    +0.000 F 
ATOM     32  C24 UNL A   1       5.842  -7.574  34.863  1.00  0.00    +0.000 C 
ENDBRANCH   31   32
BRANCH   48   49
ATOM     49  C35 UNL A   1       2.569  -1.252  33.764  1.00  0.00    +0.000 C 
ATOM     50  C36 UNL A   1       3.297  -0.187  34.317  1.00  0.00    +0.000 C 
ATOM     51  F6  UNL A   1       4.629  -0.137  34.178  1.00  0.00    +0.000 F 
ATOM     52  C37 UNL A   1       2.657   0.814  35.042  1.00  0.00    +0.000 C 
ATOM     53  F7  UNL A   1       3.376   1.803  35.593  1.00  0.00    +0.000 F 
ATOM     54  C38 UNL A   1       1.280   0.788  35.202  1.00  0.00    +0.000 C 
ATOM     55  F8  UNL A   1       0.665   1.761  35.889  1.00  0.00    +0.000 F 
ATOM     56  C39 UNL A   1       0.540  -0.250  34.655  1.00  0.00    +0.000 C 
ATOM     57  F9  UNL A   1      -0.792  -0.270  34.798  1.00  0.00    +0.000 F 
ATOM     58  C40 UNL A   1       1.179  -1.268  33.954  1.00  0.00    +0.000 C 
ATOM     59  F10 UNL A   1       0.438  -2.262  33.441  1.00  0.00    +0.000 F 
ENDBRANCH   48   49
BRANCH   63   64
ATOM     65  C45 UNL A   1       2.397  -2.223  26.212  1.00  0.00    +0.000 C 
ATOM     66  F11 UNL A   1       1.593  -3.226  26.600  1.00  0.00    +0.000 F 
ATOM     67  C46 UNL A   1       2.045  -1.470  25.095  1.00  0.00    +0.000 C 
ATOM     68  F12 UNL A   1       0.921  -1.755  24.424  1.00  0.00    +0.000 F 
ATOM     69  C47 UNL A   1       2.862  -0.434  24.668  1.00  0.00    +0.000 C 
ATOM     70  F13 UNL A   1       2.521   0.295  23.598  1.00  0.00    +0.000 F 
ATOM     71  C48 UNL A   1       4.038  -0.159  25.350  1.00  0.00    +0.000 C 
ATOM     72  F14 UNL A   1       4.822   0.851  24.952  1.00  0.00    +0.000 F 
ATOM     73  C49 UNL A   1       4.405  -0.930  26.451  1.00  0.00    +0.000 C 
ATOM     74  F15 UNL A   1       5.552  -0.647  27.086  1.00  0.00    +0.000 F 
ATOM     64  C44 UNL A   1       3.588  -1.974  26.908  1.00  0.00    +0.000 C 
ENDBRANCH   63   64
TORSDOF 23
ENDMDL
MODEL 8
REMARK VINA RESULT:      -7.7     43.250     49.546
ROOT
ATOM    129  H26 UNL A   1      55.639  22.710  15.820  1.00  0.00    +0.000 H 
ATOM    130  H27 UNL A   1      58.034  23.004  15.031  1.00  0.00    +0.000 H 
ATOM    131  H28 UNL A   1      55.801  21.596  11.820  1.00  0.00    +0.000 H 
ATOM    132  H29 UNL A   1      51.027  21.494  13.406  1.00  0.00    +0.000 H 
ATOM    133  H30 UNL A   1      50.406  20.636  11.075  1.00  0.00    +0.000 H 
ATOM    134  H31 UNL A   1      59.932  21.689   8.057  1.00  0.00    +0.000 H 
ATOM    135  H32 UNL A   1      60.641  22.183  10.468  1.00  0.00    +0.000 H 
ATOM     27  C20 UNL A   1      58.460  22.331  12.293  1.00  0.00    +0.000 C 
ATOM     28  C21 UNL A   1      58.416  21.947  10.842  1.00  0.00    +0.000 C 
ATOM     29  N3  UNL A   1      57.389  21.602  10.107  1.00  0.00    +0.000 N 
ATOM     30  C22 UNL A   1      57.892  21.393   8.831  1.00  0.00    +0.000 C 
ATOM     31  C23 UNL A   1      57.235  20.965   7.726  1.00  0.00    +0.000 C 
ATOM     43  C30 UNL A   1      55.833  20.645   7.691  1.00  0.00    +0.000 C 
ATOM     44  C31 UNL A   1      55.089  20.139   6.639  1.00  0.00    +0.000 C 
ATOM     45  C32 UNL A   1      53.756  20.041   7.054  1.00  0.00    +0.000 C 
ATOM     46  C33 UNL A   1      53.678  20.440   8.378  1.00  0.00    +0.000 C 
ATOM     47  N4  UNL A   1      54.960  20.806   8.758  1.00  0.00    +0.000 N 
ATOM     48  C34 UNL A   1      52.519  20.495   9.232  1.00  0.00    +0.000 C 
ATOM     60  C41 UNL A   1      52.531  20.851  10.539  1.00  0.00    +0.000 C 
ATOM     61  N5  UNL A   1      53.607  21.231  11.329  1.00  0.00    +0.000 N 
ATOM     62  C42 UNL A   1      53.111  21.489  12.514  1.00  0.00    +0.000 C 
ATOM     63  C43 UNL A   1      53.823  21.928  13.765  1.00  0.00    +0.000 C 
ATOM     75  C50 UNL A   1      55.159  22.096  13.737  1.00  0.00    +0.000 C 
ATOM     76  C51 UNL A   1      55.979  22.535  14.861  1.00  0.00    +0.000 C 
ATOM     77  C52 UNL A   1      57.248  22.678  14.448  1.00  0.00    +0.000 C 
ATOM     78  C53 UNL A   1      57.339  22.293  13.038  1.00  0.00    +0.000 C 
ATOM     79  N6  UNL A   1      56.055  21.936  12.709  1.00  0.00    +0.000 N 
ATOM     80  C54 UNL A   1      51.654  21.323  12.604  1.00  0.00    +0.000 C 
ATOM     81  C55 UNL A   1      51.356  20.899  11.383  1.00  0.00    +0.000 C 
ATOM     82  C56 UNL A   1      59.306  21.697   8.877  1.00  0.00    +0.000 C 
ATOM     83  C57 UNL A   1      59.692  21.984  10.112  1.00  0.00    +0.000 C 
ATOM    126  H23 UNL A   1      55.455  19.879   5.710  1.00  0.00    +0.000 H 
ATOM    127  H24 UNL A   1      52.965  19.725   6.471  1.00  0.00    +0.000 H 
ATOM    128  H25 UNL A   1      55.214  21.130   9.651  1.00  0.00    +0.000 H 
ENDROOT
BRANCH   27   26
ATOM    136  H33 UNL A   1      59.323  24.856  12.368  1.00  0.00    +0.000 H 
ATOM    137  H34 UNL A   1      61.356  25.738  13.349  1.00  0.00    +0.000 H 
ATOM     84  C58 UNL A   1      59.982  24.222  12.846  1.00  0.00    +0.000 C 
ATOM     85  C59 UNL A   1      61.129  24.735  13.442  1.00  0.00    +0.000 C 
ATOM     23  C16 UNL A   1      61.971  23.889  14.169  1.00  0.00    +0.000 C 
ATOM     24  C17 UNL A   1      61.750  22.510  14.178  1.00  0.00    +0.000 C 
ATOM     25  C18 UNL A   1      60.632  21.986  13.523  1.00  0.00    +0.000 C 
ATOM     26  C19 UNL A   1      59.717  22.844  12.891  1.00  0.00    +0.000 C 
ATOM    124  H21 UNL A   1      62.407  21.882  14.665  1.00  0.00    +0.000 H 
ATOM    125  H22 UNL A   1      60.480  20.967  13.503  1.00  0.00    +0.000 H 
BRANCH   23   21
ATOM     21  C15 UNL A   1      63.097  24.443  14.950  1.00  0.00    +0.000 C 
ATOM     22  O4  UNL A   1      64.232  24.427  14.487  1.00  0.00    +0.000 O 
BRANCH   21   20
ATOM    123  H20 UNL A   1      63.101  25.909  16.323  1.00  0.00    +0.000 H 
ATOM     20  N2  UNL A   1      62.859  24.962  16.200  1.00  0.00    +0.000 N 
BRANCH   20   19
ATOM    121  H18 UNL A   1      62.520  23.251  17.310  1.00  0.00    +0.000 H 
ATOM    122  H19 UNL A   1      62.731  24.738  18.239  1.00  0.00    +0.000 H 
ATOM     19  C14 UNL A   1      62.298  24.297  17.367  1.00  0.00    +0.000 C 
BRANCH   19   18
ATOM     18  C13 UNL A   1      60.784  24.474  17.451  1.00  0.00    +0.000 C 
ATOM    119  H16 UNL A   1      60.573  25.190  18.218  1.00  0.00    +0.000 H 
ATOM    120  H17 UNL A   1      60.458  24.794  16.484  1.00  0.00    +0.000 H 
BRANCH   18   17
ATOM     17  C12 UNL A   1      60.018  23.188  17.771  1.00  0.00    +0.000 C 
ATOM    117  H14 UNL A   1      59.128  23.176  17.178  1.00  0.00    +0.000 H 
ATOM    118  H15 UNL A   1      60.686  22.381  17.552  1.00  0.00    +0.000 H 
BRANCH   17   16
ATOM    115  H12 UNL A   1      59.945  22.063  19.572  1.00  0.00    +0.000 H 
ATOM    116  H13 UNL A   1      60.071  23.837  19.768  1.00  0.00    +0.000 H 
ATOM     16  C11 UNL A   1      59.614  23.026  19.241  1.00  0.00    +0.000 C 
BRANCH   16   15
ATOM    113  H10 UNL A   1      57.832  22.360  20.207  1.00  0.00    +0.000 H 
ATOM    114  H11 UNL A   1      57.926  24.110  19.916  1.00  0.00    +0.000 H 
ATOM     15  C10 UNL A   1      58.105  23.132  19.520  1.00  0.00    +0.000 C 
BRANCH   15   14
ATOM     14  C9  UNL A   1      57.240  22.990  18.263  1.00  0.00    +0.000 C 
ATOM    111  H8  UNL A   1      56.545  23.802  18.216  1.00  0.00    +0.000 H 
ATOM    112  H9  UNL A   1      57.869  23.005  17.397  1.00  0.00    +0.000 H 
BRANCH   14   13
ATOM     13  N1  UNL A   1      56.515  21.736  18.307  1.00  0.00    +0.000 N 
ATOM    110  H7  UNL A   1      55.627  21.819  18.724  1.00  0.00    +0.000 H 
BRANCH   13   11
ATOM     11  C8  UNL A   1      56.795  20.472  17.897  1.00  0.00    +0.000 C 
ATOM     12  O3  UNL A   1      55.873  19.659  18.000  1.00  0.00    +0.000 O 
BRANCH   11   10
ATOM     10  C7  UNL A   1      58.171  20.020  17.456  1.00  0.00    +0.000 C 
BRANCH   10    9
ATOM      9  C6  UNL A   1      58.573  20.065  16.164  1.00  0.00    +0.000 C 
ATOM    109  H6  UNL A   1      59.259  20.802  15.939  1.00  0.00    +0.000 H 
BRANCH    9    8
ATOM      5  C2  UNL A   1      57.224  17.729  12.825  1.00  0.00    +0.000 C 
ATOM    102  C73 UNL A   1      56.792  18.966  14.852  1.00  0.00    +0.000 C 
ATOM      6  C3  UNL A   1      58.596  17.912  13.004  1.00  0.00    +0.000 C 
ATOM    103  C74 UNL A   1      56.319  18.232  13.760  1.00  0.00    +0.000 C 
ATOM      7  C4  UNL A   1      59.060  18.630  14.114  1.00  0.00    +0.000 C 
ATOM      8  C5  UNL A   1      58.166  19.205  15.026  1.00  0.00    +0.000 C 
ATOM    107  H4  UNL A   1      59.265  17.521  12.322  1.00  0.00    +0.000 H 
ATOM    108  H5  UNL A   1      60.076  18.737  14.261  1.00  0.00    +0.000 H 
ATOM    149  H46 UNL A   1      56.121  19.338  15.543  1.00  0.00    +0.000 H 
ATOM    150  H47 UNL A   1      55.307  18.063  13.646  1.00  0.00    +0.000 H 
BRANCH    5    2
ATOM      2  S1  UNL A   1      56.623  16.824  11.416  1.00  0.00    +0.000 S 
ATOM      3  O1  UNL A   1      55.194  16.648  11.593  1.00  0.00    +0.000 O 
ATOM      4  O2  UNL A   1      57.502  15.683  11.256  1.00  0.00    +0.000 O 
BRANCH    2    1
ATOM      1  C1  UNL A   1      56.853  17.906  10.029  1.00  0.00    +0.000 C 
ATOM    106  H3  UNL A   1      56.276  18.796  10.170  1.00  0.00    +0.000 H 
ATOM    105  H2  UNL A   1      57.889  18.162   9.944  1.00  0.00    +0.000 H 
ATOM    104  H1  UNL A   1      56.532  17.413   9.135  1.00  0.00    +0.000 H 
ENDBRANCH    2    1
ENDBRANCH    5    2
ENDBRANCH    9    8
ENDBRANCH   10    9
BRANCH   10   86
ATOM    101  C72 UNL A   1      58.804  19.550  19.858  1.00  0.00    +0.000 C 
ATOM    138  H35 UNL A   1      60.293  18.459  17.064  1.00  0.00    +0.000 H 
ATOM    139  H36 UNL A   1      61.844  17.547  18.681  1.00  0.00    +0.000 H 
ATOM    140  H37 UNL A   1      61.538  18.008  21.037  1.00  0.00    +0.000 H 
ATOM    148  H45 UNL A   1      57.945  20.024  20.180  1.00  0.00    +0.000 H 
ATOM     86  C60 UNL A   1      59.015  19.357  18.486  1.00  0.00    +0.000 C 
ATOM     87  C61 UNL A   1      60.137  18.622  18.070  1.00  0.00    +0.000 C 
ATOM     88  C62 UNL A   1      61.041  18.112  18.997  1.00  0.00    +0.000 C 
ATOM     89  C63 UNL A   1      60.854  18.367  20.352  1.00  0.00    +0.000 C 
ATOM     90  C64 UNL A   1      59.748  19.106  20.803  1.00  0.00    +0.000 C 
BRANCH   90   91
ATOM     99  C70 UNL A   1      59.989  19.120  24.583  1.00  0.00    +0.000 C 
ATOM    100  C71 UNL A   1      60.164  18.742  23.250  1.00  0.00    +0.000 C 
ATOM    141  H38 UNL A   1      58.571  21.296  21.776  1.00  0.00    +0.000 H 
ATOM    142  H39 UNL A   1      58.243  21.949  24.087  1.00  0.00    +0.000 H 
ATOM    146  H43 UNL A   1      60.372  18.539  25.345  1.00  0.00    +0.000 H 
ATOM    147  H44 UNL A   1      60.682  17.877  23.029  1.00  0.00    +0.000 H 
ATOM     91  C65 UNL A   1      59.645  19.525  22.207  1.00  0.00    +0.000 C 
ATOM     92  C66 UNL A   1      58.949  20.705  22.533  1.00  0.00    +0.000 C 
ATOM     93  C67 UNL A   1      58.763  21.088  23.860  1.00  0.00    +0.000 C 
ATOM     94  C68 UNL A   1      59.289  20.292  24.878  1.00  0.00    +0.000 C 
BRANCH   94   95
ATOM     97  O5  UNL A   1      58.622  19.554  27.270  1.00  0.00    +0.000 O 
ATOM     98  O6  UNL A   1      60.119  21.570  27.000  1.00  0.00    +0.000 O 
ATOM     95  S2  UNL A   1      58.994  20.763  26.564  1.00  0.00    +0.000 S 
BRANCH   95   96
ATOM    145  H42 UNL A   1      57.105  21.698  25.509  1.00  0.00    +0.000 H 
ATOM    144  H41 UNL A   1      56.880  21.560  27.237  1.00  0.00    +0.000 H 
ATOM    143  H40 UNL A   1      57.877  22.839  26.583  1.00  0.00    +0.000 H 
ATOM     96  C69 UNL A   1      57.573  21.820  26.463  1.00  0.00    +0.000 C 
ENDBRANCH   95   96
ENDBRANCH   94   95
ENDBRANCH   90   91
ENDBRANCH   10   86
ENDBRANCH   11   10
ENDBRANCH   13   11
ENDBRANCH   14   13
ENDBRANCH   15   14
ENDBRANCH   16   15
ENDBRANCH   17   16
ENDBRANCH   18   17
ENDBRANCH   19   18
ENDBRANCH   20   19
ENDBRANCH   21   20
ENDBRANCH   23   21
ENDBRANCH   27   26
BRANCH   31   32
ATOM     33  C25 UNL A   1      58.699  19.630   6.145  1.00  0.00    +0.000 C 
ATOM     34  F1  UNL A   1      58.684  18.599   7.004  1.00  0.00    +0.000 F 
ATOM     35  C26 UNL A   1      59.421  19.505   4.961  1.00  0.00    +0.000 C 
ATOM     36  F2  UNL A   1      60.093  18.374   4.704  1.00  0.00    +0.000 F 
ATOM     37  C27 UNL A   1      59.457  20.553   4.055  1.00  0.00    +0.000 C 
ATOM     38  F3  UNL A   1      60.147  20.429   2.912  1.00  0.00    +0.000 F 
ATOM     39  C28 UNL A   1      58.783  21.733   4.334  1.00  0.00    +0.000 C 
ATOM     40  F4  UNL A   1      58.807  22.741   3.453  1.00  0.00    +0.000 F 
ATOM     41  C29 UNL A   1      58.084  21.870   5.531  1.00  0.00    +0.000 C 
ATOM     42  F5  UNL A   1      57.455  23.030   5.780  1.00  0.00    +0.000 F 
ATOM     32  C24 UNL A   1      58.028  20.821   6.460  1.00  0.00    +0.000 C 
ENDBRANCH   31   32
BRANCH   48   49
ATOM     49  C35 UNL A   1      51.197  20.111   8.635  1.00  0.00    +0.000 C 
ATOM     50  C36 UNL A   1      50.254  21.080   8.262  1.00  0.00    +0.000 C 
ATOM     51  F6  UNL A   1      50.490  22.378   8.499  1.00  0.00    +0.000 F 
ATOM     52  C37 UNL A   1      49.049  20.713   7.670  1.00  0.00    +0.000 C 
ATOM     53  F7  UNL A   1      48.145  21.651   7.355  1.00  0.00    +0.000 F 
ATOM     54  C38 UNL A   1      48.777  19.377   7.414  1.00  0.00    +0.000 C 
ATOM     55  F8  UNL A   1      47.621  19.027   6.832  1.00  0.00    +0.000 F 
ATOM     56  C39 UNL A   1      49.700  18.404   7.766  1.00  0.00    +0.000 C 
ATOM     57  F9  UNL A   1      49.444  17.113   7.507  1.00  0.00    +0.000 F 
ATOM     58  C40 UNL A   1      50.893  18.765   8.383  1.00  0.00    +0.000 C 
ATOM     59  F10 UNL A   1      51.765  17.801   8.716  1.00  0.00    +0.000 F 
ENDBRANCH   48   49
BRANCH   63   64
ATOM     65  C45 UNL A   1      53.117  21.231  16.072  1.00  0.00    +0.000 C 
ATOM     66  F11 UNL A   1      53.825  20.101  15.929  1.00  0.00    +0.000 F 
ATOM     67  C46 UNL A   1      52.406  21.437  17.251  1.00  0.00    +0.000 C 
ATOM     68  F12 UNL A   1      52.434  20.511  18.219  1.00  0.00    +0.000 F 
ATOM     69  C47 UNL A   1      51.659  22.594  17.421  1.00  0.00    +0.000 C 
ATOM     70  F13 UNL A   1      50.981  22.796  18.558  1.00  0.00    +0.000 F 
ATOM     71  C48 UNL A   1      51.613  23.538  16.406  1.00  0.00    +0.000 C 
ATOM     72  F14 UNL A   1      50.906  24.664  16.572  1.00  0.00    +0.000 F 
ATOM     73  C49 UNL A   1      52.301  23.320  15.215  1.00  0.00    +0.000 C 
ATOM     74  F15 UNL A   1      52.230  24.246  14.247  1.00  0.00    +0.000 F 
ATOM     64  C44 UNL A   1      53.072  22.164  15.026  1.00  0.00    +0.000 C 
ENDBRANCH   63   64
TORSDOF 23
ENDMDL
MODEL 9
REMARK VINA RESULT:      -7.7     44.298     50.668
ROOT
ATOM    129  H26 UNL A   1      56.152  22.661  15.826  1.00  0.00    +0.000 H 
ATOM    130  H27 UNL A   1      58.593  21.959  15.869  1.00  0.00    +0.000 H 
ATOM    131  H28 UNL A   1      56.767  20.024  12.675  1.00  0.00    +0.000 H 
ATOM    132  H29 UNL A   1      52.084  21.851  12.455  1.00  0.00    +0.000 H 
ATOM    133  H30 UNL A   1      51.721  20.323  10.433  1.00  0.00    +0.000 H 
ATOM    134  H31 UNL A   1      61.352  17.479  10.743  1.00  0.00    +0.000 H 
ATOM    135  H32 UNL A   1      61.640  18.697  12.977  1.00  0.00    +0.000 H 
ATOM     27  C20 UNL A   1      59.330  20.148  13.793  1.00  0.00    +0.000 C 
ATOM     28  C21 UNL A   1      59.468  19.237  12.608  1.00  0.00    +0.000 C 
ATOM     29  N3  UNL A   1      58.578  18.911  11.705  1.00  0.00    +0.000 N 
ATOM     30  C22 UNL A   1      59.234  18.077  10.812  1.00  0.00    +0.000 C 
ATOM     31  C23 UNL A   1      58.728  17.432   9.734  1.00  0.00    +0.000 C 
ATOM     43  C30 UNL A   1      57.355  17.511   9.314  1.00  0.00    +0.000 C 
ATOM     44  C31 UNL A   1      56.729  16.841   8.277  1.00  0.00    +0.000 C 
ATOM     45  C32 UNL A   1      55.402  17.279   8.211  1.00  0.00    +0.000 C 
ATOM     46  C33 UNL A   1      55.187  18.186   9.237  1.00  0.00    +0.000 C 
ATOM     47  N4  UNL A   1      56.393  18.317   9.907  1.00  0.00    +0.000 N 
ATOM     48  C34 UNL A   1      53.976  18.889   9.575  1.00  0.00    +0.000 C 
ATOM     60  C41 UNL A   1      53.831  19.726  10.630  1.00  0.00    +0.000 C 
ATOM     61  N5  UNL A   1      54.766  20.091  11.589  1.00  0.00    +0.000 N 
ATOM     62  C42 UNL A   1      54.154  20.930  12.389  1.00  0.00    +0.000 C 
ATOM     63  C43 UNL A   1      54.681  21.630  13.612  1.00  0.00    +0.000 C 
ATOM     75  C50 UNL A   1      55.952  21.409  13.999  1.00  0.00    +0.000 C 
ATOM     76  C51 UNL A   1      56.605  22.029  15.147  1.00  0.00    +0.000 C 
ATOM     77  C52 UNL A   1      57.892  21.647  15.178  1.00  0.00    +0.000 C 
ATOM     78  C53 UNL A   1      58.142  20.716  14.077  1.00  0.00    +0.000 C 
ATOM     79  N6  UNL A   1      56.926  20.613  13.448  1.00  0.00    +0.000 N 
ATOM     80  C54 UNL A   1      52.762  21.210  12.013  1.00  0.00    +0.000 C 
ATOM     81  C55 UNL A   1      52.605  20.424  10.956  1.00  0.00    +0.000 C 
ATOM     82  C56 UNL A   1      60.610  17.985  11.251  1.00  0.00    +0.000 C 
ATOM     83  C57 UNL A   1      60.791  18.633  12.392  1.00  0.00    +0.000 C 
ATOM    126  H23 UNL A   1      57.166  16.140   7.658  1.00  0.00    +0.000 H 
ATOM    127  H24 UNL A   1      54.701  16.978   7.516  1.00  0.00    +0.000 H 
ATOM    128  H25 UNL A   1      56.545  18.895  10.689  1.00  0.00    +0.000 H 
ENDROOT
BRANCH   27   26
ATOM    136  H33 UNL A   1      60.253  18.912  15.972  1.00  0.00    +0.000 H 
ATOM    137  H34 UNL A   1      62.200  19.447  17.312  1.00  0.00    +0.000 H 
ATOM     84  C58 UNL A   1      60.855  19.708  15.711  1.00  0.00    +0.000 C 
ATOM     85  C59 UNL A   1      61.994  19.990  16.458  1.00  0.00    +0.000 C 
ATOM     23  C16 UNL A   1      62.858  21.009  16.048  1.00  0.00    +0.000 C 
ATOM     24  C17 UNL A   1      62.512  21.842  14.981  1.00  0.00    +0.000 C 
ATOM     25  C18 UNL A   1      61.334  21.599  14.271  1.00  0.00    +0.000 C 
ATOM     26  C19 UNL A   1      60.520  20.503  14.603  1.00  0.00    +0.000 C 
ATOM    124  H21 UNL A   1      63.122  22.631  14.719  1.00  0.00    +0.000 H 
ATOM    125  H22 UNL A   1      61.059  22.227  13.500  1.00  0.00    +0.000 H 
BRANCH   23   21
ATOM     21  C15 UNL A   1      64.155  21.210  16.727  1.00  0.00    +0.000 C 
ATOM     22  O4  UNL A   1      65.022  20.346  16.662  1.00  0.00    +0.000 O 
BRANCH   21   20
ATOM    123  H20 UNL A   1      65.204  22.848  17.228  1.00  0.00    +0.000 H 
ATOM     20  N2  UNL A   1      64.372  22.365  17.440  1.00  0.00    +0.000 N 
BRANCH   20   19
ATOM    121  H18 UNL A   1      62.845  22.234  18.827  1.00  0.00    +0.000 H 
ATOM    122  H19 UNL A   1      64.171  23.321  19.248  1.00  0.00    +0.000 H 
ATOM     19  C14 UNL A   1      63.534  22.970  18.465  1.00  0.00    +0.000 C 
BRANCH   19   18
ATOM     18  C13 UNL A   1      62.745  24.161  17.928  1.00  0.00    +0.000 C 
ATOM    119  H16 UNL A   1      62.889  24.986  18.595  1.00  0.00    +0.000 H 
ATOM    120  H17 UNL A   1      63.114  24.354  16.942  1.00  0.00    +0.000 H 
BRANCH   18   17
ATOM     17  C12 UNL A   1      61.241  23.909  17.794  1.00  0.00    +0.000 C 
ATOM    117  H14 UNL A   1      60.732  24.829  17.998  1.00  0.00    +0.000 H 
ATOM    118  H15 UNL A   1      61.086  23.550  16.798  1.00  0.00    +0.000 H 
BRANCH   17   16
ATOM    115  H12 UNL A   1      60.568  21.930  18.171  1.00  0.00    +0.000 H 
ATOM    116  H13 UNL A   1      61.376  22.751  19.541  1.00  0.00    +0.000 H 
ATOM     16  C11 UNL A   1      60.680  22.835  18.732  1.00  0.00    +0.000 C 
BRANCH   16   15
ATOM    113  H10 UNL A   1      59.195  22.559  20.240  1.00  0.00    +0.000 H 
ATOM    114  H11 UNL A   1      59.334  24.214  19.608  1.00  0.00    +0.000 H 
ATOM     15  C10 UNL A   1      59.321  23.170  19.372  1.00  0.00    +0.000 C 
BRANCH   15   14
ATOM     14  C9  UNL A   1      58.131  22.934  18.436  1.00  0.00    +0.000 C 
ATOM    111  H8  UNL A   1      57.676  23.873  18.196  1.00  0.00    +0.000 H 
ATOM    112  H9  UNL A   1      58.474  22.461  17.540  1.00  0.00    +0.000 H 
BRANCH   14   13
ATOM     13  N1  UNL A   1      57.158  22.080  19.087  1.00  0.00    +0.000 N 
ATOM    110  H7  UNL A   1      56.575  22.567  19.713  1.00  0.00    +0.000 H 
BRANCH   13   11
ATOM     11  C8  UNL A   1      56.877  20.753  19.019  1.00  0.00    +0.000 C 
ATOM     12  O3  UNL A   1      55.809  20.406  19.530  1.00  0.00    +0.000 O 
BRANCH   11   10
ATOM     10  C7  UNL A   1      57.839  19.719  18.475  1.00  0.00    +0.000 C 
BRANCH   10    9
ATOM      9  C6  UNL A   1      59.145  19.681  18.831  1.00  0.00    +0.000 C 
ATOM    109  H6  UNL A   1      59.807  20.035  18.124  1.00  0.00    +0.000 H 
BRANCH    9    8
ATOM      5  C2  UNL A   1      61.127  18.305  22.381  1.00  0.00    +0.000 C 
ATOM    102  C73 UNL A   1      60.766  18.226  19.995  1.00  0.00    +0.000 C 
ATOM      6  C3  UNL A   1      60.097  19.237  22.508  1.00  0.00    +0.000 C 
ATOM    103  C74 UNL A   1      61.448  17.776  21.130  1.00  0.00    +0.000 C 
ATOM      7  C4  UNL A   1      59.404  19.663  21.367  1.00  0.00    +0.000 C 
ATOM      8  C5  UNL A   1      59.758  19.200  20.093  1.00  0.00    +0.000 C 
ATOM    107  H4  UNL A   1      59.846  19.610  23.436  1.00  0.00    +0.000 H 
ATOM    108  H5  UNL A   1      58.621  20.328  21.467  1.00  0.00    +0.000 H 
ATOM    149  H46 UNL A   1      61.005  17.834  19.071  1.00  0.00    +0.000 H 
ATOM    150  H47 UNL A   1      62.186  17.059  21.043  1.00  0.00    +0.000 H 
BRANCH    5    2
ATOM      2  S1  UNL A   1      62.018  17.760  23.821  1.00  0.00    +0.000 S 
ATOM      3  O1  UNL A   1      63.433  17.925  23.542  1.00  0.00    +0.000 O 
ATOM      4  O2  UNL A   1      61.472  16.465  24.176  1.00  0.00    +0.000 O 
BRANCH    2    1
ATOM      1  C1  UNL A   1      61.595  18.915  25.100  1.00  0.00    +0.000 C 
ATOM    106  H3  UNL A   1      60.546  19.118  25.065  1.00  0.00    +0.000 H 
ATOM    105  H2  UNL A   1      61.847  18.500  26.053  1.00  0.00    +0.000 H 
ATOM    104  H1  UNL A   1      62.138  19.825  24.952  1.00  0.00    +0.000 H 
ENDBRANCH    2    1
ENDBRANCH    5    2
ENDBRANCH    9    8
ENDBRANCH   10    9
BRANCH   10   86
ATOM    101  C72 UNL A   1      58.143  17.902  16.744  1.00  0.00    +0.000 C 
ATOM    138  H35 UNL A   1      55.409  19.726  17.384  1.00  0.00    +0.000 H 
ATOM    139  H36 UNL A   1      54.586  18.498  15.469  1.00  0.00    +0.000 H 
ATOM    140  H37 UNL A   1      56.056  16.983  14.286  1.00  0.00    +0.000 H 
ATOM    148  H45 UNL A   1      59.075  17.685  17.133  1.00  0.00    +0.000 H 
ATOM     86  C60 UNL A   1      57.327  18.841  17.388  1.00  0.00    +0.000 C 
ATOM     87  C61 UNL A   1      56.025  19.050  16.907  1.00  0.00    +0.000 C 
ATOM     88  C62 UNL A   1      55.555  18.358  15.794  1.00  0.00    +0.000 C 
ATOM     89  C63 UNL A   1      56.399  17.478  15.125  1.00  0.00    +0.000 C 
ATOM     90  C64 UNL A   1      57.710  17.252  15.574  1.00  0.00    +0.000 C 
BRANCH   90   91
ATOM     99  C70 UNL A   1      59.149  15.002  12.887  1.00  0.00    +0.000 C 
ATOM    100  C71 UNL A   1      58.255  15.809  13.595  1.00  0.00    +0.000 C 
ATOM    141  H38 UNL A   1      60.289  16.777  16.076  1.00  0.00    +0.000 H 
ATOM    142  H39 UNL A   1      61.841  15.362  14.867  1.00  0.00    +0.000 H 
ATOM    146  H43 UNL A   1      58.848  14.523  12.024  1.00  0.00    +0.000 H 
ATOM    147  H44 UNL A   1      57.290  15.926  13.248  1.00  0.00    +0.000 H 
ATOM     91  C65 UNL A   1      58.654  16.463  14.770  1.00  0.00    +0.000 C 
ATOM     92  C66 UNL A   1      59.979  16.294  15.218  1.00  0.00    +0.000 C 
ATOM     93  C67 UNL A   1      60.876  15.486  14.523  1.00  0.00    +0.000 C 
ATOM     94  C68 UNL A   1      60.454  14.847  13.358  1.00  0.00    +0.000 C 
BRANCH   94   95
ATOM     97  O5  UNL A   1      62.479  13.239  13.528  1.00  0.00    +0.000 O 
ATOM     98  O6  UNL A   1      60.820  12.899  11.654  1.00  0.00    +0.000 O 
ATOM     95  S2  UNL A   1      61.593  13.775  12.515  1.00  0.00    +0.000 S 
BRANCH   95   96
ATOM    145  H42 UNL A   1      62.563  14.481  10.486  1.00  0.00    +0.000 H 
ATOM    144  H41 UNL A   1      62.039  15.835  11.459  1.00  0.00    +0.000 H 
ATOM    143  H40 UNL A   1      63.511  14.983  11.866  1.00  0.00    +0.000 H 
ATOM     96  C69 UNL A   1      62.519  14.878  11.479  1.00  0.00    +0.000 C 
ENDBRANCH   95   96
ENDBRANCH   94   95
ENDBRANCH   90   91
ENDBRANCH   10   86
ENDBRANCH   11   10
ENDBRANCH   13   11
ENDBRANCH   14   13
ENDBRANCH   15   14
ENDBRANCH   16   15
ENDBRANCH   17   16
ENDBRANCH   18   17
ENDBRANCH   19   18
ENDBRANCH   20   19
ENDBRANCH   21   20
ENDBRANCH   23   21
ENDBRANCH   27   26
BRANCH   31   32
ATOM     33  C25 UNL A   1      59.662  15.181   9.032  1.00  0.00    +0.000 C 
ATOM     34  F1  UNL A   1      58.838  14.571   9.898  1.00  0.00    +0.000 F 
ATOM     35  C26 UNL A   1      60.531  14.404   8.272  1.00  0.00    +0.000 C 
ATOM     36  F2  UNL A   1      60.541  13.072   8.421  1.00  0.00    +0.000 F 
ATOM     37  C27 UNL A   1      61.396  15.005   7.371  1.00  0.00    +0.000 C 
ATOM     38  F3  UNL A   1      62.227  14.254   6.634  1.00  0.00    +0.000 F 
ATOM     39  C28 UNL A   1      61.404  16.385   7.237  1.00  0.00    +0.000 C 
ATOM     40  F4  UNL A   1      62.230  16.967   6.357  1.00  0.00    +0.000 F 
ATOM     41  C29 UNL A   1      60.556  17.168   8.016  1.00  0.00    +0.000 C 
ATOM     42  F5  UNL A   1      60.599  18.502   7.875  1.00  0.00    +0.000 F 
ATOM     32  C24 UNL A   1      59.668  16.581   8.930  1.00  0.00    +0.000 C 
ENDBRANCH   31   32
BRANCH   48   49
ATOM     49  C35 UNL A   1      52.776  18.665   8.704  1.00  0.00    +0.000 C 
ATOM     50  C36 UNL A   1      51.782  17.738   9.052  1.00  0.00    +0.000 C 
ATOM     51  F6  UNL A   1      51.922  16.977  10.147  1.00  0.00    +0.000 F 
ATOM     52  C37 UNL A   1      50.652  17.570   8.256  1.00  0.00    +0.000 C 
ATOM     53  F7  UNL A   1      49.732  16.653   8.587  1.00  0.00    +0.000 F 
ATOM     54  C38 UNL A   1      50.480  18.343   7.118  1.00  0.00    +0.000 C 
ATOM     55  F8  UNL A   1      49.385  18.188   6.360  1.00  0.00    +0.000 F 
ATOM     56  C39 UNL A   1      51.446  19.272   6.760  1.00  0.00    +0.000 C 
ATOM     57  F9  UNL A   1      51.275  20.029   5.667  1.00  0.00    +0.000 F 
ATOM     58  C40 UNL A   1      52.589  19.423   7.538  1.00  0.00    +0.000 C 
ATOM     59  F10 UNL A   1      53.509  20.326   7.165  1.00  0.00    +0.000 F 
ENDBRANCH   48   49
BRANCH   63   64
ATOM     65  C45 UNL A   1      53.746  23.911  14.082  1.00  0.00    +0.000 C 
ATOM     66  F11 UNL A   1      54.485  24.403  13.076  1.00  0.00    +0.000 F 
ATOM     67  C46 UNL A   1      52.948  24.781  14.821  1.00  0.00    +0.000 C 
ATOM     68  F12 UNL A   1      52.931  26.087  14.524  1.00  0.00    +0.000 F 
ATOM     69  C47 UNL A   1      52.181  24.300  15.872  1.00  0.00    +0.000 C 
ATOM     70  F13 UNL A   1      51.408  25.135  16.578  1.00  0.00    +0.000 F 
ATOM     71  C48 UNL A   1      52.222  22.951  16.192  1.00  0.00    +0.000 C 
ATOM     72  F14 UNL A   1      51.471  22.479  17.196  1.00  0.00    +0.000 F 
ATOM     73  C49 UNL A   1      53.041  22.085  15.471  1.00  0.00    +0.000 C 
ATOM     74  F15 UNL A   1      53.068  20.787  15.809  1.00  0.00    +0.000 F 
ATOM     64  C44 UNL A   1      53.816  22.547  14.397  1.00  0.00    +0.000 C 
ENDBRANCH   63   64
TORSDOF 23
ENDMDL
MODEL 10
REMARK VINA RESULT:      -7.6     30.053     35.134
ROOT
ATOM    129  H26 UNL A   1       5.323  31.014  15.643  1.00  0.00    +0.000 H 
ATOM    130  H27 UNL A   1       4.782  33.029  17.090  1.00  0.00    +0.000 H 
ATOM    131  H28 UNL A   1       5.477  29.799  19.613  1.00  0.00    +0.000 H 
ATOM    132  H29 UNL A   1       6.966  26.026  16.637  1.00  0.00    +0.000 H 
ATOM    133  H30 UNL A   1       7.184  24.609  18.759  1.00  0.00    +0.000 H 
ATOM    134  H31 UNL A   1       4.896  32.586  24.422  1.00  0.00    +0.000 H 
ATOM    135  H32 UNL A   1       4.306  33.914  22.313  1.00  0.00    +0.000 H 
ATOM     27  C20 UNL A   1       4.828  32.507  19.894  1.00  0.00    +0.000 C 
ATOM     28  C21 UNL A   1       4.946  31.990  21.298  1.00  0.00    +0.000 C 
ATOM     29  N3  UNL A   1       5.306  30.803  21.716  1.00  0.00    +0.000 N 
ATOM     30  C22 UNL A   1       5.287  30.868  23.101  1.00  0.00    +0.000 C 
ATOM     31  C23 UNL A   1       5.528  29.880  23.996  1.00  0.00    +0.000 C 
ATOM     43  C30 UNL A   1       5.864  28.528  23.637  1.00  0.00    +0.000 C 
ATOM     44  C31 UNL A   1       6.059  27.438  24.467  1.00  0.00    +0.000 C 
ATOM     45  C32 UNL A   1       6.424  26.345  23.674  1.00  0.00    +0.000 C 
ATOM     46  C33 UNL A   1       6.409  26.741  22.346  1.00  0.00    +0.000 C 
ATOM     47  N4  UNL A   1       6.062  28.082  22.338  1.00  0.00    +0.000 N 
ATOM     48  C34 UNL A   1       6.701  25.958  21.172  1.00  0.00    +0.000 C 
ATOM     60  C41 UNL A   1       6.616  26.406  19.897  1.00  0.00    +0.000 C 
ATOM     61  N5  UNL A   1       6.248  27.663  19.437  1.00  0.00    +0.000 N 
ATOM     62  C42 UNL A   1       6.333  27.609  18.131  1.00  0.00    +0.000 C 
ATOM     63  C43 UNL A   1       6.036  28.678  17.116  1.00  0.00    +0.000 C 
ATOM     75  C50 UNL A   1       5.616  29.887  17.537  1.00  0.00    +0.000 C 
ATOM     76  C51 UNL A   1       5.310  31.023  16.675  1.00  0.00    +0.000 C 
ATOM     77  C52 UNL A   1       5.010  32.085  17.440  1.00  0.00    +0.000 C 
ATOM     78  C53 UNL A   1       5.057  31.689  18.848  1.00  0.00    +0.000 C 
ATOM     79  N6  UNL A   1       5.398  30.360  18.808  1.00  0.00    +0.000 N 
ATOM     80  C54 UNL A   1       6.788  26.311  17.613  1.00  0.00    +0.000 C 
ATOM     81  C55 UNL A   1       6.912  25.604  18.728  1.00  0.00    +0.000 C 
ATOM     82  C56 UNL A   1       4.929  32.225  23.456  1.00  0.00    +0.000 C 
ATOM     83  C57 UNL A   1       4.646  32.942  22.378  1.00  0.00    +0.000 C 
ATOM    126  H23 UNL A   1       5.954  27.433  25.494  1.00  0.00    +0.000 H 
ATOM    127  H24 UNL A   1       6.663  25.402  24.019  1.00  0.00    +0.000 H 
ATOM    128  H25 UNL A   1       5.968  28.637  21.530  1.00  0.00    +0.000 H 
ENDROOT
BRANCH   27   26
ATOM    136  H33 UNL A   1       6.578  34.523  19.855  1.00  0.00    +0.000 H 
ATOM    137  H34 UNL A   1       6.175  36.877  19.442  1.00  0.00    +0.000 H 
ATOM     84  C58 UNL A   1       5.623  34.854  19.650  1.00  0.00    +0.000 C 
ATOM     85  C59 UNL A   1       5.400  36.199  19.374  1.00  0.00    +0.000 C 
ATOM     23  C16 UNL A   1       4.122  36.629  19.004  1.00  0.00    +0.000 C 
ATOM     24  C17 UNL A   1       3.039  35.747  19.051  1.00  0.00    +0.000 C 
ATOM     25  C18 UNL A   1       3.253  34.409  19.391  1.00  0.00    +0.000 C 
ATOM     26  C19 UNL A   1       4.554  33.944  19.649  1.00  0.00    +0.000 C 
ATOM    124  H21 UNL A   1       2.088  36.082  18.835  1.00  0.00    +0.000 H 
ATOM    125  H22 UNL A   1       2.454  33.761  19.455  1.00  0.00    +0.000 H 
BRANCH   23   21
ATOM     21  C15 UNL A   1       3.902  38.016  18.542  1.00  0.00    +0.000 C 
ATOM     22  O4  UNL A   1       4.833  38.660  18.071  1.00  0.00    +0.000 O 
BRANCH   21   20
ATOM    123  H20 UNL A   1       2.000  38.313  17.971  1.00  0.00    +0.000 H 
ATOM     20  N2  UNL A   1       2.653  38.575  18.660  1.00  0.00    +0.000 N 
BRANCH   20   19
ATOM    121  H18 UNL A   1       2.845  40.331  19.735  1.00  0.00    +0.000 H 
ATOM    122  H19 UNL A   1       1.190  39.828  19.378  1.00  0.00    +0.000 H 
ATOM     19  C14 UNL A   1       2.167  39.505  19.670  1.00  0.00    +0.000 C 
BRANCH   19   18
ATOM     18  C13 UNL A   1       2.056  38.849  21.043  1.00  0.00    +0.000 C 
ATOM    119  H16 UNL A   1       1.036  38.909  21.362  1.00  0.00    +0.000 H 
ATOM    120  H17 UNL A   1       2.397  37.841  20.931  1.00  0.00    +0.000 H 
BRANCH   18   17
ATOM     17  C12 UNL A   1       2.934  39.493  22.119  1.00  0.00    +0.000 C 
ATOM    117  H14 UNL A   1       2.659  40.525  22.197  1.00  0.00    +0.000 H 
ATOM    118  H15 UNL A   1       2.760  38.939  23.018  1.00  0.00    +0.000 H 
BRANCH   17   16
ATOM    115  H12 UNL A   1       4.647  38.495  21.355  1.00  0.00    +0.000 H 
ATOM    116  H13 UNL A   1       4.683  40.282  21.265  1.00  0.00    +0.000 H 
ATOM     16  C11 UNL A   1       4.442  39.420  21.853  1.00  0.00    +0.000 C 
BRANCH   16   15
ATOM    113  H10 UNL A   1       6.143  38.809  22.986  1.00  0.00    +0.000 H 
ATOM    114  H11 UNL A   1       5.665  40.508  23.194  1.00  0.00    +0.000 H 
ATOM     15  C10 UNL A   1       5.331  39.495  23.105  1.00  0.00    +0.000 C 
BRANCH   15   14
ATOM     14  C9  UNL A   1       4.591  39.149  24.402  1.00  0.00    +0.000 C 
ATOM    111  H8  UNL A   1       4.825  39.878  25.150  1.00  0.00    +0.000 H 
ATOM    112  H9  UNL A   1       3.537  39.148  24.218  1.00  0.00    +0.000 H 
BRANCH   14   13
ATOM     13  N1  UNL A   1       4.999  37.837  24.863  1.00  0.00    +0.000 N 
ATOM    110  H7  UNL A   1       5.306  37.835  25.798  1.00  0.00    +0.000 H 
BRANCH   13   11
ATOM     11  C8  UNL A   1       5.049  36.610  24.283  1.00  0.00    +0.000 C 
ATOM     12  O3  UNL A   1       4.093  36.321  23.559  1.00  0.00    +0.000 O 
BRANCH   11   10
ATOM     10  C7  UNL A   1       6.124  35.586  24.580  1.00  0.00    +0.000 C 
BRANCH   10    9
ATOM      9  C6  UNL A   1       6.080  34.778  25.666  1.00  0.00    +0.000 C 
ATOM    109  H6  UNL A   1       6.992  34.415  25.984  1.00  0.00    +0.000 H 
BRANCH    9    8
ATOM      5  C2  UNL A   1       2.687  33.718  28.072  1.00  0.00    +0.000 C 
ATOM    102  C73 UNL A   1       4.906  34.639  27.834  1.00  0.00    +0.000 C 
ATOM      6  C3  UNL A   1       2.686  33.367  26.721  1.00  0.00    +0.000 C 
ATOM    103  C74 UNL A   1       3.805  34.331  28.639  1.00  0.00    +0.000 C 
ATOM      7  C4  UNL A   1       3.804  33.661  25.929  1.00  0.00    +0.000 C 
ATOM      8  C5  UNL A   1       4.908  34.340  26.461  1.00  0.00    +0.000 C 
ATOM    107  H4  UNL A   1       1.867  32.895  26.309  1.00  0.00    +0.000 H 
ATOM    108  H5  UNL A   1       3.814  33.372  24.938  1.00  0.00    +0.000 H 
ATOM    149  H46 UNL A   1       5.732  35.093  28.255  1.00  0.00    +0.000 H 
ATOM    150  H47 UNL A   1       3.818  34.556  29.647  1.00  0.00    +0.000 H 
BRANCH    5    2
ATOM      2  S1  UNL A   1       1.271  33.357  29.087  1.00  0.00    +0.000 S 
ATOM      3  O1  UNL A   1       0.326  32.624  28.265  1.00  0.00    +0.000 O 
ATOM      4  O2  UNL A   1       0.896  34.603  29.727  1.00  0.00    +0.000 O 
BRANCH    2    1
ATOM      1  C1  UNL A   1       1.860  32.242  30.335  1.00  0.00    +0.000 C 
ATOM    106  H3  UNL A   1       2.877  32.475  30.571  1.00  0.00    +0.000 H 
ATOM    105  H2  UNL A   1       1.258  32.341  31.214  1.00  0.00    +0.000 H 
ATOM    104  H1  UNL A   1       1.800  31.237  29.973  1.00  0.00    +0.000 H 
ENDBRANCH    2    1
ENDBRANCH    5    2
ENDBRANCH    9    8
ENDBRANCH   10    9
BRANCH   10   86
ATOM    101  C72 UNL A   1       7.525  36.612  22.743  1.00  0.00    +0.000 C 
ATOM    138  H35 UNL A   1       8.122  33.826  24.503  1.00  0.00    +0.000 H 
ATOM    139  H36 UNL A   1       9.985  33.690  22.966  1.00  0.00    +0.000 H 
ATOM    140  H37 UNL A   1      10.221  35.339  21.210  1.00  0.00    +0.000 H 
ATOM    148  H45 UNL A   1       6.907  37.439  22.731  1.00  0.00    +0.000 H 
ATOM     86  C60 UNL A   1       7.332  35.620  23.713  1.00  0.00    +0.000 C 
ATOM     87  C61 UNL A   1       8.243  34.553  23.781  1.00  0.00    +0.000 C 
ATOM     88  C62 UNL A   1       9.306  34.463  22.887  1.00  0.00    +0.000 C 
ATOM     89  C63 UNL A   1       9.446  35.420  21.887  1.00  0.00    +0.000 C 
ATOM     90  C64 UNL A   1       8.548  36.495  21.784  1.00  0.00    +0.000 C 
BRANCH   90   91
ATOM     99  C70 UNL A   1       7.976  39.487  19.532  1.00  0.00    +0.000 C 
ATOM    100  C71 UNL A   1       7.992  38.671  20.666  1.00  0.00    +0.000 C 
ATOM    141  H38 UNL A   1       9.635  36.044  19.387  1.00  0.00    +0.000 H 
ATOM    142  H39 UNL A   1       9.594  37.444  17.410  1.00  0.00    +0.000 H 
ATOM    146  H43 UNL A   1       7.533  40.418  19.566  1.00  0.00    +0.000 H 
ATOM    147  H44 UNL A   1       7.558  39.005  21.541  1.00  0.00    +0.000 H 
ATOM     91  C65 UNL A   1       8.590  37.402  20.629  1.00  0.00    +0.000 C 
ATOM     92  C66 UNL A   1       9.182  36.971  19.426  1.00  0.00    +0.000 C 
ATOM     93  C67 UNL A   1       9.166  37.775  18.288  1.00  0.00    +0.000 C 
ATOM     94  C68 UNL A   1       8.565  39.032  18.351  1.00  0.00    +0.000 C 
BRANCH   94   95
ATOM     97  O5  UNL A   1       9.805  39.909  16.252  1.00  0.00    +0.000 O 
ATOM     98  O6  UNL A   1       7.293  39.665  16.158  1.00  0.00    +0.000 O 
ATOM     95  S2  UNL A   1       8.503  40.020  16.877  1.00  0.00    +0.000 S 
BRANCH   95   96
ATOM    145  H42 UNL A   1       7.279  41.846  17.727  1.00  0.00    +0.000 H 
ATOM    144  H41 UNL A   1       8.905  41.802  18.366  1.00  0.00    +0.000 H 
ATOM    143  H40 UNL A   1       8.620  42.370  16.738  1.00  0.00    +0.000 H 
ATOM     96  C69 UNL A   1       8.307  41.674  17.487  1.00  0.00    +0.000 C 
ENDBRANCH   95   96
ENDBRANCH   94   95
ENDBRANCH   90   91
ENDBRANCH   10   86
ENDBRANCH   11   10
ENDBRANCH   13   11
ENDBRANCH   14   13
ENDBRANCH   15   14
ENDBRANCH   16   15
ENDBRANCH   17   16
ENDBRANCH   18   17
ENDBRANCH   19   18
ENDBRANCH   20   19
ENDBRANCH   21   20
ENDBRANCH   23   21
ENDBRANCH   27   26
BRANCH   31   32
ATOM     33  C25 UNL A   1       6.473  30.906  26.113  1.00  0.00    +0.000 C 
ATOM     34  F1  UNL A   1       7.599  31.222  25.456  1.00  0.00    +0.000 F 
ATOM     35  C26 UNL A   1       6.371  31.231  27.463  1.00  0.00    +0.000 C 
ATOM     36  F2  UNL A   1       7.392  31.838  28.083  1.00  0.00    +0.000 F 
ATOM     37  C27 UNL A   1       5.221  30.915  28.170  1.00  0.00    +0.000 C 
ATOM     38  F3  UNL A   1       5.121  31.235  29.468  1.00  0.00    +0.000 F 
ATOM     39  C28 UNL A   1       4.175  30.263  27.533  1.00  0.00    +0.000 C 
ATOM     40  F4  UNL A   1       3.058  29.969  28.212  1.00  0.00    +0.000 F 
ATOM     41  C29 UNL A   1       4.286  29.911  26.191  1.00  0.00    +0.000 C 
ATOM     42  F5  UNL A   1       3.264  29.266  25.607  1.00  0.00    +0.000 F 
ATOM     32  C24 UNL A   1       5.438  30.226  25.453  1.00  0.00    +0.000 C 
ENDBRANCH   31   32
BRANCH   48   49
ATOM     49  C35 UNL A   1       7.114  24.530  21.374  1.00  0.00    +0.000 C 
ATOM     50  C36 UNL A   1       6.182  23.483  21.317  1.00  0.00    +0.000 C 
ATOM     51  F6  UNL A   1       4.879  23.749  21.148  1.00  0.00    +0.000 F 
ATOM     52  C37 UNL A   1       6.585  22.159  21.464  1.00  0.00    +0.000 C 
ATOM     53  F7  UNL A   1       5.673  21.177  21.443  1.00  0.00    +0.000 F 
ATOM     54  C38 UNL A   1       7.926  21.854  21.640  1.00  0.00    +0.000 C 
ATOM     55  F8  UNL A   1       8.313  20.577  21.769  1.00  0.00    +0.000 F 
ATOM     56  C39 UNL A   1       8.866  22.873  21.690  1.00  0.00    +0.000 C 
ATOM     57  F9  UNL A   1      10.164  22.579  21.848  1.00  0.00    +0.000 F 
ATOM     58  C40 UNL A   1       8.463  24.199  21.571  1.00  0.00    +0.000 C 
ATOM     59  F10 UNL A   1       9.394  25.164  21.629  1.00  0.00    +0.000 F 
ENDBRANCH   48   49
BRANCH   63   64
ATOM     65  C45 UNL A   1       5.072  28.116  14.867  1.00  0.00    +0.000 C 
ATOM     66  F11 UNL A   1       3.854  28.047  15.425  1.00  0.00    +0.000 F 
ATOM     67  C46 UNL A   1       5.207  27.852  13.506  1.00  0.00    +0.000 C 
ATOM     68  F12 UNL A   1       4.129  27.531  12.778  1.00  0.00    +0.000 F 
ATOM     69  C47 UNL A   1       6.456  27.908  12.906  1.00  0.00    +0.000 C 
ATOM     70  F13 UNL A   1       6.585  27.661  11.596  1.00  0.00    +0.000 F 
ATOM     71  C48 UNL A   1       7.573  28.215  13.670  1.00  0.00    +0.000 C 
ATOM     72  F14 UNL A   1       8.779  28.286  13.092  1.00  0.00    +0.000 F 
ATOM     73  C49 UNL A   1       7.443  28.452  15.036  1.00  0.00    +0.000 C 
ATOM     74  F15 UNL A   1       8.541  28.737  15.751  1.00  0.00    +0.000 F 
ATOM     64  C44 UNL A   1       6.188  28.413  15.662  1.00  0.00    +0.000 C 
ENDBRANCH   63   64
TORSDOF 23
ENDMDL
