MODEL 1
REMARK VINA RESULT:      -5.6      0.000      0.000
ROOT
ATOM    145  H40 UNL A   1      43.570  44.008  19.821  1.00  0.00    +0.000 H 
ATOM    146  H41 UNL A   1      44.268  42.783  22.015  1.00  0.00    +0.000 H 
ATOM    147  H42 UNL A   1      46.642  46.149  21.593  1.00  0.00    +0.000 H 
ATOM    148  H43 UNL A   1      51.436  49.793  23.686  1.00  0.00    +0.000 H 
ATOM    149  H44 UNL A   1      50.642  51.076  21.644  1.00  0.00    +0.000 H 
ATOM    150  H45 UNL A   1      48.254  47.696  22.025  1.00  0.00    +0.000 H 
ATOM    151  H46 UNL A   1      49.782  45.404  26.223  1.00  0.00    +0.000 H 
ATOM    152  H47 UNL A   1      48.041  43.597  25.709  1.00  0.00    +0.000 H 
ATOM    153  H48 UNL A   1      45.149  48.570  17.459  1.00  0.00    +0.000 H 
ATOM    154  H49 UNL A   1      47.051  50.248  17.812  1.00  0.00    +0.000 H 
ATOM     47  C34 UNL A   1      48.546  49.800  20.200  1.00  0.00    +0.000 C 
ATOM     48  C35 UNL A   1      47.419  48.976  19.652  1.00  0.00    +0.000 C 
ATOM     49  N6  UNL A   1      46.888  47.881  20.137  1.00  0.00    +0.000 N 
ATOM     50  C36 UNL A   1      45.865  47.535  19.266  1.00  0.00    +0.000 C 
ATOM     51  C37 UNL A   1      45.033  46.466  19.326  1.00  0.00    +0.000 C 
ATOM     63  C44 UNL A   1      45.082  45.454  20.349  1.00  0.00    +0.000 C 
ATOM     64  C45 UNL A   1      44.306  44.315  20.477  1.00  0.00    +0.000 C 
ATOM     65  C46 UNL A   1      44.689  43.651  21.648  1.00  0.00    +0.000 C 
ATOM     66  C47 UNL A   1      45.730  44.355  22.230  1.00  0.00    +0.000 C 
ATOM     67  N7  UNL A   1      45.959  45.461  21.425  1.00  0.00    +0.000 N 
ATOM     68  C48 UNL A   1      46.462  44.044  23.430  1.00  0.00    +0.000 C 
ATOM     80  C55 UNL A   1      47.490  44.772  23.930  1.00  0.00    +0.000 C 
ATOM     81  N8  UNL A   1      48.050  45.941  23.437  1.00  0.00    +0.000 N 
ATOM     82  C56 UNL A   1      48.994  46.271  24.282  1.00  0.00    +0.000 C 
ATOM     83  C57 UNL A   1      49.929  47.445  24.243  1.00  0.00    +0.000 C 
ATOM     95  C64 UNL A   1      49.821  48.332  23.239  1.00  0.00    +0.000 C 
ATOM     96  C65 UNL A   1      50.658  49.516  23.069  1.00  0.00    +0.000 C 
ATOM     97  C66 UNL A   1      50.248  50.184  21.982  1.00  0.00    +0.000 C 
ATOM     98  C67 UNL A   1      49.153  49.446  21.349  1.00  0.00    +0.000 C 
ATOM     99  N9  UNL A   1      48.952  48.372  22.176  1.00  0.00    +0.000 N 
ATOM    100  C68 UNL A   1      49.136  45.352  25.419  1.00  0.00    +0.000 C 
ATOM    101  C69 UNL A   1      48.217  44.439  25.138  1.00  0.00    +0.000 C 
ATOM    102  C70 UNL A   1      45.833  48.546  18.231  1.00  0.00    +0.000 C 
ATOM    103  C71 UNL A   1      46.800  49.440  18.402  1.00  0.00    +0.000 C 
ENDROOT
BRANCH   47   46
ATOM    104  C72 UNL A   1      48.532  52.280  19.778  1.00  0.00    +0.000 C 
ATOM    105  C73 UNL A   1      49.034  53.403  19.114  1.00  0.00    +0.000 C 
ATOM     43  C30 UNL A   1      50.068  53.255  18.185  1.00  0.00    +0.000 C 
ATOM     44  C31 UNL A   1      50.626  51.996  17.948  1.00  0.00    +0.000 C 
ATOM     45  C32 UNL A   1      50.077  50.870  18.553  1.00  0.00    +0.000 C 
ATOM     46  C33 UNL A   1      49.037  51.004  19.486  1.00  0.00    +0.000 C 
ATOM    143  H38 UNL A   1      51.443  51.900  17.324  1.00  0.00    +0.000 H 
ATOM    144  H39 UNL A   1      50.436  49.933  18.315  1.00  0.00    +0.000 H 
ATOM    155  H50 UNL A   1      47.789  52.390  20.485  1.00  0.00    +0.000 H 
ATOM    156  H51 UNL A   1      48.642  54.338  19.309  1.00  0.00    +0.000 H 
BRANCH   43    2
ATOM      1  O1  UNL A   1      49.813  55.102  16.761  1.00  0.00    +0.000 O 
ATOM      2  C1  UNL A   1      50.570  54.448  17.470  1.00  0.00    +0.000 C 
BRANCH    2    3
ATOM    106  H1  UNL A   1      52.473  54.569  16.842  1.00  0.00    +0.000 H 
ATOM      3  N1  UNL A   1      51.888  54.807  17.598  1.00  0.00    +0.000 N 
BRANCH    3    4
ATOM    108  H3  UNL A   1      52.977  54.754  19.337  1.00  0.00    +0.000 H 
ATOM    107  H2  UNL A   1      53.267  56.165  18.318  1.00  0.00    +0.000 H 
ATOM      4  C2  UNL A   1      52.530  55.493  18.706  1.00  0.00    +0.000 C 
BRANCH    4    5
ATOM    109  H4  UNL A   1      50.581  55.799  19.474  1.00  0.00    +0.000 H 
ATOM      5  C3  UNL A   1      51.533  56.284  19.539  1.00  0.00    +0.000 C 
ATOM    110  H5  UNL A   1      51.521  57.277  19.141  1.00  0.00    +0.000 H 
BRANCH    5    6
ATOM      6  C4  UNL A   1      51.906  56.409  21.017  1.00  0.00    +0.000 C 
ATOM    111  H6  UNL A   1      51.592  55.515  21.515  1.00  0.00    +0.000 H 
ATOM    112  H7  UNL A   1      51.417  57.290  21.375  1.00  0.00    +0.000 H 
BRANCH    6    7
ATOM    113  H8  UNL A   1      53.526  57.551  21.783  1.00  0.00    +0.000 H 
ATOM    114  H9  UNL A   1      53.889  56.548  20.344  1.00  0.00    +0.000 H 
ATOM      7  C5  UNL A   1      53.401  56.606  21.295  1.00  0.00    +0.000 C 
BRANCH    7    8
ATOM    115  H10 UNL A   1      53.499  54.619  22.055  1.00  0.00    +0.000 H 
ATOM    116  H11 UNL A   1      54.030  55.892  23.180  1.00  0.00    +0.000 H 
ATOM      8  C6  UNL A   1      54.051  55.528  22.174  1.00  0.00    +0.000 C 
BRANCH    8    9
ATOM      9  C7  UNL A   1      55.515  55.252  21.832  1.00  0.00    +0.000 C 
ATOM    117  H12 UNL A   1      56.004  54.838  22.689  1.00  0.00    +0.000 H 
ATOM    118  H13 UNL A   1      55.981  56.172  21.548  1.00  0.00    +0.000 H 
BRANCH    9   10
ATOM     10  N2  UNL A   1      55.617  54.319  20.730  1.00  0.00    +0.000 N 
ATOM    119  H14 UNL A   1      55.966  54.683  19.885  1.00  0.00    +0.000 H 
BRANCH   10   11
ATOM     11  C8  UNL A   1      55.285  52.997  20.723  1.00  0.00    +0.000 C 
ATOM     12  O2  UNL A   1      55.955  52.228  21.415  1.00  0.00    +0.000 O 
BRANCH   11   13
ATOM     13  C9  UNL A   1      54.116  52.479  19.873  1.00  0.00    +0.000 C 
ATOM    120  H15 UNL A   1      53.691  53.321  19.366  1.00  0.00    +0.000 H 
BRANCH   13   14
ATOM    121  H16 UNL A   1      53.417  51.498  21.647  1.00  0.00    +0.000 H 
ATOM    122  H17 UNL A   1      52.496  51.120  20.203  1.00  0.00    +0.000 H 
ATOM     14  C10 UNL A   1      52.994  51.896  20.747  1.00  0.00    +0.000 C 
BRANCH   14   15
ATOM    123  H18 UNL A   1      52.517  53.736  21.293  1.00  0.00    +0.000 H 
ATOM     15  O3  UNL A   1      52.046  52.915  21.081  1.00  0.00    +0.000 O 
ENDBRANCH   14   15
ENDBRANCH   13   14
BRANCH   13   16
ATOM    124  H19 UNL A   1      55.155  51.973  18.149  1.00  0.00    +0.000 H 
ATOM     16  N3  UNL A   1      54.561  51.565  18.821  1.00  0.00    +0.000 N 
BRANCH   16   17
ATOM     17  C11 UNL A   1      54.294  50.247  18.614  1.00  0.00    +0.000 C 
ATOM     18  O4  UNL A   1      53.479  50.034  17.707  1.00  0.00    +0.000 O 
BRANCH   17   19
ATOM     19  C12 UNL A   1      55.119  49.081  19.230  1.00  0.00    +0.000 C 
ATOM    125  H20 UNL A   1      55.821  49.568  19.876  1.00  0.00    +0.000 H 
BRANCH   19   20
ATOM     20  C13 UNL A   1      55.821  48.293  18.096  1.00  0.00    +0.000 C 
ATOM    126  H21 UNL A   1      55.653  48.809  17.174  1.00  0.00    +0.000 H 
ATOM    127  H22 UNL A   1      55.401  47.308  18.098  1.00  0.00    +0.000 H 
BRANCH   20   21
ATOM     21  S1  UNL A   1      57.624  48.100  18.328  1.00  0.00    +0.000 S 
ATOM    128  H23 UNL A   1      58.121  47.282  17.361  1.00  0.00    +0.000 H 
ENDBRANCH   20   21
ENDBRANCH   19   20
BRANCH   19   22
ATOM    129  H24 UNL A   1      54.971  47.929  20.927  1.00  0.00    +0.000 H 
ATOM     22  N4  UNL A   1      54.424  48.166  20.143  1.00  0.00    +0.000 N 
BRANCH   22   23
ATOM     23  C14 UNL A   1      53.204  47.569  20.161  1.00  0.00    +0.000 C 
ATOM     24  O5  UNL A   1      52.665  47.651  21.267  1.00  0.00    +0.000 O 
BRANCH   23   25
ATOM     25  C15 UNL A   1      52.450  46.984  18.930  1.00  0.00    +0.000 C 
ATOM    130  H25 UNL A   1      52.698  47.621  18.106  1.00  0.00    +0.000 H 
BRANCH   25   26
ATOM     26  C16 UNL A   1      50.902  46.970  19.130  1.00  0.00    +0.000 C 
ATOM    131  H26 UNL A   1      50.648  47.930  19.526  1.00  0.00    +0.000 H 
ATOM    132  H27 UNL A   1      50.775  46.090  19.726  1.00  0.00    +0.000 H 
BRANCH   26   27
ATOM    133  H28 UNL A   1      50.469  48.308  16.743  1.00  0.00    +0.000 H 
ATOM    134  H29 UNL A   1      48.673  48.023  15.153  1.00  0.00    +0.000 H 
ATOM    135  H30 UNL A   1      47.025  46.276  15.471  1.00  0.00    +0.000 H 
ATOM    136  H31 UNL A   1      47.219  44.780  17.371  1.00  0.00    +0.000 H 
ATOM    137  H32 UNL A   1      49.027  45.051  18.957  1.00  0.00    +0.000 H 
ATOM     27  C17 UNL A   1      49.918  46.711  17.999  1.00  0.00    +0.000 C 
ATOM     28  C18 UNL A   1      49.782  47.551  16.887  1.00  0.00    +0.000 C 
ATOM     29  C19 UNL A   1      48.741  47.391  15.966  1.00  0.00    +0.000 C 
ATOM     30  C20 UNL A   1      47.800  46.388  16.144  1.00  0.00    +0.000 C 
ATOM     31  C21 UNL A   1      47.910  45.534  17.236  1.00  0.00    +0.000 C 
ATOM     32  C22 UNL A   1      48.958  45.693  18.152  1.00  0.00    +0.000 C 
ENDBRANCH   26   27
ENDBRANCH   25   26
BRANCH   25   33
ATOM     33  N5  UNL A   1      52.866  45.593  18.683  1.00  0.00    +0.000 N 
ATOM    138  H33 UNL A   1      53.767  45.515  18.295  1.00  0.00    +0.000 H 
BRANCH   33   34
ATOM     34  C23 UNL A   1      52.252  44.386  18.886  1.00  0.00    +0.000 C 
ATOM     35  O6  UNL A   1      52.132  43.645  17.910  1.00  0.00    +0.000 O 
BRANCH   34   36
ATOM     36  C24 UNL A   1      51.662  43.958  20.184  1.00  0.00    +0.000 C 
ATOM     37  C25 UNL A   1      52.498  44.011  21.314  1.00  0.00    +0.000 C 
ATOM     38  C26 UNL A   1      52.067  43.513  22.547  1.00  0.00    +0.000 C 
ATOM     39  C27 UNL A   1      50.802  42.954  22.652  1.00  0.00    +0.000 C 
ATOM     40  F1  UNL A   1      50.392  42.457  23.825  1.00  0.00    +0.000 F 
ATOM     41  C28 UNL A   1      49.962  42.883  21.547  1.00  0.00    +0.000 C 
ATOM     42  C29 UNL A   1      50.394  43.378  20.312  1.00  0.00    +0.000 C 
ATOM    139  H34 UNL A   1      53.441  44.423  21.232  1.00  0.00    +0.000 H 
ATOM    140  H35 UNL A   1      52.686  43.559  23.372  1.00  0.00    +0.000 H 
ATOM    141  H36 UNL A   1      49.023  42.466  21.637  1.00  0.00    +0.000 H 
ATOM    142  H37 UNL A   1      49.775  43.316  19.490  1.00  0.00    +0.000 H 
ENDBRANCH   34   36
ENDBRANCH   33   34
ENDBRANCH   25   33
ENDBRANCH   23   25
ENDBRANCH   22   23
ENDBRANCH   19   22
ENDBRANCH   17   19
ENDBRANCH   16   17
ENDBRANCH   13   16
ENDBRANCH   11   13
ENDBRANCH   10   11
ENDBRANCH    9   10
ENDBRANCH    8    9
ENDBRANCH    7    8
ENDBRANCH    6    7
ENDBRANCH    5    6
ENDBRANCH    4    5
ENDBRANCH    3    4
ENDBRANCH    2    3
ENDBRANCH   43    2
ENDBRANCH   47   46
BRANCH   51   52
ATOM     52  C38 UNL A   1      43.986  46.341  18.259  1.00  0.00    +0.000 C 
ATOM     53  C39 UNL A   1      43.918  45.217  17.425  1.00  0.00    +0.000 C 
ATOM     54  F2  UNL A   1      44.837  44.245  17.524  1.00  0.00    +0.000 F 
ATOM     55  C40 UNL A   1      42.920  45.100  16.460  1.00  0.00    +0.000 C 
ATOM     56  F3  UNL A   1      42.896  44.034  15.648  1.00  0.00    +0.000 F 
ATOM     57  C41 UNL A   1      41.957  46.090  16.330  1.00  0.00    +0.000 C 
ATOM     58  F4  UNL A   1      40.994  45.972  15.406  1.00  0.00    +0.000 F 
ATOM     59  C42 UNL A   1      41.998  47.205  17.154  1.00  0.00    +0.000 C 
ATOM     60  F5  UNL A   1      41.063  48.158  17.036  1.00  0.00    +0.000 F 
ATOM     61  C43 UNL A   1      43.007  47.334  18.105  1.00  0.00    +0.000 C 
ATOM     62  F6  UNL A   1      43.025  48.428  18.881  1.00  0.00    +0.000 F 
ENDBRANCH   51   52
BRANCH   68   69
ATOM     69  C49 UNL A   1      46.078  42.809  24.187  1.00  0.00    +0.000 C 
ATOM     70  C50 UNL A   1      46.733  41.588  23.971  1.00  0.00    +0.000 C 
ATOM     71  F7  UNL A   1      47.700  41.495  23.045  1.00  0.00    +0.000 F 
ATOM     72  C51 UNL A   1      46.364  40.446  24.677  1.00  0.00    +0.000 C 
ATOM     73  F8  UNL A   1      46.971  39.279  24.423  1.00  0.00    +0.000 F 
ATOM     74  C52 UNL A   1      45.358  40.512  25.629  1.00  0.00    +0.000 C 
ATOM     75  F9  UNL A   1      45.004  39.412  26.307  1.00  0.00    +0.000 F 
ATOM     76  C53 UNL A   1      44.712  41.714  25.872  1.00  0.00    +0.000 C 
ATOM     77  F10 UNL A   1      43.744  41.780  26.797  1.00  0.00    +0.000 F 
ATOM     78  C54 UNL A   1      45.061  42.852  25.151  1.00  0.00    +0.000 C 
ATOM     79  F11 UNL A   1      44.409  44.000  25.394  1.00  0.00    +0.000 F 
ENDBRANCH   68   69
BRANCH   83   84
ATOM     84  C58 UNL A   1      50.970  47.637  25.283  1.00  0.00    +0.000 C 
ATOM     85  C59 UNL A   1      50.695  48.362  26.450  1.00  0.00    +0.000 C 
ATOM     86  F12 UNL A   1      49.494  48.933  26.617  1.00  0.00    +0.000 F 
ATOM     87  C60 UNL A   1      51.664  48.525  27.437  1.00  0.00    +0.000 C 
ATOM     88  F13 UNL A   1      51.387  49.248  28.530  1.00  0.00    +0.000 F 
ATOM     89  C61 UNL A   1      52.916  47.945  27.287  1.00  0.00    +0.000 C 
ATOM     90  F14 UNL A   1      53.843  48.092  28.243  1.00  0.00    +0.000 F 
ATOM     91  C62 UNL A   1      53.206  47.216  26.144  1.00  0.00    +0.000 C 
ATOM     92  F15 UNL A   1      54.409  46.642  26.002  1.00  0.00    +0.000 F 
ATOM     93  C63 UNL A   1      52.247  47.075  25.145  1.00  0.00    +0.000 C 
ATOM     94  F16 UNL A   1      52.554  46.367  24.047  1.00  0.00    +0.000 F 
ENDBRANCH   83   84
TORSDOF 30
ENDMDL
MODEL 2
REMARK VINA RESULT:      -5.6      6.448     11.777
ROOT
ATOM    145  H40 UNL A   1      44.851  44.501  22.865  1.00  0.00    +0.000 H 
ATOM    146  H41 UNL A   1      43.943  45.653  20.709  1.00  0.00    +0.000 H 
ATOM    147  H42 UNL A   1      47.901  44.623  20.064  1.00  0.00    +0.000 H 
ATOM    148  H43 UNL A   1      53.046  44.652  16.299  1.00  0.00    +0.000 H 
ATOM    149  H44 UNL A   1      53.878  43.378  18.332  1.00  0.00    +0.000 H 
ATOM    150  H45 UNL A   1      49.913  44.415  19.022  1.00  0.00    +0.000 H 
ATOM    151  H46 UNL A   1      48.346  46.701  14.836  1.00  0.00    +0.000 H 
ATOM    152  H47 UNL A   1      46.100  47.036  16.021  1.00  0.00    +0.000 H 
ATOM    153  H48 UNL A   1      49.556  42.253  24.165  1.00  0.00    +0.000 H 
ATOM    154  H49 UNL A   1      51.883  42.137  23.101  1.00  0.00    +0.000 H 
ATOM     47  C34 UNL A   1      51.982  43.178  20.447  1.00  0.00    +0.000 C 
ATOM     48  C35 UNL A   1      50.809  43.152  21.382  1.00  0.00    +0.000 C 
ATOM     49  N6  UNL A   1      49.595  43.604  21.191  1.00  0.00    +0.000 N 
ATOM     50  C36 UNL A   1      48.893  43.312  22.352  1.00  0.00    +0.000 C 
ATOM     51  C37 UNL A   1      47.602  43.597  22.650  1.00  0.00    +0.000 C 
ATOM     63  C44 UNL A   1      46.700  44.297  21.771  1.00  0.00    +0.000 C 
ATOM     64  C45 UNL A   1      45.385  44.664  21.996  1.00  0.00    +0.000 C 
ATOM     65  C46 UNL A   1      44.901  45.294  20.843  1.00  0.00    +0.000 C 
ATOM     66  C47 UNL A   1      45.926  45.354  19.914  1.00  0.00    +0.000 C 
ATOM     67  N7  UNL A   1      47.023  44.735  20.494  1.00  0.00    +0.000 N 
ATOM     68  C48 UNL A   1      45.908  45.930  18.595  1.00  0.00    +0.000 C 
ATOM     80  C55 UNL A   1      46.963  45.972  17.745  1.00  0.00    +0.000 C 
ATOM     81  N8  UNL A   1      48.247  45.483  17.927  1.00  0.00    +0.000 N 
ATOM     82  C56 UNL A   1      48.890  45.740  16.815  1.00  0.00    +0.000 C 
ATOM     83  C57 UNL A   1      50.316  45.437  16.456  1.00  0.00    +0.000 C 
ATOM     95  C64 UNL A   1      51.090  44.794  17.347  1.00  0.00    +0.000 C 
ATOM     96  C65 UNL A   1      52.490  44.435  17.140  1.00  0.00    +0.000 C 
ATOM     97  C66 UNL A   1      52.933  43.776  18.221  1.00  0.00    +0.000 C 
ATOM     98  C67 UNL A   1      51.862  43.714  19.218  1.00  0.00    +0.000 C 
ATOM     99  N9  UNL A   1      50.799  44.323  18.604  1.00  0.00    +0.000 N 
ATOM    100  C68 UNL A   1      48.081  46.415  15.792  1.00  0.00    +0.000 C 
ATOM    101  C69 UNL A   1      46.924  46.561  16.422  1.00  0.00    +0.000 C 
ATOM    102  C70 UNL A   1      49.810  42.625  23.237  1.00  0.00    +0.000 C 
ATOM    103  C71 UNL A   1      51.020  42.535  22.699  1.00  0.00    +0.000 C 
ENDROOT
BRANCH   47   46
ATOM    104  C72 UNL A   1      54.184  43.396  21.645  1.00  0.00    +0.000 C 
ATOM    105  C73 UNL A   1      55.410  42.857  22.042  1.00  0.00    +0.000 C 
ATOM     43  C30 UNL A   1      55.740  41.547  21.684  1.00  0.00    +0.000 C 
ATOM     44  C31 UNL A   1      54.834  40.764  20.963  1.00  0.00    +0.000 C 
ATOM     45  C32 UNL A   1      53.647  41.326  20.504  1.00  0.00    +0.000 C 
ATOM     46  C33 UNL A   1      53.304  42.641  20.855  1.00  0.00    +0.000 C 
ATOM    143  H38 UNL A   1      55.044  39.773  20.770  1.00  0.00    +0.000 H 
ATOM    144  H39 UNL A   1      53.016  40.774  19.903  1.00  0.00    +0.000 H 
ATOM    155  H50 UNL A   1      53.926  44.353  21.932  1.00  0.00    +0.000 H 
ATOM    156  H51 UNL A   1      56.069  43.423  22.600  1.00  0.00    +0.000 H 
BRANCH   43    2
ATOM      1  O1  UNL A   1      57.117  40.159  22.980  1.00  0.00    +0.000 O 
ATOM      2  C1  UNL A   1      57.053  40.998  22.088  1.00  0.00    +0.000 C 
BRANCH    2    3
ATOM    106  H1  UNL A   1      58.948  41.659  22.060  1.00  0.00    +0.000 H 
ATOM      3  N1  UNL A   1      58.192  41.444  21.467  1.00  0.00    +0.000 N 
BRANCH    3    4
ATOM    108  H3  UNL A   1      57.680  42.313  19.679  1.00  0.00    +0.000 H 
ATOM    107  H2  UNL A   1      59.408  42.038  19.908  1.00  0.00    +0.000 H 
ATOM      4  C2  UNL A   1      58.425  41.639  20.047  1.00  0.00    +0.000 C 
BRANCH    4    5
ATOM    109  H4  UNL A   1      58.033  39.561  19.951  1.00  0.00    +0.000 H 
ATOM      5  C3  UNL A   1      58.308  40.337  19.268  1.00  0.00    +0.000 C 
ATOM    110  H5  UNL A   1      59.260  40.168  18.809  1.00  0.00    +0.000 H 
BRANCH    5    6
ATOM      6  C4  UNL A   1      57.278  40.370  18.137  1.00  0.00    +0.000 C 
ATOM    111  H6  UNL A   1      56.539  39.622  18.341  1.00  0.00    +0.000 H 
ATOM    112  H7  UNL A   1      57.821  40.195  17.233  1.00  0.00    +0.000 H 
BRANCH    6    7
ATOM    113  H8  UNL A   1      57.300  42.483  17.925  1.00  0.00    +0.000 H 
ATOM    114  H9  UNL A   1      55.880  41.798  18.775  1.00  0.00    +0.000 H 
ATOM      7  C5  UNL A   1      56.559  41.710  17.953  1.00  0.00    +0.000 C 
BRANCH    7    8
ATOM    115  H10 UNL A   1      56.331  41.628  15.837  1.00  0.00    +0.000 H 
ATOM    116  H11 UNL A   1      55.298  42.815  16.669  1.00  0.00    +0.000 H 
ATOM      8  C6  UNL A   1      55.705  41.826  16.682  1.00  0.00    +0.000 C 
BRANCH    8    9
ATOM      9  C7  UNL A   1      54.522  40.858  16.642  1.00  0.00    +0.000 C 
ATOM    117  H12 UNL A   1      54.005  40.896  17.578  1.00  0.00    +0.000 H 
ATOM    118  H13 UNL A   1      54.892  39.870  16.462  1.00  0.00    +0.000 H 
BRANCH    9   10
ATOM     10  N2  UNL A   1      53.606  41.213  15.579  1.00  0.00    +0.000 N 
ATOM    119  H14 UNL A   1      53.440  42.175  15.453  1.00  0.00    +0.000 H 
BRANCH   10   11
ATOM     11  C8  UNL A   1      52.945  40.374  14.732  1.00  0.00    +0.000 C 
ATOM     12  O2  UNL A   1      53.353  39.216  14.629  1.00  0.00    +0.000 O 
BRANCH   11   13
ATOM     13  C9  UNL A   1      51.732  40.859  13.925  1.00  0.00    +0.000 C 
ATOM    120  H15 UNL A   1      51.267  41.643  14.486  1.00  0.00    +0.000 H 
BRANCH   13   14
ATOM    121  H16 UNL A   1      49.977  39.820  14.585  1.00  0.00    +0.000 H 
ATOM    122  H17 UNL A   1      51.159  38.802  13.784  1.00  0.00    +0.000 H 
ATOM     14  C10 UNL A   1      50.673  39.756  13.774  1.00  0.00    +0.000 C 
BRANCH   14   15
ATOM    123  H18 UNL A   1      49.484  39.096  12.337  1.00  0.00    +0.000 H 
ATOM     15  O3  UNL A   1      49.971  39.910  12.536  1.00  0.00    +0.000 O 
ENDBRANCH   14   15
ENDBRANCH   13   14
BRANCH   13   16
ATOM    124  H19 UNL A   1      51.497  42.141  12.309  1.00  0.00    +0.000 H 
ATOM     16  N3  UNL A   1      52.124  41.462  12.651  1.00  0.00    +0.000 N 
BRANCH   16   17
ATOM     17  C11 UNL A   1      53.207  41.242  11.857  1.00  0.00    +0.000 C 
ATOM     18  O4  UNL A   1      54.148  42.021  12.060  1.00  0.00    +0.000 O 
BRANCH   17   19
ATOM     19  C12 UNL A   1      53.401  39.976  10.974  1.00  0.00    +0.000 C 
ATOM    125  H20 UNL A   1      52.552  39.364  11.201  1.00  0.00    +0.000 H 
BRANCH   19   20
ATOM     20  C13 UNL A   1      54.735  39.284  11.355  1.00  0.00    +0.000 C 
ATOM    126  H21 UNL A   1      54.646  38.909  12.353  1.00  0.00    +0.000 H 
ATOM    127  H22 UNL A   1      55.504  40.022  11.260  1.00  0.00    +0.000 H 
BRANCH   20   21
ATOM     21  S1  UNL A   1      55.193  37.897  10.255  1.00  0.00    +0.000 S 
ATOM    128  H23 UNL A   1      56.503  37.582  10.446  1.00  0.00    +0.000 H 
ENDBRANCH   20   21
ENDBRANCH   19   20
BRANCH   19   22
ATOM    129  H24 UNL A   1      53.990  39.633   9.035  1.00  0.00    +0.000 H 
ATOM     22  N4  UNL A   1      53.300  40.140   9.520  1.00  0.00    +0.000 N 
BRANCH   22   23
ATOM     23  C14 UNL A   1      52.479  40.829   8.685  1.00  0.00    +0.000 C 
ATOM     24  O5  UNL A   1      51.374  40.292   8.576  1.00  0.00    +0.000 O 
BRANCH   23   25
ATOM     25  C15 UNL A   1      52.774  42.219   8.047  1.00  0.00    +0.000 C 
ATOM    130  H25 UNL A   1      51.822  42.623   7.771  1.00  0.00    +0.000 H 
BRANCH   25   26
ATOM     26  C16 UNL A   1      53.681  42.114   6.781  1.00  0.00    +0.000 C 
ATOM    131  H26 UNL A   1      54.320  42.972   6.805  1.00  0.00    +0.000 H 
ATOM    132  H27 UNL A   1      52.951  42.009   6.006  1.00  0.00    +0.000 H 
BRANCH   26   27
ATOM    133  H28 UNL A   1      53.298  39.847   5.234  1.00  0.00    +0.000 H 
ATOM    134  H29 UNL A   1      54.661  37.857   5.101  1.00  0.00    +0.000 H 
ATOM    135  H30 UNL A   1      56.753  37.727   6.315  1.00  0.00    +0.000 H 
ATOM    136  H31 UNL A   1      57.497  39.628   7.625  1.00  0.00    +0.000 H 
ATOM    137  H32 UNL A   1      56.143  41.630   7.746  1.00  0.00    +0.000 H 
ATOM     27  C17 UNL A   1      54.588  40.925   6.501  1.00  0.00    +0.000 C 
ATOM     28  C18 UNL A   1      54.192  39.812   5.748  1.00  0.00    +0.000 C 
ATOM     29  C19 UNL A   1      54.977  38.658   5.672  1.00  0.00    +0.000 C 
ATOM     30  C20 UNL A   1      56.178  38.583   6.361  1.00  0.00    +0.000 C 
ATOM     31  C21 UNL A   1      56.601  39.672   7.115  1.00  0.00    +0.000 C 
ATOM     32  C22 UNL A   1      55.815  40.830   7.184  1.00  0.00    +0.000 C 
ENDBRANCH   26   27
ENDBRANCH   25   26
BRANCH   25   33
ATOM     33  N5  UNL A   1      53.475  43.089   9.007  1.00  0.00    +0.000 N 
ATOM    138  H33 UNL A   1      53.922  42.594   9.731  1.00  0.00    +0.000 H 
BRANCH   33   34
ATOM     34  C23 UNL A   1      53.630  44.446   9.095  1.00  0.00    +0.000 C 
ATOM     35  O6  UNL A   1      54.337  44.874  10.007  1.00  0.00    +0.000 O 
BRANCH   34   36
ATOM     36  C24 UNL A   1      52.940  45.423   8.208  1.00  0.00    +0.000 C 
ATOM     37  C25 UNL A   1      51.589  45.695   8.487  1.00  0.00    +0.000 C 
ATOM     38  C26 UNL A   1      50.831  46.502   7.633  1.00  0.00    +0.000 C 
ATOM     39  C27 UNL A   1      51.421  47.033   6.495  1.00  0.00    +0.000 C 
ATOM     40  F1  UNL A   1      50.694  47.790   5.663  1.00  0.00    +0.000 F 
ATOM     41  C28 UNL A   1      52.752  46.770   6.195  1.00  0.00    +0.000 C 
ATOM     42  C29 UNL A   1      53.509  45.959   7.047  1.00  0.00    +0.000 C 
ATOM    139  H34 UNL A   1      51.151  45.296   9.331  1.00  0.00    +0.000 H 
ATOM    140  H35 UNL A   1      49.841  46.701   7.847  1.00  0.00    +0.000 H 
ATOM    141  H36 UNL A   1      53.179  47.170   5.346  1.00  0.00    +0.000 H 
ATOM    142  H37 UNL A   1      54.494  45.755   6.818  1.00  0.00    +0.000 H 
ENDBRANCH   34   36
ENDBRANCH   33   34
ENDBRANCH   25   33
ENDBRANCH   23   25
ENDBRANCH   22   23
ENDBRANCH   19   22
ENDBRANCH   17   19
ENDBRANCH   16   17
ENDBRANCH   13   16
ENDBRANCH   11   13
ENDBRANCH   10   11
ENDBRANCH    9   10
ENDBRANCH    8    9
ENDBRANCH    7    8
ENDBRANCH    6    7
ENDBRANCH    5    6
ENDBRANCH    4    5
ENDBRANCH    3    4
ENDBRANCH    2    3
ENDBRANCH   43    2
ENDBRANCH   47   46
BRANCH   51   52
ATOM     52  C38 UNL A   1      47.078  43.141  23.979  1.00  0.00    +0.000 C 
ATOM     53  C39 UNL A   1      47.036  43.999  25.086  1.00  0.00    +0.000 C 
ATOM     54  F2  UNL A   1      47.525  45.245  24.994  1.00  0.00    +0.000 F 
ATOM     55  C40 UNL A   1      46.518  43.570  26.306  1.00  0.00    +0.000 C 
ATOM     56  F3  UNL A   1      46.521  44.396  27.362  1.00  0.00    +0.000 F 
ATOM     57  C41 UNL A   1      46.008  42.287  26.434  1.00  0.00    +0.000 C 
ATOM     58  F4  UNL A   1      45.503  41.878  27.606  1.00  0.00    +0.000 F 
ATOM     59  C42 UNL A   1      46.028  41.424  25.348  1.00  0.00    +0.000 C 
ATOM     60  F5  UNL A   1      45.528  40.187  25.467  1.00  0.00    +0.000 F 
ATOM     61  C43 UNL A   1      46.566  41.844  24.133  1.00  0.00    +0.000 C 
ATOM     62  F6  UNL A   1      46.579  40.984  23.103  1.00  0.00    +0.000 F 
ENDBRANCH   51   52
BRANCH   68   69
ATOM     69  C49 UNL A   1      44.632  46.554  18.118  1.00  0.00    +0.000 C 
ATOM     70  C50 UNL A   1      44.289  47.869  18.464  1.00  0.00    +0.000 C 
ATOM     71  F7  UNL A   1      45.089  48.586  19.267  1.00  0.00    +0.000 F 
ATOM     72  C51 UNL A   1      43.098  48.436  18.019  1.00  0.00    +0.000 C 
ATOM     73  F8  UNL A   1      42.767  49.678  18.398  1.00  0.00    +0.000 F 
ATOM     74  C52 UNL A   1      42.246  47.711  17.200  1.00  0.00    +0.000 C 
ATOM     75  F9  UNL A   1      41.100  48.259  16.773  1.00  0.00    +0.000 F 
ATOM     76  C53 UNL A   1      42.576  46.417  16.830  1.00  0.00    +0.000 C 
ATOM     77  F10 UNL A   1      41.756  45.718  16.032  1.00  0.00    +0.000 F 
ATOM     78  C54 UNL A   1      43.754  45.838  17.292  1.00  0.00    +0.000 C 
ATOM     79  F11 UNL A   1      44.042  44.577  16.932  1.00  0.00    +0.000 F 
ENDBRANCH   68   69
BRANCH   83   84
ATOM     84  C58 UNL A   1      50.884  45.841  15.147  1.00  0.00    +0.000 C 
ATOM     85  C59 UNL A   1      51.495  47.092  14.984  1.00  0.00    +0.000 C 
ATOM     86  F12 UNL A   1      51.528  47.959  16.006  1.00  0.00    +0.000 F 
ATOM     87  C60 UNL A   1      52.050  47.465  13.762  1.00  0.00    +0.000 C 
ATOM     88  F13 UNL A   1      52.601  48.678  13.622  1.00  0.00    +0.000 F 
ATOM     89  C61 UNL A   1      52.026  46.585  12.689  1.00  0.00    +0.000 C 
ATOM     90  F14 UNL A   1      52.570  46.940  11.517  1.00  0.00    +0.000 F 
ATOM     91  C62 UNL A   1      51.434  45.340  12.831  1.00  0.00    +0.000 C 
ATOM     92  F15 UNL A   1      51.423  44.481  11.802  1.00  0.00    +0.000 F 
ATOM     93  C63 UNL A   1      50.856  44.976  14.045  1.00  0.00    +0.000 C 
ATOM     94  F16 UNL A   1      50.288  43.766  14.155  1.00  0.00    +0.000 F 
ENDBRANCH   83   84
TORSDOF 30
ENDMDL
MODEL 3
REMARK VINA RESULT:      -5.6      6.307     11.691
ROOT
ATOM    145  H40 UNL A   1      44.840  44.443  22.837  1.00  0.00    +0.000 H 
ATOM    146  H41 UNL A   1      43.922  45.611  20.694  1.00  0.00    +0.000 H 
ATOM    147  H42 UNL A   1      47.888  44.622  20.038  1.00  0.00    +0.000 H 
ATOM    148  H43 UNL A   1      53.033  44.736  16.274  1.00  0.00    +0.000 H 
ATOM    149  H44 UNL A   1      53.876  43.447  18.292  1.00  0.00    +0.000 H 
ATOM    150  H45 UNL A   1      49.902  44.442  18.994  1.00  0.00    +0.000 H 
ATOM    151  H46 UNL A   1      48.315  46.761  14.833  1.00  0.00    +0.000 H 
ATOM    152  H47 UNL A   1      46.067  47.064  16.021  1.00  0.00    +0.000 H 
ATOM    153  H48 UNL A   1      49.563  42.221  24.113  1.00  0.00    +0.000 H 
ATOM    154  H49 UNL A   1      51.891  42.136  23.048  1.00  0.00    +0.000 H 
ATOM     47  C34 UNL A   1      51.982  43.207  20.405  1.00  0.00    +0.000 C 
ATOM     48  C35 UNL A   1      50.809  43.162  21.340  1.00  0.00    +0.000 C 
ATOM     49  N6  UNL A   1      49.591  43.605  21.154  1.00  0.00    +0.000 N 
ATOM     50  C36 UNL A   1      48.891  43.294  22.311  1.00  0.00    +0.000 C 
ATOM     51  C37 UNL A   1      47.598  43.565  22.612  1.00  0.00    +0.000 C 
ATOM     63  C44 UNL A   1      46.690  44.267  21.741  1.00  0.00    +0.000 C 
ATOM     64  C45 UNL A   1      45.372  44.620  21.970  1.00  0.00    +0.000 C 
ATOM     65  C46 UNL A   1      44.882  45.259  20.824  1.00  0.00    +0.000 C 
ATOM     66  C47 UNL A   1      45.907  45.338  19.896  1.00  0.00    +0.000 C 
ATOM     67  N7  UNL A   1      47.009  44.722  20.469  1.00  0.00    +0.000 N 
ATOM     68  C48 UNL A   1      45.884  45.928  18.583  1.00  0.00    +0.000 C 
ATOM     80  C55 UNL A   1      46.939  45.988  17.734  1.00  0.00    +0.000 C 
ATOM     81  N8  UNL A   1      48.227  45.508  17.910  1.00  0.00    +0.000 N 
ATOM     82  C56 UNL A   1      48.868  45.783  16.801  1.00  0.00    +0.000 C 
ATOM     83  C57 UNL A   1      50.296  45.496  16.439  1.00  0.00    +0.000 C 
ATOM     95  C64 UNL A   1      51.076  44.850  17.323  1.00  0.00    +0.000 C 
ATOM     96  C65 UNL A   1      52.478  44.505  17.113  1.00  0.00    +0.000 C 
ATOM     97  C66 UNL A   1      52.927  43.839  18.186  1.00  0.00    +0.000 C 
ATOM     98  C67 UNL A   1      51.857  43.756  19.182  1.00  0.00    +0.000 C 
ATOM     99  N9  UNL A   1      50.789  44.363  18.575  1.00  0.00    +0.000 N 
ATOM    100  C68 UNL A   1      48.053  46.463  15.786  1.00  0.00    +0.000 C 
ATOM    101  C69 UNL A   1      46.895  46.592  16.418  1.00  0.00    +0.000 C 
ATOM    102  C70 UNL A   1      49.814  42.605  23.189  1.00  0.00    +0.000 C 
ATOM    103  C71 UNL A   1      51.025  42.532  22.650  1.00  0.00    +0.000 C 
ENDROOT
BRANCH   47   46
ATOM    104  C72 UNL A   1      54.212  43.460  21.542  1.00  0.00    +0.000 C 
ATOM    105  C73 UNL A   1      55.443  42.927  21.936  1.00  0.00    +0.000 C 
ATOM     43  C30 UNL A   1      55.754  41.600  21.630  1.00  0.00    +0.000 C 
ATOM     44  C31 UNL A   1      54.824  40.793  20.966  1.00  0.00    +0.000 C 
ATOM     45  C32 UNL A   1      53.632  41.345  20.509  1.00  0.00    +0.000 C 
ATOM     46  C33 UNL A   1      53.308  42.678  20.808  1.00  0.00    +0.000 C 
ATOM    143  H38 UNL A   1      55.022  39.792  20.813  1.00  0.00    +0.000 H 
ATOM    144  H39 UNL A   1      52.983  40.772  19.948  1.00  0.00    +0.000 H 
ATOM    155  H50 UNL A   1      53.968  44.431  21.791  1.00  0.00    +0.000 H 
ATOM    156  H51 UNL A   1      56.118  43.512  22.452  1.00  0.00    +0.000 H 
BRANCH   43    2
ATOM      1  O1  UNL A   1      57.148  40.254  22.953  1.00  0.00    +0.000 O 
ATOM      2  C1  UNL A   1      57.071  41.057  22.029  1.00  0.00    +0.000 C 
BRANCH    2    3
ATOM    106  H1  UNL A   1      58.969  41.703  21.936  1.00  0.00    +0.000 H 
ATOM      3  N1  UNL A   1      58.200  41.469  21.368  1.00  0.00    +0.000 N 
BRANCH    3    4
ATOM    108  H3  UNL A   1      57.674  42.289  19.561  1.00  0.00    +0.000 H 
ATOM    107  H2  UNL A   1      59.397  41.963  19.760  1.00  0.00    +0.000 H 
ATOM      4  C2  UNL A   1      58.404  41.604  19.936  1.00  0.00    +0.000 C 
BRANCH    4    5
ATOM    109  H4  UNL A   1      57.939  39.539  19.926  1.00  0.00    +0.000 H 
ATOM      5  C3  UNL A   1      58.225  40.280  19.209  1.00  0.00    +0.000 C 
ATOM    110  H5  UNL A   1      59.160  40.060  18.736  1.00  0.00    +0.000 H 
BRANCH    5    6
ATOM      6  C4  UNL A   1      57.170  40.307  18.102  1.00  0.00    +0.000 C 
ATOM    111  H6  UNL A   1      56.408  39.598  18.353  1.00  0.00    +0.000 H 
ATOM    112  H7  UNL A   1      57.684  40.073  17.194  1.00  0.00    +0.000 H 
BRANCH    6    7
ATOM    113  H8  UNL A   1      57.269  42.408  17.809  1.00  0.00    +0.000 H 
ATOM    114  H9  UNL A   1      55.838  41.811  18.705  1.00  0.00    +0.000 H 
ATOM      7  C5  UNL A   1      56.500  41.666  17.877  1.00  0.00    +0.000 C 
BRANCH    7    8
ATOM    115  H10 UNL A   1      56.247  41.560  15.765  1.00  0.00    +0.000 H 
ATOM    116  H11 UNL A   1      55.224  42.757  16.595  1.00  0.00    +0.000 H 
ATOM      8  C6  UNL A   1      55.631  41.767  16.615  1.00  0.00    +0.000 C 
BRANCH    8    9
ATOM      9  C7  UNL A   1      54.447  40.800  16.601  1.00  0.00    +0.000 C 
ATOM    117  H12 UNL A   1      53.917  40.879  17.527  1.00  0.00    +0.000 H 
ATOM    118  H13 UNL A   1      54.818  39.805  16.469  1.00  0.00    +0.000 H 
BRANCH    9   10
ATOM     10  N2  UNL A   1      53.546  41.110  15.511  1.00  0.00    +0.000 N 
ATOM    119  H14 UNL A   1      53.384  42.065  15.341  1.00  0.00    +0.000 H 
BRANCH   10   11
ATOM     11  C8  UNL A   1      52.895  40.236  14.692  1.00  0.00    +0.000 C 
ATOM     12  O2  UNL A   1      53.275  39.063  14.677  1.00  0.00    +0.000 O 
BRANCH   11   13
ATOM     13  C9  UNL A   1      51.727  40.699  13.809  1.00  0.00    +0.000 C 
ATOM    120  H15 UNL A   1      51.175  41.428  14.366  1.00  0.00    +0.000 H 
BRANCH   13   14
ATOM    121  H16 UNL A   1      50.156  39.361  14.391  1.00  0.00    +0.000 H 
ATOM    122  H17 UNL A   1      51.302  38.676  13.255  1.00  0.00    +0.000 H 
ATOM     14  C10 UNL A   1      50.746  39.552  13.518  1.00  0.00    +0.000 C 
BRANCH   14   15
ATOM    123  H18 UNL A   1      49.070  40.299  12.780  1.00  0.00    +0.000 H 
ATOM     15  O3  UNL A   1      49.884  39.903  12.431  1.00  0.00    +0.000 O 
ENDBRANCH   14   15
ENDBRANCH   13   14
BRANCH   13   16
ATOM    124  H19 UNL A   1      51.550  42.039  12.235  1.00  0.00    +0.000 H 
ATOM     16  N3  UNL A   1      52.187  41.385  12.602  1.00  0.00    +0.000 N 
BRANCH   16   17
ATOM     17  C11 UNL A   1      53.348  41.271  11.901  1.00  0.00    +0.000 C 
ATOM     18  O4  UNL A   1      54.201  42.118  12.196  1.00  0.00    +0.000 O 
BRANCH   17   19
ATOM     19  C12 UNL A   1      53.717  40.045  11.017  1.00  0.00    +0.000 C 
ATOM    125  H20 UNL A   1      52.883  39.382  11.124  1.00  0.00    +0.000 H 
BRANCH   19   20
ATOM     20  C13 UNL A   1      55.034  39.415  11.539  1.00  0.00    +0.000 C 
ATOM    126  H21 UNL A   1      55.165  39.708  12.559  1.00  0.00    +0.000 H 
ATOM    127  H22 UNL A   1      55.819  39.770  10.905  1.00  0.00    +0.000 H 
BRANCH   20   21
ATOM     21  S1  UNL A   1      55.069  37.589  11.453  1.00  0.00    +0.000 S 
ATOM    128  H23 UNL A   1      54.438  37.072  12.542  1.00  0.00    +0.000 H 
ENDBRANCH   20   21
ENDBRANCH   19   20
BRANCH   19   22
ATOM    129  H24 UNL A   1      54.493  39.717   9.142  1.00  0.00    +0.000 H 
ATOM     22  N4  UNL A   1      53.782  40.250   9.565  1.00  0.00    +0.000 N 
BRANCH   22   23
ATOM     23  C14 UNL A   1      53.092  41.002   8.668  1.00  0.00    +0.000 C 
ATOM     24  O5  UNL A   1      51.989  40.515   8.408  1.00  0.00    +0.000 O 
BRANCH   23   25
ATOM     25  C15 UNL A   1      53.511  42.400   8.128  1.00  0.00    +0.000 C 
ATOM    130  H25 UNL A   1      52.665  42.771   7.588  1.00  0.00    +0.000 H 
BRANCH   25   26
ATOM     26  C16 UNL A   1      54.745  42.327   7.174  1.00  0.00    +0.000 C 
ATOM    131  H26 UNL A   1      54.539  41.532   6.488  1.00  0.00    +0.000 H 
ATOM    132  H27 UNL A   1      55.548  42.237   7.875  1.00  0.00    +0.000 H 
BRANCH   26   27
ATOM    133  H28 UNL A   1      57.004  43.921   7.353  1.00  0.00    +0.000 H 
ATOM    134  H29 UNL A   1      57.514  45.962   6.167  1.00  0.00    +0.000 H 
ATOM    135  H30 UNL A   1      56.013  46.785   4.451  1.00  0.00    +0.000 H 
ATOM    136  H31 UNL A   1      54.020  45.518   3.897  1.00  0.00    +0.000 H 
ATOM    137  H32 UNL A   1      53.516  43.463   5.070  1.00  0.00    +0.000 H 
ATOM     27  C17 UNL A   1      55.215  43.500   6.327  1.00  0.00    +0.000 C 
ATOM     28  C18 UNL A   1      56.361  44.251   6.617  1.00  0.00    +0.000 C 
ATOM     29  C19 UNL A   1      56.657  45.435   5.935  1.00  0.00    +0.000 C 
ATOM     30  C20 UNL A   1      55.802  45.906   4.948  1.00  0.00    +0.000 C 
ATOM     31  C21 UNL A   1      54.658  45.180   4.634  1.00  0.00    +0.000 C 
ATOM     32  C22 UNL A   1      54.368  43.991   5.316  1.00  0.00    +0.000 C 
ENDBRANCH   26   27
ENDBRANCH   25   26
BRANCH   25   33
ATOM     33  N5  UNL A   1      53.879  43.294   9.239  1.00  0.00    +0.000 N 
ATOM    138  H33 UNL A   1      54.255  42.821  10.016  1.00  0.00    +0.000 H 
BRANCH   33   34
ATOM     34  C23 UNL A   1      53.803  44.651   9.410  1.00  0.00    +0.000 C 
ATOM     35  O6  UNL A   1      54.327  45.120  10.419  1.00  0.00    +0.000 O 
BRANCH   34   36
ATOM     36  C24 UNL A   1      53.069  45.566   8.494  1.00  0.00    +0.000 C 
ATOM     37  C25 UNL A   1      51.769  45.184   8.116  1.00  0.00    +0.000 C 
ATOM     38  C26 UNL A   1      51.056  45.918   7.164  1.00  0.00    +0.000 C 
ATOM     39  C27 UNL A   1      51.644  47.032   6.582  1.00  0.00    +0.000 C 
ATOM     40  F1  UNL A   1      50.973  47.727   5.655  1.00  0.00    +0.000 F 
ATOM     41  C28 UNL A   1      52.930  47.423   6.933  1.00  0.00    +0.000 C 
ATOM     42  C29 UNL A   1      53.646  46.686   7.883  1.00  0.00    +0.000 C 
ATOM    139  H34 UNL A   1      51.336  44.353   8.547  1.00  0.00    +0.000 H 
ATOM    140  H35 UNL A   1      50.101  45.634   6.896  1.00  0.00    +0.000 H 
ATOM    141  H36 UNL A   1      53.357  48.253   6.493  1.00  0.00    +0.000 H 
ATOM    142  H37 UNL A   1      54.605  46.970   8.135  1.00  0.00    +0.000 H 
ENDBRANCH   34   36
ENDBRANCH   33   34
ENDBRANCH   25   33
ENDBRANCH   23   25
ENDBRANCH   22   23
ENDBRANCH   19   22
ENDBRANCH   17   19
ENDBRANCH   16   17
ENDBRANCH   13   16
ENDBRANCH   11   13
ENDBRANCH   10   11
ENDBRANCH    9   10
ENDBRANCH    8    9
ENDBRANCH    7    8
ENDBRANCH    6    7
ENDBRANCH    5    6
ENDBRANCH    4    5
ENDBRANCH    3    4
ENDBRANCH    2    3
ENDBRANCH   43    2
ENDBRANCH   47   46
BRANCH   51   52
ATOM     52  C38 UNL A   1      47.078  43.089  23.936  1.00  0.00    +0.000 C 
ATOM     53  C39 UNL A   1      46.635  41.772  24.121  1.00  0.00    +0.000 C 
ATOM     54  F2  UNL A   1      46.612  40.916  23.089  1.00  0.00    +0.000 F 
ATOM     55  C40 UNL A   1      46.185  41.336  25.365  1.00  0.00    +0.000 C 
ATOM     56  F3  UNL A   1      45.732  40.083  25.511  1.00  0.00    +0.000 F 
ATOM     57  C41 UNL A   1      46.193  42.199  26.451  1.00  0.00    +0.000 C 
ATOM     58  F4  UNL A   1      45.766  41.776  27.649  1.00  0.00    +0.000 F 
ATOM     59  C42 UNL A   1      46.639  43.503  26.294  1.00  0.00    +0.000 C 
ATOM     60  F5  UNL A   1      46.657  44.335  27.344  1.00  0.00    +0.000 F 
ATOM     61  C43 UNL A   1      47.070  43.948  25.046  1.00  0.00    +0.000 C 
ATOM     62  F6  UNL A   1      47.487  45.217  24.923  1.00  0.00    +0.000 F 
ENDBRANCH   51   52
BRANCH   68   69
ATOM     69  C49 UNL A   1      44.603  46.546  18.113  1.00  0.00    +0.000 C 
ATOM     70  C50 UNL A   1      44.260  47.863  18.454  1.00  0.00    +0.000 C 
ATOM     71  F7  UNL A   1      45.066  48.587  19.245  1.00  0.00    +0.000 F 
ATOM     72  C51 UNL A   1      43.064  48.425  18.015  1.00  0.00    +0.000 C 
ATOM     73  F8  UNL A   1      42.734  49.669  18.389  1.00  0.00    +0.000 F 
ATOM     74  C52 UNL A   1      42.207  47.693  17.208  1.00  0.00    +0.000 C 
ATOM     75  F9  UNL A   1      41.056  48.235  16.787  1.00  0.00    +0.000 F 
ATOM     76  C53 UNL A   1      42.536  46.396  16.844  1.00  0.00    +0.000 C 
ATOM     77  F10 UNL A   1      41.711  45.691  16.058  1.00  0.00    +0.000 F 
ATOM     78  C54 UNL A   1      43.719  45.823  17.300  1.00  0.00    +0.000 C 
ATOM     79  F11 UNL A   1      44.007  44.561  16.946  1.00  0.00    +0.000 F 
ENDBRANCH   68   69
BRANCH   83   84
ATOM     84  C58 UNL A   1      50.861  45.920  15.135  1.00  0.00    +0.000 C 
ATOM     85  C59 UNL A   1      50.867  45.049  14.037  1.00  0.00    +0.000 C 
ATOM     86  F12 UNL A   1      50.400  43.799  14.171  1.00  0.00    +0.000 F 
ATOM     87  C60 UNL A   1      51.377  45.452  12.805  1.00  0.00    +0.000 C 
ATOM     88  F13 UNL A   1      51.399  44.591  11.779  1.00  0.00    +0.000 F 
ATOM     89  C61 UNL A   1      51.867  46.740  12.642  1.00  0.00    +0.000 C 
ATOM     90  F14 UNL A   1      52.346  47.130  11.453  1.00  0.00    +0.000 F 
ATOM     91  C62 UNL A   1      51.863  47.620  13.713  1.00  0.00    +0.000 C 
ATOM     92  F15 UNL A   1      52.321  48.870  13.555  1.00  0.00    +0.000 F 
ATOM     93  C63 UNL A   1      51.378  47.210  14.951  1.00  0.00    +0.000 C 
ATOM     94  F16 UNL A   1      51.387  48.081  15.972  1.00  0.00    +0.000 F 
ENDBRANCH   83   84
TORSDOF 30
ENDMDL
MODEL 4
REMARK VINA RESULT:      -5.5      3.482      6.803
ROOT
ATOM    145  H40 UNL A   1      43.569  45.196  21.402  1.00  0.00    +0.000 H 
ATOM    146  H41 UNL A   1      44.132  44.581  23.873  1.00  0.00    +0.000 H 
ATOM    147  H42 UNL A   1      47.669  44.703  21.725  1.00  0.00    +0.000 H 
ATOM    148  H43 UNL A   1      53.992  43.917  21.495  1.00  0.00    +0.000 H 
ATOM    149  H44 UNL A   1      53.462  44.684  19.133  1.00  0.00    +0.000 H 
ATOM    150  H45 UNL A   1      49.890  44.552  21.254  1.00  0.00    +0.000 H 
ATOM    151  H46 UNL A   1      51.128  43.263  25.945  1.00  0.00    +0.000 H 
ATOM    152  H47 UNL A   1      48.624  43.330  26.480  1.00  0.00    +0.000 H 
ATOM    153  H48 UNL A   1      46.561  46.062  17.024  1.00  0.00    +0.000 H 
ATOM    154  H49 UNL A   1      49.026  45.750  16.403  1.00  0.00    +0.000 H 
ATOM     47  C34 UNL A   1      50.687  45.063  18.618  1.00  0.00    +0.000 C 
ATOM     48  C35 UNL A   1      49.199  45.250  18.607  1.00  0.00    +0.000 C 
ATOM     49  N6  UNL A   1      48.348  45.132  19.595  1.00  0.00    +0.000 N 
ATOM     50  C36 UNL A   1      47.102  45.434  19.064  1.00  0.00    +0.000 C 
ATOM     51  C37 UNL A   1      45.898  45.432  19.685  1.00  0.00    +0.000 C 
ATOM     63  C44 UNL A   1      45.698  45.088  21.070  1.00  0.00    +0.000 C 
ATOM     64  C45 UNL A   1      44.513  45.022  21.782  1.00  0.00    +0.000 C 
ATOM     65  C46 UNL A   1      44.814  44.679  23.105  1.00  0.00    +0.000 C 
ATOM     66  C47 UNL A   1      46.183  44.494  23.209  1.00  0.00    +0.000 C 
ATOM     67  N7  UNL A   1      46.713  44.751  21.954  1.00  0.00    +0.000 N 
ATOM     68  C48 UNL A   1      46.950  44.111  24.365  1.00  0.00    +0.000 C 
ATOM     80  C55 UNL A   1      48.293  43.926  24.386  1.00  0.00    +0.000 C 
ATOM     81  N8  UNL A   1      49.207  44.065  23.354  1.00  0.00    +0.000 N 
ATOM     82  C56 UNL A   1      50.380  43.804  23.875  1.00  0.00    +0.000 C 
ATOM     83  C57 UNL A   1      51.728  43.798  23.214  1.00  0.00    +0.000 C 
ATOM     95  C64 UNL A   1      51.817  44.118  21.912  1.00  0.00    +0.000 C 
ATOM     96  C65 UNL A   1      53.053  44.153  21.137  1.00  0.00    +0.000 C 
ATOM     97  C66 UNL A   1      52.771  44.542  19.886  1.00  0.00    +0.000 C 
ATOM     98  C67 UNL A   1      51.324  44.732  19.757  1.00  0.00    +0.000 C 
ATOM     99  N9  UNL A   1      50.842  44.480  21.015  1.00  0.00    +0.000 N 
ATOM    100  C68 UNL A   1      50.346  43.479  25.307  1.00  0.00    +0.000 C 
ATOM    101  C69 UNL A   1      49.046  43.537  25.561  1.00  0.00    +0.000 C 
ATOM    102  C70 UNL A   1      47.308  45.762  17.669  1.00  0.00    +0.000 C 
ATOM    103  C71 UNL A   1      48.584  45.626  17.327  1.00  0.00    +0.000 C 
ENDROOT
BRANCH   47   46
ATOM    104  C72 UNL A   1      52.028  46.449  17.002  1.00  0.00    +0.000 C 
ATOM    105  C73 UNL A   1      52.808  46.555  15.847  1.00  0.00    +0.000 C 
ATOM     43  C30 UNL A   1      53.083  45.414  15.089  1.00  0.00    +0.000 C 
ATOM     44  C31 UNL A   1      52.614  44.163  15.503  1.00  0.00    +0.000 C 
ATOM     45  C32 UNL A   1      51.777  44.071  16.610  1.00  0.00    +0.000 C 
ATOM     46  C33 UNL A   1      51.491  45.209  17.379  1.00  0.00    +0.000 C 
ATOM    143  H38 UNL A   1      52.887  43.312  14.989  1.00  0.00    +0.000 H 
ATOM    144  H39 UNL A   1      51.366  43.160  16.867  1.00  0.00    +0.000 H 
ATOM    155  H50 UNL A   1      51.847  47.285  17.579  1.00  0.00    +0.000 H 
ATOM    156  H51 UNL A   1      53.179  47.473  15.556  1.00  0.00    +0.000 H 
BRANCH   43    2
ATOM      1  O1  UNL A   1      54.431  44.559  13.370  1.00  0.00    +0.000 O 
ATOM      2  C1  UNL A   1      53.887  45.545  13.855  1.00  0.00    +0.000 C 
BRANCH    2    3
ATOM    106  H1  UNL A   1      54.513  47.452  13.796  1.00  0.00    +0.000 H 
ATOM      3  N1  UNL A   1      54.027  46.777  13.268  1.00  0.00    +0.000 N 
BRANCH    3    4
ATOM    108  H3  UNL A   1      54.379  47.213  11.292  1.00  0.00    +0.000 H 
ATOM    107  H2  UNL A   1      52.783  46.544  11.637  1.00  0.00    +0.000 H 
ATOM      4  C2  UNL A   1      53.549  47.213  11.967  1.00  0.00    +0.000 C 
BRANCH    4    5
ATOM    109  H4  UNL A   1      52.614  48.870  11.040  1.00  0.00    +0.000 H 
ATOM      5  C3  UNL A   1      52.982  48.624  12.014  1.00  0.00    +0.000 C 
ATOM    110  H5  UNL A   1      53.778  49.265  12.331  1.00  0.00    +0.000 H 
BRANCH    5    6
ATOM      6  C4  UNL A   1      51.843  48.812  13.018  1.00  0.00    +0.000 C 
ATOM    111  H6  UNL A   1      51.692  47.882  13.526  1.00  0.00    +0.000 H 
ATOM    112  H7  UNL A   1      50.994  49.129  12.451  1.00  0.00    +0.000 H 
BRANCH    6    7
ATOM    113  H8  UNL A   1      53.004  50.389  13.842  1.00  0.00    +0.000 H 
ATOM    114  H9  UNL A   1      52.091  49.395  15.019  1.00  0.00    +0.000 H 
ATOM      7  C5  UNL A   1      52.082  49.897  14.074  1.00  0.00    +0.000 C 
BRANCH    7    8
ATOM    115  H10 UNL A   1      50.749  51.114  15.206  1.00  0.00    +0.000 H 
ATOM    116  H11 UNL A   1      50.149  50.609  13.608  1.00  0.00    +0.000 H 
ATOM      8  C6  UNL A   1      50.985  50.967  14.172  1.00  0.00    +0.000 C 
BRANCH    8    9
ATOM      9  C7  UNL A   1      51.381  52.316  13.572  1.00  0.00    +0.000 C 
ATOM    117  H12 UNL A   1      51.802  52.158  12.601  1.00  0.00    +0.000 H 
ATOM    118  H13 UNL A   1      52.098  52.781  14.216  1.00  0.00    +0.000 H 
BRANCH    9   10
ATOM     10  N2  UNL A   1      50.228  53.183  13.454  1.00  0.00    +0.000 N 
ATOM    119  H14 UNL A   1      49.918  53.607  14.287  1.00  0.00    +0.000 H 
BRANCH   10   11
ATOM     11  C8  UNL A   1      49.520  53.483  12.328  1.00  0.00    +0.000 C 
ATOM     12  O2  UNL A   1      49.941  54.386  11.604  1.00  0.00    +0.000 O 
BRANCH   11   13
ATOM     13  C9  UNL A   1      48.235  52.721  11.976  1.00  0.00    +0.000 C 
ATOM    120  H15 UNL A   1      48.448  51.676  12.061  1.00  0.00    +0.000 H 
BRANCH   13   14
ATOM    121  H16 UNL A   1      48.637  53.387   9.979  1.00  0.00    +0.000 H 
ATOM    122  H17 UNL A   1      46.978  53.618  10.495  1.00  0.00    +0.000 H 
ATOM     14  C10 UNL A   1      47.818  52.955  10.516  1.00  0.00    +0.000 C 
BRANCH   14   15
ATOM    123  H18 UNL A   1      47.976  51.588   9.095  1.00  0.00    +0.000 H 
ATOM     15  O3  UNL A   1      47.452  51.715   9.901  1.00  0.00    +0.000 O 
ENDBRANCH   14   15
ENDBRANCH   13   14
BRANCH   13   16
ATOM    124  H19 UNL A   1      46.582  53.748  12.699  1.00  0.00    +0.000 H 
ATOM     16  N3  UNL A   1      47.159  52.985  12.932  1.00  0.00    +0.000 N 
BRANCH   16   17
ATOM     17  C11 UNL A   1      46.821  52.353  14.090  1.00  0.00    +0.000 C 
ATOM     18  O4  UNL A   1      47.513  51.358  14.342  1.00  0.00    +0.000 O 
BRANCH   17   19
ATOM     19  C12 UNL A   1      45.865  52.949  15.162  1.00  0.00    +0.000 C 
ATOM    125  H20 UNL A   1      44.916  52.502  14.947  1.00  0.00    +0.000 H 
BRANCH   19   20
ATOM     20  C13 UNL A   1      45.828  54.492  15.018  1.00  0.00    +0.000 C 
ATOM    126  H21 UNL A   1      44.852  54.832  15.293  1.00  0.00    +0.000 H 
ATOM    127  H22 UNL A   1      46.069  54.713  13.999  1.00  0.00    +0.000 H 
BRANCH   20   21
ATOM     21  S1  UNL A   1      47.056  55.365  16.053  1.00  0.00    +0.000 S 
ATOM    128  H23 UNL A   1      46.489  56.483  16.583  1.00  0.00    +0.000 H 
ENDBRANCH   20   21
ENDBRANCH   19   20
BRANCH   19   22
ATOM    129  H24 UNL A   1      46.137  53.345  17.161  1.00  0.00    +0.000 H 
ATOM     22  N4  UNL A   1      46.091  52.566  16.561  1.00  0.00    +0.000 N 
BRANCH   22   23
ATOM     23  C14 UNL A   1      46.253  51.390  17.222  1.00  0.00    +0.000 C 
ATOM     24  O5  UNL A   1      45.352  50.587  16.964  1.00  0.00    +0.000 O 
BRANCH   23   25
ATOM     25  C15 UNL A   1      47.487  50.981  18.079  1.00  0.00    +0.000 C 
ATOM    130  H25 UNL A   1      48.286  50.823  17.384  1.00  0.00    +0.000 H 
BRANCH   25   26
ATOM     26  C16 UNL A   1      47.240  49.673  18.894  1.00  0.00    +0.000 C 
ATOM    131  H26 UNL A   1      46.843  48.964  18.198  1.00  0.00    +0.000 H 
ATOM    132  H27 UNL A   1      46.634  50.035  19.697  1.00  0.00    +0.000 H 
BRANCH   26   27
ATOM    133  H28 UNL A   1      47.235  48.427  21.369  1.00  0.00    +0.000 H 
ATOM    134  H29 UNL A   1      49.106  47.575  22.638  1.00  0.00    +0.000 H 
ATOM    135  H30 UNL A   1      51.338  47.610  21.696  1.00  0.00    +0.000 H 
ATOM    136  H31 UNL A   1      51.675  48.460  19.449  1.00  0.00    +0.000 H 
ATOM    137  H32 UNL A   1      49.801  49.298  18.168  1.00  0.00    +0.000 H 
ATOM     27  C17 UNL A   1      48.339  48.944  19.652  1.00  0.00    +0.000 C 
ATOM     28  C18 UNL A   1      48.178  48.438  20.948  1.00  0.00    +0.000 C 
ATOM     29  C19 UNL A   1      49.259  47.948  21.687  1.00  0.00    +0.000 C 
ATOM     30  C20 UNL A   1      50.537  47.962  21.148  1.00  0.00    +0.000 C 
ATOM     31  C21 UNL A   1      50.729  48.453  19.861  1.00  0.00    +0.000 C 
ATOM     32  C22 UNL A   1      49.643  48.938  19.122  1.00  0.00    +0.000 C 
ENDBRANCH   26   27
ENDBRANCH   25   26
BRANCH   25   33
ATOM     33  N5  UNL A   1      47.814  52.038  19.050  1.00  0.00    +0.000 N 
ATOM    138  H33 UNL A   1      47.047  52.318  19.600  1.00  0.00    +0.000 H 
BRANCH   33   34
ATOM     34  C23 UNL A   1      48.970  52.710  19.344  1.00  0.00    +0.000 C 
ATOM     35  O6  UNL A   1      49.134  53.807  18.810  1.00  0.00    +0.000 O 
BRANCH   34   36
ATOM     36  C24 UNL A   1      50.058  52.163  20.200  1.00  0.00    +0.000 C 
ATOM     37  C25 UNL A   1      49.717  51.812  21.519  1.00  0.00    +0.000 C 
ATOM     38  C26 UNL A   1      50.699  51.408  22.428  1.00  0.00    +0.000 C 
ATOM     39  C27 UNL A   1      52.025  51.361  22.023  1.00  0.00    +0.000 C 
ATOM     40  F1  UNL A   1      52.972  50.994  22.895  1.00  0.00    +0.000 F 
ATOM     41  C28 UNL A   1      52.386  51.712  20.728  1.00  0.00    +0.000 C 
ATOM     42  C29 UNL A   1      51.404  52.120  19.819  1.00  0.00    +0.000 C 
ATOM    139  H34 UNL A   1      48.731  51.852  21.819  1.00  0.00    +0.000 H 
ATOM    140  H35 UNL A   1      50.440  51.148  23.393  1.00  0.00    +0.000 H 
ATOM    141  H36 UNL A   1      53.375  51.672  20.438  1.00  0.00    +0.000 H 
ATOM    142  H37 UNL A   1      51.673  52.391  18.861  1.00  0.00    +0.000 H 
ENDBRANCH   34   36
ENDBRANCH   33   34
ENDBRANCH   25   33
ENDBRANCH   23   25
ENDBRANCH   22   23
ENDBRANCH   19   22
ENDBRANCH   17   19
ENDBRANCH   16   17
ENDBRANCH   13   16
ENDBRANCH   11   13
ENDBRANCH   10   11
ENDBRANCH    9   10
ENDBRANCH    8    9
ENDBRANCH    7    8
ENDBRANCH    6    7
ENDBRANCH    5    6
ENDBRANCH    4    5
ENDBRANCH    3    4
ENDBRANCH    2    3
ENDBRANCH   43    2
ENDBRANCH   47   46
BRANCH   51   52
ATOM     52  C38 UNL A   1      44.698  45.828  18.877  1.00  0.00    +0.000 C 
ATOM     53  C39 UNL A   1      44.241  47.153  18.841  1.00  0.00    +0.000 C 
ATOM     54  F2  UNL A   1      44.841  48.095  19.585  1.00  0.00    +0.000 F 
ATOM     55  C40 UNL A   1      43.144  47.511  18.060  1.00  0.00    +0.000 C 
ATOM     56  F3  UNL A   1      42.703  48.777  18.069  1.00  0.00    +0.000 F 
ATOM     57  C41 UNL A   1      42.501  46.560  17.283  1.00  0.00    +0.000 C 
ATOM     58  F4  UNL A   1      41.451  46.908  16.528  1.00  0.00    +0.000 F 
ATOM     59  C42 UNL A   1      42.944  45.245  17.294  1.00  0.00    +0.000 C 
ATOM     60  F5  UNL A   1      42.330  44.326  16.536  1.00  0.00    +0.000 F 
ATOM     61  C43 UNL A   1      44.027  44.880  18.090  1.00  0.00    +0.000 C 
ATOM     62  F6  UNL A   1      44.427  43.599  18.086  1.00  0.00    +0.000 F 
ENDBRANCH   51   52
BRANCH   68   69
ATOM     69  C49 UNL A   1      46.216  43.879  25.651  1.00  0.00    +0.000 C 
ATOM     70  C50 UNL A   1      45.595  42.652  25.925  1.00  0.00    +0.000 C 
ATOM     71  F7  UNL A   1      45.617  41.667  25.014  1.00  0.00    +0.000 F 
ATOM     72  C51 UNL A   1      44.912  42.449  27.120  1.00  0.00    +0.000 C 
ATOM     73  F8  UNL A   1      44.287  41.285  27.343  1.00  0.00    +0.000 F 
ATOM     74  C52 UNL A   1      44.863  43.457  28.072  1.00  0.00    +0.000 C 
ATOM     75  F9  UNL A   1      44.204  43.260  29.223  1.00  0.00    +0.000 F 
ATOM     76  C53 UNL A   1      45.486  44.670  27.829  1.00  0.00    +0.000 C 
ATOM     77  F10 UNL A   1      45.445  45.642  28.752  1.00  0.00    +0.000 F 
ATOM     78  C54 UNL A   1      46.150  44.885  26.625  1.00  0.00    +0.000 C 
ATOM     79  F11 UNL A   1      46.732  46.075  26.408  1.00  0.00    +0.000 F 
ENDBRANCH   68   69
BRANCH   83   84
ATOM     84  C58 UNL A   1      52.955  43.439  23.967  1.00  0.00    +0.000 C 
ATOM     85  C59 UNL A   1      53.746  44.429  24.565  1.00  0.00    +0.000 C 
ATOM     86  F12 UNL A   1      53.424  45.722  24.421  1.00  0.00    +0.000 F 
ATOM     87  C60 UNL A   1      54.887  44.093  25.291  1.00  0.00    +0.000 C 
ATOM     88  F13 UNL A   1      55.644  45.059  25.828  1.00  0.00    +0.000 F 
ATOM     89  C61 UNL A   1      55.242  42.761  25.454  1.00  0.00    +0.000 C 
ATOM     90  F14 UNL A   1      56.332  42.439  26.162  1.00  0.00    +0.000 F 
ATOM     91  C62 UNL A   1      54.467  41.766  24.878  1.00  0.00    +0.000 C 
ATOM     92  F15 UNL A   1      54.798  40.478  25.045  1.00  0.00    +0.000 F 
ATOM     93  C63 UNL A   1      53.342  42.102  24.129  1.00  0.00    +0.000 C 
ATOM     94  F16 UNL A   1      52.612  41.120  23.581  1.00  0.00    +0.000 F 
ENDBRANCH   83   84
TORSDOF 30
ENDMDL
MODEL 5
REMARK VINA RESULT:      -5.4     34.323     39.902
ROOT
ATOM    145  H40 UNL A   1      16.776  35.403  48.910  1.00  0.00    +0.000 H 
ATOM    146  H41 UNL A   1      18.525  33.969  47.612  1.00  0.00    +0.000 H 
ATOM    147  H42 UNL A   1      20.297  37.568  48.637  1.00  0.00    +0.000 H 
ATOM    148  H43 UNL A   1      25.325  41.481  48.416  1.00  0.00    +0.000 H 
ATOM    149  H44 UNL A   1      23.680  42.804  49.827  1.00  0.00    +0.000 H 
ATOM    150  H45 UNL A   1      21.863  39.210  48.798  1.00  0.00    +0.000 H 
ATOM    151  H46 UNL A   1      25.311  36.617  46.230  1.00  0.00    +0.000 H 
ATOM    152  H47 UNL A   1      23.536  34.794  45.950  1.00  0.00    +0.000 H 
ATOM    153  H48 UNL A   1      16.959  40.220  51.284  1.00  0.00    +0.000 H 
ATOM    154  H49 UNL A   1      18.628  42.161  51.354  1.00  0.00    +0.000 H 
ATOM     47  C34 UNL A   1      21.140  41.557  50.145  1.00  0.00    +0.000 C 
ATOM     48  C35 UNL A   1      19.921  40.685  50.219  1.00  0.00    +0.000 C 
ATOM     49  N6  UNL A   1      19.742  39.478  49.744  1.00  0.00    +0.000 N 
ATOM     50  C36 UNL A   1      18.453  39.114  50.104  1.00  0.00    +0.000 C 
ATOM     51  C37 UNL A   1      17.794  37.962  49.826  1.00  0.00    +0.000 C 
ATOM     63  C44 UNL A   1      18.347  36.873  49.061  1.00  0.00    +0.000 C 
ATOM     64  C45 UNL A   1      17.747  35.681  48.697  1.00  0.00    +0.000 C 
ATOM     65  C46 UNL A   1      18.682  34.917  47.988  1.00  0.00    +0.000 C 
ATOM     66  C47 UNL A   1      19.852  35.649  47.879  1.00  0.00    +0.000 C 
ATOM     67  N7  UNL A   1      19.635  36.845  48.544  1.00  0.00    +0.000 N 
ATOM     68  C48 UNL A   1      21.078  35.285  47.218  1.00  0.00    +0.000 C 
ATOM     80  C55 UNL A   1      22.182  36.067  47.132  1.00  0.00    +0.000 C 
ATOM     81  N8  UNL A   1      22.391  37.338  47.645  1.00  0.00    +0.000 N 
ATOM     82  C56 UNL A   1      23.620  37.658  47.322  1.00  0.00    +0.000 C 
ATOM     83  C57 UNL A   1      24.375  38.921  47.615  1.00  0.00    +0.000 C 
ATOM     95  C64 UNL A   1      23.772  39.893  48.323  1.00  0.00    +0.000 C 
ATOM     96  C65 UNL A   1      24.377  41.171  48.682  1.00  0.00    +0.000 C 
ATOM     97  C66 UNL A   1      23.502  41.876  49.413  1.00  0.00    +0.000 C 
ATOM     98  C67 UNL A   1      22.254  41.119  49.529  1.00  0.00    +0.000 C 
ATOM     99  N9  UNL A   1      22.514  39.945  48.871  1.00  0.00    +0.000 N 
ATOM    100  C68 UNL A   1      24.338  36.618  46.574  1.00  0.00    +0.000 C 
ATOM    101  C69 UNL A   1      23.406  35.683  46.458  1.00  0.00    +0.000 C 
ATOM    102  C70 UNL A   1      17.897  40.219  50.856  1.00  0.00    +0.000 C 
ATOM    103  C71 UNL A   1      18.752  41.232  50.922  1.00  0.00    +0.000 C 
ENDROOT
BRANCH   47   46
ATOM    104  C72 UNL A   1      21.697  43.181  51.984  1.00  0.00    +0.000 C 
ATOM    105  C73 UNL A   1      21.718  44.483  52.491  1.00  0.00    +0.000 C 
ATOM     43  C30 UNL A   1      21.221  45.536  51.717  1.00  0.00    +0.000 C 
ATOM     44  C31 UNL A   1      20.741  45.296  50.426  1.00  0.00    +0.000 C 
ATOM     45  C32 UNL A   1      20.652  43.992  49.953  1.00  0.00    +0.000 C 
ATOM     46  C33 UNL A   1      21.144  42.925  50.720  1.00  0.00    +0.000 C 
ATOM    143  H38 UNL A   1      20.452  46.085  49.827  1.00  0.00    +0.000 H 
ATOM    144  H39 UNL A   1      20.222  43.808  49.033  1.00  0.00    +0.000 H 
ATOM    155  H50 UNL A   1      22.088  42.406  52.541  1.00  0.00    +0.000 H 
ATOM    156  H51 UNL A   1      22.099  44.666  53.432  1.00  0.00    +0.000 H 
BRANCH   43    2
ATOM      1  O1  UNL A   1      20.662  47.134  53.342  1.00  0.00    +0.000 O 
ATOM      2  C1  UNL A   1      21.225  46.905  52.276  1.00  0.00    +0.000 C 
BRANCH    2    3
ATOM    106  H1  UNL A   1      22.796  47.757  51.363  1.00  0.00    +0.000 H 
ATOM      3  N1  UNL A   1      21.851  47.914  51.589  1.00  0.00    +0.000 N 
BRANCH    3    4
ATOM    108  H3  UNL A   1      20.248  49.177  51.362  1.00  0.00    +0.000 H 
ATOM    107  H2  UNL A   1      21.789  49.976  51.681  1.00  0.00    +0.000 H 
ATOM      4  C2  UNL A   1      21.297  49.185  51.154  1.00  0.00    +0.000 C 
BRANCH    4    5
ATOM    109  H4  UNL A   1      22.137  50.235  49.519  1.00  0.00    +0.000 H 
ATOM      5  C3  UNL A   1      21.479  49.402  49.659  1.00  0.00    +0.000 C 
ATOM    110  H5  UNL A   1      20.504  49.571  49.253  1.00  0.00    +0.000 H 
BRANCH    5    6
ATOM      6  C4  UNL A   1      22.062  48.200  48.914  1.00  0.00    +0.000 C 
ATOM    111  H6  UNL A   1      21.522  48.085  47.997  1.00  0.00    +0.000 H 
ATOM    112  H7  UNL A   1      21.963  47.364  49.573  1.00  0.00    +0.000 H 
BRANCH    6    7
ATOM    113  H8  UNL A   1      24.085  47.624  49.207  1.00  0.00    +0.000 H 
ATOM    114  H9  UNL A   1      23.821  49.331  48.734  1.00  0.00    +0.000 H 
ATOM      7  C5  UNL A   1      23.553  48.307  48.577  1.00  0.00    +0.000 C 
BRANCH    7    8
ATOM    115  H10 UNL A   1      24.619  48.726  46.781  1.00  0.00    +0.000 H 
ATOM    116  H11 UNL A   1      23.007  48.004  46.560  1.00  0.00    +0.000 H 
ATOM      8  C6  UNL A   1      23.919  47.991  47.119  1.00  0.00    +0.000 C 
BRANCH    8    9
ATOM      9  C7  UNL A   1      24.540  46.607  46.924  1.00  0.00    +0.000 C 
ATOM    117  H12 UNL A   1      25.300  46.667  46.173  1.00  0.00    +0.000 H 
ATOM    118  H13 UNL A   1      23.772  45.926  46.622  1.00  0.00    +0.000 H 
BRANCH    9   10
ATOM     10  N2  UNL A   1      25.127  46.131  48.158  1.00  0.00    +0.000 N 
ATOM    119  H14 UNL A   1      24.508  45.712  48.798  1.00  0.00    +0.000 H 
BRANCH   10   11
ATOM     11  C8  UNL A   1      26.434  46.194  48.540  1.00  0.00    +0.000 C 
ATOM     12  O2  UNL A   1      26.868  47.275  48.940  1.00  0.00    +0.000 O 
BRANCH   11   13
ATOM     13  C9  UNL A   1      27.339  44.956  48.468  1.00  0.00    +0.000 C 
ATOM    120  H15 UNL A   1      28.208  45.227  47.904  1.00  0.00    +0.000 H 
BRANCH   13   14
ATOM    121  H16 UNL A   1      25.643  44.050  47.520  1.00  0.00    +0.000 H 
ATOM    122  H17 UNL A   1      26.739  42.911  48.279  1.00  0.00    +0.000 H 
ATOM     14  C10 UNL A   1      26.671  43.807  47.697  1.00  0.00    +0.000 C 
BRANCH   14   15
ATOM    123  H18 UNL A   1      27.047  44.284  45.815  1.00  0.00    +0.000 H 
ATOM     15  O3  UNL A   1      27.330  43.602  46.444  1.00  0.00    +0.000 O 
ENDBRANCH   14   15
ENDBRANCH   13   14
BRANCH   13   16
ATOM    124  H19 UNL A   1      27.197  44.712  50.525  1.00  0.00    +0.000 H 
ATOM     16  N3  UNL A   1      27.831  44.556  49.787  1.00  0.00    +0.000 N 
BRANCH   16   17
ATOM     17  C11 UNL A   1      29.016  44.007  50.167  1.00  0.00    +0.000 C 
ATOM     18  O4  UNL A   1      29.853  44.832  50.559  1.00  0.00    +0.000 O 
BRANCH   17   19
ATOM     19  C12 UNL A   1      29.245  42.482  50.378  1.00  0.00    +0.000 C 
ATOM    125  H20 UNL A   1      30.151  42.428  50.945  1.00  0.00    +0.000 H 
BRANCH   19   20
ATOM     20  C13 UNL A   1      29.377  41.787  48.999  1.00  0.00    +0.000 C 
ATOM    126  H21 UNL A   1      28.407  41.750  48.547  1.00  0.00    +0.000 H 
ATOM    127  H22 UNL A   1      29.783  40.814  49.181  1.00  0.00    +0.000 H 
BRANCH   20   21
ATOM     21  S1  UNL A   1      30.518  42.631  47.847  1.00  0.00    +0.000 S 
ATOM    128  H23 UNL A   1      31.799  42.464  48.274  1.00  0.00    +0.000 H 
ENDBRANCH   20   21
ENDBRANCH   19   20
BRANCH   19   22
ATOM    129  H24 UNL A   1      27.414  41.646  50.795  1.00  0.00    +0.000 H 
ATOM     22  N4  UNL A   1      28.289  41.765  51.230  1.00  0.00    +0.000 N 
BRANCH   22   23
ATOM     23  C14 UNL A   1      28.327  41.227  52.476  1.00  0.00    +0.000 C 
ATOM     24  O5  UNL A   1      29.313  41.607  53.114  1.00  0.00    +0.000 O 
BRANCH   23   25
ATOM     25  C15 UNL A   1      27.212  40.367  53.140  1.00  0.00    +0.000 C 
ATOM    130  H25 UNL A   1      26.881  40.923  53.992  1.00  0.00    +0.000 H 
BRANCH   25   26
ATOM     26  C16 UNL A   1      27.730  38.968  53.600  1.00  0.00    +0.000 C 
ATOM    131  H26 UNL A   1      26.857  38.383  53.801  1.00  0.00    +0.000 H 
ATOM    132  H27 UNL A   1      28.391  39.239  54.396  1.00  0.00    +0.000 H 
BRANCH   26   27
ATOM    133  H28 UNL A   1      27.262  37.643  51.211  1.00  0.00    +0.000 H 
ATOM    134  H29 UNL A   1      28.647  36.015  50.088  1.00  0.00    +0.000 H 
ATOM    135  H30 UNL A   1      30.837  35.461  50.965  1.00  0.00    +0.000 H 
ATOM    136  H31 UNL A   1      31.651  36.590  52.951  1.00  0.00    +0.000 H 
ATOM    137  H32 UNL A   1      30.273  38.235  54.070  1.00  0.00    +0.000 H 
ATOM     27  C17 UNL A   1      28.633  38.092  52.745  1.00  0.00    +0.000 C 
ATOM     28  C18 UNL A   1      28.197  37.427  51.591  1.00  0.00    +0.000 C 
ATOM     29  C19 UNL A   1      28.995  36.481  50.940  1.00  0.00    +0.000 C 
ATOM     30  C20 UNL A   1      30.251  36.166  51.438  1.00  0.00    +0.000 C 
ATOM     31  C21 UNL A   1      30.715  36.812  52.579  1.00  0.00    +0.000 C 
ATOM     32  C22 UNL A   1      29.915  37.764  53.225  1.00  0.00    +0.000 C 
ENDBRANCH   26   27
ENDBRANCH   25   26
BRANCH   25   33
ATOM     33  N5  UNL A   1      26.111  40.127  52.190  1.00  0.00    +0.000 N 
ATOM    138  H33 UNL A   1      26.414  40.007  51.261  1.00  0.00    +0.000 H 
BRANCH   33   34
ATOM     34  C23 UNL A   1      24.753  40.037  52.339  1.00  0.00    +0.000 C 
ATOM     35  O6  UNL A   1      24.178  41.003  52.840  1.00  0.00    +0.000 O 
BRANCH   34   36
ATOM     36  C24 UNL A   1      23.956  38.825  52.003  1.00  0.00    +0.000 C 
ATOM     37  C25 UNL A   1      24.607  37.816  51.272  1.00  0.00    +0.000 C 
ATOM     38  C26 UNL A   1      23.902  36.702  50.807  1.00  0.00    +0.000 C 
ATOM     39  C27 UNL A   1      22.543  36.598  51.066  1.00  0.00    +0.000 C 
ATOM     40  F1  UNL A   1      21.859  35.543  50.607  1.00  0.00    +0.000 F 
ATOM     41  C28 UNL A   1      21.878  37.588  51.779  1.00  0.00    +0.000 C 
ATOM     42  C29 UNL A   1      22.582  38.705  52.241  1.00  0.00    +0.000 C 
ATOM    139  H34 UNL A   1      25.617  37.897  51.076  1.00  0.00    +0.000 H 
ATOM    140  H35 UNL A   1      24.389  35.963  50.275  1.00  0.00    +0.000 H 
ATOM    141  H36 UNL A   1      20.867  37.500  51.966  1.00  0.00    +0.000 H 
ATOM    142  H37 UNL A   1      22.086  39.445  52.760  1.00  0.00    +0.000 H 
ENDBRANCH   34   36
ENDBRANCH   33   34
ENDBRANCH   25   33
ENDBRANCH   23   25
ENDBRANCH   22   23
ENDBRANCH   19   22
ENDBRANCH   17   19
ENDBRANCH   16   17
ENDBRANCH   13   16
ENDBRANCH   11   13
ENDBRANCH   10   11
ENDBRANCH    9   10
ENDBRANCH    8    9
ENDBRANCH    7    8
ENDBRANCH    6    7
ENDBRANCH    5    6
ENDBRANCH    4    5
ENDBRANCH    3    4
ENDBRANCH    2    3
ENDBRANCH   43    2
ENDBRANCH   47   46
BRANCH   51   52
ATOM     52  C38 UNL A   1      16.401  37.811  50.362  1.00  0.00    +0.000 C 
ATOM     53  C39 UNL A   1      15.284  37.811  49.516  1.00  0.00    +0.000 C 
ATOM     54  F2  UNL A   1      15.435  38.006  48.197  1.00  0.00    +0.000 F 
ATOM     55  C40 UNL A   1      14.000  37.638  50.026  1.00  0.00    +0.000 C 
ATOM     56  F3  UNL A   1      12.942  37.676  49.202  1.00  0.00    +0.000 F 
ATOM     57  C41 UNL A   1      13.810  37.436  51.385  1.00  0.00    +0.000 C 
ATOM     58  F4  UNL A   1      12.574  37.263  51.872  1.00  0.00    +0.000 F 
ATOM     59  C42 UNL A   1      14.903  37.421  52.239  1.00  0.00    +0.000 C 
ATOM     60  F5  UNL A   1      14.723  37.217  53.551  1.00  0.00    +0.000 F 
ATOM     61  C43 UNL A   1      16.187  37.615  51.734  1.00  0.00    +0.000 C 
ATOM     62  F6  UNL A   1      17.222  37.603  52.587  1.00  0.00    +0.000 F 
ENDBRANCH   51   52
BRANCH   68   69
ATOM     69  C49 UNL A   1      21.147  33.945  46.552  1.00  0.00    +0.000 C 
ATOM     70  C50 UNL A   1      21.739  32.844  47.188  1.00  0.00    +0.000 C 
ATOM     71  F7  UNL A   1      22.292  32.983  48.403  1.00  0.00    +0.000 F 
ATOM     72  C51 UNL A   1      21.801  31.604  46.558  1.00  0.00    +0.000 C 
ATOM     73  F8  UNL A   1      22.411  30.576  47.164  1.00  0.00    +0.000 F 
ATOM     74  C52 UNL A   1      21.249  31.437  45.297  1.00  0.00    +0.000 C 
ATOM     75  F9  UNL A   1      21.311  30.243  44.691  1.00  0.00    +0.000 F 
ATOM     76  C53 UNL A   1      20.643  32.508  44.659  1.00  0.00    +0.000 C 
ATOM     77  F10 UNL A   1      20.103  32.345  43.442  1.00  0.00    +0.000 F 
ATOM     78  C54 UNL A   1      20.599  33.755  45.276  1.00  0.00    +0.000 C 
ATOM     79  F11 UNL A   1      20.020  34.778  44.630  1.00  0.00    +0.000 F 
ENDBRANCH   68   69
BRANCH   83   84
ATOM     84  C58 UNL A   1      25.764  39.120  47.133  1.00  0.00    +0.000 C 
ATOM     85  C59 UNL A   1      26.038  39.990  46.069  1.00  0.00    +0.000 C 
ATOM     86  F12 UNL A   1      25.033  40.619  45.443  1.00  0.00    +0.000 F 
ATOM     87  C60 UNL A   1      27.343  40.195  45.629  1.00  0.00    +0.000 C 
ATOM     88  F13 UNL A   1      27.577  41.008  44.590  1.00  0.00    +0.000 F 
ATOM     89  C61 UNL A   1      28.400  39.553  46.260  1.00  0.00    +0.000 C 
ATOM     90  F14 UNL A   1      29.656  39.761  45.844  1.00  0.00    +0.000 F 
ATOM     91  C62 UNL A   1      28.151  38.695  47.320  1.00  0.00    +0.000 C 
ATOM     92  F15 UNL A   1      29.171  38.086  47.941  1.00  0.00    +0.000 F 
ATOM     93  C63 UNL A   1      26.845  38.469  47.744  1.00  0.00    +0.000 C 
ATOM     94  F16 UNL A   1      26.632  37.632  48.770  1.00  0.00    +0.000 F 
ENDBRANCH   83   84
TORSDOF 30
ENDMDL
MODEL 6
REMARK VINA RESULT:      -5.3     43.925     50.619
ROOT
ATOM    145  H40 UNL A   1      11.483  17.797  17.206  1.00  0.00    +0.000 H 
ATOM    146  H41 UNL A   1      10.991  18.949  19.494  1.00  0.00    +0.000 H 
ATOM    147  H42 UNL A   1      11.391  14.879  20.145  1.00  0.00    +0.000 H 
ATOM    148  H43 UNL A   1      11.206   9.905  24.128  1.00  0.00    +0.000 H 
ATOM    149  H44 UNL A   1      11.854   8.807  21.932  1.00  0.00    +0.000 H 
ATOM    150  H45 UNL A   1      11.440  12.885  21.237  1.00  0.00    +0.000 H 
ATOM    151  H46 UNL A   1      10.403  14.936  25.701  1.00  0.00    +0.000 H 
ATOM    152  H47 UNL A   1      10.245  17.182  24.480  1.00  0.00    +0.000 H 
ATOM    153  H48 UNL A   1      12.511  12.727  15.753  1.00  0.00    +0.000 H 
ATOM    154  H49 UNL A   1      12.418  10.441  16.904  1.00  0.00    +0.000 H 
ATOM     47  C34 UNL A   1      11.953  10.591  19.714  1.00  0.00    +0.000 C 
ATOM     48  C35 UNL A   1      11.997  11.720  18.728  1.00  0.00    +0.000 C 
ATOM     49  N6  UNL A   1      11.825  13.001  18.935  1.00  0.00    +0.000 N 
ATOM     50  C36 UNL A   1      11.993  13.613  17.701  1.00  0.00    +0.000 C 
ATOM     51  C37 UNL A   1      11.893  14.929  17.393  1.00  0.00    +0.000 C 
ATOM     63  C44 UNL A   1      11.569  15.964  18.341  1.00  0.00    +0.000 C 
ATOM     64  C45 UNL A   1      11.410  17.321  18.119  1.00  0.00    +0.000 C 
ATOM     65  C46 UNL A   1      11.133  17.938  19.345  1.00  0.00    +0.000 C 
ATOM     66  C47 UNL A   1      11.082  16.960  20.325  1.00  0.00    +0.000 C 
ATOM     67  N7  UNL A   1      11.354  15.755  19.696  1.00  0.00    +0.000 N 
ATOM     68  C48 UNL A   1      10.806  17.112  21.730  1.00  0.00    +0.000 C 
ATOM     80  C55 UNL A   1      10.750  16.100  22.630  1.00  0.00    +0.000 C 
ATOM     81  N8  UNL A   1      10.947  14.743  22.427  1.00  0.00    +0.000 N 
ATOM     82  C56 UNL A   1      10.814  14.182  23.603  1.00  0.00    +0.000 C 
ATOM     83  C57 UNL A   1      10.919  12.732  23.975  1.00  0.00    +0.000 C 
ATOM     95  C64 UNL A   1      11.210  11.832  23.020  1.00  0.00    +0.000 C 
ATOM     96  C65 UNL A   1      11.341  10.394  23.230  1.00  0.00    +0.000 C 
ATOM     97  C66 UNL A   1      11.668   9.813  22.067  1.00  0.00    +0.000 C 
ATOM     98  C67 UNL A   1      11.716  10.834  21.017  1.00  0.00    +0.000 C 
ATOM     99  N9  UNL A   1      11.453  12.005  21.679  1.00  0.00    +0.000 N 
ATOM    100  C68 UNL A   1      10.526  15.124  24.693  1.00  0.00    +0.000 C 
ATOM    101  C69 UNL A   1      10.466  16.275  24.040  1.00  0.00    +0.000 C 
ATOM    102  C70 UNL A   1      12.301  12.566  16.750  1.00  0.00    +0.000 C 
ATOM    103  C71 UNL A   1      12.277  11.371  17.328  1.00  0.00    +0.000 C 
ENDROOT
BRANCH   47   46
ATOM    104  C72 UNL A   1      11.085   8.443  18.732  1.00  0.00    +0.000 C 
ATOM    105  C73 UNL A   1      11.296   7.129  18.305  1.00  0.00    +0.000 C 
ATOM     43  C30 UNL A   1      12.573   6.568  18.392  1.00  0.00    +0.000 C 
ATOM     44  C31 UNL A   1      13.645   7.328  18.869  1.00  0.00    +0.000 C 
ATOM     45  C32 UNL A   1      13.419   8.609  19.363  1.00  0.00    +0.000 C 
ATOM     46  C33 UNL A   1      12.141   9.184  19.283  1.00  0.00    +0.000 C 
ATOM    143  H38 UNL A   1      14.601   6.941  18.856  1.00  0.00    +0.000 H 
ATOM    144  H39 UNL A   1      14.195   9.138  19.789  1.00  0.00    +0.000 H 
ATOM    155  H50 UNL A   1      10.149   8.869  18.643  1.00  0.00    +0.000 H 
ATOM    156  H51 UNL A   1      10.511   6.576  17.926  1.00  0.00    +0.000 H 
BRANCH   43    2
ATOM      1  O1  UNL A   1      12.360   4.247  18.656  1.00  0.00    +0.000 O 
ATOM      2  C1  UNL A   1      12.776   5.168  17.961  1.00  0.00    +0.000 C 
BRANCH    2    3
ATOM    106  H1  UNL A   1      14.275   4.396  16.873  1.00  0.00    +0.000 H 
ATOM      3  N1  UNL A   1      13.441   4.912  16.789  1.00  0.00    +0.000 N 
BRANCH    3    4
ATOM    108  H3  UNL A   1      12.785   4.424  14.905  1.00  0.00    +0.000 H 
ATOM    107  H2  UNL A   1      12.262   6.004  15.493  1.00  0.00    +0.000 H 
ATOM      4  C2  UNL A   1      13.071   5.305  15.440  1.00  0.00    +0.000 C 
BRANCH    4    5
ATOM    109  H4  UNL A   1      14.278   6.982  14.983  1.00  0.00    +0.000 H 
ATOM      5  C3  UNL A   1      14.231   5.952  14.698  1.00  0.00    +0.000 C 
ATOM    110  H5  UNL A   1      14.040   5.818  13.654  1.00  0.00    +0.000 H 
BRANCH    5    6
ATOM      6  C4  UNL A   1      15.592   5.314  14.980  1.00  0.00    +0.000 C 
ATOM    111  H6  UNL A   1      15.476   4.251  14.935  1.00  0.00    +0.000 H 
ATOM    112  H7  UNL A   1      15.895   5.667  15.943  1.00  0.00    +0.000 H 
BRANCH    6    7
ATOM    113  H8  UNL A   1      16.539   5.201  13.082  1.00  0.00    +0.000 H 
ATOM    114  H9  UNL A   1      17.627   5.439  14.483  1.00  0.00    +0.000 H 
ATOM      7  C5  UNL A   1      16.708   5.711  14.007  1.00  0.00    +0.000 C 
BRANCH    7    8
ATOM    115  H10 UNL A   1      17.240   7.698  14.563  1.00  0.00    +0.000 H 
ATOM    116  H11 UNL A   1      15.822   7.558  13.496  1.00  0.00    +0.000 H 
ATOM      8  C6  UNL A   1      16.812   7.214  13.709  1.00  0.00    +0.000 C 
BRANCH    8    9
ATOM      9  C7  UNL A   1      17.671   7.544  12.488  1.00  0.00    +0.000 C 
ATOM    117  H12 UNL A   1      17.850   8.599  12.459  1.00  0.00    +0.000 H 
ATOM    118  H13 UNL A   1      17.149   7.232  11.608  1.00  0.00    +0.000 H 
BRANCH    9   10
ATOM     10  N2  UNL A   1      18.938   6.848  12.550  1.00  0.00    +0.000 N 
ATOM    119  H14 UNL A   1      19.337   6.755  13.445  1.00  0.00    +0.000 H 
BRANCH   10   11
ATOM     11  C8  UNL A   1      19.646   6.308  11.518  1.00  0.00    +0.000 C 
ATOM     12  O2  UNL A   1      19.974   5.123  11.600  1.00  0.00    +0.000 O 
BRANCH   11   13
ATOM     13  C9  UNL A   1      20.026   7.150  10.292  1.00  0.00    +0.000 C 
ATOM    120  H15 UNL A   1      20.127   8.164  10.620  1.00  0.00    +0.000 H 
BRANCH   13   14
ATOM    121  H16 UNL A   1      18.974   8.048   8.655  1.00  0.00    +0.000 H 
ATOM    122  H17 UNL A   1      17.962   7.103   9.730  1.00  0.00    +0.000 H 
ATOM     14  C10 UNL A   1      18.910   7.151   9.236  1.00  0.00    +0.000 C 
BRANCH   14   15
ATOM    123  H18 UNL A   1      19.981   5.896   8.145  1.00  0.00    +0.000 H 
ATOM     15  O3  UNL A   1      19.046   6.019   8.371  1.00  0.00    +0.000 O 
ENDBRANCH   14   15
ENDBRANCH   13   14
BRANCH   13   16
ATOM    124  H19 UNL A   1      21.650   5.885  10.025  1.00  0.00    +0.000 H 
ATOM     16  N3  UNL A   1      21.333   6.776   9.751  1.00  0.00    +0.000 N 
BRANCH   16   17
ATOM     17  C11 UNL A   1      22.185   7.453   8.934  1.00  0.00    +0.000 C 
ATOM     18  O4  UNL A   1      23.033   8.126   9.535  1.00  0.00    +0.000 O 
BRANCH   17   19
ATOM     19  C12 UNL A   1      22.304   7.208   7.402  1.00  0.00    +0.000 C 
ATOM    125  H20 UNL A   1      21.363   6.775   7.131  1.00  0.00    +0.000 H 
BRANCH   19   20
ATOM     20  C13 UNL A   1      23.489   6.248   7.126  1.00  0.00    +0.000 C 
ATOM    126  H21 UNL A   1      24.231   6.404   7.881  1.00  0.00    +0.000 H 
ATOM    127  H22 UNL A   1      23.848   6.475   6.144  1.00  0.00    +0.000 H 
BRANCH   20   21
ATOM     21  S1  UNL A   1      23.028   4.479   7.126  1.00  0.00    +0.000 S 
ATOM    128  H23 UNL A   1      24.007   3.756   6.517  1.00  0.00    +0.000 H 
ENDBRANCH   20   21
ENDBRANCH   19   20
BRANCH   19   22
ATOM    129  H24 UNL A   1      23.278   8.515   6.148  1.00  0.00    +0.000 H 
ATOM     22  N4  UNL A   1      22.380   8.387   6.531  1.00  0.00    +0.000 N 
BRANCH   22   23
ATOM     23  C14 UNL A   1      21.503   9.343   6.129  1.00  0.00    +0.000 C 
ATOM     24  O5  UNL A   1      20.339   9.056   6.422  1.00  0.00    +0.000 O 
BRANCH   23   25
ATOM     25  C15 UNL A   1      21.870  10.729   5.521  1.00  0.00    +0.000 C 
ATOM    130  H25 UNL A   1      21.105  10.947   4.806  1.00  0.00    +0.000 H 
BRANCH   25   26
ATOM     26  C16 UNL A   1      23.260  10.719   4.810  1.00  0.00    +0.000 C 
ATOM    131  H26 UNL A   1      23.521   9.689   4.689  1.00  0.00    +0.000 H 
ATOM    132  H27 UNL A   1      23.833  11.347   5.460  1.00  0.00    +0.000 H 
BRANCH   26   27
ATOM    133  H28 UNL A   1      24.372  13.169   4.148  1.00  0.00    +0.000 H 
ATOM    134  H29 UNL A   1      24.438  14.270   1.999  1.00  0.00    +0.000 H 
ATOM    135  H30 UNL A   1      23.586  13.150   0.027  1.00  0.00    +0.000 H 
ATOM    136  H31 UNL A   1      22.711  10.896   0.215  1.00  0.00    +0.000 H 
ATOM    137  H32 UNL A   1      22.660   9.783   2.363  1.00  0.00    +0.000 H 
ATOM     27  C17 UNL A   1      23.510  11.376   3.461  1.00  0.00    +0.000 C 
ATOM     28  C18 UNL A   1      24.016  12.674   3.316  1.00  0.00    +0.000 C 
ATOM     29  C19 UNL A   1      24.052  13.316   2.074  1.00  0.00    +0.000 C 
ATOM     30  C20 UNL A   1      23.570  12.675   0.942  1.00  0.00    +0.000 C 
ATOM     31  C21 UNL A   1      23.065  11.383   1.053  1.00  0.00    +0.000 C 
ATOM     32  C22 UNL A   1      23.036  10.741   2.297  1.00  0.00    +0.000 C 
ENDBRANCH   26   27
ENDBRANCH   25   26
BRANCH   25   33
ATOM     33  N5  UNL A   1      21.933  11.754   6.577  1.00  0.00    +0.000 N 
ATOM    138  H33 UNL A   1      21.149  12.349   6.594  1.00  0.00    +0.000 H 
BRANCH   33   34
ATOM     34  C23 UNL A   1      22.862  12.047   7.539  1.00  0.00    +0.000 C 
ATOM     35  O6  UNL A   1      23.124  11.163   8.354  1.00  0.00    +0.000 O 
BRANCH   34   36
ATOM     36  C24 UNL A   1      23.508  13.379   7.696  1.00  0.00    +0.000 C 
ATOM     37  C25 UNL A   1      23.680  13.854   9.009  1.00  0.00    +0.000 C 
ATOM     38  C26 UNL A   1      24.163  15.145   9.245  1.00  0.00    +0.000 C 
ATOM     39  C27 UNL A   1      24.466  15.966   8.169  1.00  0.00    +0.000 C 
ATOM     40  F1  UNL A   1      24.909  17.210   8.390  1.00  0.00    +0.000 F 
ATOM     41  C28 UNL A   1      24.295  15.522   6.864  1.00  0.00    +0.000 C 
ATOM     42  C29 UNL A   1      23.809  14.231   6.627  1.00  0.00    +0.000 C 
ATOM    139  H34 UNL A   1      23.450  13.243   9.807  1.00  0.00    +0.000 H 
ATOM    140  H35 UNL A   1      24.291  15.484  10.212  1.00  0.00    +0.000 H 
ATOM    141  H36 UNL A   1      24.525  16.142   6.072  1.00  0.00    +0.000 H 
ATOM    142  H37 UNL A   1      23.671  13.905   5.659  1.00  0.00    +0.000 H 
ENDBRANCH   34   36
ENDBRANCH   33   34
ENDBRANCH   25   33
ENDBRANCH   23   25
ENDBRANCH   22   23
ENDBRANCH   19   22
ENDBRANCH   17   19
ENDBRANCH   16   17
ENDBRANCH   13   16
ENDBRANCH   11   13
ENDBRANCH   10   11
ENDBRANCH    9   10
ENDBRANCH    8    9
ENDBRANCH    7    8
ENDBRANCH    6    7
ENDBRANCH    5    6
ENDBRANCH    4    5
ENDBRANCH    3    4
ENDBRANCH    2    3
ENDBRANCH   43    2
ENDBRANCH   47   46
BRANCH   51   52
ATOM     52  C38 UNL A   1      12.150  15.332  15.971  1.00  0.00    +0.000 C 
ATOM     53  C39 UNL A   1      13.448  15.571  15.499  1.00  0.00    +0.000 C 
ATOM     54  F2  UNL A   1      14.495  15.501  16.335  1.00  0.00    +0.000 F 
ATOM     55  C40 UNL A   1      13.675  15.913  14.168  1.00  0.00    +0.000 C 
ATOM     56  F3  UNL A   1      14.920  16.172  13.746  1.00  0.00    +0.000 F 
ATOM     57  C41 UNL A   1      12.613  15.996  13.279  1.00  0.00    +0.000 C 
ATOM     58  F4  UNL A   1      12.833  16.318  11.997  1.00  0.00    +0.000 F 
ATOM     59  C42 UNL A   1      11.322  15.751  13.722  1.00  0.00    +0.000 C 
ATOM     60  F5  UNL A   1      10.295  15.822  12.863  1.00  0.00    +0.000 F 
ATOM     61  C43 UNL A   1      11.090  15.430  15.057  1.00  0.00    +0.000 C 
ATOM     62  F6  UNL A   1       9.829  15.207  15.457  1.00  0.00    +0.000 F 
ENDBRANCH   51   52
BRANCH   68   69
ATOM     69  C49 UNL A   1      10.540  18.493  22.248  1.00  0.00    +0.000 C 
ATOM     70  C50 UNL A   1       9.236  19.003  22.326  1.00  0.00    +0.000 C 
ATOM     71  F7  UNL A   1       8.197  18.270  21.899  1.00  0.00    +0.000 F 
ATOM     72  C51 UNL A   1       9.001  20.289  22.805  1.00  0.00    +0.000 C 
ATOM     73  F8  UNL A   1       7.753  20.775  22.830  1.00  0.00    +0.000 F 
ATOM     74  C52 UNL A   1      10.059  21.073  23.239  1.00  0.00    +0.000 C 
ATOM     75  F9  UNL A   1       9.831  22.311  23.699  1.00  0.00    +0.000 F 
ATOM     76  C53 UNL A   1      11.354  20.580  23.188  1.00  0.00    +0.000 C 
ATOM     77  F10 UNL A   1      12.376  21.335  23.614  1.00  0.00    +0.000 F 
ATOM     78  C54 UNL A   1      11.595  19.304  22.688  1.00  0.00    +0.000 C 
ATOM     79  F11 UNL A   1      12.859  18.856  22.635  1.00  0.00    +0.000 F 
ENDBRANCH   68   69
BRANCH   83   84
ATOM     84  C58 UNL A   1      10.699  12.275  25.370  1.00  0.00    +0.000 C 
ATOM     85  C59 UNL A   1       9.423  11.901  25.811  1.00  0.00    +0.000 C 
ATOM     86  F12 UNL A   1       8.373  11.998  24.983  1.00  0.00    +0.000 F 
ATOM     87  C60 UNL A   1       9.218  11.450  27.113  1.00  0.00    +0.000 C 
ATOM     88  F13 UNL A   1       7.983  11.128  27.520  1.00  0.00    +0.000 F 
ATOM     89  C61 UNL A   1      10.289  11.342  27.989  1.00  0.00    +0.000 C 
ATOM     90  F14 UNL A   1      10.092  10.897  29.237  1.00  0.00    +0.000 F 
ATOM     91  C62 UNL A   1      11.561  11.699  27.570  1.00  0.00    +0.000 C 
ATOM     92  F15 UNL A   1      12.600  11.581  28.409  1.00  0.00    +0.000 F 
ATOM     93  C63 UNL A   1      11.763  12.174  26.277  1.00  0.00    +0.000 C 
ATOM     94  F16 UNL A   1      13.004  12.515  25.898  1.00  0.00    +0.000 F 
ENDBRANCH   83   84
TORSDOF 30
ENDMDL
MODEL 7
REMARK VINA RESULT:      -5.2     50.575     57.660
ROOT
ATOM    145  H40 UNL A   1       8.652   0.748  27.109  1.00  0.00    +0.000 H 
ATOM    146  H41 UNL A   1      10.517   1.855  28.558  1.00  0.00    +0.000 H 
ATOM    147  H42 UNL A   1       8.161   4.859  26.955  1.00  0.00    +0.000 H 
ATOM    148  H43 UNL A   1       6.963  11.069  26.154  1.00  0.00    +0.000 H 
ATOM    149  H44 UNL A   1       5.047   9.987  24.885  1.00  0.00    +0.000 H 
ATOM    150  H45 UNL A   1       7.402   6.946  26.461  1.00  0.00    +0.000 H 
ATOM    151  H46 UNL A   1      10.987   9.232  29.130  1.00  0.00    +0.000 H 
ATOM    152  H47 UNL A   1      11.920   6.899  29.622  1.00  0.00    +0.000 H 
ATOM    153  H48 UNL A   1       4.485   2.684  24.322  1.00  0.00    +0.000 H 
ATOM    154  H49 UNL A   1       3.687   5.009  23.605  1.00  0.00    +0.000 H 
ATOM     47  C34 UNL A   1       5.160   7.143  24.795  1.00  0.00    +0.000 C 
ATOM     48  C35 UNL A   1       5.399   5.669  24.937  1.00  0.00    +0.000 C 
ATOM     49  N6  UNL A   1       6.329   5.048  25.619  1.00  0.00    +0.000 N 
ATOM     50  C36 UNL A   1       6.092   3.692  25.439  1.00  0.00    +0.000 C 
ATOM     51  C37 UNL A   1       6.796   2.643  25.927  1.00  0.00    +0.000 C 
ATOM     63  C44 UNL A   1       7.974   2.765  26.749  1.00  0.00    +0.000 C 
ATOM     64  C45 UNL A   1       8.776   1.762  27.264  1.00  0.00    +0.000 C 
ATOM     65  C46 UNL A   1       9.785   2.356  28.031  1.00  0.00    +0.000 C 
ATOM     66  C47 UNL A   1       9.634   3.731  27.963  1.00  0.00    +0.000 C 
ATOM     67  N7  UNL A   1       8.517   3.968  27.177  1.00  0.00    +0.000 N 
ATOM     68  C48 UNL A   1      10.445   4.753  28.571  1.00  0.00    +0.000 C 
ATOM     80  C55 UNL A   1      10.249   6.088  28.441  1.00  0.00    +0.000 C 
ATOM     81  N8  UNL A   1       9.260   6.758  27.737  1.00  0.00    +0.000 N 
ATOM     82  C56 UNL A   1       9.477   8.034  27.938  1.00  0.00    +0.000 C 
ATOM     83  C57 UNL A   1       8.718   9.216  27.412  1.00  0.00    +0.000 C 
ATOM     95  C64 UNL A   1       7.639   9.007  26.638  1.00  0.00    +0.000 C 
ATOM     96  C65 UNL A   1       6.806  10.054  26.055  1.00  0.00    +0.000 C 
ATOM     97  C66 UNL A   1       5.804   9.482  25.372  1.00  0.00    +0.000 C 
ATOM     98  C67 UNL A   1       5.957   8.026  25.426  1.00  0.00    +0.000 C 
ATOM     99  N9  UNL A   1       7.059   7.835  26.217  1.00  0.00    +0.000 N 
ATOM    100  C68 UNL A   1      10.628   8.321  28.805  1.00  0.00    +0.000 C 
ATOM    101  C69 UNL A   1      11.081   7.101  29.057  1.00  0.00    +0.000 C 
ATOM    102  C70 UNL A   1       4.919   3.578  24.598  1.00  0.00    +0.000 C 
ATOM    103  C71 UNL A   1       4.475   4.772  24.228  1.00  0.00    +0.000 C 
ENDROOT
BRANCH   47   46
ATOM    104  C72 UNL A   1       4.140   7.611  22.543  1.00  0.00    +0.000 C 
ATOM    105  C73 UNL A   1       3.081   8.082  21.762  1.00  0.00    +0.000 C 
ATOM     43  C30 UNL A   1       1.929   8.574  22.381  1.00  0.00    +0.000 C 
ATOM     44  C31 UNL A   1       1.817   8.559  23.775  1.00  0.00    +0.000 C 
ATOM     45  C32 UNL A   1       2.899   8.160  24.551  1.00  0.00    +0.000 C 
ATOM     46  C33 UNL A   1       4.064   7.667  23.942  1.00  0.00    +0.000 C 
ATOM    143  H38 UNL A   1       0.934   8.845  24.226  1.00  0.00    +0.000 H 
ATOM    144  H39 UNL A   1       2.846   8.227  25.579  1.00  0.00    +0.000 H 
ATOM    155  H50 UNL A   1       4.981   7.222  22.088  1.00  0.00    +0.000 H 
ATOM    156  H51 UNL A   1       3.150   8.067  20.732  1.00  0.00    +0.000 H 
BRANCH   43    2
ATOM      1  O1  UNL A   1       0.943   9.117  20.322  1.00  0.00    +0.000 O 
ATOM      2  C1  UNL A   1       0.826   9.094  21.543  1.00  0.00    +0.000 C 
BRANCH    2    3
ATOM    106  H1  UNL A   1      -0.620   9.059  22.934  1.00  0.00    +0.000 H 
ATOM      3  N1  UNL A   1      -0.317   9.559  22.142  1.00  0.00    +0.000 N 
BRANCH    3    4
ATOM    108  H3  UNL A   1      -1.262  10.666  20.695  1.00  0.00    +0.000 H 
ATOM    107  H2  UNL A   1      -2.078  10.629  22.259  1.00  0.00    +0.000 H 
ATOM      4  C2  UNL A   1      -1.136  10.695  21.756  1.00  0.00    +0.000 C 
BRANCH    4    5
ATOM    109  H4  UNL A   1      -1.206  12.796  22.005  1.00  0.00    +0.000 H 
ATOM      5  C3  UNL A   1      -0.479  12.019  22.117  1.00  0.00    +0.000 C 
ATOM    110  H5  UNL A   1       0.357  12.136  21.459  1.00  0.00    +0.000 H 
BRANCH    5    6
ATOM      6  C4  UNL A   1       0.074  12.080  23.542  1.00  0.00    +0.000 C 
ATOM    111  H6  UNL A   1      -0.255  11.206  24.063  1.00  0.00    +0.000 H 
ATOM    112  H7  UNL A   1      -0.293  12.991  23.965  1.00  0.00    +0.000 H 
BRANCH    6    7
ATOM    113  H8  UNL A   1       1.954  11.192  23.976  1.00  0.00    +0.000 H 
ATOM    114  H9  UNL A   1       1.821  12.945  24.320  1.00  0.00    +0.000 H 
ATOM      7  C5  UNL A   1       1.602  12.146  23.642  1.00  0.00    +0.000 C 
BRANCH    7    8
ATOM    115  H10 UNL A   1       2.512  13.543  22.316  1.00  0.00    +0.000 H 
ATOM    116  H11 UNL A   1       1.697  12.169  21.533  1.00  0.00    +0.000 H 
ATOM      8  C6  UNL A   1       2.330  12.489  22.334  1.00  0.00    +0.000 C 
BRANCH    8    9
ATOM      9  C7  UNL A   1       3.666  11.766  22.162  1.00  0.00    +0.000 C 
ATOM    117  H12 UNL A   1       3.497  10.709  22.176  1.00  0.00    +0.000 H 
ATOM    118  H13 UNL A   1       4.316  12.049  22.963  1.00  0.00    +0.000 H 
BRANCH    9   10
ATOM     10  N2  UNL A   1       4.287  12.130  20.906  1.00  0.00    +0.000 N 
ATOM    119  H14 UNL A   1       4.289  13.089  20.686  1.00  0.00    +0.000 H 
BRANCH   10   11
ATOM     11  C8  UNL A   1       4.871  11.304  19.993  1.00  0.00    +0.000 C 
ATOM     12  O2  UNL A   1       4.144  10.537  19.358  1.00  0.00    +0.000 O 
BRANCH   11   13
ATOM     13  C9  UNL A   1       6.389  11.324  19.764  1.00  0.00    +0.000 C 
ATOM    120  H15 UNL A   1       6.759  12.250  20.153  1.00  0.00    +0.000 H 
BRANCH   13   14
ATOM    121  H16 UNL A   1       6.161  10.564  17.773  1.00  0.00    +0.000 H 
ATOM    122  H17 UNL A   1       7.782  11.112  18.154  1.00  0.00    +0.000 H 
ATOM     14  C10 UNL A   1       6.738  11.318  18.267  1.00  0.00    +0.000 C 
BRANCH   14   15
ATOM    123  H18 UNL A   1       6.542  13.284  18.360  1.00  0.00    +0.000 H 
ATOM     15  O3  UNL A   1       6.447  12.593  17.687  1.00  0.00    +0.000 O 
ENDBRANCH   14   15
ENDBRANCH   13   14
BRANCH   13   16
ATOM    124  H19 UNL A   1       7.371  10.546  21.419  1.00  0.00    +0.000 H 
ATOM     16  N3  UNL A   1       7.074  10.275  20.520  1.00  0.00    +0.000 N 
BRANCH   16   17
ATOM     17  C11 UNL A   1       7.369   8.988  20.191  1.00  0.00    +0.000 C 
ATOM     18  O4  UNL A   1       6.377   8.252  20.091  1.00  0.00    +0.000 O 
BRANCH   17   19
ATOM     19  C12 UNL A   1       8.765   8.510  19.699  1.00  0.00    +0.000 C 
ATOM    125  H20 UNL A   1       8.561   8.011  18.774  1.00  0.00    +0.000 H 
BRANCH   19   20
ATOM     20  C13 UNL A   1       9.382   7.556  20.752  1.00  0.00    +0.000 C 
ATOM    126  H21 UNL A   1       8.903   7.737  21.692  1.00  0.00    +0.000 H 
ATOM    127  H22 UNL A   1      10.432   7.762  20.779  1.00  0.00    +0.000 H 
BRANCH   20   21
ATOM     21  S1  UNL A   1       9.201   5.783  20.346  1.00  0.00    +0.000 S 
ATOM    128  H23 UNL A   1       7.883   5.445  20.364  1.00  0.00    +0.000 H 
ENDBRANCH   20   21
ENDBRANCH   19   20
BRANCH   19   22
ATOM    129  H24 UNL A   1      10.018  10.099  20.061  1.00  0.00    +0.000 H 
ATOM     22  N4  UNL A   1       9.733   9.539  19.303  1.00  0.00    +0.000 N 
BRANCH   22   23
ATOM     23  C14 UNL A   1      10.328   9.902  18.137  1.00  0.00    +0.000 C 
ATOM     24  O5  UNL A   1      10.013   9.158  17.205  1.00  0.00    +0.000 O 
BRANCH   23   25
ATOM     25  C15 UNL A   1      11.178  11.185  17.900  1.00  0.00    +0.000 C 
ATOM    130  H25 UNL A   1      12.100  10.851  17.471  1.00  0.00    +0.000 H 
BRANCH   25   26
ATOM     26  C16 UNL A   1      11.471  11.960  19.223  1.00  0.00    +0.000 C 
ATOM    131  H26 UNL A   1      11.581  11.214  19.982  1.00  0.00    +0.000 H 
ATOM    132  H27 UNL A   1      10.647  12.642  19.255  1.00  0.00    +0.000 H 
BRANCH   26   27
ATOM    133  H28 UNL A   1      11.638  14.493  20.334  1.00  0.00    +0.000 H 
ATOM    134  H29 UNL A   1      13.480  16.054  20.272  1.00  0.00    +0.000 H 
ATOM    135  H30 UNL A   1      15.588  15.416  19.263  1.00  0.00    +0.000 H 
ATOM    136  H31 UNL A   1      15.855  13.181  18.360  1.00  0.00    +0.000 H 
ATOM    137  H32 UNL A   1      14.017  11.608  18.437  1.00  0.00    +0.000 H 
ATOM     27  C17 UNL A   1      12.651  12.906  19.392  1.00  0.00    +0.000 C 
ATOM     28  C18 UNL A   1      12.533  14.201  19.911  1.00  0.00    +0.000 C 
ATOM     29  C19 UNL A   1      13.596  15.109  19.874  1.00  0.00    +0.000 C 
ATOM     30  C20 UNL A   1      14.806  14.744  19.301  1.00  0.00    +0.000 C 
ATOM     31  C21 UNL A   1      14.956  13.463  18.781  1.00  0.00    +0.000 C 
ATOM     32  C22 UNL A   1      13.890  12.555  18.826  1.00  0.00    +0.000 C 
ENDBRANCH   26   27
ENDBRANCH   25   26
BRANCH   25   33
ATOM     33  N5  UNL A   1      10.470  12.116  17.004  1.00  0.00    +0.000 N 
ATOM    138  H33 UNL A   1       9.821  11.672  16.412  1.00  0.00    +0.000 H 
BRANCH   33   34
ATOM     34  C23 UNL A   1      10.532  13.472  16.830  1.00  0.00    +0.000 C 
ATOM     35  O6  UNL A   1       9.511  14.117  17.066  1.00  0.00    +0.000 O 
BRANCH   34   36
ATOM     36  C24 UNL A   1      11.726  14.191  16.306  1.00  0.00    +0.000 C 
ATOM     37  C25 UNL A   1      12.681  13.424  15.616  1.00  0.00    +0.000 C 
ATOM     38  C26 UNL A   1      13.889  13.991  15.199  1.00  0.00    +0.000 C 
ATOM     39  C27 UNL A   1      14.147  15.326  15.478  1.00  0.00    +0.000 C 
ATOM     40  F1  UNL A   1      15.311  15.869  15.099  1.00  0.00    +0.000 F 
ATOM     41  C28 UNL A   1      13.222  16.100  16.166  1.00  0.00    +0.000 C 
ATOM     42  C29 UNL A   1      12.015  15.531  16.587  1.00  0.00    +0.000 C 
ATOM    139  H34 UNL A   1      12.489  12.430  15.413  1.00  0.00    +0.000 H 
ATOM    140  H35 UNL A   1      14.583  13.422  14.689  1.00  0.00    +0.000 H 
ATOM    141  H36 UNL A   1      13.425  17.092  16.367  1.00  0.00    +0.000 H 
ATOM    142  H37 UNL A   1      11.333  16.104  17.107  1.00  0.00    +0.000 H 
ENDBRANCH   34   36
ENDBRANCH   33   34
ENDBRANCH   25   33
ENDBRANCH   23   25
ENDBRANCH   22   23
ENDBRANCH   19   22
ENDBRANCH   17   19
ENDBRANCH   16   17
ENDBRANCH   13   16
ENDBRANCH   11   13
ENDBRANCH   10   11
ENDBRANCH    9   10
ENDBRANCH    8    9
ENDBRANCH    7    8
ENDBRANCH    6    7
ENDBRANCH    5    6
ENDBRANCH    4    5
ENDBRANCH    3    4
ENDBRANCH    2    3
ENDBRANCH   43    2
ENDBRANCH   47   46
BRANCH   51   52
ATOM     52  C38 UNL A   1       6.306   1.264  25.599  1.00  0.00    +0.000 C 
ATOM     53  C39 UNL A   1       6.852   0.521  24.543  1.00  0.00    +0.000 C 
ATOM     54  F2  UNL A   1       7.797   1.059  23.758  1.00  0.00    +0.000 F 
ATOM     55  C40 UNL A   1       6.408  -0.770  24.271  1.00  0.00    +0.000 C 
ATOM     56  F3  UNL A   1       6.919  -1.449  23.234  1.00  0.00    +0.000 F 
ATOM     57  C41 UNL A   1       5.430  -1.353  25.063  1.00  0.00    +0.000 C 
ATOM     58  F4  UNL A   1       5.009  -2.598  24.803  1.00  0.00    +0.000 F 
ATOM     59  C42 UNL A   1       4.884  -0.641  26.121  1.00  0.00    +0.000 C 
ATOM     60  F5  UNL A   1       3.946  -1.206  26.893  1.00  0.00    +0.000 F 
ATOM     61  C43 UNL A   1       5.311   0.659  26.382  1.00  0.00    +0.000 C 
ATOM     62  F6  UNL A   1       4.758   1.325  27.407  1.00  0.00    +0.000 F 
ENDBRANCH   51   52
BRANCH   68   69
ATOM     69  C49 UNL A   1      11.615   4.321  29.400  1.00  0.00    +0.000 C 
ATOM     70  C50 UNL A   1      12.782   3.814  28.809  1.00  0.00    +0.000 C 
ATOM     71  F7  UNL A   1      12.856   3.672  27.477  1.00  0.00    +0.000 F 
ATOM     72  C51 UNL A   1      13.861   3.411  29.590  1.00  0.00    +0.000 C 
ATOM     73  F8  UNL A   1      14.948   2.887  29.008  1.00  0.00    +0.000 F 
ATOM     74  C52 UNL A   1      13.804   3.534  30.970  1.00  0.00    +0.000 C 
ATOM     75  F9  UNL A   1      14.844   3.145  31.721  1.00  0.00    +0.000 F 
ATOM     76  C53 UNL A   1      12.668   4.050  31.574  1.00  0.00    +0.000 C 
ATOM     77  F10 UNL A   1      12.615   4.176  32.907  1.00  0.00    +0.000 F 
ATOM     78  C54 UNL A   1      11.578   4.432  30.797  1.00  0.00    +0.000 C 
ATOM     79  F11 UNL A   1      10.484   4.915  31.408  1.00  0.00    +0.000 F 
ENDBRANCH   68   69
BRANCH   83   84
ATOM     84  C58 UNL A   1       9.139  10.605  27.722  1.00  0.00    +0.000 C 
ATOM     85  C59 UNL A   1       8.463  11.363  28.687  1.00  0.00    +0.000 C 
ATOM     86  F12 UNL A   1       7.391  10.852  29.310  1.00  0.00    +0.000 F 
ATOM     87  C60 UNL A   1       8.871  12.658  28.996  1.00  0.00    +0.000 C 
ATOM     88  F13 UNL A   1       8.189  13.374  29.900  1.00  0.00    +0.000 F 
ATOM     89  C61 UNL A   1       9.976  13.210  28.364  1.00  0.00    +0.000 C 
ATOM     90  F14 UNL A   1      10.375  14.451  28.671  1.00  0.00    +0.000 F 
ATOM     91  C62 UNL A   1      10.665  12.474  27.413  1.00  0.00    +0.000 C 
ATOM     92  F15 UNL A   1      11.742  12.997  26.811  1.00  0.00    +0.000 F 
ATOM     93  C63 UNL A   1      10.242  11.188  27.084  1.00  0.00    +0.000 C 
ATOM     94  F16 UNL A   1      10.925  10.499  26.158  1.00  0.00    +0.000 F 
ENDBRANCH   83   84
TORSDOF 30
ENDMDL
MODEL 8
REMARK VINA RESULT:      -5.2     48.103     54.750
ROOT
ATOM    145  H40 UNL A   1      11.382  17.988  17.460  1.00  0.00    +0.000 H 
ATOM    146  H41 UNL A   1      10.824  19.055  19.773  1.00  0.00    +0.000 H 
ATOM    147  H42 UNL A   1      11.369  14.986  20.315  1.00  0.00    +0.000 H 
ATOM    148  H43 UNL A   1      11.328   9.898  24.155  1.00  0.00    +0.000 H 
ATOM    149  H44 UNL A   1      12.039   8.888  21.937  1.00  0.00    +0.000 H 
ATOM    150  H45 UNL A   1      11.481  12.965  21.352  1.00  0.00    +0.000 H 
ATOM    151  H46 UNL A   1      10.322  14.849  25.859  1.00  0.00    +0.000 H 
ATOM    152  H47 UNL A   1      10.094  17.121  24.700  1.00  0.00    +0.000 H 
ATOM    153  H48 UNL A   1      12.613  13.002  15.877  1.00  0.00    +0.000 H 
ATOM    154  H49 UNL A   1      12.593  10.682  16.963  1.00  0.00    +0.000 H 
ATOM     47  C34 UNL A   1      12.094  10.735  19.771  1.00  0.00    +0.000 C 
ATOM     48  C35 UNL A   1      12.107  11.893  18.817  1.00  0.00    +0.000 C 
ATOM     49  N6  UNL A   1      11.884  13.161  19.058  1.00  0.00    +0.000 N 
ATOM     50  C36 UNL A   1      12.042  13.813  17.843  1.00  0.00    +0.000 C 
ATOM     51  C37 UNL A   1      11.896  15.133  17.571  1.00  0.00    +0.000 C 
ATOM     63  C44 UNL A   1      11.524  16.128  18.544  1.00  0.00    +0.000 C 
ATOM     64  C45 UNL A   1      11.317  17.483  18.358  1.00  0.00    +0.000 C 
ATOM     65  C46 UNL A   1      11.005  18.055  19.598  1.00  0.00    +0.000 C 
ATOM     66  C47 UNL A   1      10.980  17.048  20.550  1.00  0.00    +0.000 C 
ATOM     67  N7  UNL A   1      11.304  15.872  19.890  1.00  0.00    +0.000 N 
ATOM     68  C48 UNL A   1      10.685  17.150  21.955  1.00  0.00    +0.000 C 
ATOM     80  C55 UNL A   1      10.657  16.112  22.826  1.00  0.00    +0.000 C 
ATOM     81  N8  UNL A   1      10.907  14.769  22.587  1.00  0.00    +0.000 N 
ATOM     82  C56 UNL A   1      10.782  14.170  23.746  1.00  0.00    +0.000 C 
ATOM     83  C57 UNL A   1      10.937  12.715  24.078  1.00  0.00    +0.000 C 
ATOM     95  C64 UNL A   1      11.271  11.854  23.101  1.00  0.00    +0.000 C 
ATOM     96  C65 UNL A   1      11.454  10.417  23.272  1.00  0.00    +0.000 C 
ATOM     97  C66 UNL A   1      11.814   9.881  22.097  1.00  0.00    +0.000 C 
ATOM     98  C67 UNL A   1      11.834  10.933  21.078  1.00  0.00    +0.000 C 
ATOM     99  N9  UNL A   1      11.521  12.074  21.768  1.00  0.00    +0.000 N 
ATOM    100  C68 UNL A   1      10.449  15.069  24.858  1.00  0.00    +0.000 C 
ATOM    101  C69 UNL A   1      10.353  16.236  24.236  1.00  0.00    +0.000 C 
ATOM    102  C70 UNL A   1      12.399  12.805  16.867  1.00  0.00    +0.000 C 
ATOM    103  C71 UNL A   1      12.414  11.595  17.411  1.00  0.00    +0.000 C 
ENDROOT
BRANCH   47   46
ATOM    104  C72 UNL A   1      13.624   8.787  19.335  1.00  0.00    +0.000 C 
ATOM    105  C73 UNL A   1      13.825   7.468  18.918  1.00  0.00    +0.000 C 
ATOM     43  C30 UNL A   1      12.734   6.698  18.506  1.00  0.00    +0.000 C 
ATOM     44  C31 UNL A   1      11.441   7.229  18.545  1.00  0.00    +0.000 C 
ATOM     45  C32 UNL A   1      11.252   8.563  18.889  1.00  0.00    +0.000 C 
ATOM     46  C33 UNL A   1      12.339   9.349  19.303  1.00  0.00    +0.000 C 
ATOM    143  H38 UNL A   1      10.629   6.634  18.319  1.00  0.00    +0.000 H 
ATOM    144  H39 UNL A   1      10.308   8.978  18.840  1.00  0.00    +0.000 H 
ATOM    155  H50 UNL A   1      14.424   9.348  19.666  1.00  0.00    +0.000 H 
ATOM    156  H51 UNL A   1      14.774   7.065  18.915  1.00  0.00    +0.000 H 
BRANCH   43    2
ATOM      1  O1  UNL A   1      13.701   5.101  17.084  1.00  0.00    +0.000 O 
ATOM      2  C1  UNL A   1      12.964   5.312  18.041  1.00  0.00    +0.000 C 
BRANCH    2    3
ATOM    106  H1  UNL A   1      12.041   4.452  19.603  1.00  0.00    +0.000 H 
ATOM      3  N1  UNL A   1      12.338   4.273  18.682  1.00  0.00    +0.000 N 
BRANCH    3    4
ATOM    108  H3  UNL A   1      12.573   2.828  17.242  1.00  0.00    +0.000 H 
ATOM    107  H2  UNL A   1      12.393   2.219  18.889  1.00  0.00    +0.000 H 
ATOM      4  C2  UNL A   1      12.059   2.941  18.173  1.00  0.00    +0.000 C 
BRANCH    4    5
ATOM    109  H4  UNL A   1      10.094   2.554  18.860  1.00  0.00    +0.000 H 
ATOM      5  C3  UNL A   1      10.573   2.729  17.920  1.00  0.00    +0.000 C 
ATOM    110  H5  UNL A   1      10.491   1.898  17.251  1.00  0.00    +0.000 H 
BRANCH    5    6
ATOM      6  C4  UNL A   1       9.876   3.908  17.239  1.00  0.00    +0.000 C 
ATOM    111  H6  UNL A   1       9.461   3.560  16.316  1.00  0.00    +0.000 H 
ATOM    112  H7  UNL A   1      10.622   4.663  17.111  1.00  0.00    +0.000 H 
BRANCH    6    7
ATOM    113  H8  UNL A   1       9.099   4.688  19.055  1.00  0.00    +0.000 H 
ATOM    114  H9  UNL A   1       7.912   3.891  17.977  1.00  0.00    +0.000 H 
ATOM      7  C5  UNL A   1       8.749   4.553  18.053  1.00  0.00    +0.000 C 
BRANCH    7    8
ATOM    115  H10 UNL A   1       8.709   6.089  16.576  1.00  0.00    +0.000 H 
ATOM    116  H11 UNL A   1       8.551   6.646  18.259  1.00  0.00    +0.000 H 
ATOM      8  C6  UNL A   1       8.263   5.915  17.533  1.00  0.00    +0.000 C 
BRANCH    8    9
ATOM      9  C7  UNL A   1       6.745   6.012  17.382  1.00  0.00    +0.000 C 
ATOM    117  H12 UNL A   1       6.292   5.971  18.350  1.00  0.00    +0.000 H 
ATOM    118  H13 UNL A   1       6.406   5.196  16.779  1.00  0.00    +0.000 H 
BRANCH    9   10
ATOM     10  N2  UNL A   1       6.373   7.253  16.736  1.00  0.00    +0.000 N 
ATOM    119  H14 UNL A   1       6.514   7.295  15.763  1.00  0.00    +0.000 H 
BRANCH   10   11
ATOM     11  C8  UNL A   1       5.852   8.372  17.315  1.00  0.00    +0.000 C 
ATOM     12  O2  UNL A   1       6.547   9.389  17.338  1.00  0.00    +0.000 O 
BRANCH   11   13
ATOM     13  C9  UNL A   1       4.443   8.364  17.925  1.00  0.00    +0.000 C 
ATOM    120  H15 UNL A   1       4.108   7.347  17.945  1.00  0.00    +0.000 H 
BRANCH   13   14
ATOM    121  H16 UNL A   1       3.680  10.170  17.057  1.00  0.00    +0.000 H 
ATOM    122  H17 UNL A   1       2.452   8.975  17.431  1.00  0.00    +0.000 H 
ATOM     14  C10 UNL A   1       3.439   9.126  17.046  1.00  0.00    +0.000 C 
BRANCH   14   15
ATOM    123  H18 UNL A   1       4.014   9.258  15.158  1.00  0.00    +0.000 H 
ATOM     15  O3  UNL A   1       3.494   8.644  15.699  1.00  0.00    +0.000 O 
ENDBRANCH   14   15
ENDBRANCH   13   14
BRANCH   13   16
ATOM    124  H19 UNL A   1       4.842   8.169  19.952  1.00  0.00    +0.000 H 
ATOM     16  N3  UNL A   1       4.443   8.809  19.319  1.00  0.00    +0.000 N 
BRANCH   16   17
ATOM     17  C11 UNL A   1       3.986   9.957  19.887  1.00  0.00    +0.000 C 
ATOM     18  O4  UNL A   1       4.761  10.917  19.781  1.00  0.00    +0.000 O 
BRANCH   17   19
ATOM     19  C12 UNL A   1       2.524  10.168  20.376  1.00  0.00    +0.000 C 
ATOM    125  H20 UNL A   1       1.984   9.346  19.952  1.00  0.00    +0.000 H 
BRANCH   19   20
ATOM     20  C13 UNL A   1       2.003  11.535  19.864  1.00  0.00    +0.000 C 
ATOM    126  H21 UNL A   1       1.004  11.400  19.505  1.00  0.00    +0.000 H 
ATOM    127  H22 UNL A   1       2.676  11.854  19.096  1.00  0.00    +0.000 H 
BRANCH   20   21
ATOM     21  S1  UNL A   1       1.988  12.849  21.135  1.00  0.00    +0.000 S 
ATOM    128  H23 UNL A   1       0.951  12.640  21.991  1.00  0.00    +0.000 H 
ENDBRANCH   20   21
ENDBRANCH   19   20
BRANCH   19   22
ATOM    129  H24 UNL A   1       1.920  10.848  22.220  1.00  0.00    +0.000 H 
ATOM     22  N4  UNL A   1       2.261  10.019  21.812  1.00  0.00    +0.000 N 
BRANCH   22   23
ATOM     23  C14 UNL A   1       2.379   9.008  22.712  1.00  0.00    +0.000 C 
ATOM     24  O5  UNL A   1       1.404   8.253  22.689  1.00  0.00    +0.000 O 
BRANCH   23   25
ATOM     25  C15 UNL A   1       3.635   8.689  23.575  1.00  0.00    +0.000 C 
ATOM    130  H25 UNL A   1       4.142   7.893  23.070  1.00  0.00    +0.000 H 
BRANCH   25   26
ATOM     26  C16 UNL A   1       3.266   8.235  25.022  1.00  0.00    +0.000 C 
ATOM    131  H26 UNL A   1       2.312   7.757  24.946  1.00  0.00    +0.000 H 
ATOM    132  H27 UNL A   1       3.366   9.153  25.563  1.00  0.00    +0.000 H 
BRANCH   26   27
ATOM    133  H28 UNL A   1       4.944   8.728  27.171  1.00  0.00    +0.000 H 
ATOM    134  H29 UNL A   1       6.534   7.244  28.222  1.00  0.00    +0.000 H 
ATOM    135  H30 UNL A   1       6.704   4.935  27.509  1.00  0.00    +0.000 H 
ATOM    136  H31 UNL A   1       5.232   4.108  25.768  1.00  0.00    +0.000 H 
ATOM    137  H32 UNL A   1       3.625   5.587  24.725  1.00  0.00    +0.000 H 
ATOM     27  C17 UNL A   1       4.137   7.302  25.850  1.00  0.00    +0.000 C 
ATOM     28  C18 UNL A   1       4.996   7.744  26.864  1.00  0.00    +0.000 C 
ATOM     29  C19 UNL A   1       5.920   6.889  27.472  1.00  0.00    +0.000 C 
ATOM     30  C20 UNL A   1       6.015   5.565  27.069  1.00  0.00    +0.000 C 
ATOM     31  C21 UNL A   1       5.173   5.094  26.068  1.00  0.00    +0.000 C 
ATOM     32  C22 UNL A   1       4.244   5.952  25.466  1.00  0.00    +0.000 C 
ENDBRANCH   26   27
ENDBRANCH   25   26
BRANCH   25   33
ATOM     33  N5  UNL A   1       4.491   9.881  23.702  1.00  0.00    +0.000 N 
ATOM    138  H33 UNL A   1       3.987  10.726  23.714  1.00  0.00    +0.000 H 
BRANCH   33   34
ATOM     34  C23 UNL A   1       5.845  10.051  23.809  1.00  0.00    +0.000 C 
ATOM     35  O6  UNL A   1       6.310  10.164  24.943  1.00  0.00    +0.000 O 
BRANCH   34   36
ATOM     36  C24 UNL A   1       6.763  10.179  22.644  1.00  0.00    +0.000 C 
ATOM     37  C25 UNL A   1       7.172  11.478  22.292  1.00  0.00    +0.000 C 
ATOM     38  C26 UNL A   1       7.931  11.702  21.140  1.00  0.00    +0.000 C 
ATOM     39  C27 UNL A   1       8.277  10.628  20.333  1.00  0.00    +0.000 C 
ATOM     40  F1  UNL A   1       8.987  10.839  19.217  1.00  0.00    +0.000 F 
ATOM     41  C28 UNL A   1       7.877   9.337  20.655  1.00  0.00    +0.000 C 
ATOM     42  C29 UNL A   1       7.114   9.113  21.806  1.00  0.00    +0.000 C 
ATOM    139  H34 UNL A   1       6.909  12.275  22.892  1.00  0.00    +0.000 H 
ATOM    140  H35 UNL A   1       8.230  12.658  20.892  1.00  0.00    +0.000 H 
ATOM    141  H36 UNL A   1       8.141   8.547  20.047  1.00  0.00    +0.000 H 
ATOM    142  H37 UNL A   1       6.807   8.156  22.040  1.00  0.00    +0.000 H 
ENDBRANCH   34   36
ENDBRANCH   33   34
ENDBRANCH   25   33
ENDBRANCH   23   25
ENDBRANCH   22   23
ENDBRANCH   19   22
ENDBRANCH   17   19
ENDBRANCH   16   17
ENDBRANCH   13   16
ENDBRANCH   11   13
ENDBRANCH   10   11
ENDBRANCH    9   10
ENDBRANCH    8    9
ENDBRANCH    7    8
ENDBRANCH    6    7
ENDBRANCH    5    6
ENDBRANCH    4    5
ENDBRANCH    3    4
ENDBRANCH    2    3
ENDBRANCH   43    2
ENDBRANCH   47   46
BRANCH   51   52
ATOM     52  C38 UNL A   1      12.153  15.585  16.164  1.00  0.00    +0.000 C 
ATOM     53  C39 UNL A   1      11.105  15.796  15.257  1.00  0.00    +0.000 C 
ATOM     54  F2  UNL A   1       9.839  15.538  15.616  1.00  0.00    +0.000 F 
ATOM     55  C40 UNL A   1      11.358  16.246  13.963  1.00  0.00    +0.000 C 
ATOM     56  F3  UNL A   1      10.344  16.406  13.101  1.00  0.00    +0.000 F 
ATOM     57  C41 UNL A   1      12.657  16.518  13.560  1.00  0.00    +0.000 C 
ATOM     58  F4  UNL A   1      12.897  16.957  12.318  1.00  0.00    +0.000 F 
ATOM     59  C42 UNL A   1      13.708  16.328  14.446  1.00  0.00    +0.000 C 
ATOM     60  F5  UNL A   1      14.963  16.599  14.062  1.00  0.00    +0.000 F 
ATOM     61  C43 UNL A   1      13.460  15.857  15.733  1.00  0.00    +0.000 C 
ATOM     62  F6  UNL A   1      14.499  15.676  16.563  1.00  0.00    +0.000 F 
ENDBRANCH   51   52
BRANCH   68   69
ATOM     69  C49 UNL A   1      10.362  18.505  22.508  1.00  0.00    +0.000 C 
ATOM     70  C50 UNL A   1      11.371  19.368  22.959  1.00  0.00    +0.000 C 
ATOM     71  F7  UNL A   1      12.654  18.976  22.935  1.00  0.00    +0.000 F 
ATOM     72  C51 UNL A   1      11.059  20.622  23.476  1.00  0.00    +0.000 C 
ATOM     73  F8  UNL A   1      12.034  21.414  23.943  1.00  0.00    +0.000 F 
ATOM     74  C52 UNL A   1       9.739  21.045  23.525  1.00  0.00    +0.000 C 
ATOM     75  F9  UNL A   1       9.440  22.253  24.023  1.00  0.00    +0.000 F 
ATOM     76  C53 UNL A   1       8.728  20.215  23.066  1.00  0.00    +0.000 C 
ATOM     77  F10 UNL A   1       7.453  20.626  23.107  1.00  0.00    +0.000 F 
ATOM     78  C54 UNL A   1       9.034  18.951  22.571  1.00  0.00    +0.000 C 
ATOM     79  F11 UNL A   1       8.035  18.160  22.148  1.00  0.00    +0.000 F 
ENDBRANCH   68   69
BRANCH   83   84
ATOM     84  C58 UNL A   1      10.720  12.211  25.456  1.00  0.00    +0.000 C 
ATOM     85  C59 UNL A   1       9.429  11.937  25.927  1.00  0.00    +0.000 C 
ATOM     86  F12 UNL A   1       8.367  12.174  25.144  1.00  0.00    +0.000 F 
ATOM     87  C60 UNL A   1       9.225  11.442  27.213  1.00  0.00    +0.000 C 
ATOM     88  F13 UNL A   1       7.978  11.217  27.650  1.00  0.00    +0.000 F 
ATOM     89  C61 UNL A   1      10.308  11.190  28.043  1.00  0.00    +0.000 C 
ATOM     90  F14 UNL A   1      10.111  10.703  29.275  1.00  0.00    +0.000 F 
ATOM     91  C62 UNL A   1      11.595  11.446  27.594  1.00  0.00    +0.000 C 
ATOM     92  F15 UNL A   1      12.644  11.189  28.386  1.00  0.00    +0.000 F 
ATOM     93  C63 UNL A   1      11.798  11.965  26.318  1.00  0.00    +0.000 C 
ATOM     94  F16 UNL A   1      13.053  12.206  25.909  1.00  0.00    +0.000 F 
ENDBRANCH   83   84
TORSDOF 30
ENDMDL
MODEL 9
REMARK VINA RESULT:      -5.2      5.896     11.459
ROOT
ATOM    145  H40 UNL A   1      44.613  51.127  15.841  1.00  0.00    +0.000 H 
ATOM    146  H41 UNL A   1      45.655  53.298  14.840  1.00  0.00    +0.000 H 
ATOM    147  H42 UNL A   1      48.030  52.049  17.994  1.00  0.00    +0.000 H 
ATOM    148  H43 UNL A   1      53.051  52.997  21.806  1.00  0.00    +0.000 H 
ATOM    149  H44 UNL A   1      52.133  50.792  22.669  1.00  0.00    +0.000 H 
ATOM    150  H45 UNL A   1      49.716  52.026  19.521  1.00  0.00    +0.000 H 
ATOM    151  H46 UNL A   1      51.791  56.251  17.774  1.00  0.00    +0.000 H 
ATOM    152  H47 UNL A   1      49.850  56.355  16.107  1.00  0.00    +0.000 H 
ATOM    153  H48 UNL A   1      46.091  47.777  19.774  1.00  0.00    +0.000 H 
ATOM    154  H49 UNL A   1      47.873  47.791  21.614  1.00  0.00    +0.000 H 
ATOM     47  C34 UNL A   1      49.742  49.933  21.383  1.00  0.00    +0.000 C 
ATOM     48  C35 UNL A   1      48.540  49.665  20.526  1.00  0.00    +0.000 C 
ATOM     49  N6  UNL A   1      48.087  50.350  19.506  1.00  0.00    +0.000 N 
ATOM     50  C36 UNL A   1      46.969  49.664  19.053  1.00  0.00    +0.000 C 
ATOM     51  C37 UNL A   1      46.140  49.986  18.030  1.00  0.00    +0.000 C 
ATOM     63  C44 UNL A   1      46.283  51.159  17.206  1.00  0.00    +0.000 C 
ATOM     64  C45 UNL A   1      45.475  51.590  16.169  1.00  0.00    +0.000 C 
ATOM     65  C46 UNL A   1      46.028  52.763  15.640  1.00  0.00    +0.000 C 
ATOM     66  C47 UNL A   1      47.158  53.083  16.373  1.00  0.00    +0.000 C 
ATOM     67  N7  UNL A   1      47.306  52.089  17.328  1.00  0.00    +0.000 N 
ATOM     68  C48 UNL A   1      48.040  54.210  16.214  1.00  0.00    +0.000 C 
ATOM     80  C55 UNL A   1      49.121  54.473  16.988  1.00  0.00    +0.000 C 
ATOM     81  N8  UNL A   1      49.622  53.748  18.058  1.00  0.00    +0.000 N 
ATOM     82  C56 UNL A   1      50.692  54.390  18.458  1.00  0.00    +0.000 C 
ATOM     83  C57 UNL A   1      51.627  54.059  19.584  1.00  0.00    +0.000 C 
ATOM     95  C64 UNL A   1      51.406  52.951  20.311  1.00  0.00    +0.000 C 
ATOM     96  C65 UNL A   1      52.225  52.504  21.433  1.00  0.00    +0.000 C 
ATOM     97  C66 UNL A   1      51.731  51.348  21.899  1.00  0.00    +0.000 C 
ATOM     98  C67 UNL A   1      50.527  51.001  21.140  1.00  0.00    +0.000 C 
ATOM     99  N9  UNL A   1      50.424  51.997  20.204  1.00  0.00    +0.000 N 
ATOM    100  C68 UNL A   1      51.000  55.595  17.676  1.00  0.00    +0.000 C 
ATOM    101  C69 UNL A   1      49.994  55.616  16.814  1.00  0.00    +0.000 C 
ATOM    102  C70 UNL A   1      46.821  48.496  19.897  1.00  0.00    +0.000 C 
ATOM    103  C71 UNL A   1      47.746  48.471  20.848  1.00  0.00    +0.000 C 
ENDROOT
BRANCH   47   46
ATOM    104  C72 UNL A   1      49.669  49.363  23.832  1.00  0.00    +0.000 C 
ATOM    105  C73 UNL A   1      49.977  48.503  24.890  1.00  0.00    +0.000 C 
ATOM     43  C30 UNL A   1      50.665  47.313  24.638  1.00  0.00    +0.000 C 
ATOM     44  C31 UNL A   1      51.012  46.964  23.329  1.00  0.00    +0.000 C 
ATOM     45  C32 UNL A   1      50.772  47.854  22.289  1.00  0.00    +0.000 C 
ATOM     46  C33 UNL A   1      50.084  49.054  22.528  1.00  0.00    +0.000 C 
ATOM    143  H38 UNL A   1      51.447  46.048  23.136  1.00  0.00    +0.000 H 
ATOM    144  H39 UNL A   1      51.101  47.632  21.336  1.00  0.00    +0.000 H 
ATOM    155  H50 UNL A   1      49.137  50.229  24.011  1.00  0.00    +0.000 H 
ATOM    156  H51 UNL A   1      49.696  48.746  25.852  1.00  0.00    +0.000 H 
BRANCH   43    2
ATOM      1  O1  UNL A   1      50.155  45.685  26.248  1.00  0.00    +0.000 O 
ATOM      2  C1  UNL A   1      51.008  46.425  25.770  1.00  0.00    +0.000 C 
BRANCH    2    3
ATOM    106  H1  UNL A   1      52.803  45.622  26.170  1.00  0.00    +0.000 H 
ATOM      3  N1  UNL A   1      52.279  46.447  26.286  1.00  0.00    +0.000 N 
BRANCH    3    4
ATOM    108  H3  UNL A   1      54.000  47.341  26.958  1.00  0.00    +0.000 H 
ATOM    107  H2  UNL A   1      52.714  48.455  26.491  1.00  0.00    +0.000 H 
ATOM      4  C2  UNL A   1      52.949  47.533  26.981  1.00  0.00    +0.000 C 
BRANCH    4    5
ATOM    109  H4  UNL A   1      53.307  48.090  28.991  1.00  0.00    +0.000 H 
ATOM      5  C3  UNL A   1      52.518  47.627  28.437  1.00  0.00    +0.000 C 
ATOM    110  H5  UNL A   1      52.314  46.628  28.762  1.00  0.00    +0.000 H 
BRANCH    5    6
ATOM      6  C4  UNL A   1      51.237  48.431  28.664  1.00  0.00    +0.000 C 
ATOM    111  H6  UNL A   1      50.482  48.044  28.012  1.00  0.00    +0.000 H 
ATOM    112  H7  UNL A   1      51.486  49.452  28.467  1.00  0.00    +0.000 H 
BRANCH    6    7
ATOM    113  H8  UNL A   1      50.926  47.435  30.515  1.00  0.00    +0.000 H 
ATOM    114  H9  UNL A   1      49.642  48.581  30.020  1.00  0.00    +0.000 H 
ATOM      7  C5  UNL A   1      50.692  48.392  30.096  1.00  0.00    +0.000 C 
BRANCH    7    8
ATOM    115  H10 UNL A   1      51.870  50.128  30.466  1.00  0.00    +0.000 H 
ATOM    116  H11 UNL A   1      51.791  48.961  31.808  1.00  0.00    +0.000 H 
ATOM      8  C6  UNL A   1      51.250  49.470  31.038  1.00  0.00    +0.000 C 
BRANCH    8    9
ATOM      9  C7  UNL A   1      50.171  50.304  31.730  1.00  0.00    +0.000 C 
ATOM    117  H12 UNL A   1      50.537  50.632  32.681  1.00  0.00    +0.000 H 
ATOM    118  H13 UNL A   1      49.298  49.700  31.856  1.00  0.00    +0.000 H 
BRANCH    9   10
ATOM     10  N2  UNL A   1      49.827  51.461  30.930  1.00  0.00    +0.000 N 
ATOM    119  H14 UNL A   1      50.550  52.109  30.773  1.00  0.00    +0.000 H 
BRANCH   10   11
ATOM     11  C8  UNL A   1      48.621  51.759  30.369  1.00  0.00    +0.000 C 
ATOM     12  O2  UNL A   1      47.798  50.849  30.249  1.00  0.00    +0.000 O 
BRANCH   11   13
ATOM     13  C9  UNL A   1      48.299  53.183  29.896  1.00  0.00    +0.000 C 
ATOM    120  H15 UNL A   1      47.368  53.466  30.341  1.00  0.00    +0.000 H 
BRANCH   13   14
ATOM    121  H16 UNL A   1      48.228  54.245  28.035  1.00  0.00    +0.000 H 
ATOM    122  H17 UNL A   1      47.082  52.924  28.155  1.00  0.00    +0.000 H 
ATOM     14  C10 UNL A   1      48.080  53.241  28.376  1.00  0.00    +0.000 C 
BRANCH   14   15
ATOM    123  H18 UNL A   1      49.186  52.718  26.821  1.00  0.00    +0.000 H 
ATOM     15  O3  UNL A   1      49.004  52.375  27.709  1.00  0.00    +0.000 O 
ENDBRANCH   14   15
ENDBRANCH   13   14
BRANCH   13   16
ATOM    124  H19 UNL A   1      50.199  54.003  30.058  1.00  0.00    +0.000 H 
ATOM     16  N3  UNL A   1      49.280  54.157  30.375  1.00  0.00    +0.000 N 
BRANCH   16   17
ATOM     17  C11 UNL A   1      49.136  55.241  31.184  1.00  0.00    +0.000 C 
ATOM     18  O4  UNL A   1      47.964  55.620  31.318  1.00  0.00    +0.000 O 
BRANCH   17   19
ATOM     19  C12 UNL A   1      50.262  55.804  32.100  1.00  0.00    +0.000 C 
ATOM    125  H20 UNL A   1      50.485  54.997  32.767  1.00  0.00    +0.000 H 
BRANCH   19   20
ATOM     20  C13 UNL A   1      49.736  57.053  32.851  1.00  0.00    +0.000 C 
ATOM    126  H21 UNL A   1      48.895  57.440  32.314  1.00  0.00    +0.000 H 
ATOM    127  H22 UNL A   1      50.548  57.749  32.899  1.00  0.00    +0.000 H 
BRANCH   20   21
ATOM     21  S1  UNL A   1      49.219  56.723  34.573  1.00  0.00    +0.000 S 
ATOM    128  H23 UNL A   1      47.885  56.455  34.602  1.00  0.00    +0.000 H 
ENDBRANCH   20   21
ENDBRANCH   19   20
BRANCH   19   22
ATOM    129  H24 UNL A   1      51.667  57.028  31.231  1.00  0.00    +0.000 H 
ATOM     22  N4  UNL A   1      51.563  56.081  31.482  1.00  0.00    +0.000 N 
BRANCH   22   23
ATOM     23  C14 UNL A   1      52.659  55.339  31.172  1.00  0.00    +0.000 C 
ATOM     24  O5  UNL A   1      53.361  55.116  32.162  1.00  0.00    +0.000 O 
BRANCH   23   25
ATOM     25  C15 UNL A   1      52.961  54.678  29.795  1.00  0.00    +0.000 C 
ATOM    130  H25 UNL A   1      54.011  54.806  29.634  1.00  0.00    +0.000 H 
BRANCH   25   26
ATOM     26  C16 UNL A   1      52.170  55.345  28.626  1.00  0.00    +0.000 C 
ATOM    131  H26 UNL A   1      52.266  56.400  28.771  1.00  0.00    +0.000 H 
ATOM    132  H27 UNL A   1      51.214  54.874  28.722  1.00  0.00    +0.000 H 
BRANCH   26   27
ATOM    133  H28 UNL A   1      50.510  54.856  26.462  1.00  0.00    +0.000 H 
ATOM    134  H29 UNL A   1      51.102  54.149  24.230  1.00  0.00    +0.000 H 
ATOM    135  H30 UNL A   1      53.430  53.931  23.596  1.00  0.00    +0.000 H 
ATOM    136  H31 UNL A   1      55.164  54.475  25.202  1.00  0.00    +0.000 H 
ATOM    137  H32 UNL A   1      54.575  55.200  27.434  1.00  0.00    +0.000 H 
ATOM     27  C17 UNL A   1      52.482  55.093  27.159  1.00  0.00    +0.000 C 
ATOM     28  C18 UNL A   1      51.506  54.779  26.205  1.00  0.00    +0.000 C 
ATOM     29  C19 UNL A   1      51.846  54.366  24.913  1.00  0.00    +0.000 C 
ATOM     30  C20 UNL A   1      53.178  54.246  24.545  1.00  0.00    +0.000 C 
ATOM     31  C21 UNL A   1      54.171  54.555  25.469  1.00  0.00    +0.000 C 
ATOM     32  C22 UNL A   1      53.827  54.974  26.760  1.00  0.00    +0.000 C 
ENDBRANCH   26   27
ENDBRANCH   25   26
BRANCH   25   33
ATOM     33  N5  UNL A   1      52.584  53.254  29.813  1.00  0.00    +0.000 N 
ATOM    138  H33 UNL A   1      51.666  53.095  30.129  1.00  0.00    +0.000 H 
BRANCH   33   34
ATOM     34  C23 UNL A   1      53.254  52.108  29.479  1.00  0.00    +0.000 C 
ATOM     35  O6  UNL A   1      53.899  51.554  30.368  1.00  0.00    +0.000 O 
BRANCH   34   36
ATOM     36  C24 UNL A   1      53.306  51.545  28.101  1.00  0.00    +0.000 C 
ATOM     37  C25 UNL A   1      54.581  51.304  27.558  1.00  0.00    +0.000 C 
ATOM     38  C26 UNL A   1      54.726  50.895  26.229  1.00  0.00    +0.000 C 
ATOM     39  C27 UNL A   1      53.597  50.732  25.439  1.00  0.00    +0.000 C 
ATOM     40  F1  UNL A   1      53.731  50.359  24.160  1.00  0.00    +0.000 F 
ATOM     41  C28 UNL A   1      52.328  50.973  25.952  1.00  0.00    +0.000 C 
ATOM     42  C29 UNL A   1      52.183  51.386  27.281  1.00  0.00    +0.000 C 
ATOM    139  H34 UNL A   1      55.419  51.430  28.146  1.00  0.00    +0.000 H 
ATOM    140  H35 UNL A   1      55.665  50.716  25.839  1.00  0.00    +0.000 H 
ATOM    141  H36 UNL A   1      51.497  50.848  25.355  1.00  0.00    +0.000 H 
ATOM    142  H37 UNL A   1      51.242  51.576  27.658  1.00  0.00    +0.000 H 
ENDBRANCH   34   36
ENDBRANCH   33   34
ENDBRANCH   25   33
ENDBRANCH   23   25
ENDBRANCH   22   23
ENDBRANCH   19   22
ENDBRANCH   17   19
ENDBRANCH   16   17
ENDBRANCH   13   16
ENDBRANCH   11   13
ENDBRANCH   10   11
ENDBRANCH    9   10
ENDBRANCH    8    9
ENDBRANCH    7    8
ENDBRANCH    6    7
ENDBRANCH    5    6
ENDBRANCH    4    5
ENDBRANCH    3    4
ENDBRANCH    2    3
ENDBRANCH   43    2
ENDBRANCH   47   46
BRANCH   51   52
ATOM     52  C38 UNL A   1      45.008  49.048  17.732  1.00  0.00    +0.000 C 
ATOM     53  C39 UNL A   1      43.672  49.426  17.923  1.00  0.00    +0.000 C 
ATOM     54  F2  UNL A   1      43.377  50.628  18.439  1.00  0.00    +0.000 F 
ATOM     55  C40 UNL A   1      42.630  48.555  17.611  1.00  0.00    +0.000 C 
ATOM     56  F3  UNL A   1      41.361  48.924  17.835  1.00  0.00    +0.000 F 
ATOM     57  C41 UNL A   1      42.902  47.304  17.078  1.00  0.00    +0.000 C 
ATOM     58  F4  UNL A   1      41.899  46.471  16.772  1.00  0.00    +0.000 F 
ATOM     59  C42 UNL A   1      44.217  46.915  16.869  1.00  0.00    +0.000 C 
ATOM     60  F5  UNL A   1      44.483  45.710  16.346  1.00  0.00    +0.000 F 
ATOM     61  C43 UNL A   1      45.262  47.775  17.200  1.00  0.00    +0.000 C 
ATOM     62  F6  UNL A   1      46.523  47.366  16.995  1.00  0.00    +0.000 F 
ENDBRANCH   51   52
BRANCH   68   69
ATOM     69  C49 UNL A   1      47.738  55.190  15.121  1.00  0.00    +0.000 C 
ATOM     70  C50 UNL A   1      48.155  54.961  13.801  1.00  0.00    +0.000 C 
ATOM     71  F7  UNL A   1      48.869  53.866  13.499  1.00  0.00    +0.000 F 
ATOM     72  C51 UNL A   1      47.873  55.880  12.795  1.00  0.00    +0.000 C 
ATOM     73  F8  UNL A   1      48.318  55.665  11.550  1.00  0.00    +0.000 F 
ATOM     74  C52 UNL A   1      47.148  57.027  13.084  1.00  0.00    +0.000 C 
ATOM     75  F9  UNL A   1      46.878  57.911  12.113  1.00  0.00    +0.000 F 
ATOM     76  C53 UNL A   1      46.711  57.262  14.378  1.00  0.00    +0.000 C 
ATOM     77  F10 UNL A   1      46.004  58.367  14.656  1.00  0.00    +0.000 F 
ATOM     78  C54 UNL A   1      47.011  56.357  15.391  1.00  0.00    +0.000 C 
ATOM     79  F11 UNL A   1      46.589  56.617  16.639  1.00  0.00    +0.000 F 
ENDBRANCH   68   69
BRANCH   83   84
ATOM     84  C58 UNL A   1      52.779  54.934  19.912  1.00  0.00    +0.000 C 
ATOM     85  C59 UNL A   1      54.007  54.784  19.254  1.00  0.00    +0.000 C 
ATOM     86  F12 UNL A   1      54.166  53.809  18.348  1.00  0.00    +0.000 F 
ATOM     87  C60 UNL A   1      55.083  55.619  19.545  1.00  0.00    +0.000 C 
ATOM     88  F13 UNL A   1      56.256  55.435  18.925  1.00  0.00    +0.000 F 
ATOM     89  C61 UNL A   1      54.944  56.634  20.481  1.00  0.00    +0.000 C 
ATOM     90  F14 UNL A   1      55.976  57.444  20.751  1.00  0.00    +0.000 F 
ATOM     91  C62 UNL A   1      53.735  56.806  21.137  1.00  0.00    +0.000 C 
ATOM     92  F15 UNL A   1      53.592  57.795  22.030  1.00  0.00    +0.000 F 
ATOM     93  C63 UNL A   1      52.667  55.955  20.866  1.00  0.00    +0.000 C 
ATOM     94  F16 UNL A   1      51.509  56.142  21.517  1.00  0.00    +0.000 F 
ENDBRANCH   83   84
TORSDOF 30
ENDMDL
MODEL 10
REMARK VINA RESULT:      -5.2     31.743     37.884
ROOT
ATOM    145  H40 UNL A   1      19.874  37.038  48.100  1.00  0.00    +0.000 H 
ATOM    146  H41 UNL A   1      18.872  39.133  49.287  1.00  0.00    +0.000 H 
ATOM    147  H42 UNL A   1      22.708  40.059  48.033  1.00  0.00    +0.000 H 
ATOM    148  H43 UNL A   1      27.551  44.195  47.749  1.00  0.00    +0.000 H 
ATOM    149  H44 UNL A   1      28.460  42.216  46.444  1.00  0.00    +0.000 H 
ATOM    150  H45 UNL A   1      24.621  41.245  47.705  1.00  0.00    +0.000 H 
ATOM    151  H46 UNL A   1      22.875  45.327  50.049  1.00  0.00    +0.000 H 
ATOM    152  H47 UNL A   1      20.746  43.983  50.516  1.00  0.00    +0.000 H 
ATOM    153  H48 UNL A   1      24.530  36.067  45.601  1.00  0.00    +0.000 H 
ATOM    154  H49 UNL A   1      26.761  37.299  45.347  1.00  0.00    +0.000 H 
ATOM     47  C34 UNL A   1      26.720  39.964  46.364  1.00  0.00    +0.000 C 
ATOM     48  C35 UNL A   1      25.620  38.945  46.410  1.00  0.00    +0.000 C 
ATOM     49  N6  UNL A   1      24.422  39.050  46.928  1.00  0.00    +0.000 N 
ATOM     50  C36 UNL A   1      23.793  37.837  46.683  1.00  0.00    +0.000 C 
ATOM     51  C37 UNL A   1      22.546  37.447  47.042  1.00  0.00    +0.000 C 
ATOM     63  C44 UNL A   1      21.621  38.264  47.786  1.00  0.00    +0.000 C 
ATOM     64  C45 UNL A   1      20.349  37.946  48.227  1.00  0.00    +0.000 C 
ATOM     65  C46 UNL A   1      19.815  39.066  48.876  1.00  0.00    +0.000 C 
ATOM     66  C47 UNL A   1      20.770  40.070  48.872  1.00  0.00    +0.000 C 
ATOM     67  N7  UNL A   1      21.872  39.566  48.197  1.00  0.00    +0.000 N 
ATOM     68  C48 UNL A   1      20.686  41.390  49.440  1.00  0.00    +0.000 C 
ATOM     80  C55 UNL A   1      21.675  42.316  49.417  1.00  0.00    +0.000 C 
ATOM     81  N8  UNL A   1      22.940  42.225  48.858  1.00  0.00    +0.000 N 
ATOM     82  C56 UNL A   1      23.512  43.384  49.071  1.00  0.00    +0.000 C 
ATOM     83  C57 UNL A   1      24.887  43.844  48.687  1.00  0.00    +0.000 C 
ATOM     95  C64 UNL A   1      25.690  43.007  48.007  1.00  0.00    +0.000 C 
ATOM     96  C65 UNL A   1      27.048  43.313  47.569  1.00  0.00    +0.000 C 
ATOM     97  C66 UNL A   1      27.533  42.261  46.894  1.00  0.00    +0.000 C 
ATOM     98  C67 UNL A   1      26.538  41.187  46.898  1.00  0.00    +0.000 C 
ATOM     99  N9  UNL A   1      25.467  41.727  47.562  1.00  0.00    +0.000 N 
ATOM    100  C68 UNL A   1      22.667  44.351  49.784  1.00  0.00    +0.000 C 
ATOM    101  C69 UNL A   1      21.571  43.639  49.999  1.00  0.00    +0.000 C 
ATOM    102  C70 UNL A   1      24.734  37.015  45.951  1.00  0.00    +0.000 C 
ATOM    103  C71 UNL A   1      25.894  37.641  45.791  1.00  0.00    +0.000 C 
ENDROOT
BRANCH   47   46
ATOM    104  C72 UNL A   1      28.419  40.197  44.523  1.00  0.00    +0.000 C 
ATOM    105  C73 UNL A   1      29.677  39.911  43.986  1.00  0.00    +0.000 C 
ATOM     43  C30 UNL A   1      30.569  39.108  44.702  1.00  0.00    +0.000 C 
ATOM     44  C31 UNL A   1      30.222  38.623  45.967  1.00  0.00    +0.000 C 
ATOM     45  C32 UNL A   1      28.943  38.847  46.466  1.00  0.00    +0.000 C 
ATOM     46  C33 UNL A   1      28.036  39.649  45.757  1.00  0.00    +0.000 C 
ATOM    143  H38 UNL A   1      30.911  38.100  46.528  1.00  0.00    +0.000 H 
ATOM    144  H39 UNL A   1      28.660  38.420  47.362  1.00  0.00    +0.000 H 
ATOM    155  H50 UNL A   1      27.769  40.813  44.010  1.00  0.00    +0.000 H 
ATOM    156  H51 UNL A   1      29.946  40.292  43.066  1.00  0.00    +0.000 H 
BRANCH   43    2
ATOM      1  O1  UNL A   1      32.373  39.532  43.263  1.00  0.00    +0.000 O 
ATOM      2  C1  UNL A   1      31.887  38.790  44.110  1.00  0.00    +0.000 C 
BRANCH    2    3
ATOM    106  H1  UNL A   1      32.217  36.811  44.134  1.00  0.00    +0.000 H 
ATOM      3  N1  UNL A   1      32.551  37.658  44.508  1.00  0.00    +0.000 N 
BRANCH    3    4
ATOM    108  H3  UNL A   1      34.561  37.380  44.823  1.00  0.00    +0.000 H 
ATOM    107  H2  UNL A   1      33.766  38.456  45.974  1.00  0.00    +0.000 H 
ATOM      4  C2  UNL A   1      33.684  37.550  45.411  1.00  0.00    +0.000 C 
BRANCH    4    5
ATOM    109  H4  UNL A   1      32.498  36.108  46.409  1.00  0.00    +0.000 H 
ATOM      5  C3  UNL A   1      33.532  36.384  46.378  1.00  0.00    +0.000 C 
ATOM    110  H5  UNL A   1      33.900  36.720  47.324  1.00  0.00    +0.000 H 
BRANCH    5    6
ATOM      6  C4  UNL A   1      34.348  35.146  46.004  1.00  0.00    +0.000 C 
ATOM    111  H6  UNL A   1      34.278  34.447  46.812  1.00  0.00    +0.000 H 
ATOM    112  H7  UNL A   1      35.344  35.488  45.824  1.00  0.00    +0.000 H 
BRANCH    6    7
ATOM    113  H8  UNL A   1      33.818  35.170  43.948  1.00  0.00    +0.000 H 
ATOM    114  H9  UNL A   1      32.972  33.956  44.957  1.00  0.00    +0.000 H 
ATOM      7  C5  UNL A   1      33.900  34.436  44.722  1.00  0.00    +0.000 C 
BRANCH    7    8
ATOM    115  H10 UNL A   1      35.642  33.228  44.926  1.00  0.00    +0.000 H 
ATOM    116  H11 UNL A   1      35.174  33.614  43.253  1.00  0.00    +0.000 H 
ATOM      8  C6  UNL A   1      34.838  33.325  44.227  1.00  0.00    +0.000 C 
BRANCH    8    9
ATOM      9  C7  UNL A   1      34.160  31.963  44.078  1.00  0.00    +0.000 C 
ATOM    117  H12 UNL A   1      34.876  31.192  44.268  1.00  0.00    +0.000 H 
ATOM    118  H13 UNL A   1      33.777  31.877  43.083  1.00  0.00    +0.000 H 
BRANCH    9   10
ATOM     10  N2  UNL A   1      33.063  31.833  45.013  1.00  0.00    +0.000 N 
ATOM    119  H14 UNL A   1      32.232  32.304  44.774  1.00  0.00    +0.000 H 
BRANCH   10   11
ATOM     11  C8  UNL A   1      33.043  31.138  46.185  1.00  0.00    +0.000 C 
ATOM     12  O2  UNL A   1      32.965  29.909  46.128  1.00  0.00    +0.000 O 
BRANCH   11   13
ATOM     13  C9  UNL A   1      33.110  31.862  47.537  1.00  0.00    +0.000 C 
ATOM    120  H15 UNL A   1      34.083  32.301  47.617  1.00  0.00    +0.000 H 
BRANCH   13   14
ATOM    121  H16 UNL A   1      33.468  29.961  48.460  1.00  0.00    +0.000 H 
ATOM    122  H17 UNL A   1      31.948  30.708  48.914  1.00  0.00    +0.000 H 
ATOM     14  C10 UNL A   1      32.984  30.882  48.714  1.00  0.00    +0.000 C 
BRANCH   14   15
ATOM    123  H18 UNL A   1      33.816  30.717  50.501  1.00  0.00    +0.000 H 
ATOM     15  O3  UNL A   1      33.600  31.432  49.883  1.00  0.00    +0.000 O 
ENDBRANCH   14   15
ENDBRANCH   13   14
BRANCH   13   16
ATOM    124  H19 UNL A   1      32.410  33.759  47.067  1.00  0.00    +0.000 H 
ATOM     16  N3  UNL A   1      32.164  32.977  47.612  1.00  0.00    +0.000 N 
BRANCH   16   17
ATOM     17  C11 UNL A   1      31.003  33.115  48.307  1.00  0.00    +0.000 C 
ATOM     18  O4  UNL A   1      30.993  34.076  49.088  1.00  0.00    +0.000 O 
BRANCH   17   19
ATOM     19  C12 UNL A   1      29.692  32.345  47.979  1.00  0.00    +0.000 C 
ATOM    125  H20 UNL A   1      30.008  31.548  47.338  1.00  0.00    +0.000 H 
BRANCH   19   20
ATOM     20  C13 UNL A   1      28.697  33.301  47.273  1.00  0.00    +0.000 C 
ATOM    126  H21 UNL A   1      28.207  32.760  46.491  1.00  0.00    +0.000 H 
ATOM    127  H22 UNL A   1      29.271  34.126  46.905  1.00  0.00    +0.000 H 
BRANCH   20   21
ATOM     21  S1  UNL A   1      27.420  33.997  48.381  1.00  0.00    +0.000 S 
ATOM    128  H23 UNL A   1      26.539  34.733  47.651  1.00  0.00    +0.000 H 
ENDBRANCH   20   21
ENDBRANCH   19   20
BRANCH   19   22
ATOM    129  H24 UNL A   1      28.176  32.045  49.335  1.00  0.00    +0.000 H 
ATOM     22  N4  UNL A   1      29.031  31.631  49.078  1.00  0.00    +0.000 N 
BRANCH   22   23
ATOM     23  C14 UNL A   1      29.322  30.534  49.824  1.00  0.00    +0.000 C 
ATOM     24  O5  UNL A   1      29.609  30.829  50.987  1.00  0.00    +0.000 O 
BRANCH   23   25
ATOM     25  C15 UNL A   1      29.167  29.051  49.377  1.00  0.00    +0.000 C 
ATOM    130  H25 UNL A   1      29.549  28.460  50.183  1.00  0.00    +0.000 H 
BRANCH   25   26
ATOM     26  C16 UNL A   1      29.966  28.733  48.074  1.00  0.00    +0.000 C 
ATOM    131  H26 UNL A   1      30.496  29.630  47.829  1.00  0.00    +0.000 H 
ATOM    132  H27 UNL A   1      29.189  28.375  47.431  1.00  0.00    +0.000 H 
BRANCH   26   27
ATOM    133  H28 UNL A   1      31.834  27.790  49.890  1.00  0.00    +0.000 H 
ATOM    134  H29 UNL A   1      33.625  26.209  49.535  1.00  0.00    +0.000 H 
ATOM    135  H30 UNL A   1      33.868  25.100  47.395  1.00  0.00    +0.000 H 
ATOM    136  H31 UNL A   1      32.272  25.549  45.626  1.00  0.00    +0.000 H 
ATOM    137  H32 UNL A   1      30.465  27.119  45.983  1.00  0.00    +0.000 H 
ATOM     27  C17 UNL A   1      30.982  27.606  47.974  1.00  0.00    +0.000 C 
ATOM     28  C18 UNL A   1      31.917  27.318  48.976  1.00  0.00    +0.000 C 
ATOM     29  C19 UNL A   1      32.957  26.405  48.773  1.00  0.00    +0.000 C 
ATOM     30  C20 UNL A   1      33.095  25.765  47.551  1.00  0.00    +0.000 C 
ATOM     31  C21 UNL A   1      32.181  26.027  46.536  1.00  0.00    +0.000 C 
ATOM     32  C22 UNL A   1      31.137  26.937  46.745  1.00  0.00    +0.000 C 
ENDBRANCH   26   27
ENDBRANCH   25   26
BRANCH   25   33
ATOM     33  N5  UNL A   1      27.753  28.740  49.101  1.00  0.00    +0.000 N 
ATOM    138  H33 UNL A   1      27.155  28.931  49.858  1.00  0.00    +0.000 H 
BRANCH   33   34
ATOM     34  C23 UNL A   1      27.105  28.241  48.003  1.00  0.00    +0.000 C 
ATOM     35  O6  UNL A   1      27.370  27.086  47.671  1.00  0.00    +0.000 O 
BRANCH   34   36
ATOM     36  C24 UNL A   1      26.168  29.030  47.158  1.00  0.00    +0.000 C 
ATOM     37  C25 UNL A   1      26.610  30.292  46.722  1.00  0.00    +0.000 C 
ATOM     38  C26 UNL A   1      25.751  31.151  46.030  1.00  0.00    +0.000 C 
ATOM     39  C27 UNL A   1      24.445  30.753  45.779  1.00  0.00    +0.000 C 
ATOM     40  F1  UNL A   1      23.613  31.580  45.135  1.00  0.00    +0.000 F 
ATOM     41  C28 UNL A   1      23.984  29.515  46.209  1.00  0.00    +0.000 C 
ATOM     42  C29 UNL A   1      24.843  28.657  46.904  1.00  0.00    +0.000 C 
ATOM    139  H34 UNL A   1      27.579  30.588  46.914  1.00  0.00    +0.000 H 
ATOM    140  H35 UNL A   1      26.085  32.074  45.710  1.00  0.00    +0.000 H 
ATOM    141  H36 UNL A   1      23.012  29.230  46.016  1.00  0.00    +0.000 H 
ATOM    142  H37 UNL A   1      24.497  27.742  47.233  1.00  0.00    +0.000 H 
ENDBRANCH   34   36
ENDBRANCH   33   34
ENDBRANCH   25   33
ENDBRANCH   23   25
ENDBRANCH   22   23
ENDBRANCH   19   22
ENDBRANCH   17   19
ENDBRANCH   16   17
ENDBRANCH   13   16
ENDBRANCH   11   13
ENDBRANCH   10   11
ENDBRANCH    9   10
ENDBRANCH    8    9
ENDBRANCH    7    8
ENDBRANCH    6    7
ENDBRANCH    5    6
ENDBRANCH    4    5
ENDBRANCH    3    4
ENDBRANCH    2    3
ENDBRANCH   43    2
ENDBRANCH   47   46
BRANCH   51   52
ATOM     52  C38 UNL A   1      22.098  36.078  46.624  1.00  0.00    +0.000 C 
ATOM     53  C39 UNL A   1      22.334  34.952  47.425  1.00  0.00    +0.000 C 
ATOM     54  F2  UNL A   1      23.025  35.069  48.569  1.00  0.00    +0.000 F 
ATOM     55  C40 UNL A   1      21.884  33.691  47.038  1.00  0.00    +0.000 C 
ATOM     56  F3  UNL A   1      22.152  32.623  47.802  1.00  0.00    +0.000 F 
ATOM     57  C41 UNL A   1      21.170  33.537  45.860  1.00  0.00    +0.000 C 
ATOM     58  F4  UNL A   1      20.732  32.325  45.493  1.00  0.00    +0.000 F 
ATOM     59  C42 UNL A   1      20.914  34.640  45.058  1.00  0.00    +0.000 C 
ATOM     60  F5  UNL A   1      20.216  34.495  43.924  1.00  0.00    +0.000 F 
ATOM     61  C43 UNL A   1      21.382  35.898  45.432  1.00  0.00    +0.000 C 
ATOM     62  F6  UNL A   1      21.126  36.944  44.631  1.00  0.00    +0.000 F 
ENDBRANCH   51   52
BRANCH   68   69
ATOM     69  C49 UNL A   1      19.414  41.777  50.131  1.00  0.00    +0.000 C 
ATOM     70  C50 UNL A   1      18.412  42.497  49.464  1.00  0.00    +0.000 C 
ATOM     71  F7  UNL A   1      18.593  42.887  48.193  1.00  0.00    +0.000 F 
ATOM     72  C51 UNL A   1      17.236  42.856  50.118  1.00  0.00    +0.000 C 
ATOM     73  F8  UNL A   1      16.311  43.582  49.477  1.00  0.00    +0.000 F 
ATOM     74  C52 UNL A   1      17.031  42.478  51.437  1.00  0.00    +0.000 C 
ATOM     75  F9  UNL A   1      15.899  42.825  52.065  1.00  0.00    +0.000 F 
ATOM     76  C53 UNL A   1      18.001  41.750  52.108  1.00  0.00    +0.000 C 
ATOM     77  F10 UNL A   1      17.800  41.378  53.380  1.00  0.00    +0.000 F 
ATOM     78  C54 UNL A   1      19.187  41.410  51.465  1.00  0.00    +0.000 C 
ATOM     79  F11 UNL A   1      20.117  40.717  52.142  1.00  0.00    +0.000 F 
ENDBRANCH   68   69
BRANCH   83   84
ATOM     84  C58 UNL A   1      25.378  45.196  49.050  1.00  0.00    +0.000 C 
ATOM     85  C59 UNL A   1      25.918  45.448  50.319  1.00  0.00    +0.000 C 
ATOM     86  F12 UNL A   1      25.952  44.473  51.238  1.00  0.00    +0.000 F 
ATOM     87  C60 UNL A   1      26.400  46.711  50.654  1.00  0.00    +0.000 C 
ATOM     88  F13 UNL A   1      26.884  46.935  51.884  1.00  0.00    +0.000 F 
ATOM     89  C61 UNL A   1      26.374  47.738  49.720  1.00  0.00    +0.000 C 
ATOM     90  F14 UNL A   1      26.849  48.949  50.041  1.00  0.00    +0.000 F 
ATOM     91  C62 UNL A   1      25.853  47.507  48.457  1.00  0.00    +0.000 C 
ATOM     92  F15 UNL A   1      25.839  48.492  47.548  1.00  0.00    +0.000 F 
ATOM     93  C63 UNL A   1      25.346  46.253  48.129  1.00  0.00    +0.000 C 
ATOM     94  F16 UNL A   1      24.845  46.057  46.900  1.00  0.00    +0.000 F 
ENDBRANCH   83   84
TORSDOF 30
ENDMDL
