MODEL 1
REMARK VINA RESULT:     -10.1      0.000      0.000
ROOT
ATOM    142  H34 UNL A   1      26.802  27.078 -12.384  1.00  0.00    +0.000 H 
ATOM    143  H35 UNL A   1      28.278  24.934 -12.241  1.00  0.00    +0.000 H 
ATOM    144  H36 UNL A   1      26.118  25.264  -8.723  1.00  0.00    +0.000 H 
ATOM    145  H37 UNL A   1      24.817  23.177  -2.843  1.00  0.00    +0.000 H 
ATOM    146  H38 UNL A   1      23.175  25.098  -3.091  1.00  0.00    +0.000 H 
ATOM    147  H39 UNL A   1      25.351  24.824  -6.622  1.00  0.00    +0.000 H 
ATOM    148  H40 UNL A   1      28.245  20.742  -6.125  1.00  0.00    +0.000 H 
ATOM    149  H41 UNL A   1      29.156  21.257  -8.462  1.00  0.00    +0.000 H 
ATOM    150  H42 UNL A   1      23.178  29.311  -9.126  1.00  0.00    +0.000 H 
ATOM    151  H43 UNL A   1      22.396  28.927  -6.718  1.00  0.00    +0.000 H 
ATOM     50  C38 UNL A   1      23.417  26.533  -5.538  1.00  0.00    +0.000 C 
ATOM     51  C39 UNL A   1      23.729  27.100  -6.897  1.00  0.00    +0.000 C 
ATOM     52  N3  UNL A   1      24.537  26.640  -7.821  1.00  0.00    +0.000 N 
ATOM     53  C40 UNL A   1      24.445  27.526  -8.887  1.00  0.00    +0.000 C 
ATOM     54  C41 UNL A   1      25.113  27.503 -10.065  1.00  0.00    +0.000 C 
ATOM     66  C48 UNL A   1      26.092  26.512 -10.426  1.00  0.00    +0.000 C 
ATOM     67  C49 UNL A   1      26.834  26.418 -11.591  1.00  0.00    +0.000 C 
ATOM     68  C50 UNL A   1      27.637  25.276 -11.508  1.00  0.00    +0.000 C 
ATOM     69  C51 UNL A   1      27.424  24.680 -10.276  1.00  0.00    +0.000 C 
ATOM     70  N4  UNL A   1      26.472  25.447  -9.623  1.00  0.00    +0.000 N 
ATOM     71  C52 UNL A   1      28.040  23.496  -9.733  1.00  0.00    +0.000 C 
ATOM     83  C59 UNL A   1      27.815  23.002  -8.492  1.00  0.00    +0.000 C 
ATOM     84  N5  UNL A   1      26.970  23.484  -7.503  1.00  0.00    +0.000 N 
ATOM     85  C60 UNL A   1      27.077  22.649  -6.500  1.00  0.00    +0.000 C 
ATOM     86  C61 UNL A   1      26.387  22.678  -5.166  1.00  0.00    +0.000 C 
ATOM     98  C68 UNL A   1      25.472  23.633  -4.919  1.00  0.00    +0.000 C 
ATOM     99  C69 UNL A   1      24.713  23.773  -3.679  1.00  0.00    +0.000 C 
ATOM    100  C70 UNL A   1      23.860  24.799  -3.803  1.00  0.00    +0.000 C 
ATOM    101  C71 UNL A   1      24.056  25.429  -5.109  1.00  0.00    +0.000 C 
ATOM    102  N6  UNL A   1      25.018  24.658  -5.710  1.00  0.00    +0.000 N 
ATOM    103  C72 UNL A   1      28.004  21.535  -6.741  1.00  0.00    +0.000 C 
ATOM    104  C73 UNL A   1      28.448  21.815  -7.959  1.00  0.00    +0.000 C 
ATOM    105  C74 UNL A   1      23.483  28.540  -8.511  1.00  0.00    +0.000 C 
ATOM    106  C75 UNL A   1      23.047  28.349  -7.274  1.00  0.00    +0.000 C 
ENDROOT
BRANCH   50   49
ATOM    107  C76 UNL A   1      21.213  26.659  -4.322  1.00  0.00    +0.000 C 
ATOM    108  C77 UNL A   1      20.267  27.396  -3.606  1.00  0.00    +0.000 C 
ATOM    140  H32 UNL A   1      22.155  30.073  -2.882  1.00  0.00    +0.000 H 
ATOM     46  C34 UNL A   1      20.590  28.680  -3.158  1.00  0.00    +0.000 C 
ATOM     47  C35 UNL A   1      21.880  29.186  -3.332  1.00  0.00    +0.000 C 
ATOM     48  C36 UNL A   1      22.791  28.485  -4.113  1.00  0.00    +0.000 C 
ATOM    141  H33 UNL A   1      23.716  28.895  -4.312  1.00  0.00    +0.000 H 
ATOM     49  C37 UNL A   1      22.461  27.222  -4.634  1.00  0.00    +0.000 C 
ATOM    152  H44 UNL A   1      20.995  25.695  -4.622  1.00  0.00    +0.000 H 
ATOM    153  H45 UNL A   1      19.337  26.997  -3.409  1.00  0.00    +0.000 H 
BRANCH   46   44
ATOM     44  C33 UNL A   1      19.526  29.530  -2.586  1.00  0.00    +0.000 C 
ATOM     45  O10 UNL A   1      18.375  29.115  -2.513  1.00  0.00    +0.000 O 
BRANCH   44   43
ATOM     43  N2  UNL A   1      19.842  30.808  -2.185  1.00  0.00    +0.000 N 
ATOM    139  H31 UNL A   1      20.031  31.449  -2.907  1.00  0.00    +0.000 H 
BRANCH   43   42
ATOM    137  H29 UNL A   1      20.841  31.898  -0.745  1.00  0.00    +0.000 H 
ATOM     42  C32 UNL A   1      19.936  31.334  -0.831  1.00  0.00    +0.000 C 
ATOM    138  H30 UNL A   1      19.070  31.941  -0.662  1.00  0.00    +0.000 H 
BRANCH   42   41
ATOM     41  C31 UNL A   1      19.942  30.242   0.228  1.00  0.00    +0.000 C 
ATOM    135  H27 UNL A   1      19.185  30.471   0.947  1.00  0.00    +0.000 H 
ATOM    136  H28 UNL A   1      19.769  29.320  -0.288  1.00  0.00    +0.000 H 
BRANCH   41   40
ATOM    133  H25 UNL A   1      21.361  30.886   1.665  1.00  0.00    +0.000 H 
ATOM    134  H26 UNL A   1      21.230  29.115   1.435  1.00  0.00    +0.000 H 
ATOM     40  C30 UNL A   1      21.267  30.078   0.969  1.00  0.00    +0.000 C 
BRANCH   40   39
ATOM    131  H23 UNL A   1      22.221  29.764  -0.901  1.00  0.00    +0.000 H 
ATOM    132  H24 UNL A   1      22.909  31.066   0.119  1.00  0.00    +0.000 H 
ATOM     39  C29 UNL A   1      22.515  30.072   0.081  1.00  0.00    +0.000 C 
BRANCH   39   38
ATOM    129  H21 UNL A   1      24.526  29.745   0.695  1.00  0.00    +0.000 H 
ATOM    130  H22 UNL A   1      23.313  28.676   1.443  1.00  0.00    +0.000 H 
ATOM     38  C28 UNL A   1      23.650  29.149   0.545  1.00  0.00    +0.000 C 
BRANCH   38   37
ATOM     37  C27 UNL A   1      23.991  28.032  -0.440  1.00  0.00    +0.000 C 
ATOM    127  H19 UNL A   1      24.233  28.466  -1.388  1.00  0.00    +0.000 H 
ATOM    128  H20 UNL A   1      24.823  27.482  -0.053  1.00  0.00    +0.000 H 
BRANCH   37   36
ATOM     36  N1  UNL A   1      22.879  27.122  -0.608  1.00  0.00    +0.000 N 
ATOM    126  H18 UNL A   1      22.499  26.973  -1.503  1.00  0.00    +0.000 H 
BRANCH   36    2
ATOM      1  O1  UNL A   1      23.025  25.972   1.367  1.00  0.00    +0.000 O 
ATOM      2  C1  UNL A   1      22.358  26.470   0.467  1.00  0.00    +0.000 C 
BRANCH    2    3
ATOM      3  C2  UNL A   1      20.884  26.390   0.542  1.00  0.00    +0.000 C 
ATOM    109  H1  UNL A   1      20.379  26.959  -0.156  1.00  0.00    +0.000 H 
BRANCH    3    4
ATOM      4  C3  UNL A   1      20.097  25.688   1.386  1.00  0.00    +0.000 C 
ATOM    110  H2  UNL A   1      19.764  26.135   2.254  1.00  0.00    +0.000 H 
BRANCH    4    5
ATOM      5  C4  UNL A   1      19.678  24.220   1.083  1.00  0.00    +0.000 C 
ATOM      6  C5  UNL A   1      19.460  24.182  -0.405  1.00  0.00    +0.000 C 
ATOM      7  C6  UNL A   1      20.317  23.597  -1.254  1.00  0.00    +0.000 C 
ATOM      9  C7  UNL A   1      21.508  22.835  -0.752  1.00  0.00    +0.000 C 
ATOM     10  O3  UNL A   1      22.283  22.327  -1.554  1.00  0.00    +0.000 O 
ATOM     11  C8  UNL A   1      21.662  22.660   0.712  1.00  0.00    +0.000 C 
ATOM     12  C9  UNL A   1      20.799  23.297   1.509  1.00  0.00    +0.000 C 
ATOM     13  C10 UNL A   1      20.686  23.123   2.979  1.00  0.00    +0.000 C 
ATOM     14  O4  UNL A   1      21.548  22.759   3.738  1.00  0.00    +0.000 O 
ATOM     15  C11 UNL A   1      19.257  23.405   3.289  1.00  0.00    +0.000 C 
ATOM     16  C12 UNL A   1      18.689  23.234   4.486  1.00  0.00    +0.000 C 
ATOM     17  C13 UNL A   1      17.226  23.126   4.555  1.00  0.00    +0.000 C 
ATOM     18  C14 UNL A   1      16.525  23.760   5.592  1.00  0.00    +0.000 C 
ATOM     19  C15 UNL A   1      15.153  23.547   5.718  1.00  0.00    +0.000 C 
ATOM     21  C16 UNL A   1      14.486  22.684   4.853  1.00  0.00    +0.000 C 
ATOM     23  C17 UNL A   1      15.164  22.046   3.830  1.00  0.00    +0.000 C 
ATOM     24  C18 UNL A   1      16.524  22.300   3.647  1.00  0.00    +0.000 C 
ATOM     25  O7  UNL A   1      17.116  21.595   2.633  1.00  0.00    +0.000 O 
ATOM     26  C19 UNL A   1      17.865  22.292   1.601  1.00  0.00    +0.000 C 
ATOM     35  C26 UNL A   1      18.516  23.668   1.991  1.00  0.00    +0.000 C 
ATOM    111  H3  UNL A   1      18.614  24.628  -0.791  1.00  0.00    +0.000 H 
ATOM    113  H5  UNL A   1      22.411  22.068   1.102  1.00  0.00    +0.000 H 
ATOM    114  H6  UNL A   1      19.265  23.179   5.341  1.00  0.00    +0.000 H 
ATOM    115  H7  UNL A   1      17.019  24.377   6.253  1.00  0.00    +0.000 H 
ATOM    118  H10 UNL A   1      14.669  21.387   3.208  1.00  0.00    +0.000 H 
ATOM    119  H11 UNL A   1      18.756  21.727   1.421  1.00  0.00    +0.000 H 
ATOM    125  H17 UNL A   1      17.706  24.366   1.961  1.00  0.00    +0.000 H 
BRANCH    7    8
ATOM    112  H4  UNL A   1      20.851  23.686  -3.199  1.00  0.00    +0.000 H 
ATOM      8  O2  UNL A   1      20.116  23.664  -2.617  1.00  0.00    +0.000 O 
ENDBRANCH    7    8
BRANCH   19   20
ATOM    116  H8  UNL A   1      13.812  24.837   6.474  1.00  0.00    +0.000 H 
ATOM     20  O5  UNL A   1      14.411  24.150   6.696  1.00  0.00    +0.000 O 
ENDBRANCH   19   20
BRANCH   21   22
ATOM    117  H9  UNL A   1      12.858  21.686   5.463  1.00  0.00    +0.000 H 
ATOM     22  O6  UNL A   1      13.150  22.451   5.008  1.00  0.00    +0.000 O 
ENDBRANCH   21   22
BRANCH   26   27
ATOM     34  C25 UNL A   1      16.040  23.330   0.140  1.00  0.00    +0.000 C 
ATOM     28  C21 UNL A   1      17.181  21.360  -0.653  1.00  0.00    +0.000 C 
ATOM    120  H12 UNL A   1      17.802  20.556  -0.474  1.00  0.00    +0.000 H 
ATOM    121  H13 UNL A   1      16.725  20.784  -2.634  1.00  0.00    +0.000 H 
ATOM     27  C20 UNL A   1      17.002  22.332   0.348  1.00  0.00    +0.000 C 
ATOM    124  H16 UNL A   1      15.853  24.027   0.878  1.00  0.00    +0.000 H 
ATOM     29  C22 UNL A   1      16.531  21.465  -1.884  1.00  0.00    +0.000 C 
ATOM     30  C23 UNL A   1      15.622  22.495  -2.090  1.00  0.00    +0.000 C 
ATOM     32  C24 UNL A   1      15.334  23.385  -1.061  1.00  0.00    +0.000 C 
BRANCH   30   31
ATOM    122  H14 UNL A   1      14.491  21.931  -3.647  1.00  0.00    +0.000 H 
ATOM     31  O8  UNL A   1      15.004  22.634  -3.299  1.00  0.00    +0.000 O 
ENDBRANCH   30   31
BRANCH   32   33
ATOM     33  O9  UNL A   1      14.369  24.336  -1.235  1.00  0.00    +0.000 O 
ATOM    123  H15 UNL A   1      14.431  25.153  -0.781  1.00  0.00    +0.000 H 
ENDBRANCH   32   33
ENDBRANCH   26   27
ENDBRANCH    4    5
ENDBRANCH    3    4
ENDBRANCH    2    3
ENDBRANCH   36    2
ENDBRANCH   37   36
ENDBRANCH   38   37
ENDBRANCH   39   38
ENDBRANCH   40   39
ENDBRANCH   41   40
ENDBRANCH   42   41
ENDBRANCH   43   42
ENDBRANCH   44   43
ENDBRANCH   46   44
ENDBRANCH   50   49
BRANCH   54   55
ATOM     65  F5  UNL A   1      23.425  27.108 -12.318  1.00  0.00    +0.000 F 
ATOM     55  C42 UNL A   1      24.810  28.582 -11.063  1.00  0.00    +0.000 C 
ATOM     56  C43 UNL A   1      25.384  29.857 -10.962  1.00  0.00    +0.000 C 
ATOM     57  F1  UNL A   1      26.161  30.167  -9.915  1.00  0.00    +0.000 F 
ATOM     58  C44 UNL A   1      25.141  30.830 -11.930  1.00  0.00    +0.000 C 
ATOM     59  F2  UNL A   1      25.675  32.052 -11.798  1.00  0.00    +0.000 F 
ATOM     60  C45 UNL A   1      24.342  30.538 -13.026  1.00  0.00    +0.000 C 
ATOM     61  F3  UNL A   1      24.121  31.472 -13.962  1.00  0.00    +0.000 F 
ATOM     62  C46 UNL A   1      23.772  29.281 -13.150  1.00  0.00    +0.000 C 
ATOM     63  F4  UNL A   1      23.008  28.994 -14.214  1.00  0.00    +0.000 F 
ATOM     64  C47 UNL A   1      23.993  28.314 -12.172  1.00  0.00    +0.000 C 
ENDBRANCH   54   55
BRANCH   71   72
ATOM     72  C53 UNL A   1      29.009  22.755 -10.604  1.00  0.00    +0.000 C 
ATOM     73  C54 UNL A   1      30.386  23.010 -10.540  1.00  0.00    +0.000 C 
ATOM     74  F6  UNL A   1      30.856  23.980  -9.740  1.00  0.00    +0.000 F 
ATOM     75  C55 UNL A   1      31.284  22.289 -11.322  1.00  0.00    +0.000 C 
ATOM     76  F7  UNL A   1      32.591  22.573 -11.272  1.00  0.00    +0.000 F 
ATOM     77  C56 UNL A   1      30.824  21.282 -12.159  1.00  0.00    +0.000 C 
ATOM     78  F8  UNL A   1      31.691  20.581 -12.904  1.00  0.00    +0.000 F 
ATOM     79  C57 UNL A   1      29.467  21.005 -12.228  1.00  0.00    +0.000 C 
ATOM     80  F9  UNL A   1      29.024  20.026 -13.027  1.00  0.00    +0.000 F 
ATOM     81  C58 UNL A   1      28.565  21.742 -11.466  1.00  0.00    +0.000 C 
ATOM     82  F10 UNL A   1      27.258  21.456 -11.556  1.00  0.00    +0.000 F 
ENDBRANCH   71   72
BRANCH   86   87
ATOM     97  F15 UNL A   1      24.705  20.455  -4.588  1.00  0.00    +0.000 F 
ATOM     87  C62 UNL A   1      26.694  21.669  -4.121  1.00  0.00    +0.000 C 
ATOM     88  C63 UNL A   1      27.852  21.774  -3.339  1.00  0.00    +0.000 C 
ATOM     89  F11 UNL A   1      28.722  22.771  -3.562  1.00  0.00    +0.000 F 
ATOM     90  C64 UNL A   1      28.130  20.844  -2.341  1.00  0.00    +0.000 C 
ATOM     91  F12 UNL A   1      29.259  20.950  -1.625  1.00  0.00    +0.000 F 
ATOM     92  C65 UNL A   1      27.246  19.805  -2.092  1.00  0.00    +0.000 C 
ATOM     93  F13 UNL A   1      27.509  18.917  -1.122  1.00  0.00    +0.000 F 
ATOM     94  C66 UNL A   1      26.092  19.683  -2.851  1.00  0.00    +0.000 C 
ATOM     95  F14 UNL A   1      25.228  18.689  -2.604  1.00  0.00    +0.000 F 
ATOM     96  C67 UNL A   1      25.826  20.598  -3.865  1.00  0.00    +0.000 C 
ENDBRANCH   86   87
TORSDOF 23
ENDMDL
MODEL 2
REMARK VINA RESULT:     -10.0     24.188     30.871
ROOT
ATOM    142  H34 UNL A   1      13.255  46.439   2.924  1.00  0.00    +0.000 H 
ATOM    143  H35 UNL A   1      14.880  46.662   0.898  1.00  0.00    +0.000 H 
ATOM    144  H36 UNL A   1      14.777  50.291   2.889  1.00  0.00    +0.000 H 
ATOM    145  H37 UNL A   1      16.488  56.420   3.260  1.00  0.00    +0.000 H 
ATOM    146  H38 UNL A   1      15.133  56.127   5.387  1.00  0.00    +0.000 H 
ATOM    147  H39 UNL A   1      15.180  52.477   3.398  1.00  0.00    +0.000 H 
ATOM    148  H40 UNL A   1      18.226  53.118  -0.551  1.00  0.00    +0.000 H 
ATOM    149  H41 UNL A   1      17.739  50.680  -1.165  1.00  0.00    +0.000 H 
ATOM    150  H42 UNL A   1      11.765  49.751   6.867  1.00  0.00    +0.000 H 
ATOM    151  H43 UNL A   1      12.085  52.237   7.390  1.00  0.00    +0.000 H 
ATOM     50  C38 UNL A   1      13.962  53.547   5.680  1.00  0.00    +0.000 C 
ATOM     51  C39 UNL A   1      13.482  52.122   5.607  1.00  0.00    +0.000 C 
ATOM     52  N3  UNL A   1      13.800  51.185   4.748  1.00  0.00    +0.000 N 
ATOM     53  C40 UNL A   1      13.095  50.053   5.138  1.00  0.00    +0.000 C 
ATOM     54  C41 UNL A   1      13.061  48.833   4.549  1.00  0.00    +0.000 C 
ATOM     66  C48 UNL A   1      13.777  48.489   3.349  1.00  0.00    +0.000 C 
ATOM     67  C49 UNL A   1      13.790  47.284   2.668  1.00  0.00    +0.000 C 
ATOM     68  C50 UNL A   1      14.650  47.408   1.573  1.00  0.00    +0.000 C 
ATOM     69  C51 UNL A   1      15.143  48.702   1.549  1.00  0.00    +0.000 C 
ATOM     70  N4  UNL A   1      14.602  49.354   2.646  1.00  0.00    +0.000 N 
ATOM     71  C52 UNL A   1      16.046  49.300   0.599  1.00  0.00    +0.000 C 
ATOM     83  C59 UNL A   1      16.444  50.596   0.614  1.00  0.00    +0.000 C 
ATOM     84  N5  UNL A   1      16.109  51.599   1.512  1.00  0.00    +0.000 N 
ATOM     85  C60 UNL A   1      16.768  52.662   1.125  1.00  0.00    +0.000 C 
ATOM     86  C61 UNL A   1      16.785  54.038   1.728  1.00  0.00    +0.000 C 
ATOM     98  C68 UNL A   1      16.098  54.267   2.862  1.00  0.00    +0.000 C 
ATOM     99  C69 UNL A   1      16.039  55.544   3.569  1.00  0.00    +0.000 C 
ATOM    100  C70 UNL A   1      15.307  55.394   4.682  1.00  0.00    +0.000 C 
ATOM    101  C71 UNL A   1      14.793  54.024   4.735  1.00  0.00    +0.000 C 
ATOM    102  N6  UNL A   1      15.330  53.423   3.625  1.00  0.00    +0.000 N 
ATOM    103  C72 UNL A   1      17.603  52.453  -0.066  1.00  0.00    +0.000 C 
ATOM    104  C73 UNL A   1      17.346  51.184  -0.354  1.00  0.00    +0.000 C 
ATOM    105  C74 UNL A   1      12.351  50.408   6.327  1.00  0.00    +0.000 C 
ATOM    106  C75 UNL A   1      12.518  51.687   6.631  1.00  0.00    +0.000 C 
ENDROOT
BRANCH   50   49
ATOM    107  C76 UNL A   1      14.051  54.469   8.023  1.00  0.00    +0.000 C 
ATOM    108  C77 UNL A   1      13.468  55.209   9.056  1.00  0.00    +0.000 C 
ATOM    140  H32 UNL A   1      11.083  56.761   7.279  1.00  0.00    +0.000 H 
ATOM     46  C34 UNL A   1      12.330  55.976   8.794  1.00  0.00    +0.000 C 
ATOM     47  C35 UNL A   1      11.836  56.089   7.493  1.00  0.00    +0.000 C 
ATOM     48  C36 UNL A   1      12.367  55.290   6.487  1.00  0.00    +0.000 C 
ATOM    141  H33 UNL A   1      11.951  55.310   5.544  1.00  0.00    +0.000 H 
ATOM     49  C37 UNL A   1      13.468  54.456   6.746  1.00  0.00    +0.000 C 
ATOM    152  H44 UNL A   1      14.914  53.930   8.200  1.00  0.00    +0.000 H 
ATOM    153  H45 UNL A   1      13.874  55.188  10.003  1.00  0.00    +0.000 H 
BRANCH   46   44
ATOM     44  C33 UNL A   1      11.601  56.588   9.924  1.00  0.00    +0.000 C 
ATOM     45  O10 UNL A   1      11.249  57.761   9.870  1.00  0.00    +0.000 O 
BRANCH   44   43
ATOM     43  N2  UNL A   1      11.370  55.833  11.051  1.00  0.00    +0.000 N 
ATOM    139  H31 UNL A   1      12.148  55.684  11.634  1.00  0.00    +0.000 H 
BRANCH   43   42
ATOM    137  H29 UNL A   1      10.168  55.084  12.552  1.00  0.00    +0.000 H 
ATOM     42  C32 UNL A   1      10.123  55.224  11.492  1.00  0.00    +0.000 C 
ATOM    138  H30 UNL A   1       9.327  55.881  11.209  1.00  0.00    +0.000 H 
BRANCH   42   41
ATOM     41  C31 UNL A   1       9.859  53.877  10.835  1.00  0.00    +0.000 C 
ATOM    135  H27 UNL A   1       9.776  54.032   9.781  1.00  0.00    +0.000 H 
ATOM    136  H28 UNL A   1      10.678  53.243  11.106  1.00  0.00    +0.000 H 
BRANCH   41   40
ATOM    133  H25 UNL A   1       7.915  53.914  11.680  1.00  0.00    +0.000 H 
ATOM    134  H26 UNL A   1       8.217  52.629  10.469  1.00  0.00    +0.000 H 
ATOM     40  C30 UNL A   1       8.592  53.170  11.313  1.00  0.00    +0.000 C 
BRANCH   40   39
ATOM    131  H23 UNL A   1       9.844  52.119  12.667  1.00  0.00    +0.000 H 
ATOM    132  H24 UNL A   1       8.175  52.440  13.234  1.00  0.00    +0.000 H 
ATOM     39  C29 UNL A   1       8.802  52.134  12.422  1.00  0.00    +0.000 C 
BRANCH   39   38
ATOM    129  H21 UNL A   1       9.260  50.115  11.932  1.00  0.00    +0.000 H 
ATOM    130  H22 UNL A   1       7.775  50.354  12.888  1.00  0.00    +0.000 H 
ATOM     38  C28 UNL A   1       8.377  50.702  12.075  1.00  0.00    +0.000 C 
BRANCH   38   37
ATOM     37  C27 UNL A   1       7.518  50.593  10.815  1.00  0.00    +0.000 C 
ATOM    127  H19 UNL A   1       6.863  49.752  10.912  1.00  0.00    +0.000 H 
ATOM    128  H20 UNL A   1       6.958  51.498  10.708  1.00  0.00    +0.000 H 
BRANCH   37   36
ATOM     36  N1  UNL A   1       8.337  50.420   9.635  1.00  0.00    +0.000 N 
ATOM    126  H18 UNL A   1       8.252  51.049   8.883  1.00  0.00    +0.000 H 
BRANCH   36    2
ATOM      1  O1  UNL A   1       8.927  48.207   9.658  1.00  0.00    +0.000 O 
ATOM      2  C1  UNL A   1       9.226  49.392   9.561  1.00  0.00    +0.000 C 
BRANCH    2    3
ATOM      3  C2  UNL A   1      10.639  49.755   9.323  1.00  0.00    +0.000 C 
ATOM    109  H1  UNL A   1      11.063  49.333   8.482  1.00  0.00    +0.000 H 
BRANCH    3    4
ATOM      4  C3  UNL A   1      11.460  50.555  10.039  1.00  0.00    +0.000 C 
ATOM    110  H2  UNL A   1      11.501  51.562   9.817  1.00  0.00    +0.000 H 
BRANCH    4    5
ATOM      5  C4  UNL A   1      12.345  49.998  11.190  1.00  0.00    +0.000 C 
ATOM      6  C5  UNL A   1      12.166  48.505  11.125  1.00  0.00    +0.000 C 
ATOM      7  C6  UNL A   1      13.110  47.677  10.656  1.00  0.00    +0.000 C 
ATOM      9  C7  UNL A   1      14.466  48.186  10.266  1.00  0.00    +0.000 C 
ATOM     10  O3  UNL A   1      15.301  47.405   9.823  1.00  0.00    +0.000 O 
ATOM     11  C8  UNL A   1      14.772  49.616  10.504  1.00  0.00    +0.000 C 
ATOM     12  C9  UNL A   1      13.782  50.401  10.938  1.00  0.00    +0.000 C 
ATOM     13  C10 UNL A   1      13.924  51.810  11.387  1.00  0.00    +0.000 C 
ATOM     14  O4  UNL A   1      14.778  52.595  11.061  1.00  0.00    +0.000 O 
ATOM     15  C11 UNL A   1      12.841  52.003  12.391  1.00  0.00    +0.000 C 
ATOM     16  C12 UNL A   1      12.689  53.094  13.145  1.00  0.00    +0.000 C 
ATOM     17  C13 UNL A   1      11.881  52.989  14.368  1.00  0.00    +0.000 C 
ATOM     18  C14 UNL A   1      11.004  54.027  14.719  1.00  0.00    +0.000 C 
ATOM     19  C15 UNL A   1      10.337  53.974  15.942  1.00  0.00    +0.000 C 
ATOM     21  C16 UNL A   1      10.565  52.926  16.829  1.00  0.00    +0.000 C 
ATOM     23  C17 UNL A   1      11.432  51.898  16.502  1.00  0.00    +0.000 C 
ATOM     24  C18 UNL A   1      12.056  51.901  15.253  1.00  0.00    +0.000 C 
ATOM     25  O7  UNL A   1      12.924  50.864  15.034  1.00  0.00    +0.000 O 
ATOM     26  C19 UNL A   1      12.781  50.031  13.852  1.00  0.00    +0.000 C 
ATOM     35  C26 UNL A   1      12.115  50.686  12.588  1.00  0.00    +0.000 C 
ATOM    111  H3  UNL A   1      11.276  48.100  11.454  1.00  0.00    +0.000 H 
ATOM    113  H5  UNL A   1      15.718  49.993  10.340  1.00  0.00    +0.000 H 
ATOM    114  H6  UNL A   1      13.128  53.988  12.877  1.00  0.00    +0.000 H 
ATOM    115  H7  UNL A   1      10.854  54.821  14.078  1.00  0.00    +0.000 H 
ATOM    118  H10 UNL A   1      11.617  51.137  17.174  1.00  0.00    +0.000 H 
ATOM    119  H11 UNL A   1      13.763  49.867  13.461  1.00  0.00    +0.000 H 
ATOM    125  H17 UNL A   1      11.066  50.671  12.800  1.00  0.00    +0.000 H 
BRANCH    7    8
ATOM    112  H4  UNL A   1      13.114  45.740  11.225  1.00  0.00    +0.000 H 
ATOM      8  O2  UNL A   1      12.864  46.324  10.536  1.00  0.00    +0.000 O 
ENDBRANCH    7    8
BRANCH   19   20
ATOM    116  H8  UNL A   1       9.655  55.847  16.181  1.00  0.00    +0.000 H 
ATOM     20  O5  UNL A   1       9.456  54.944  16.333  1.00  0.00    +0.000 O 
ENDBRANCH   19   20
BRANCH   21   22
ATOM    117  H9  UNL A   1       9.032  53.132  18.105  1.00  0.00    +0.000 H 
ATOM     22  O6  UNL A   1       9.938  52.900  18.041  1.00  0.00    +0.000 O 
ENDBRANCH   21   22
BRANCH   26   27
ATOM     34  C25 UNL A   1      12.932  47.636  14.737  1.00  0.00    +0.000 C 
ATOM     28  C21 UNL A   1      10.758  48.563  14.262  1.00  0.00    +0.000 C 
ATOM    120  H12 UNL A   1      10.176  49.298  13.832  1.00  0.00    +0.000 H 
ATOM    121  H13 UNL A   1       9.115  47.370  14.851  1.00  0.00    +0.000 H 
ATOM     27  C20 UNL A   1      12.157  48.713  14.285  1.00  0.00    +0.000 C 
ATOM    124  H16 UNL A   1      13.962  47.700  14.719  1.00  0.00    +0.000 H 
ATOM     29  C22 UNL A   1      10.145  47.435  14.811  1.00  0.00    +0.000 C 
ATOM     30  C23 UNL A   1      10.931  46.402  15.305  1.00  0.00    +0.000 C 
ATOM     32  C24 UNL A   1      12.317  46.478  15.210  1.00  0.00    +0.000 C 
BRANCH   30   31
ATOM    122  H14 UNL A   1      10.319  45.227  16.810  1.00  0.00    +0.000 H 
ATOM     31  O8  UNL A   1      10.349  45.309  15.877  1.00  0.00    +0.000 O 
ENDBRANCH   30   31
BRANCH   32   33
ATOM     33  O9  UNL A   1      13.083  45.419  15.608  1.00  0.00    +0.000 O 
ATOM    123  H15 UNL A   1      12.740  44.795  16.216  1.00  0.00    +0.000 H 
ENDBRANCH   32   33
ENDBRANCH   26   27
ENDBRANCH    4    5
ENDBRANCH    3    4
ENDBRANCH    2    3
ENDBRANCH   36    2
ENDBRANCH   37   36
ENDBRANCH   38   37
ENDBRANCH   39   38
ENDBRANCH   40   39
ENDBRANCH   41   40
ENDBRANCH   42   41
ENDBRANCH   43   42
ENDBRANCH   44   43
ENDBRANCH   46   44
ENDBRANCH   50   49
BRANCH   54   55
ATOM     65  F5  UNL A   1      10.350  48.350   3.844  1.00  0.00    +0.000 F 
ATOM     55  C42 UNL A   1      12.223  47.768   5.192  1.00  0.00    +0.000 C 
ATOM     56  C43 UNL A   1      12.725  46.962   6.224  1.00  0.00    +0.000 C 
ATOM     57  F1  UNL A   1      14.006  47.074   6.606  1.00  0.00    +0.000 F 
ATOM     58  C44 UNL A   1      11.916  46.018   6.853  1.00  0.00    +0.000 C 
ATOM     59  F2  UNL A   1      12.425  45.237   7.815  1.00  0.00    +0.000 F 
ATOM     60  C45 UNL A   1      10.587  45.880   6.480  1.00  0.00    +0.000 C 
ATOM     61  F3  UNL A   1       9.808  44.980   7.097  1.00  0.00    +0.000 F 
ATOM     62  C46 UNL A   1      10.067  46.672   5.469  1.00  0.00    +0.000 C 
ATOM     63  F4  UNL A   1       8.781  46.548   5.115  1.00  0.00    +0.000 F 
ATOM     64  C47 UNL A   1      10.880  47.601   4.821  1.00  0.00    +0.000 C 
ENDBRANCH   54   55
BRANCH   71   72
ATOM     72  C53 UNL A   1      16.582  48.429  -0.497  1.00  0.00    +0.000 C 
ATOM     73  C54 UNL A   1      17.867  47.873  -0.421  1.00  0.00    +0.000 C 
ATOM     74  F6  UNL A   1      18.671  48.171   0.612  1.00  0.00    +0.000 F 
ATOM     75  C55 UNL A   1      18.342  47.032  -1.423  1.00  0.00    +0.000 C 
ATOM     76  F7  UNL A   1      19.585  46.540  -1.349  1.00  0.00    +0.000 F 
ATOM     77  C56 UNL A   1      17.532  46.710  -2.503  1.00  0.00    +0.000 C 
ATOM     78  F8  UNL A   1      17.987  45.891  -3.461  1.00  0.00    +0.000 F 
ATOM     79  C57 UNL A   1      16.254  47.239  -2.590  1.00  0.00    +0.000 C 
ATOM     80  F9  UNL A   1      15.467  46.919  -3.627  1.00  0.00    +0.000 F 
ATOM     81  C58 UNL A   1      15.785  48.101  -1.603  1.00  0.00    +0.000 C 
ATOM     82  F10 UNL A   1      14.546  48.601  -1.716  1.00  0.00    +0.000 F 
ENDBRANCH   71   72
BRANCH   86   87
ATOM     97  F15 UNL A   1      15.860  55.493  -0.536  1.00  0.00    +0.000 F 
ATOM     87  C62 UNL A   1      17.550  55.143   1.099  1.00  0.00    +0.000 C 
ATOM     88  C63 UNL A   1      18.804  55.523   1.595  1.00  0.00    +0.000 C 
ATOM     89  F11 UNL A   1      19.306  54.915   2.681  1.00  0.00    +0.000 F 
ATOM     90  C64 UNL A   1      19.536  56.543   0.991  1.00  0.00    +0.000 C 
ATOM     91  F12 UNL A   1      20.720  56.907   1.501  1.00  0.00    +0.000 F 
ATOM     92  C65 UNL A   1      19.037  57.186  -0.132  1.00  0.00    +0.000 C 
ATOM     93  F13 UNL A   1      19.748  58.158  -0.721  1.00  0.00    +0.000 F 
ATOM     94  C66 UNL A   1      17.800  56.823  -0.643  1.00  0.00    +0.000 C 
ATOM     95  F14 UNL A   1      17.321  57.433  -1.737  1.00  0.00    +0.000 F 
ATOM     96  C67 UNL A   1      17.057  55.822  -0.024  1.00  0.00    +0.000 C 
ENDBRANCH   86   87
TORSDOF 23
ENDMDL
MODEL 3
REMARK VINA RESULT:      -9.9     24.149     31.089
ROOT
ATOM    142  H34 UNL A   1      17.948  50.788  -2.360  1.00  0.00    +0.000 H 
ATOM    143  H35 UNL A   1      18.411  53.352  -2.257  1.00  0.00    +0.000 H 
ATOM    144  H36 UNL A   1      16.368  52.259   1.175  1.00  0.00    +0.000 H 
ATOM    145  H37 UNL A   1      13.472  53.886   6.615  1.00  0.00    +0.000 H 
ATOM    146  H38 UNL A   1      13.269  51.355   6.652  1.00  0.00    +0.000 H 
ATOM    147  H39 UNL A   1      15.287  52.416   3.176  1.00  0.00    +0.000 H 
ATOM    148  H40 UNL A   1      15.963  57.391   3.459  1.00  0.00    +0.000 H 
ATOM    149  H41 UNL A   1      17.132  57.236   1.186  1.00  0.00    +0.000 H 
ATOM    150  H42 UNL A   1      15.655  47.294   0.996  1.00  0.00    +0.000 H 
ATOM    151  H43 UNL A   1      14.315  47.453   3.172  1.00  0.00    +0.000 H 
ATOM     50  C38 UNL A   1      14.290  50.067   4.327  1.00  0.00    +0.000 C 
ATOM     51  C39 UNL A   1      14.910  49.637   3.024  1.00  0.00    +0.000 C 
ATOM     52  N3  UNL A   1      15.552  50.356   2.136  1.00  0.00    +0.000 N 
ATOM     53  C40 UNL A   1      15.934  49.474   1.132  1.00  0.00    +0.000 C 
ATOM     54  C41 UNL A   1      16.592  49.740  -0.021  1.00  0.00    +0.000 C 
ATOM     66  C48 UNL A   1      17.020  51.052  -0.430  1.00  0.00    +0.000 C 
ATOM     67  C49 UNL A   1      17.678  51.421  -1.591  1.00  0.00    +0.000 C 
ATOM     68  C50 UNL A   1      17.913  52.799  -1.542  1.00  0.00    +0.000 C 
ATOM     69  C51 UNL A   1      17.367  53.294  -0.370  1.00  0.00    +0.000 C 
ATOM     70  N4  UNL A   1      16.825  52.211   0.305  1.00  0.00    +0.000 N 
ATOM     71  C52 UNL A   1      17.344  54.654   0.105  1.00  0.00    +0.000 C 
ATOM     83  C59 UNL A   1      16.742  55.070   1.245  1.00  0.00    +0.000 C 
ATOM     84  N5  UNL A   1      16.053  54.321   2.188  1.00  0.00    +0.000 N 
ATOM     85  C60 UNL A   1      15.687  55.166   3.120  1.00  0.00    +0.000 C 
ATOM     86  C61 UNL A   1      14.914  54.908   4.382  1.00  0.00    +0.000 C 
ATOM     98  C68 UNL A   1      14.568  53.645   4.695  1.00  0.00    +0.000 C 
ATOM     99  C69 UNL A   1      13.835  53.245   5.893  1.00  0.00    +0.000 C 
ATOM    100  C70 UNL A   1      13.711  51.909   5.903  1.00  0.00    +0.000 C 
ATOM    101  C71 UNL A   1      14.302  51.366   4.679  1.00  0.00    +0.000 C 
ATOM    102  N6  UNL A   1      14.804  52.467   4.033  1.00  0.00    +0.000 N 
ATOM    103  C72 UNL A   1      16.107  56.552   2.874  1.00  0.00    +0.000 C 
ATOM    104  C73 UNL A   1      16.721  56.443   1.704  1.00  0.00    +0.000 C 
ATOM    105  C74 UNL A   1      15.476  48.160   1.529  1.00  0.00    +0.000 C 
ATOM    106  C75 UNL A   1      14.797  48.214   2.667  1.00  0.00    +0.000 C 
ENDROOT
BRANCH   50   49
ATOM    107  C76 UNL A   1      14.283  48.392   6.210  1.00  0.00    +0.000 C 
ATOM    108  C77 UNL A   1      13.656  47.353   6.902  1.00  0.00    +0.000 C 
ATOM    140  H32 UNL A   1      10.577  47.668   5.607  1.00  0.00    +0.000 H 
ATOM     46  C34 UNL A   1      12.326  47.038   6.613  1.00  0.00    +0.000 C 
ATOM     47  C35 UNL A   1      11.593  47.817   5.716  1.00  0.00    +0.000 C 
ATOM     48  C36 UNL A   1      12.240  48.795   4.971  1.00  0.00    +0.000 C 
ATOM    141  H33 UNL A   1      11.720  49.316   4.248  1.00  0.00    +0.000 H 
ATOM     49  C37 UNL A   1      13.598  49.080   5.195  1.00  0.00    +0.000 C 
ATOM    152  H44 UNL A   1      15.253  48.655   6.445  1.00  0.00    +0.000 H 
ATOM    153  H45 UNL A   1      14.171  46.823   7.621  1.00  0.00    +0.000 H 
BRANCH   46   44
ATOM     44  C33 UNL A   1      11.734  45.815   7.195  1.00  0.00    +0.000 C 
ATOM     45  O10 UNL A   1      11.837  44.742   6.612  1.00  0.00    +0.000 O 
BRANCH   44   43
ATOM     43  N2  UNL A   1      11.028  45.915   8.372  1.00  0.00    +0.000 N 
ATOM    139  H31 UNL A   1      11.510  45.638   9.185  1.00  0.00    +0.000 H 
BRANCH   43   42
ATOM    137  H29 UNL A   1       9.369  46.150   9.576  1.00  0.00    +0.000 H 
ATOM     42  C32 UNL A   1       9.662  46.375   8.571  1.00  0.00    +0.000 C 
ATOM    138  H30 UNL A   1       9.646  47.428   8.378  1.00  0.00    +0.000 H 
BRANCH   42   41
ATOM     41  C31 UNL A   1       8.673  45.721   7.618  1.00  0.00    +0.000 C 
ATOM    135  H27 UNL A   1       9.220  45.081   6.959  1.00  0.00    +0.000 H 
ATOM    136  H28 UNL A   1       7.969  45.195   8.229  1.00  0.00    +0.000 H 
BRANCH   41   40
ATOM    133  H25 UNL A   1       8.163  46.578   5.749  1.00  0.00    +0.000 H 
ATOM    134  H26 UNL A   1       6.833  46.458   6.942  1.00  0.00    +0.000 H 
ATOM     40  C30 UNL A   1       7.862  46.697   6.769  1.00  0.00    +0.000 C 
BRANCH   40   39
ATOM    131  H23 UNL A   1       7.158  48.472   7.696  1.00  0.00    +0.000 H 
ATOM    132  H24 UNL A   1       8.934  48.241   7.698  1.00  0.00    +0.000 H 
ATOM     39  C29 UNL A   1       8.023  48.175   7.141  1.00  0.00    +0.000 C 
BRANCH   39   38
ATOM    129  H21 UNL A   1       9.128  48.952   5.497  1.00  0.00    +0.000 H 
ATOM    130  H22 UNL A   1       7.357  48.954   5.299  1.00  0.00    +0.000 H 
ATOM     38  C28 UNL A   1       8.180  49.138   5.957  1.00  0.00    +0.000 C 
BRANCH   38   37
ATOM     37  C27 UNL A   1       8.115  50.616   6.340  1.00  0.00    +0.000 C 
ATOM    127  H19 UNL A   1       8.741  51.176   5.678  1.00  0.00    +0.000 H 
ATOM    128  H20 UNL A   1       7.098  50.941   6.264  1.00  0.00    +0.000 H 
BRANCH   37   36
ATOM     36  N1  UNL A   1       8.560  50.826   7.701  1.00  0.00    +0.000 N 
ATOM    126  H18 UNL A   1       7.956  50.624   8.450  1.00  0.00    +0.000 H 
BRANCH   36    2
ATOM      1  O1  UNL A   1      10.148  52.471   7.819  1.00  0.00    +0.000 O 
ATOM      2  C1  UNL A   1       9.812  51.300   7.948  1.00  0.00    +0.000 C 
BRANCH    2    3
ATOM      3  C2  UNL A   1      10.808  50.318   8.426  1.00  0.00    +0.000 C 
ATOM    109  H1  UNL A   1      10.416  49.423   8.758  1.00  0.00    +0.000 H 
BRANCH    3    4
ATOM      4  C3  UNL A   1      12.154  50.415   8.495  1.00  0.00    +0.000 C 
ATOM    110  H2  UNL A   1      12.699  50.493   7.622  1.00  0.00    +0.000 H 
BRANCH    4    5
ATOM      5  C4  UNL A   1      12.906  50.413   9.857  1.00  0.00    +0.000 C 
ATOM      6  C5  UNL A   1      12.621  49.059  10.450  1.00  0.00    +0.000 C 
ATOM      7  C6  UNL A   1      13.534  48.079  10.502  1.00  0.00    +0.000 C 
ATOM      9  C7  UNL A   1      14.950  48.312  10.064  1.00  0.00    +0.000 C 
ATOM     10  O3  UNL A   1      15.756  47.389  10.106  1.00  0.00    +0.000 O 
ATOM     11  C8  UNL A   1      15.343  49.684   9.665  1.00  0.00    +0.000 C 
ATOM     12  C9  UNL A   1      14.383  50.611   9.598  1.00  0.00    +0.000 C 
ATOM     13  C10 UNL A   1      14.595  52.065   9.379  1.00  0.00    +0.000 C 
ATOM     14  O4  UNL A   1      15.528  52.589   8.824  1.00  0.00    +0.000 O 
ATOM     15  C11 UNL A   1      13.457  52.727  10.074  1.00  0.00    +0.000 C 
ATOM     16  C12 UNL A   1      13.330  54.046  10.239  1.00  0.00    +0.000 C 
ATOM     17  C13 UNL A   1      12.426  54.533  11.290  1.00  0.00    +0.000 C 
ATOM     18  C14 UNL A   1      11.604  55.645  11.047  1.00  0.00    +0.000 C 
ATOM     19  C15 UNL A   1      10.845  56.173  12.089  1.00  0.00    +0.000 C 
ATOM     21  C16 UNL A   1      10.926  55.635  13.371  1.00  0.00    +0.000 C 
ATOM     23  C17 UNL A   1      11.736  54.543  13.628  1.00  0.00    +0.000 C 
ATOM     24  C18 UNL A   1      12.451  53.959  12.582  1.00  0.00    +0.000 C 
ATOM     25  O7  UNL A   1      13.254  52.909  12.940  1.00  0.00    +0.000 O 
ATOM     26  C19 UNL A   1      13.139  51.636  12.250  1.00  0.00    +0.000 C 
ATOM     35  C26 UNL A   1      12.622  51.667  10.766  1.00  0.00    +0.000 C 
ATOM    111  H3  UNL A   1      11.682  48.877  10.834  1.00  0.00    +0.000 H 
ATOM    113  H5  UNL A   1      16.324  49.915   9.446  1.00  0.00    +0.000 H 
ATOM    114  H6  UNL A   1      13.853  54.706   9.644  1.00  0.00    +0.000 H 
ATOM    115  H7  UNL A   1      11.563  56.066  10.107  1.00  0.00    +0.000 H 
ATOM    118  H10 UNL A   1      11.812  54.165  14.586  1.00  0.00    +0.000 H 
ATOM    119  H11 UNL A   1      14.134  51.280  12.076  1.00  0.00    +0.000 H 
ATOM    125  H17 UNL A   1      11.562  51.783  10.855  1.00  0.00    +0.000 H 
BRANCH    7    8
ATOM    112  H4  UNL A   1      12.572  46.303  10.516  1.00  0.00    +0.000 H 
ATOM      8  O2  UNL A   1      13.198  46.827  10.977  1.00  0.00    +0.000 O 
ENDBRANCH    7    8
BRANCH   19   20
ATOM    116  H8  UNL A   1       9.089  57.107  11.806  1.00  0.00    +0.000 H 
ATOM     20  O5  UNL A   1      10.011  57.243  11.912  1.00  0.00    +0.000 O 
ENDBRANCH   19   20
BRANCH   21   22
ATOM    117  H9  UNL A   1      10.457  56.014  15.282  1.00  0.00    +0.000 H 
ATOM     22  O6  UNL A   1      10.208  56.182  14.395  1.00  0.00    +0.000 O 
ENDBRANCH   21   22
BRANCH   26   27
ATOM     34  C25 UNL A   1      10.988  50.665  13.236  1.00  0.00    +0.000 C 
ATOM     28  C21 UNL A   1      13.104  49.754  13.945  1.00  0.00    +0.000 C 
ATOM    120  H12 UNL A   1      14.133  49.818  13.992  1.00  0.00    +0.000 H 
ATOM    121  H13 UNL A   1      12.987  48.038  15.174  1.00  0.00    +0.000 H 
ATOM     27  C20 UNL A   1      12.388  50.678  13.163  1.00  0.00    +0.000 C 
ATOM    124  H16 UNL A   1      10.438  51.363  12.710  1.00  0.00    +0.000 H 
ATOM     29  C22 UNL A   1      12.446  48.752  14.660  1.00  0.00    +0.000 C 
ATOM     30  C23 UNL A   1      11.057  48.722  14.675  1.00  0.00    +0.000 C 
ATOM     32  C24 UNL A   1      10.335  49.712  14.016  1.00  0.00    +0.000 C 
BRANCH   30   31
ATOM    122  H14 UNL A   1       9.919  47.925  16.120  1.00  0.00    +0.000 H 
ATOM     31  O8  UNL A   1      10.398  47.729  15.339  1.00  0.00    +0.000 O 
ENDBRANCH   30   31
BRANCH   32   33
ATOM     33  O9  UNL A   1       8.972  49.735  14.112  1.00  0.00    +0.000 O 
ATOM    123  H15 UNL A   1       8.472  48.987  13.853  1.00  0.00    +0.000 H 
ENDBRANCH   32   33
ENDBRANCH   26   27
ENDBRANCH    4    5
ENDBRANCH    3    4
ENDBRANCH    2    3
ENDBRANCH   36    2
ENDBRANCH   37   36
ENDBRANCH   38   37
ENDBRANCH   39   38
ENDBRANCH   40   39
ENDBRANCH   41   40
ENDBRANCH   42   41
ENDBRANCH   43   42
ENDBRANCH   44   43
ENDBRANCH   46   44
ENDBRANCH   50   49
BRANCH   54   55
ATOM     65  F5  UNL A   1      18.808  48.000   0.364  1.00  0.00    +0.000 F 
ATOM     55  C42 UNL A   1      16.900  48.589  -0.933  1.00  0.00    +0.000 C 
ATOM     56  C43 UNL A   1      16.123  48.325  -2.070  1.00  0.00    +0.000 C 
ATOM     57  F1  UNL A   1      15.028  49.055  -2.324  1.00  0.00    +0.000 F 
ATOM     58  C44 UNL A   1      16.457  47.289  -2.940  1.00  0.00    +0.000 C 
ATOM     59  F2  UNL A   1      15.683  47.034  -4.004  1.00  0.00    +0.000 F 
ATOM     60  C45 UNL A   1      17.585  46.517  -2.704  1.00  0.00    +0.000 C 
ATOM     61  F3  UNL A   1      17.912  45.530  -3.551  1.00  0.00    +0.000 F 
ATOM     62  C46 UNL A   1      18.373  46.766  -1.591  1.00  0.00    +0.000 C 
ATOM     63  F4  UNL A   1      19.468  46.028  -1.368  1.00  0.00    +0.000 F 
ATOM     64  C47 UNL A   1      18.028  47.785  -0.706  1.00  0.00    +0.000 C 
ENDBRANCH   54   55
BRANCH   71   72
ATOM     72  C53 UNL A   1      18.033  55.693  -0.727  1.00  0.00    +0.000 C 
ATOM     73  C54 UNL A   1      17.339  56.416  -1.708  1.00  0.00    +0.000 C 
ATOM     74  F6  UNL A   1      16.051  56.138  -1.966  1.00  0.00    +0.000 F 
ATOM     75  C55 UNL A   1      17.975  57.408  -2.449  1.00  0.00    +0.000 C 
ATOM     76  F7  UNL A   1      17.304  58.062  -3.406  1.00  0.00    +0.000 F 
ATOM     77  C56 UNL A   1      19.306  57.713  -2.204  1.00  0.00    +0.000 C 
ATOM     78  F8  UNL A   1      19.915  58.676  -2.911  1.00  0.00    +0.000 F 
ATOM     79  C57 UNL A   1      20.007  57.018  -1.230  1.00  0.00    +0.000 C 
ATOM     80  F9  UNL A   1      21.290  57.321  -0.985  1.00  0.00    +0.000 F 
ATOM     81  C58 UNL A   1      19.381  56.009  -0.505  1.00  0.00    +0.000 C 
ATOM     82  F10 UNL A   1      20.085  55.350   0.428  1.00  0.00    +0.000 F 
ENDBRANCH   71   72
BRANCH   86   87
ATOM     97  F15 UNL A   1      12.330  56.102   4.397  1.00  0.00    +0.000 F 
ATOM     87  C62 UNL A   1      14.532  56.019   5.289  1.00  0.00    +0.000 C 
ATOM     88  C63 UNL A   1      15.455  56.556   6.196  1.00  0.00    +0.000 C 
ATOM     89  F11 UNL A   1      16.688  56.034   6.284  1.00  0.00    +0.000 F 
ATOM     90  C64 UNL A   1      15.108  57.615   7.031  1.00  0.00    +0.000 C 
ATOM     91  F12 UNL A   1      16.000  58.093   7.910  1.00  0.00    +0.000 F 
ATOM     92  C65 UNL A   1      13.839  58.170   6.959  1.00  0.00    +0.000 C 
ATOM     93  F13 UNL A   1      13.509  59.198   7.754  1.00  0.00    +0.000 F 
ATOM     94  C66 UNL A   1      12.910  57.657   6.066  1.00  0.00    +0.000 C 
ATOM     95  F14 UNL A   1      11.688  58.201   5.984  1.00  0.00    +0.000 F 
ATOM     96  C67 UNL A   1      13.249  56.582   5.250  1.00  0.00    +0.000 C 
ENDBRANCH   86   87
TORSDOF 23
ENDMDL
MODEL 4
REMARK VINA RESULT:      -9.6      4.386      6.297
ROOT
ATOM    142  H34 UNL A   1      26.857  27.056 -12.381  1.00  0.00    +0.000 H 
ATOM    143  H35 UNL A   1      28.341  24.922 -12.191  1.00  0.00    +0.000 H 
ATOM    144  H36 UNL A   1      26.130  25.284  -8.708  1.00  0.00    +0.000 H 
ATOM    145  H37 UNL A   1      24.755  23.263  -2.822  1.00  0.00    +0.000 H 
ATOM    146  H38 UNL A   1      23.108  25.173  -3.117  1.00  0.00    +0.000 H 
ATOM    147  H39 UNL A   1      25.335  24.866  -6.613  1.00  0.00    +0.000 H 
ATOM    148  H40 UNL A   1      28.242  20.806  -6.024  1.00  0.00    +0.000 H 
ATOM    149  H41 UNL A   1      29.183  21.296  -8.355  1.00  0.00    +0.000 H 
ATOM    150  H42 UNL A   1      23.177  29.311  -9.203  1.00  0.00    +0.000 H 
ATOM    151  H43 UNL A   1      22.362  28.953  -6.802  1.00  0.00    +0.000 H 
ATOM     50  C38 UNL A   1      23.377  26.579  -5.578  1.00  0.00    +0.000 C 
ATOM     51  C39 UNL A   1      23.706  27.131  -6.940  1.00  0.00    +0.000 C 
ATOM     52  N3  UNL A   1      24.530  26.663  -7.846  1.00  0.00    +0.000 N 
ATOM     53  C40 UNL A   1      24.449  27.536  -8.924  1.00  0.00    +0.000 C 
ATOM     54  C41 UNL A   1      25.133  27.502 -10.092  1.00  0.00    +0.000 C 
ATOM     66  C48 UNL A   1      26.122  26.511 -10.427  1.00  0.00    +0.000 C 
ATOM     67  C49 UNL A   1      26.881  26.406 -11.580  1.00  0.00    +0.000 C 
ATOM     68  C50 UNL A   1      27.688  25.269 -11.471  1.00  0.00    +0.000 C 
ATOM     69  C51 UNL A   1      27.461  24.688 -10.235  1.00  0.00    +0.000 C 
ATOM     70  N4  UNL A   1      26.495  25.458  -9.606  1.00  0.00    +0.000 N 
ATOM     71  C52 UNL A   1      28.074  23.514  -9.670  1.00  0.00    +0.000 C 
ATOM     83  C59 UNL A   1      27.834  23.034  -8.425  1.00  0.00    +0.000 C 
ATOM     84  N5  UNL A   1      26.973  23.524  -7.454  1.00  0.00    +0.000 N 
ATOM     85  C60 UNL A   1      27.069  22.702  -6.440  1.00  0.00    +0.000 C 
ATOM     86  C61 UNL A   1      26.361  22.743  -5.116  1.00  0.00    +0.000 C 
ATOM     98  C68 UNL A   1      25.438  23.697  -4.894  1.00  0.00    +0.000 C 
ATOM     99  C69 UNL A   1      24.660  23.848  -3.666  1.00  0.00    +0.000 C 
ATOM    100  C70 UNL A   1      23.804  24.869  -3.815  1.00  0.00    +0.000 C 
ATOM    101  C71 UNL A   1      24.016  25.484  -5.126  1.00  0.00    +0.000 C 
ATOM    102  N6  UNL A   1      24.990  24.710  -5.704  1.00  0.00    +0.000 N 
ATOM    103  C72 UNL A   1      28.005  21.589  -6.654  1.00  0.00    +0.000 C 
ATOM    104  C73 UNL A   1      28.466  21.856  -7.868  1.00  0.00    +0.000 C 
ATOM    105  C74 UNL A   1      23.477  28.549  -8.575  1.00  0.00    +0.000 C 
ATOM    106  C75 UNL A   1      23.024  28.372  -7.341  1.00  0.00    +0.000 C 
ENDROOT
BRANCH   50   49
ATOM    107  C76 UNL A   1      22.743  28.465  -4.033  1.00  0.00    +0.000 C 
ATOM    108  C77 UNL A   1      21.876  29.012  -3.083  1.00  0.00    +0.000 C 
ATOM    140  H32 UNL A   1      19.281  26.930  -3.510  1.00  0.00    +0.000 H 
ATOM     46  C34 UNL A   1      20.648  28.394  -2.836  1.00  0.00    +0.000 C 
ATOM     47  C35 UNL A   1      20.241  27.298  -3.601  1.00  0.00    +0.000 C 
ATOM     48  C36 UNL A   1      21.137  26.710  -4.485  1.00  0.00    +0.000 C 
ATOM    141  H33 UNL A   1      20.868  25.851  -4.990  1.00  0.00    +0.000 H 
ATOM     49  C37 UNL A   1      22.406  27.275  -4.696  1.00  0.00    +0.000 C 
ATOM    152  H44 UNL A   1      23.635  28.939  -4.248  1.00  0.00    +0.000 H 
ATOM    153  H45 UNL A   1      22.141  29.866  -2.568  1.00  0.00    +0.000 H 
BRANCH   46   44
ATOM     44  C33 UNL A   1      19.830  28.852  -1.694  1.00  0.00    +0.000 C 
ATOM     45  O10 UNL A   1      19.106  29.834  -1.808  1.00  0.00    +0.000 O 
BRANCH   44   43
ATOM     43  N2  UNL A   1      19.935  28.186  -0.494  1.00  0.00    +0.000 N 
ATOM    139  H31 UNL A   1      19.108  27.765  -0.165  1.00  0.00    +0.000 H 
BRANCH   43   42
ATOM    137  H29 UNL A   1      21.816  28.787   0.102  1.00  0.00    +0.000 H 
ATOM     42  C32 UNL A   1      21.108  28.026   0.353  1.00  0.00    +0.000 C 
ATOM    138  H30 UNL A   1      20.782  28.103   1.369  1.00  0.00    +0.000 H 
BRANCH   42   41
ATOM     41  C31 UNL A   1      21.774  26.669   0.188  1.00  0.00    +0.000 C 
ATOM    135  H27 UNL A   1      22.453  26.729  -0.636  1.00  0.00    +0.000 H 
ATOM    136  H28 UNL A   1      22.258  26.455   1.119  1.00  0.00    +0.000 H 
BRANCH   41   40
ATOM    133  H25 UNL A   1      20.581  25.054   0.868  1.00  0.00    +0.000 H 
ATOM    134  H26 UNL A   1      19.960  25.937  -0.561  1.00  0.00    +0.000 H 
ATOM     40  C30 UNL A   1      20.812  25.511  -0.072  1.00  0.00    +0.000 C 
BRANCH   40   39
ATOM    131  H23 UNL A   1      20.558  24.167  -1.695  1.00  0.00    +0.000 H 
ATOM    132  H24 UNL A   1      22.207  24.835  -1.484  1.00  0.00    +0.000 H 
ATOM     39  C29 UNL A   1      21.340  24.422  -1.011  1.00  0.00    +0.000 C 
BRANCH   39   38
ATOM    129  H21 UNL A   1      21.273  22.311  -0.754  1.00  0.00    +0.000 H 
ATOM    130  H22 UNL A   1      22.864  23.066  -0.483  1.00  0.00    +0.000 H 
ATOM     38  C28 UNL A   1      21.808  23.132  -0.325  1.00  0.00    +0.000 C 
BRANCH   38   37
ATOM     37  C27 UNL A   1      21.588  23.112   1.187  1.00  0.00    +0.000 C 
ATOM    127  H19 UNL A   1      21.150  24.041   1.488  1.00  0.00    +0.000 H 
ATOM    128  H20 UNL A   1      20.939  22.294   1.424  1.00  0.00    +0.000 H 
BRANCH   37   36
ATOM     36  N1  UNL A   1      22.835  22.926   1.898  1.00  0.00    +0.000 N 
ATOM    126  H18 UNL A   1      23.635  23.426   1.620  1.00  0.00    +0.000 H 
BRANCH   36    2
ATOM      1  O1  UNL A   1      22.016  21.912   3.780  1.00  0.00    +0.000 O 
ATOM      2  C1  UNL A   1      22.903  22.065   2.949  1.00  0.00    +0.000 C 
BRANCH    2    3
ATOM      3  C2  UNL A   1      24.134  21.253   3.059  1.00  0.00    +0.000 C 
ATOM    109  H1  UNL A   1      24.494  20.882   2.166  1.00  0.00    +0.000 H 
BRANCH    3    4
ATOM      4  C3  UNL A   1      24.858  20.922   4.151  1.00  0.00    +0.000 C 
ATOM    110  H2  UNL A   1      25.341  21.666   4.679  1.00  0.00    +0.000 H 
BRANCH    4    5
ATOM      5  C4  UNL A   1      24.982  19.449   4.635  1.00  0.00    +0.000 C 
ATOM      6  C5  UNL A   1      23.704  18.789   4.189  1.00  0.00    +0.000 C 
ATOM      7  C6  UNL A   1      23.647  17.932   3.161  1.00  0.00    +0.000 C 
ATOM      9  C7  UNL A   1      24.890  17.486   2.450  1.00  0.00    +0.000 C 
ATOM     10  O3  UNL A   1      24.802  16.716   1.501  1.00  0.00    +0.000 O 
ATOM     11  C8  UNL A   1      26.199  17.940   2.978  1.00  0.00    +0.000 C 
ATOM     12  C9  UNL A   1      26.194  18.822   3.981  1.00  0.00    +0.000 C 
ATOM     13  C10 UNL A   1      27.384  19.271   4.748  1.00  0.00    +0.000 C 
ATOM     14  O4  UNL A   1      28.529  19.283   4.374  1.00  0.00    +0.000 O 
ATOM     15  C11 UNL A   1      26.861  19.611   6.100  1.00  0.00    +0.000 C 
ATOM     16  C12 UNL A   1      27.621  19.934   7.150  1.00  0.00    +0.000 C 
ATOM     17  C13 UNL A   1      27.039  19.817   8.494  1.00  0.00    +0.000 C 
ATOM     18  C14 UNL A   1      27.302  20.802   9.459  1.00  0.00    +0.000 C 
ATOM     19  C15 UNL A   1      26.848  20.617  10.764  1.00  0.00    +0.000 C 
ATOM     21  C16 UNL A   1      26.177  19.452  11.124  1.00  0.00    +0.000 C 
ATOM     23  C17 UNL A   1      25.916  18.468  10.187  1.00  0.00    +0.000 C 
ATOM     24  C18 UNL A   1      26.303  18.667   8.860  1.00  0.00    +0.000 C 
ATOM     25  O7  UNL A   1      26.036  17.624   8.014  1.00  0.00    +0.000 O 
ATOM     26  C19 UNL A   1      25.292  17.853   6.787  1.00  0.00    +0.000 C 
ATOM     35  C26 UNL A   1      25.380  19.287   6.150  1.00  0.00    +0.000 C 
ATOM    111  H3  UNL A   1      22.834  19.007   4.698  1.00  0.00    +0.000 H 
ATOM    113  H5  UNL A   1      27.084  17.587   2.583  1.00  0.00    +0.000 H 
ATOM    114  H6  UNL A   1      28.592  20.258   7.021  1.00  0.00    +0.000 H 
ATOM    115  H7  UNL A   1      27.825  21.654   9.205  1.00  0.00    +0.000 H 
ATOM    118  H10 UNL A   1      25.441  17.595  10.465  1.00  0.00    +0.000 H 
ATOM    119  H11 UNL A   1      25.776  17.293   6.015  1.00  0.00    +0.000 H 
ATOM    125  H17 UNL A   1      24.714  19.883   6.738  1.00  0.00    +0.000 H 
BRANCH    7    8
ATOM    112  H4  UNL A   1      21.834  17.066   3.360  1.00  0.00    +0.000 H 
ATOM      8  O2  UNL A   1      22.437  17.421   2.737  1.00  0.00    +0.000 O 
ENDBRANCH    7    8
BRANCH   19   20
ATOM    116  H8  UNL A   1      27.496  21.305  12.537  1.00  0.00    +0.000 H 
ATOM     20  O5  UNL A   1      27.056  21.548  11.745  1.00  0.00    +0.000 O 
ENDBRANCH   19   20
BRANCH   21   22
ATOM    117  H9  UNL A   1      25.144  18.593  12.612  1.00  0.00    +0.000 H 
ATOM     22  O6  UNL A   1      25.770  19.261  12.413  1.00  0.00    +0.000 O 
ENDBRANCH   21   22
BRANCH   26   27
ATOM     34  C25 UNL A   1      23.496  16.036   6.661  1.00  0.00    +0.000 C 
ATOM     28  C21 UNL A   1      22.910  18.186   7.581  1.00  0.00    +0.000 C 
ATOM    120  H12 UNL A   1      23.133  19.181   7.737  1.00  0.00    +0.000 H 
ATOM    121  H13 UNL A   1      20.980  18.311   8.436  1.00  0.00    +0.000 H 
ATOM     27  C20 UNL A   1      23.874  17.342   7.002  1.00  0.00    +0.000 C 
ATOM    124  H16 UNL A   1      24.168  15.411   6.191  1.00  0.00    +0.000 H 
ATOM     29  C22 UNL A   1      21.654  17.699   7.948  1.00  0.00    +0.000 C 
ATOM     30  C23 UNL A   1      21.317  16.384   7.652  1.00  0.00    +0.000 C 
ATOM     32  C24 UNL A   1      22.213  15.578   6.957  1.00  0.00    +0.000 C 
BRANCH   30   31
ATOM    122  H14 UNL A   1      19.320  16.202   7.640  1.00  0.00    +0.000 H 
ATOM     31  O8  UNL A   1      20.108  15.881   8.035  1.00  0.00    +0.000 O 
ENDBRANCH   30   31
BRANCH   32   33
ATOM     33  O9  UNL A   1      21.842  14.317   6.582  1.00  0.00    +0.000 O 
ATOM    123  H15 UNL A   1      22.280  13.573   6.947  1.00  0.00    +0.000 H 
ENDBRANCH   32   33
ENDBRANCH   26   27
ENDBRANCH    4    5
ENDBRANCH    3    4
ENDBRANCH    2    3
ENDBRANCH   36    2
ENDBRANCH   37   36
ENDBRANCH   38   37
ENDBRANCH   39   38
ENDBRANCH   40   39
ENDBRANCH   41   40
ENDBRANCH   42   41
ENDBRANCH   43   42
ENDBRANCH   44   43
ENDBRANCH   46   44
ENDBRANCH   50   49
BRANCH   54   55
ATOM     65  F5  UNL A   1      23.459  27.077 -12.350  1.00  0.00    +0.000 F 
ATOM     55  C42 UNL A   1      24.839  28.566 -11.107  1.00  0.00    +0.000 C 
ATOM     56  C43 UNL A   1      25.416  29.842 -11.022  1.00  0.00    +0.000 C 
ATOM     57  F1  UNL A   1      26.187  30.165  -9.973  1.00  0.00    +0.000 F 
ATOM     58  C44 UNL A   1      25.181  30.801 -12.005  1.00  0.00    +0.000 C 
ATOM     59  F2  UNL A   1      25.717  32.024 -11.887  1.00  0.00    +0.000 F 
ATOM     60  C45 UNL A   1      24.389  30.495 -13.102  1.00  0.00    +0.000 C 
ATOM     61  F3  UNL A   1      24.176  31.416 -14.053  1.00  0.00    +0.000 F 
ATOM     62  C46 UNL A   1      23.816  29.237 -13.211  1.00  0.00    +0.000 C 
ATOM     63  F4  UNL A   1      23.059  28.937 -14.276  1.00  0.00    +0.000 F 
ATOM     64  C47 UNL A   1      24.029  28.284 -12.218  1.00  0.00    +0.000 C 
ENDBRANCH   54   55
BRANCH   71   72
ATOM     72  C53 UNL A   1      29.059  22.766 -10.517  1.00  0.00    +0.000 C 
ATOM     73  C54 UNL A   1      28.647  21.739 -11.377  1.00  0.00    +0.000 C 
ATOM     74  F6  UNL A   1      27.360  21.359 -11.405  1.00  0.00    +0.000 F 
ATOM     75  C55 UNL A   1      29.562  21.077 -12.190  1.00  0.00    +0.000 C 
ATOM     76  F7  UNL A   1      29.153  20.074 -12.978  1.00  0.00    +0.000 F 
ATOM     77  C56 UNL A   1      30.899  21.449 -12.179  1.00  0.00    +0.000 C 
ATOM     78  F8  UNL A   1      31.777  20.818 -12.971  1.00  0.00    +0.000 F 
ATOM     79  C57 UNL A   1      31.325  22.471 -11.344  1.00  0.00    +0.000 C 
ATOM     80  F9  UNL A   1      32.614  22.838 -11.341  1.00  0.00    +0.000 F 
ATOM     81  C58 UNL A   1      30.417  23.117 -10.511  1.00  0.00    +0.000 C 
ATOM     82  F10 UNL A   1      30.859  24.099  -9.711  1.00  0.00    +0.000 F 
ENDBRANCH   71   72
BRANCH   86   87
ATOM     97  F15 UNL A   1      28.717  22.810  -3.520  1.00  0.00    +0.000 F 
ATOM     87  C62 UNL A   1      26.658  21.749  -4.054  1.00  0.00    +0.000 C 
ATOM     88  C63 UNL A   1      25.774  20.694  -3.790  1.00  0.00    +0.000 C 
ATOM     89  F11 UNL A   1      24.621  20.601  -4.469  1.00  0.00    +0.000 F 
ATOM     90  C64 UNL A   1      26.062  19.746  -2.812  1.00  0.00    +0.000 C 
ATOM     91  F12 UNL A   1      25.188  18.762  -2.558  1.00  0.00    +0.000 F 
ATOM     92  C65 UNL A   1      27.248  19.822  -2.096  1.00  0.00    +0.000 C 
ATOM     93  F13 UNL A   1      27.530  18.900  -1.164  1.00  0.00    +0.000 F 
ATOM     94  C66 UNL A   1      28.139  20.855  -2.344  1.00  0.00    +0.000 C 
ATOM     95  F14 UNL A   1      29.292  20.924  -1.664  1.00  0.00    +0.000 F 
ATOM     96  C67 UNL A   1      27.840  21.818  -3.303  1.00  0.00    +0.000 C 
ENDBRANCH   86   87
TORSDOF 23
ENDMDL
MODEL 5
REMARK VINA RESULT:      -9.5     54.666     60.581
ROOT
ATOM    142  H34 UNL A   1      52.026  16.071  49.954  1.00  0.00    +0.000 H 
ATOM    143  H35 UNL A   1      52.781  14.585  51.958  1.00  0.00    +0.000 H 
ATOM    144  H36 UNL A   1      49.687  12.653  49.998  1.00  0.00    +0.000 H 
ATOM    145  H37 UNL A   1      45.561   7.807  49.651  1.00  0.00    +0.000 H 
ATOM    146  H38 UNL A   1      45.014   9.111  47.542  1.00  0.00    +0.000 H 
ATOM    147  H39 UNL A   1      48.094  11.100  49.501  1.00  0.00    +0.000 H 
ATOM    148  H40 UNL A   1      49.327   8.187  53.410  1.00  0.00    +0.000 H 
ATOM    149  H41 UNL A   1      51.083   9.951  54.011  1.00  0.00    +0.000 H 
ATOM    150  H42 UNL A   1      48.390  15.481  46.060  1.00  0.00    +0.000 H 
ATOM    151  H43 UNL A   1      46.502  13.829  45.552  1.00  0.00    +0.000 H 
ATOM     50  C38 UNL A   1      46.492  11.527  47.246  1.00  0.00    +0.000 C 
ATOM     51  C39 UNL A   1      47.405  12.722  47.314  1.00  0.00    +0.000 C 
ATOM     52  N3  UNL A   1      48.372  12.977  48.161  1.00  0.00    +0.000 N 
ATOM     53  C40 UNL A   1      48.910  14.197  47.772  1.00  0.00    +0.000 C 
ATOM     54  C41 UNL A   1      49.910  14.904  48.352  1.00  0.00    +0.000 C 
ATOM     66  C48 UNL A   1      50.613  14.494  49.538  1.00  0.00    +0.000 C 
ATOM     67  C49 UNL A   1      51.629  15.154  50.209  1.00  0.00    +0.000 C 
ATOM     68  C50 UNL A   1      52.024  14.363  51.293  1.00  0.00    +0.000 C 
ATOM     69  C51 UNL A   1      51.229  13.229  51.320  1.00  0.00    +0.000 C 
ATOM     70  N4  UNL A   1      50.370  13.321  50.236  1.00  0.00    +0.000 N 
ATOM     71  C52 UNL A   1      51.252  12.139  52.261  1.00  0.00    +0.000 C 
ATOM     83  C59 UNL A   1      50.402  11.084  52.251  1.00  0.00    +0.000 C 
ATOM     84  N5  UNL A   1      49.369  10.807  51.366  1.00  0.00    +0.000 N 
ATOM     85  C60 UNL A   1      48.863   9.663  51.752  1.00  0.00    +0.000 C 
ATOM     86  C61 UNL A   1      47.724   8.883  51.159  1.00  0.00    +0.000 C 
ATOM     98  C68 UNL A   1      47.133   9.333  50.037  1.00  0.00    +0.000 C 
ATOM     99  C69 UNL A   1      46.031   8.672  49.342  1.00  0.00    +0.000 C 
ATOM    100  C70 UNL A   1      45.729   9.371  48.238  1.00  0.00    +0.000 C 
ATOM    101  C71 UNL A   1      46.576  10.564  48.182  1.00  0.00    +0.000 C 
ATOM    102  N6  UNL A   1      47.391  10.447  49.279  1.00  0.00    +0.000 N 
ATOM    103  C72 UNL A   1      49.522   9.079  52.929  1.00  0.00    +0.000 C 
ATOM    104  C73 UNL A   1      50.433  10.000  53.210  1.00  0.00    +0.000 C 
ATOM    105  C74 UNL A   1      48.182  14.624  46.597  1.00  0.00    +0.000 C 
ATOM    106  C75 UNL A   1      47.211  13.772  46.301  1.00  0.00    +0.000 C 
ENDROOT
BRANCH   50   49
ATOM    107  C76 UNL A   1      44.163  11.969  46.391  1.00  0.00    +0.000 C 
ATOM    108  C77 UNL A   1      43.150  11.728  45.460  1.00  0.00    +0.000 C 
ATOM    140  H32 UNL A   1      44.978  10.173  43.116  1.00  0.00    +0.000 H 
ATOM     46  C34 UNL A   1      43.436  10.995  44.306  1.00  0.00    +0.000 C 
ATOM     47  C35 UNL A   1      44.745  10.593  44.030  1.00  0.00    +0.000 C 
ATOM     48  C36 UNL A   1      45.731  10.762  44.994  1.00  0.00    +0.000 C 
ATOM    141  H33 UNL A   1      46.679  10.392  44.827  1.00  0.00    +0.000 H 
ATOM     49  C37 UNL A   1      45.447  11.435  46.194  1.00  0.00    +0.000 C 
ATOM    152  H44 UNL A   1      43.967  12.543  47.227  1.00  0.00    +0.000 H 
ATOM    153  H45 UNL A   1      42.197  12.089  45.623  1.00  0.00    +0.000 H 
BRANCH   46   44
ATOM     44  C33 UNL A   1      42.325  10.569  43.431  1.00  0.00    +0.000 C 
ATOM     45  O10 UNL A   1      41.699   9.545  43.682  1.00  0.00    +0.000 O 
BRANCH   44   43
ATOM     43  N2  UNL A   1      42.040  11.313  42.309  1.00  0.00    +0.000 N 
ATOM    139  H31 UNL A   1      42.391  10.959  41.460  1.00  0.00    +0.000 H 
BRANCH   43   42
ATOM    137  H29 UNL A   1      40.308  12.335  41.849  1.00  0.00    +0.000 H 
ATOM     42  C32 UNL A   1      41.289  12.556  42.214  1.00  0.00    +0.000 C 
ATOM    138  H30 UNL A   1      41.262  12.991  43.192  1.00  0.00    +0.000 H 
BRANCH   42   41
ATOM     41  C31 UNL A   1      41.937  13.568  41.282  1.00  0.00    +0.000 C 
ATOM    135  H27 UNL A   1      42.810  13.118  40.857  1.00  0.00    +0.000 H 
ATOM    136  H28 UNL A   1      41.197  13.824  40.552  1.00  0.00    +0.000 H 
BRANCH   41   40
ATOM    133  H25 UNL A   1      43.209  15.256  41.429  1.00  0.00    +0.000 H 
ATOM    134  H26 UNL A   1      41.501  15.522  41.897  1.00  0.00    +0.000 H 
ATOM     40  C30 UNL A   1      42.354  14.877  41.949  1.00  0.00    +0.000 C 
BRANCH   40   39
ATOM    131  H23 UNL A   1      42.219  15.560  43.954  1.00  0.00    +0.000 H 
ATOM    132  H24 UNL A   1      42.400  13.791  43.742  1.00  0.00    +0.000 H 
ATOM     39  C29 UNL A   1      42.713  14.767  43.434  1.00  0.00    +0.000 C 
BRANCH   39   38
ATOM    129  H21 UNL A   1      44.530  13.895  44.120  1.00  0.00    +0.000 H 
ATOM    130  H22 UNL A   1      44.705  15.135  42.853  1.00  0.00    +0.000 H 
ATOM     38  C28 UNL A   1      44.211  14.850  43.757  1.00  0.00    +0.000 C 
BRANCH   38   37
ATOM     37  C27 UNL A   1      44.567  15.904  44.804  1.00  0.00    +0.000 C 
ATOM    127  H19 UNL A   1      45.631  15.941  44.914  1.00  0.00    +0.000 H 
ATOM    128  H20 UNL A   1      44.188  16.849  44.476  1.00  0.00    +0.000 H 
BRANCH   37   36
ATOM     36  N1  UNL A   1      43.971  15.594  46.086  1.00  0.00    +0.000 N 
ATOM    126  H18 UNL A   1      43.306  14.873  46.155  1.00  0.00    +0.000 H 
BRANCH   36    2
ATOM      1  O1  UNL A   1      45.484  16.568  47.503  1.00  0.00    +0.000 O 
ATOM      2  C1  UNL A   1      44.329  16.295  47.197  1.00  0.00    +0.000 C 
BRANCH    2    3
ATOM      3  C2  UNL A   1      43.229  16.768  48.063  1.00  0.00    +0.000 C 
ATOM    109  H1  UNL A   1      43.124  17.793  48.116  1.00  0.00    +0.000 H 
BRANCH    3    4
ATOM      4  C3  UNL A   1      42.340  16.062  48.797  1.00  0.00    +0.000 C 
ATOM    110  H2  UNL A   1      41.429  15.813  48.381  1.00  0.00    +0.000 H 
BRANCH    4    5
ATOM      5  C4  UNL A   1      42.654  15.615  50.253  1.00  0.00    +0.000 C 
ATOM      6  C5  UNL A   1      43.176  14.210  50.119  1.00  0.00    +0.000 C 
ATOM      7  C6  UNL A   1      44.471  13.896  50.264  1.00  0.00    +0.000 C 
ATOM      9  C7  UNL A   1      45.478  14.926  50.685  1.00  0.00    +0.000 C 
ATOM     10  O3  UNL A   1      46.658  14.611  50.790  1.00  0.00    +0.000 O 
ATOM     11  C8  UNL A   1      44.989  16.281  51.033  1.00  0.00    +0.000 C 
ATOM     12  C9  UNL A   1      43.695  16.547  50.835  1.00  0.00    +0.000 C 
ATOM     13  C10 UNL A   1      42.985  17.777  51.267  1.00  0.00    +0.000 C 
ATOM     14  O4  UNL A   1      43.466  18.865  51.459  1.00  0.00    +0.000 O 
ATOM     15  C11 UNL A   1      41.579  17.346  51.500  1.00  0.00    +0.000 C 
ATOM     16  C12 UNL A   1      40.625  18.117  52.028  1.00  0.00    +0.000 C 
ATOM     17  C13 UNL A   1      39.439  17.464  52.599  1.00  0.00    +0.000 C 
ATOM     18  C14 UNL A   1      38.166  18.018  52.390  1.00  0.00    +0.000 C 
ATOM     19  C15 UNL A   1      37.064  17.463  53.039  1.00  0.00    +0.000 C 
ATOM     21  C16 UNL A   1      37.222  16.395  53.918  1.00  0.00    +0.000 C 
ATOM     23  C17 UNL A   1      38.471  15.841  54.140  1.00  0.00    +0.000 C 
ATOM     24  C18 UNL A   1      39.575  16.341  53.447  1.00  0.00    +0.000 C 
ATOM     25  O7  UNL A   1      40.772  15.756  53.760  1.00  0.00    +0.000 O 
ATOM     26  C19 UNL A   1      41.614  15.210  52.709  1.00  0.00    +0.000 C 
ATOM     35  C26 UNL A   1      41.482  15.849  51.279  1.00  0.00    +0.000 C 
ATOM    111  H3  UNL A   1      42.508  13.454  49.906  1.00  0.00    +0.000 H 
ATOM    113  H5  UNL A   1      45.627  16.995  51.416  1.00  0.00    +0.000 H 
ATOM    114  H6  UNL A   1      40.718  19.144  52.036  1.00  0.00    +0.000 H 
ATOM    115  H7  UNL A   1      38.048  18.828  51.763  1.00  0.00    +0.000 H 
ATOM    118  H10 UNL A   1      38.586  15.067  54.813  1.00  0.00    +0.000 H 
ATOM    119  H11 UNL A   1      42.621  15.496  52.931  1.00  0.00    +0.000 H 
ATOM    125  H17 UNL A   1      40.591  15.416  50.874  1.00  0.00    +0.000 H 
BRANCH    7    8
ATOM    112  H4  UNL A   1      44.614  12.130  49.296  1.00  0.00    +0.000 H 
ATOM      8  O2  UNL A   1      44.912  12.606  50.047  1.00  0.00    +0.000 O 
ENDBRANCH    7    8
BRANCH   19   20
ATOM    116  H8  UNL A   1      35.319  18.286  53.593  1.00  0.00    +0.000 H 
ATOM     20  O5  UNL A   1      35.797  17.945  52.862  1.00  0.00    +0.000 O 
ENDBRANCH   19   20
BRANCH   21   22
ATOM    117  H9  UNL A   1      36.273  15.294  55.298  1.00  0.00    +0.000 H 
ATOM     22  O6  UNL A   1      36.145  15.881  54.579  1.00  0.00    +0.000 O 
ENDBRANCH   21   22
BRANCH   26   27
ATOM     34  C25 UNL A   1      42.413  12.876  53.383  1.00  0.00    +0.000 C 
ATOM     28  C21 UNL A   1      40.362  13.085  52.134  1.00  0.00    +0.000 C 
ATOM    120  H12 UNL A   1      39.719  13.655  51.563  1.00  0.00    +0.000 H 
ATOM    121  H13 UNL A   1      39.257  11.298  51.899  1.00  0.00    +0.000 H 
ATOM     27  C20 UNL A   1      41.475  13.695  52.741  1.00  0.00    +0.000 C 
ATOM    124  H16 UNL A   1      43.263  13.291  53.795  1.00  0.00    +0.000 H 
ATOM     29  C22 UNL A   1      40.114  11.720  52.291  1.00  0.00    +0.000 C 
ATOM     30  C23 UNL A   1      41.029  10.934  52.980  1.00  0.00    +0.000 C 
ATOM     32  C24 UNL A   1      42.202  11.500  53.469  1.00  0.00    +0.000 C 
BRANCH   30   31
ATOM    122  H14 UNL A   1      40.780   9.018  52.443  1.00  0.00    +0.000 H 
ATOM     31  O8  UNL A   1      40.786   9.605  53.173  1.00  0.00    +0.000 O 
ENDBRANCH   30   31
BRANCH   32   33
ATOM     33  O9  UNL A   1      43.144  10.707  54.060  1.00  0.00    +0.000 O 
ATOM    123  H15 UNL A   1      43.494   9.972  53.597  1.00  0.00    +0.000 H 
ENDBRANCH   32   33
ENDBRANCH   26   27
ENDBRANCH    4    5
ENDBRANCH    3    4
ENDBRANCH    2    3
ENDBRANCH   36    2
ENDBRANCH   37   36
ENDBRANCH   38   37
ENDBRANCH   39   38
ENDBRANCH   40   39
ENDBRANCH   41   40
ENDBRANCH   42   41
ENDBRANCH   43   42
ENDBRANCH   44   43
ENDBRANCH   46   44
ENDBRANCH   50   49
BRANCH   54   55
ATOM     65  F5  UNL A   1      48.692  17.395  48.980  1.00  0.00    +0.000 F 
ATOM     55  C42 UNL A   1      50.314  16.199  47.712  1.00  0.00    +0.000 C 
ATOM     56  C43 UNL A   1      51.305  16.252  46.722  1.00  0.00    +0.000 C 
ATOM     57  F1  UNL A   1      51.977  15.143  46.379  1.00  0.00    +0.000 F 
ATOM     58  C44 UNL A   1      51.627  17.453  46.093  1.00  0.00    +0.000 C 
ATOM     59  F2  UNL A   1      52.599  17.486  45.172  1.00  0.00    +0.000 F 
ATOM     60  C45 UNL A   1      50.949  18.617  46.426  1.00  0.00    +0.000 C 
ATOM     61  F3  UNL A   1      51.251  19.768  45.810  1.00  0.00    +0.000 F 
ATOM     62  C46 UNL A   1      49.959  18.587  47.396  1.00  0.00    +0.000 C 
ATOM     63  F4  UNL A   1      49.296  19.707  47.711  1.00  0.00    +0.000 F 
ATOM     64  C47 UNL A   1      49.651  17.391  48.043  1.00  0.00    +0.000 C 
ENDBRANCH   54   55
BRANCH   71   72
ATOM     72  C53 UNL A   1      52.290  12.175  53.342  1.00  0.00    +0.000 C 
ATOM     73  C54 UNL A   1      53.581  11.670  53.127  1.00  0.00    +0.000 C 
ATOM     74  F6  UNL A   1      53.889  11.080  51.962  1.00  0.00    +0.000 F 
ATOM     75  C55 UNL A   1      54.552  11.744  54.122  1.00  0.00    +0.000 C 
ATOM     76  F7  UNL A   1      55.767  11.224  53.909  1.00  0.00    +0.000 F 
ATOM     77  C56 UNL A   1      54.258  12.347  55.337  1.00  0.00    +0.000 C 
ATOM     78  F8  UNL A   1      55.198  12.427  56.290  1.00  0.00    +0.000 F 
ATOM     79  C57 UNL A   1      52.992  12.863  55.565  1.00  0.00    +0.000 C 
ATOM     80  F9  UNL A   1      52.711  13.456  56.733  1.00  0.00    +0.000 F 
ATOM     81  C58 UNL A   1      52.012  12.768  54.581  1.00  0.00    +0.000 C 
ATOM     82  F10 UNL A   1      50.794  13.272  54.831  1.00  0.00    +0.000 F 
ENDBRANCH   71   72
BRANCH   86   87
ATOM     97  F15 UNL A   1      45.402   8.733  52.799  1.00  0.00    +0.000 F 
ATOM     87  C62 UNL A   1      47.246   7.626  51.786  1.00  0.00    +0.000 C 
ATOM     88  C63 UNL A   1      47.942   6.423  51.607  1.00  0.00    +0.000 C 
ATOM     89  F11 UNL A   1      49.030   6.390  50.822  1.00  0.00    +0.000 F 
ATOM     90  C64 UNL A   1      47.510   5.247  52.215  1.00  0.00    +0.000 C 
ATOM     91  F12 UNL A   1      48.176   4.103  52.005  1.00  0.00    +0.000 F 
ATOM     92  C65 UNL A   1      46.388   5.256  53.030  1.00  0.00    +0.000 C 
ATOM     93  F13 UNL A   1      45.980   4.126  53.625  1.00  0.00    +0.000 F 
ATOM     94  C66 UNL A   1      45.686   6.435  53.225  1.00  0.00    +0.000 C 
ATOM     95  F14 UNL A   1      44.609   6.452  54.023  1.00  0.00    +0.000 F 
ATOM     96  C67 UNL A   1      46.102   7.606  52.597  1.00  0.00    +0.000 C 
ENDBRANCH   86   87
TORSDOF 23
ENDMDL
MODEL 6
REMARK VINA RESULT:      -9.4      9.700     17.179
ROOT
ATOM    142  H34 UNL A   1      16.687  15.262   9.974  1.00  0.00    +0.000 H 
ATOM    143  H35 UNL A   1      18.788  14.987   8.455  1.00  0.00    +0.000 H 
ATOM    144  H36 UNL A   1      16.925  18.552   7.468  1.00  0.00    +0.000 H 
ATOM    145  H37 UNL A   1      16.522  23.709   3.743  1.00  0.00    +0.000 H 
ATOM    146  H38 UNL A   1      14.645  24.116   5.404  1.00  0.00    +0.000 H 
ATOM    147  H39 UNL A   1      16.463  20.513   6.401  1.00  0.00    +0.000 H 
ATOM    148  H40 UNL A   1      20.390  20.063   3.293  1.00  0.00    +0.000 H 
ATOM    149  H41 UNL A   1      20.888  17.831   4.446  1.00  0.00    +0.000 H 
ATOM    150  H42 UNL A   1      12.990  19.103  10.533  1.00  0.00    +0.000 H 
ATOM    151  H43 UNL A   1      12.361  21.238   9.269  1.00  0.00    +0.000 H 
ATOM     50  C38 UNL A   1      14.255  21.999   7.269  1.00  0.00    +0.000 C 
ATOM     51  C39 UNL A   1      14.271  20.770   8.139  1.00  0.00    +0.000 C 
ATOM     52  N3  UNL A   1      15.134  19.784   8.161  1.00  0.00    +0.000 N 
ATOM     53  C40 UNL A   1      14.700  18.918   9.158  1.00  0.00    +0.000 C 
ATOM     54  C41 UNL A   1      15.236  17.735   9.543  1.00  0.00    +0.000 C 
ATOM     66  C48 UNL A   1      16.400  17.137   8.945  1.00  0.00    +0.000 C 
ATOM     67  C49 UNL A   1      17.006  15.932   9.257  1.00  0.00    +0.000 C 
ATOM     68  C50 UNL A   1      18.125  15.778   8.432  1.00  0.00    +0.000 C 
ATOM     69  C51 UNL A   1      18.193  16.867   7.580  1.00  0.00    +0.000 C 
ATOM     70  N4  UNL A   1      17.131  17.695   7.908  1.00  0.00    +0.000 N 
ATOM     71  C52 UNL A   1      19.159  17.138   6.546  1.00  0.00    +0.000 C 
ATOM     83  C59 UNL A   1      19.129  18.208   5.715  1.00  0.00    +0.000 C 
ATOM     84  N5  UNL A   1      18.218  19.254   5.674  1.00  0.00    +0.000 N 
ATOM     85  C60 UNL A   1      18.631  20.054   4.724  1.00  0.00    +0.000 C 
ATOM     86  C61 UNL A   1      18.029  21.344   4.243  1.00  0.00    +0.000 C 
ATOM     98  C68 UNL A   1      16.946  21.839   4.871  1.00  0.00    +0.000 C 
ATOM     99  C69 UNL A   1      16.269  23.086   4.526  1.00  0.00    +0.000 C 
ATOM    100  C70 UNL A   1      15.266  23.291   5.392  1.00  0.00    +0.000 C 
ATOM    101  C71 UNL A   1      15.191  22.158   6.314  1.00  0.00    +0.000 C 
ATOM    102  N6  UNL A   1      16.239  21.355   5.943  1.00  0.00    +0.000 N 
ATOM    103  C72 UNL A   1      19.858  19.606   4.051  1.00  0.00    +0.000 C 
ATOM    104  C73 UNL A   1      20.103  18.462   4.674  1.00  0.00    +0.000 C 
ATOM    105  C74 UNL A   1      13.511  19.505   9.738  1.00  0.00    +0.000 C 
ATOM    106  C75 UNL A   1      13.177  20.626   9.112  1.00  0.00    +0.000 C 
ENDROOT
BRANCH   50   49
ATOM    107  C76 UNL A   1      13.375  24.212   8.093  1.00  0.00    +0.000 C 
ATOM    108  C77 UNL A   1      12.300  25.066   8.350  1.00  0.00    +0.000 C 
ATOM    140  H32 UNL A   1       9.941  23.453   6.592  1.00  0.00    +0.000 H 
ATOM     46  C34 UNL A   1      11.030  24.736   7.871  1.00  0.00    +0.000 C 
ATOM     47  C35 UNL A   1      10.849  23.617   7.055  1.00  0.00    +0.000 C 
ATOM     48  C36 UNL A   1      11.901  22.729   6.870  1.00  0.00    +0.000 C 
ATOM    141  H33 UNL A   1      11.748  21.859   6.337  1.00  0.00    +0.000 H 
ATOM     49  C37 UNL A   1      13.171  23.005   7.404  1.00  0.00    +0.000 C 
ATOM    152  H44 UNL A   1      14.323  24.468   8.411  1.00  0.00    +0.000 H 
ATOM    153  H45 UNL A   1      12.443  25.934   8.889  1.00  0.00    +0.000 H 
BRANCH   46   44
ATOM     44  C33 UNL A   1       9.865  25.530   8.317  1.00  0.00    +0.000 C 
ATOM     45  O10 UNL A   1       9.867  26.063   9.421  1.00  0.00    +0.000 O 
BRANCH   44   43
ATOM     43  N2  UNL A   1       8.767  25.617   7.492  1.00  0.00    +0.000 N 
ATOM    139  H31 UNL A   1       8.946  25.913   6.571  1.00  0.00    +0.000 H 
BRANCH   43   42
ATOM    137  H29 UNL A   1       7.320  24.365   8.265  1.00  0.00    +0.000 H 
ATOM     42  C32 UNL A   1       7.375  25.330   7.806  1.00  0.00    +0.000 C 
ATOM    138  H30 UNL A   1       7.027  26.103   8.459  1.00  0.00    +0.000 H 
BRANCH   42   41
ATOM     41  C31 UNL A   1       6.480  25.333   6.576  1.00  0.00    +0.000 C 
ATOM    135  H27 UNL A   1       5.947  24.407   6.549  1.00  0.00    +0.000 H 
ATOM    136  H28 UNL A   1       5.840  26.186   6.670  1.00  0.00    +0.000 H 
BRANCH   41   40
ATOM    133  H25 UNL A   1       8.217  25.814   5.461  1.00  0.00    +0.000 H 
ATOM    134  H26 UNL A   1       7.168  24.543   4.762  1.00  0.00    +0.000 H 
ATOM     40  C30 UNL A   1       7.218  25.495   5.248  1.00  0.00    +0.000 C 
BRANCH   40   39
ATOM    131  H23 UNL A   1       5.834  25.998   3.720  1.00  0.00    +0.000 H 
ATOM    132  H24 UNL A   1       6.228  27.306   4.878  1.00  0.00    +0.000 H 
ATOM     39  C29 UNL A   1       6.597  26.502   4.275  1.00  0.00    +0.000 C 
BRANCH   39   38
ATOM    129  H21 UNL A   1       8.341  26.427   3.059  1.00  0.00    +0.000 H 
ATOM    130  H22 UNL A   1       6.996  27.399   2.410  1.00  0.00    +0.000 H 
ATOM     38  C28 UNL A   1       7.570  27.137   3.274  1.00  0.00    +0.000 C 
BRANCH   38   37
ATOM     37  C27 UNL A   1       8.228  28.424   3.771  1.00  0.00    +0.000 C 
ATOM    127  H19 UNL A   1       8.189  29.158   2.994  1.00  0.00    +0.000 H 
ATOM    128  H20 UNL A   1       7.698  28.762   4.637  1.00  0.00    +0.000 H 
BRANCH   37   36
ATOM     36  N1  UNL A   1       9.609  28.199   4.140  1.00  0.00    +0.000 N 
ATOM    126  H18 UNL A   1       9.830  27.893   5.048  1.00  0.00    +0.000 H 
BRANCH   36    2
ATOM      1  O1  UNL A   1      11.255  27.517   2.701  1.00  0.00    +0.000 O 
ATOM      2  C1  UNL A   1      10.604  28.408   3.234  1.00  0.00    +0.000 C 
BRANCH    2    3
ATOM      3  C2  UNL A   1      10.881  29.813   2.868  1.00  0.00    +0.000 C 
ATOM    109  H1  UNL A   1      10.053  30.430   2.843  1.00  0.00    +0.000 H 
BRANCH    3    4
ATOM      4  C3  UNL A   1      12.052  30.413   2.562  1.00  0.00    +0.000 C 
ATOM    110  H2  UNL A   1      12.755  30.552   3.303  1.00  0.00    +0.000 H 
BRANCH    4    5
ATOM      5  C4  UNL A   1      12.368  30.900   1.119  1.00  0.00    +0.000 C 
ATOM      6  C5  UNL A   1      11.402  30.151   0.240  1.00  0.00    +0.000 C 
ATOM      7  C6  UNL A   1      10.333  30.727  -0.325  1.00  0.00    +0.000 C 
ATOM      9  C7  UNL A   1      10.090  32.203  -0.204  1.00  0.00    +0.000 C 
ATOM     10  O3  UNL A   1       9.091  32.696  -0.717  1.00  0.00    +0.000 O 
ATOM     11  C8  UNL A   1      11.118  33.028   0.474  1.00  0.00    +0.000 C 
ATOM     12  C9  UNL A   1      12.144  32.396   1.049  1.00  0.00    +0.000 C 
ATOM     13  C10 UNL A   1      13.347  33.043   1.631  1.00  0.00    +0.000 C 
ATOM     14  O4  UNL A   1      13.432  34.164   2.067  1.00  0.00    +0.000 O 
ATOM     15  C11 UNL A   1      14.437  32.042   1.469  1.00  0.00    +0.000 C 
ATOM     16  C12 UNL A   1      15.725  32.268   1.741  1.00  0.00    +0.000 C 
ATOM     17  C13 UNL A   1      16.730  31.381   1.141  1.00  0.00    +0.000 C 
ATOM     18  C14 UNL A   1      17.833  30.959   1.899  1.00  0.00    +0.000 C 
ATOM     19  C15 UNL A   1      18.843  30.221   1.284  1.00  0.00    +0.000 C 
ATOM     21  C16 UNL A   1      18.785  29.936  -0.077  1.00  0.00    +0.000 C 
ATOM     23  C17 UNL A   1      17.708  30.350  -0.840  1.00  0.00    +0.000 C 
ATOM     24  C18 UNL A   1      16.655  31.031  -0.226  1.00  0.00    +0.000 C 
ATOM     25  O7  UNL A   1      15.653  31.433  -1.069  1.00  0.00    +0.000 O 
ATOM     26  C19 UNL A   1      14.274  31.077  -0.782  1.00  0.00    +0.000 C 
ATOM     35  C26 UNL A   1      13.891  30.839   0.724  1.00  0.00    +0.000 C 
ATOM    111  H3  UNL A   1      11.571  29.149   0.065  1.00  0.00    +0.000 H 
ATOM    113  H5  UNL A   1      11.043  34.056   0.501  1.00  0.00    +0.000 H 
ATOM    114  H6  UNL A   1      16.006  33.048   2.356  1.00  0.00    +0.000 H 
ATOM    115  H7  UNL A   1      17.896  31.193   2.902  1.00  0.00    +0.000 H 
ATOM    118  H10 UNL A   1      17.683  30.159  -1.854  1.00  0.00    +0.000 H 
ATOM    119  H11 UNL A   1      13.677  31.945  -0.974  1.00  0.00    +0.000 H 
ATOM    125  H17 UNL A   1      14.254  29.856   0.940  1.00  0.00    +0.000 H 
BRANCH    7    8
ATOM    112  H4  UNL A   1       9.737  29.310  -1.634  1.00  0.00    +0.000 H 
ATOM      8  O2  UNL A   1       9.430  29.977  -1.052  1.00  0.00    +0.000 O 
ENDBRANCH    7    8
BRANCH   19   20
ATOM    116  H8  UNL A   1      20.150  28.853   1.958  1.00  0.00    +0.000 H 
ATOM     20  O5  UNL A   1      19.933  29.765   1.973  1.00  0.00    +0.000 O 
ENDBRANCH   19   20
BRANCH   21   22
ATOM    117  H9  UNL A   1      20.506  29.710  -1.079  1.00  0.00    +0.000 H 
ATOM     22  O6  UNL A   1      19.796  29.246  -0.680  1.00  0.00    +0.000 O 
ENDBRANCH   21   22
BRANCH   26   27
ATOM     34  C25 UNL A   1      14.208  28.610  -1.454  1.00  0.00    +0.000 C 
ATOM     28  C21 UNL A   1      13.145  30.232  -2.886  1.00  0.00    +0.000 C 
ATOM    120  H12 UNL A   1      12.989  31.214  -3.160  1.00  0.00    +0.000 H 
ATOM    121  H13 UNL A   1      12.027  29.430  -4.490  1.00  0.00    +0.000 H 
ATOM     27  C20 UNL A   1      13.881  29.946  -1.722  1.00  0.00    +0.000 C 
ATOM    124  H16 UNL A   1      14.788  28.376  -0.633  1.00  0.00    +0.000 H 
ATOM     29  C22 UNL A   1      12.623  29.207  -3.678  1.00  0.00    +0.000 C 
ATOM     30  C23 UNL A   1      12.913  27.885  -3.363  1.00  0.00    +0.000 C 
ATOM     32  C24 UNL A   1      13.752  27.594  -2.293  1.00  0.00    +0.000 C 
BRANCH   30   31
ATOM    122  H14 UNL A   1      12.422  25.989  -3.791  1.00  0.00    +0.000 H 
ATOM     31  O8  UNL A   1      12.382  26.871  -4.105  1.00  0.00    +0.000 O 
ENDBRANCH   30   31
BRANCH   32   33
ATOM     33  O9  UNL A   1      14.112  26.300  -2.045  1.00  0.00    +0.000 O 
ATOM    123  H15 UNL A   1      14.675  26.101  -1.323  1.00  0.00    +0.000 H 
ENDBRANCH   32   33
ENDBRANCH   26   27
ENDBRANCH    4    5
ENDBRANCH    3    4
ENDBRANCH    2    3
ENDBRANCH   36    2
ENDBRANCH   37   36
ENDBRANCH   38   37
ENDBRANCH   39   38
ENDBRANCH   40   39
ENDBRANCH   41   40
ENDBRANCH   42   41
ENDBRANCH   43   42
ENDBRANCH   44   43
ENDBRANCH   46   44
ENDBRANCH   50   49
BRANCH   54   55
ATOM     65  F5  UNL A   1      15.669  18.369  12.280  1.00  0.00    +0.000 F 
ATOM     55  C42 UNL A   1      14.573  17.000  10.671  1.00  0.00    +0.000 C 
ATOM     56  C43 UNL A   1      13.719  15.914  10.437  1.00  0.00    +0.000 C 
ATOM     57  F1  UNL A   1      13.409  15.556   9.182  1.00  0.00    +0.000 F 
ATOM     58  C44 UNL A   1      13.158  15.202  11.496  1.00  0.00    +0.000 C 
ATOM     59  F2  UNL A   1      12.320  14.186  11.250  1.00  0.00    +0.000 F 
ATOM     60  C45 UNL A   1      13.462  15.548  12.805  1.00  0.00    +0.000 C 
ATOM     61  F3  UNL A   1      12.932  14.853  13.822  1.00  0.00    +0.000 F 
ATOM     62  C46 UNL A   1      14.311  16.614  13.059  1.00  0.00    +0.000 C 
ATOM     63  F4  UNL A   1      14.613  16.942  14.323  1.00  0.00    +0.000 F 
ATOM     64  C47 UNL A   1      14.854  17.342  12.002  1.00  0.00    +0.000 C 
ENDBRANCH   54   55
BRANCH   71   72
ATOM     72  C53 UNL A   1      20.280  16.160   6.367  1.00  0.00    +0.000 C 
ATOM     73  C54 UNL A   1      20.206  15.137   5.411  1.00  0.00    +0.000 C 
ATOM     74  F6  UNL A   1      19.092  14.974   4.681  1.00  0.00    +0.000 F 
ATOM     75  C55 UNL A   1      21.269  14.257   5.223  1.00  0.00    +0.000 C 
ATOM     76  F7  UNL A   1      21.164  13.265   4.329  1.00  0.00    +0.000 F 
ATOM     77  C56 UNL A   1      22.432  14.401   5.966  1.00  0.00    +0.000 C 
ATOM     78  F8  UNL A   1      23.458  13.560   5.775  1.00  0.00    +0.000 F 
ATOM     79  C57 UNL A   1      22.529  15.414   6.908  1.00  0.00    +0.000 C 
ATOM     80  F9  UNL A   1      23.656  15.561   7.617  1.00  0.00    +0.000 F 
ATOM     81  C58 UNL A   1      21.459  16.279   7.116  1.00  0.00    +0.000 C 
ATOM     82  F10 UNL A   1      21.580  17.247   8.037  1.00  0.00    +0.000 F 
ENDBRANCH   71   72
BRANCH   86   87
ATOM     97  F15 UNL A   1      17.393  20.767   1.529  1.00  0.00    +0.000 F 
ATOM     87  C62 UNL A   1      18.610  22.080   3.092  1.00  0.00    +0.000 C 
ATOM     88  C63 UNL A   1      19.534  23.114   3.294  1.00  0.00    +0.000 C 
ATOM     89  F11 UNL A   1      19.869  23.478   4.541  1.00  0.00    +0.000 F 
ATOM     90  C64 UNL A   1      20.100  23.790   2.216  1.00  0.00    +0.000 C 
ATOM     91  F12 UNL A   1      20.961  24.793   2.435  1.00  0.00    +0.000 F 
ATOM     92  C65 UNL A   1      19.769  23.431   0.918  1.00  0.00    +0.000 C 
ATOM     93  F13 UNL A   1      20.324  24.074  -0.119  1.00  0.00    +0.000 F 
ATOM     94  C66 UNL A   1      18.859  22.409   0.695  1.00  0.00    +0.000 C 
ATOM     95  F14 UNL A   1      18.547  22.050  -0.558  1.00  0.00    +0.000 F 
ATOM     96  C67 UNL A   1      18.274  21.750   1.772  1.00  0.00    +0.000 C 
ENDBRANCH   86   87
TORSDOF 23
ENDMDL
MODEL 7
REMARK VINA RESULT:      -9.3     24.167     30.773
ROOT
ATOM    142  H34 UNL A   1      18.219  51.652  -2.379  1.00  0.00    +0.000 H 
ATOM    143  H35 UNL A   1      18.616  54.113  -1.618  1.00  0.00    +0.000 H 
ATOM    144  H36 UNL A   1      16.267  52.233   1.227  1.00  0.00    +0.000 H 
ATOM    145  H37 UNL A   1      12.813  52.513   6.577  1.00  0.00    +0.000 H 
ATOM    146  H38 UNL A   1      12.660  50.049   5.985  1.00  0.00    +0.000 H 
ATOM    147  H39 UNL A   1      14.989  51.908   3.087  1.00  0.00    +0.000 H 
ATOM    148  H40 UNL A   1      15.532  56.665   4.623  1.00  0.00    +0.000 H 
ATOM    149  H41 UNL A   1      16.923  57.058   2.509  1.00  0.00    +0.000 H 
ATOM    150  H42 UNL A   1      15.677  47.461  -0.210  1.00  0.00    +0.000 H 
ATOM    151  H43 UNL A   1      14.126  47.096   1.794  1.00  0.00    +0.000 H 
ATOM     50  C38 UNL A   1      13.932  49.355   3.534  1.00  0.00    +0.000 C 
ATOM     51  C39 UNL A   1      14.687  49.249   2.235  1.00  0.00    +0.000 C 
ATOM     52  N3  UNL A   1      15.399  50.158   1.616  1.00  0.00    +0.000 N 
ATOM     53  C40 UNL A   1      15.896  49.543   0.474  1.00  0.00    +0.000 C 
ATOM     54  C41 UNL A   1      16.660  50.076  -0.510  1.00  0.00    +0.000 C 
ATOM     66  C48 UNL A   1      17.099  51.446  -0.546  1.00  0.00    +0.000 C 
ATOM     67  C49 UNL A   1      17.861  52.081  -1.512  1.00  0.00    +0.000 C 
ATOM     68  C50 UNL A   1      18.062  53.406  -1.110  1.00  0.00    +0.000 C 
ATOM     69  C51 UNL A   1      17.392  53.606   0.085  1.00  0.00    +0.000 C 
ATOM     70  N4  UNL A   1      16.808  52.395   0.422  1.00  0.00    +0.000 N 
ATOM     71  C52 UNL A   1      17.295  54.812   0.867  1.00  0.00    +0.000 C 
ATOM     83  C59 UNL A   1      16.573  54.943   2.007  1.00  0.00    +0.000 C 
ATOM     84  N5  UNL A   1      15.810  53.992   2.668  1.00  0.00    +0.000 N 
ATOM     85  C60 UNL A   1      15.337  54.589   3.733  1.00  0.00    +0.000 C 
ATOM     86  C61 UNL A   1      14.448  54.037   4.812  1.00  0.00    +0.000 C 
ATOM     98  C68 UNL A   1      14.098  52.738   4.776  1.00  0.00    +0.000 C 
ATOM     99  C69 UNL A   1      13.259  52.063   5.763  1.00  0.00    +0.000 C 
ATOM    100  C70 UNL A   1      13.162  50.766   5.439  1.00  0.00    +0.000 C 
ATOM    101  C71 UNL A   1      13.882  50.530   4.187  1.00  0.00    +0.000 C 
ATOM    102  N6  UNL A   1      14.423  51.753   3.878  1.00  0.00    +0.000 N 
ATOM    103  C72 UNL A   1      15.750  55.992   3.872  1.00  0.00    +0.000 C 
ATOM    104  C73 UNL A   1      16.479  56.165   2.778  1.00  0.00    +0.000 C 
ATOM    105  C74 UNL A   1      15.429  48.173   0.495  1.00  0.00    +0.000 C 
ATOM    106  C75 UNL A   1      14.640  47.954   1.538  1.00  0.00    +0.000 C 
ENDROOT
BRANCH   50   49
ATOM    107  C76 UNL A   1      11.837  47.966   3.714  1.00  0.00    +0.000 C 
ATOM    108  C77 UNL A   1      11.100  46.964   4.351  1.00  0.00    +0.000 C 
ATOM    140  H32 UNL A   1      13.575  45.583   6.146  1.00  0.00    +0.000 H 
ATOM     46  C34 UNL A   1      11.723  46.153   5.303  1.00  0.00    +0.000 C 
ATOM     47  C35 UNL A   1      13.093  46.270   5.546  1.00  0.00    +0.000 C 
ATOM     48  C36 UNL A   1      13.802  47.318   4.973  1.00  0.00    +0.000 C 
ATOM    141  H33 UNL A   1      14.796  47.457   5.214  1.00  0.00    +0.000 H 
ATOM     49  C37 UNL A   1      13.178  48.191   4.065  1.00  0.00    +0.000 C 
ATOM    152  H44 UNL A   1      11.394  48.544   2.981  1.00  0.00    +0.000 H 
ATOM    153  H45 UNL A   1      10.105  46.824   4.120  1.00  0.00    +0.000 H 
BRANCH   46   44
ATOM     44  C33 UNL A   1      10.896  45.239   6.118  1.00  0.00    +0.000 C 
ATOM     45  O10 UNL A   1      11.423  44.340   6.764  1.00  0.00    +0.000 O 
BRANCH   44   43
ATOM     43  N2  UNL A   1       9.528  45.386   6.098  1.00  0.00    +0.000 N 
ATOM    139  H31 UNL A   1       9.040  44.765   5.511  1.00  0.00    +0.000 H 
BRANCH   43   42
ATOM    137  H29 UNL A   1       9.185  47.298   6.795  1.00  0.00    +0.000 H 
ATOM     42  C32 UNL A   1       8.710  46.340   6.833  1.00  0.00    +0.000 C 
ATOM    138  H30 UNL A   1       7.744  46.355   6.372  1.00  0.00    +0.000 H 
BRANCH   42   41
ATOM     41  C31 UNL A   1       8.515  45.951   8.290  1.00  0.00    +0.000 C 
ATOM    135  H27 UNL A   1       7.508  46.184   8.565  1.00  0.00    +0.000 H 
ATOM    136  H28 UNL A   1       8.740  44.907   8.357  1.00  0.00    +0.000 H 
BRANCH   41   40
ATOM    133  H25 UNL A   1       8.851  47.111  10.032  1.00  0.00    +0.000 H 
ATOM    134  H26 UNL A   1      10.115  45.904   9.642  1.00  0.00    +0.000 H 
ATOM     40  C30 UNL A   1       9.450  46.656   9.271  1.00  0.00    +0.000 C 
BRANCH   40   39
ATOM    131  H23 UNL A   1      10.278  47.658   7.592  1.00  0.00    +0.000 H 
ATOM    132  H24 UNL A   1       9.970  48.674   9.036  1.00  0.00    +0.000 H 
ATOM     39  C29 UNL A   1      10.339  47.743   8.657  1.00  0.00    +0.000 C 
BRANCH   39   38
ATOM    129  H21 UNL A   1      11.902  47.947  10.087  1.00  0.00    +0.000 H 
ATOM    130  H22 UNL A   1      12.152  46.687   8.853  1.00  0.00    +0.000 H 
ATOM     38  C28 UNL A   1      11.820  47.683   9.053  1.00  0.00    +0.000 C 
BRANCH   38   37
ATOM     37  C27 UNL A   1      12.721  48.617   8.247  1.00  0.00    +0.000 C 
ATOM    127  H19 UNL A   1      12.858  48.209   7.267  1.00  0.00    +0.000 H 
ATOM    128  H20 UNL A   1      12.252  49.578   8.194  1.00  0.00    +0.000 H 
BRANCH   37   36
ATOM     36  N1  UNL A   1      14.014  48.774   8.877  1.00  0.00    +0.000 N 
ATOM    126  H18 UNL A   1      14.344  48.083   9.495  1.00  0.00    +0.000 H 
BRANCH   36    2
ATOM      1  O1  UNL A   1      15.701  49.902   7.816  1.00  0.00    +0.000 O 
ATOM      2  C1  UNL A   1      14.775  49.872   8.619  1.00  0.00    +0.000 C 
BRANCH    2    3
ATOM      3  C2  UNL A   1      14.424  51.108   9.351  1.00  0.00    +0.000 C 
ATOM    109  H1  UNL A   1      15.188  51.515   9.913  1.00  0.00    +0.000 H 
BRANCH    3    4
ATOM      4  C3  UNL A   1      13.256  51.785   9.396  1.00  0.00    +0.000 C 
ATOM    110  H2  UNL A   1      12.919  52.266   8.548  1.00  0.00    +0.000 H 
BRANCH    4    5
ATOM      5  C4  UNL A   1      12.403  51.859  10.696  1.00  0.00    +0.000 C 
ATOM      6  C5  UNL A   1      13.285  51.276  11.767  1.00  0.00    +0.000 C 
ATOM      7  C6  UNL A   1      13.887  52.024  12.703  1.00  0.00    +0.000 C 
ATOM      9  C7  UNL A   1      13.624  53.498  12.807  1.00  0.00    +0.000 C 
ATOM     10  O3  UNL A   1      14.205  54.157  13.662  1.00  0.00    +0.000 O 
ATOM     11  C8  UNL A   1      12.605  54.092  11.910  1.00  0.00    +0.000 C 
ATOM     12  C9  UNL A   1      12.065  53.307  10.974  1.00  0.00    +0.000 C 
ATOM     13  C10 UNL A   1      10.923  53.665  10.095  1.00  0.00    +0.000 C 
ATOM     14  O4  UNL A   1      10.579  54.770   9.762  1.00  0.00    +0.000 O 
ATOM     15  C11 UNL A   1      10.250  52.370   9.796  1.00  0.00    +0.000 C 
ATOM     16  C12 UNL A   1       9.093  52.248   9.141  1.00  0.00    +0.000 C 
ATOM     17  C13 UNL A   1       8.335  50.999   9.292  1.00  0.00    +0.000 C 
ATOM     18  C14 UNL A   1       7.704  50.423   8.179  1.00  0.00    +0.000 C 
ATOM     19  C15 UNL A   1       6.885  49.309   8.357  1.00  0.00    +0.000 C 
ATOM     21  C16 UNL A   1       6.659  48.791   9.630  1.00  0.00    +0.000 C 
ATOM     23  C17 UNL A   1       7.269  49.351  10.739  1.00  0.00    +0.000 C 
ATOM     24  C18 UNL A   1       8.145  50.425  10.570  1.00  0.00    +0.000 C 
ATOM     25  O7  UNL A   1       8.669  50.935  11.727  1.00  0.00    +0.000 O 
ATOM     26  C19 UNL A   1      10.108  51.074  11.876  1.00  0.00    +0.000 C 
ATOM     35  C26 UNL A   1      10.951  51.265  10.563  1.00  0.00    +0.000 C 
ATOM    111  H3  UNL A   1      13.434  50.256  11.782  1.00  0.00    +0.000 H 
ATOM    113  H5  UNL A   1      12.322  55.080  12.006  1.00  0.00    +0.000 H 
ATOM    114  H6  UNL A   1       8.740  53.012   8.543  1.00  0.00    +0.000 H 
ATOM    115  H7  UNL A   1       7.844  50.821   7.237  1.00  0.00    +0.000 H 
ATOM    118  H10 UNL A   1       7.076  48.979  11.682  1.00  0.00    +0.000 H 
ATOM    119  H11 UNL A   1      10.288  52.025  12.333  1.00  0.00    +0.000 H 
ATOM    125  H17 UNL A   1      11.027  50.281  10.149  1.00  0.00    +0.000 H 
BRANCH    7    8
ATOM    112  H4  UNL A   1      14.922  50.531  13.583  1.00  0.00    +0.000 H 
ATOM      8  O2  UNL A   1      14.755  51.452  13.611  1.00  0.00    +0.000 O 
ENDBRANCH    7    8
BRANCH   19   20
ATOM    116  H8  UNL A   1       5.574  49.135   6.847  1.00  0.00    +0.000 H 
ATOM     20  O5  UNL A   1       6.258  48.692   7.311  1.00  0.00    +0.000 O 
ENDBRANCH   19   20
BRANCH   21   22
ATOM    117  H9  UNL A   1       5.093  47.606   9.229  1.00  0.00    +0.000 H 
ATOM     22  O6  UNL A   1       5.826  47.724   9.801  1.00  0.00    +0.000 O 
ENDBRANCH   21   22
BRANCH   26   27
ATOM     34  C25 UNL A   1      10.753  50.127  14.163  1.00  0.00    +0.000 C 
ATOM     28  C21 UNL A   1      10.868  48.685  12.235  1.00  0.00    +0.000 C 
ATOM    120  H12 UNL A   1      10.865  48.562  11.210  1.00  0.00    +0.000 H 
ATOM    121  H13 UNL A   1      11.280  46.653  12.646  1.00  0.00    +0.000 H 
ATOM     27  C20 UNL A   1      10.593  49.952  12.782  1.00  0.00    +0.000 C 
ATOM    124  H16 UNL A   1      10.604  51.058  14.584  1.00  0.00    +0.000 H 
ATOM     29  C22 UNL A   1      11.148  47.591  13.056  1.00  0.00    +0.000 C 
ATOM     30  C23 UNL A   1      11.248  47.775  14.429  1.00  0.00    +0.000 C 
ATOM     32  C24 UNL A   1      11.111  49.049  14.971  1.00  0.00    +0.000 C 
BRANCH   30   31
ATOM    122  H14 UNL A   1      11.230  45.849  14.986  1.00  0.00    +0.000 H 
ATOM     31  O8  UNL A   1      11.486  46.711  15.250  1.00  0.00    +0.000 O 
ENDBRANCH   30   31
BRANCH   32   33
ATOM     33  O9  UNL A   1      11.305  49.243  16.309  1.00  0.00    +0.000 O 
ATOM    123  H15 UNL A   1      11.826  48.637  16.799  1.00  0.00    +0.000 H 
ENDBRANCH   32   33
ENDBRANCH   26   27
ENDBRANCH    4    5
ENDBRANCH    3    4
ENDBRANCH    2    3
ENDBRANCH   36    2
ENDBRANCH   37   36
ENDBRANCH   38   37
ENDBRANCH   39   38
ENDBRANCH   40   39
ENDBRANCH   41   40
ENDBRANCH   42   41
ENDBRANCH   43   42
ENDBRANCH   44   43
ENDBRANCH   46   44
ENDBRANCH   50   49
BRANCH   54   55
ATOM     65  F5  UNL A   1      18.891  48.321  -0.349  1.00  0.00    +0.000 F 
ATOM     55  C42 UNL A   1      17.081  49.177  -1.635  1.00  0.00    +0.000 C 
ATOM     56  C43 UNL A   1      16.411  49.180  -2.866  1.00  0.00    +0.000 C 
ATOM     57  F1  UNL A   1      15.317  49.937  -3.038  1.00  0.00    +0.000 F 
ATOM     58  C44 UNL A   1      16.849  48.384  -3.923  1.00  0.00    +0.000 C 
ATOM     59  F2  UNL A   1      16.176  48.379  -5.081  1.00  0.00    +0.000 F 
ATOM     60  C45 UNL A   1      17.979  47.592  -3.775  1.00  0.00    +0.000 C 
ATOM     61  F3  UNL A   1      18.407  46.837  -4.798  1.00  0.00    +0.000 F 
ATOM     62  C46 UNL A   1      18.662  47.580  -2.569  1.00  0.00    +0.000 C 
ATOM     63  F4  UNL A   1      19.759  46.823  -2.429  1.00  0.00    +0.000 F 
ATOM     64  C47 UNL A   1      18.212  48.356  -1.504  1.00  0.00    +0.000 C 
ENDBRANCH   54   55
BRANCH   71   72
ATOM     72  C53 UNL A   1      18.040  56.018   0.383  1.00  0.00    +0.000 C 
ATOM     73  C54 UNL A   1      19.345  56.289   0.817  1.00  0.00    +0.000 C 
ATOM     74  F6  UNL A   1      19.928  55.503   1.735  1.00  0.00    +0.000 F 
ATOM     75  C55 UNL A   1      20.046  57.390   0.331  1.00  0.00    +0.000 C 
ATOM     76  F7  UNL A   1      21.279  57.651   0.786  1.00  0.00    +0.000 F 
ATOM     77  C56 UNL A   1      19.466  58.221  -0.616  1.00  0.00    +0.000 C 
ATOM     78  F8  UNL A   1      20.147  59.273  -1.092  1.00  0.00    +0.000 F 
ATOM     79  C57 UNL A   1      18.181  57.963  -1.069  1.00  0.00    +0.000 C 
ATOM     80  F9  UNL A   1      17.625  58.758  -1.993  1.00  0.00    +0.000 F 
ATOM     81  C58 UNL A   1      17.468  56.878  -0.565  1.00  0.00    +0.000 C 
ATOM     82  F10 UNL A   1      16.225  56.656  -1.018  1.00  0.00    +0.000 F 
ENDBRANCH   71   72
BRANCH   86   87
ATOM     97  F15 UNL A   1      15.376  53.832   7.495  1.00  0.00    +0.000 F 
ATOM     87  C62 UNL A   1      13.955  54.898   5.916  1.00  0.00    +0.000 C 
ATOM     88  C63 UNL A   1      12.972  55.870   5.685  1.00  0.00    +0.000 C 
ATOM     89  F11 UNL A   1      12.500  56.062   4.444  1.00  0.00    +0.000 F 
ATOM     90  C64 UNL A   1      12.490  56.663   6.724  1.00  0.00    +0.000 C 
ATOM     91  F12 UNL A   1      11.570  57.605   6.472  1.00  0.00    +0.000 F 
ATOM     92  C65 UNL A   1      12.964  56.484   8.015  1.00  0.00    +0.000 C 
ATOM     93  F13 UNL A   1      12.489  57.238   9.016  1.00  0.00    +0.000 F 
ATOM     94  C66 UNL A   1      13.933  55.524   8.267  1.00  0.00    +0.000 C 
ATOM     95  F14 UNL A   1      14.384  55.338   9.515  1.00  0.00    +0.000 F 
ATOM     96  C67 UNL A   1      14.435  54.750   7.225  1.00  0.00    +0.000 C 
ENDBRANCH   86   87
TORSDOF 23
ENDMDL
MODEL 8
REMARK VINA RESULT:      -9.3     53.035     59.170
ROOT
ATOM    142  H34 UNL A   1      44.137  14.300  42.381  1.00  0.00    +0.000 H 
ATOM    143  H35 UNL A   1      45.083  16.621  41.666  1.00  0.00    +0.000 H 
ATOM    144  H36 UNL A   1      44.928  16.498  45.802  1.00  0.00    +0.000 H 
ATOM    145  H37 UNL A   1      45.631  19.408  51.429  1.00  0.00    +0.000 H 
ATOM    146  H38 UNL A   1      44.980  17.057  52.134  1.00  0.00    +0.000 H 
ATOM    147  H39 UNL A   1      45.086  17.152  47.980  1.00  0.00    +0.000 H 
ATOM    148  H40 UNL A   1      46.780  21.728  46.766  1.00  0.00    +0.000 H 
ATOM    149  H41 UNL A   1      46.555  21.025  44.314  1.00  0.00    +0.000 H 
ATOM    150  H42 UNL A   1      43.258  11.952  47.119  1.00  0.00    +0.000 H 
ATOM    151  H43 UNL A   1      43.291  12.699  49.568  1.00  0.00    +0.000 H 
ATOM     50  C38 UNL A   1      44.381  15.310  49.967  1.00  0.00    +0.000 C 
ATOM     51  C39 UNL A   1      44.144  14.596  48.663  1.00  0.00    +0.000 C 
ATOM     52  N3  UNL A   1      44.365  15.011  47.439  1.00  0.00    +0.000 N 
ATOM     53  C40 UNL A   1      43.993  13.964  46.606  1.00  0.00    +0.000 C 
ATOM     54  C41 UNL A   1      44.002  13.916  45.252  1.00  0.00    +0.000 C 
ATOM     66  C48 UNL A   1      44.407  15.004  44.403  1.00  0.00    +0.000 C 
ATOM     67  C49 UNL A   1      44.433  15.055  43.019  1.00  0.00    +0.000 C 
ATOM     68  C50 UNL A   1      44.926  16.306  42.636  1.00  0.00    +0.000 C 
ATOM     69  C51 UNL A   1      45.171  17.049  43.779  1.00  0.00    +0.000 C 
ATOM     70  N4  UNL A   1      44.852  16.237  44.856  1.00  0.00    +0.000 N 
ATOM     71  C52 UNL A   1      45.666  18.398  43.883  1.00  0.00    +0.000 C 
ATOM     83  C59 UNL A   1      45.832  19.077  45.043  1.00  0.00    +0.000 C 
ATOM     84  N5  UNL A   1      45.594  18.653  46.342  1.00  0.00    +0.000 N 
ATOM     85  C60 UNL A   1      45.935  19.653  47.115  1.00  0.00    +0.000 C 
ATOM     86  C61 UNL A   1      45.888  19.751  48.614  1.00  0.00    +0.000 C 
ATOM     98  C68 UNL A   1      45.510  18.678  49.332  1.00  0.00    +0.000 C 
ATOM     99  C69 UNL A   1      45.436  18.622  50.789  1.00  0.00    +0.000 C 
ATOM    100  C70 UNL A   1      45.073  17.386  51.161  1.00  0.00    +0.000 C 
ATOM    101  C71 UNL A   1      44.830  16.579  49.965  1.00  0.00    +0.000 C 
ATOM    102  N6  UNL A   1      45.133  17.422  48.926  1.00  0.00    +0.000 N 
ATOM    103  C72 UNL A   1      46.433  20.831  46.391  1.00  0.00    +0.000 C 
ATOM    104  C73 UNL A   1      46.322  20.437  45.130  1.00  0.00    +0.000 C 
ATOM    105  C74 UNL A   1      43.555  12.880  47.460  1.00  0.00    +0.000 C 
ATOM    106  C75 UNL A   1      43.584  13.236  48.737  1.00  0.00    +0.000 C 
ENDROOT
BRANCH   50   49
ATOM    107  C76 UNL A   1      42.867  14.944  51.947  1.00  0.00    +0.000 C 
ATOM    108  C77 UNL A   1      42.659  14.441  53.234  1.00  0.00    +0.000 C 
ATOM    140  H32 UNL A   1      45.359  12.462  53.447  1.00  0.00    +0.000 H 
ATOM     46  C34 UNL A   1      43.617  13.603  53.809  1.00  0.00    +0.000 C 
ATOM     47  C35 UNL A   1      44.727  13.186  53.070  1.00  0.00    +0.000 C 
ATOM     48  C36 UNL A   1      44.972  13.751  51.825  1.00  0.00    +0.000 C 
ATOM    141  H33 UNL A   1      45.834  13.507  51.313  1.00  0.00    +0.000 H 
ATOM     49  C37 UNL A   1      44.055  14.652  51.258  1.00  0.00    +0.000 C 
ATOM    152  H44 UNL A   1      42.145  15.533  51.502  1.00  0.00    +0.000 H 
ATOM    153  H45 UNL A   1      41.803  14.686  53.756  1.00  0.00    +0.000 H 
BRANCH   46   44
ATOM     44  C33 UNL A   1      43.493  13.243  55.237  1.00  0.00    +0.000 C 
ATOM     45  O10 UNL A   1      43.475  12.065  55.577  1.00  0.00    +0.000 O 
BRANCH   44   43
ATOM     43  N2  UNL A   1      43.350  14.248  56.165  1.00  0.00    +0.000 N 
ATOM    139  H31 UNL A   1      44.176  14.534  56.617  1.00  0.00    +0.000 H 
BRANCH   43   42
ATOM    137  H29 UNL A   1      42.268  15.315  57.560  1.00  0.00    +0.000 H 
ATOM     42  C32 UNL A   1      42.136  14.944  56.565  1.00  0.00    +0.000 C 
ATOM    138  H30 UNL A   1      41.973  15.736  55.863  1.00  0.00    +0.000 H 
BRANCH   42   41
ATOM     41  C31 UNL A   1      40.906  14.050  56.539  1.00  0.00    +0.000 C 
ATOM    135  H27 UNL A   1      41.208  13.079  56.205  1.00  0.00    +0.000 H 
ATOM    136  H28 UNL A   1      40.511  14.050  57.534  1.00  0.00    +0.000 H 
BRANCH   41   40
ATOM    133  H25 UNL A   1      39.137  15.168  56.207  1.00  0.00    +0.000 H 
ATOM    134  H26 UNL A   1      40.255  15.042  54.813  1.00  0.00    +0.000 H 
ATOM     40  C30 UNL A   1      39.780  14.537  55.629  1.00  0.00    +0.000 C 
BRANCH   40   39
ATOM    131  H23 UNL A   1      38.876  12.618  55.697  1.00  0.00    +0.000 H 
ATOM    132  H24 UNL A   1      37.971  13.877  54.800  1.00  0.00    +0.000 H 
ATOM     39  C29 UNL A   1      38.923  13.432  55.004  1.00  0.00    +0.000 C 
BRANCH   39   38
ATOM    129  H21 UNL A   1      38.585  12.547  53.099  1.00  0.00    +0.000 H 
ATOM    130  H22 UNL A   1      39.955  13.683  53.184  1.00  0.00    +0.000 H 
ATOM     38  C28 UNL A   1      39.429  12.884  53.663  1.00  0.00    +0.000 C 
BRANCH   38   37
ATOM     37  C27 UNL A   1      40.415  11.724  53.793  1.00  0.00    +0.000 C 
ATOM    127  H19 UNL A   1      41.378  12.113  54.049  1.00  0.00    +0.000 H 
ATOM    128  H20 UNL A   1      40.060  11.062  54.555  1.00  0.00    +0.000 H 
BRANCH   37   36
ATOM     36  N1  UNL A   1      40.519  10.982  52.555  1.00  0.00    +0.000 N 
ATOM    126  H18 UNL A   1      39.860  10.281  52.349  1.00  0.00    +0.000 H 
BRANCH   36    2
ATOM      1  O1  UNL A   1      41.461  12.096  50.791  1.00  0.00    +0.000 O 
ATOM      2  C1  UNL A   1      41.522  11.251  51.676  1.00  0.00    +0.000 C 
BRANCH    2    3
ATOM      3  C2  UNL A   1      42.769  10.474  51.837  1.00  0.00    +0.000 C 
ATOM    109  H1  UNL A   1      43.565  11.000  52.231  1.00  0.00    +0.000 H 
BRANCH    3    4
ATOM      4  C3  UNL A   1      43.025   9.179  51.548  1.00  0.00    +0.000 C 
ATOM    110  H2  UNL A   1      42.261   8.580  51.199  1.00  0.00    +0.000 H 
BRANCH    4    5
ATOM      5  C4  UNL A   1      44.444   8.567  51.726  1.00  0.00    +0.000 C 
ATOM      6  C5  UNL A   1      44.619   8.429  53.214  1.00  0.00    +0.000 C 
ATOM      7  C6  UNL A   1      44.564   7.250  53.849  1.00  0.00    +0.000 C 
ATOM      9  C7  UNL A   1      44.434   5.963  53.088  1.00  0.00    +0.000 C 
ATOM     10  O3  UNL A   1      44.368   4.902  53.700  1.00  0.00    +0.000 O 
ATOM     11  C8  UNL A   1      44.467   6.019  51.607  1.00  0.00    +0.000 C 
ATOM     12  C9  UNL A   1      44.485   7.223  51.030  1.00  0.00    +0.000 C 
ATOM     13  C10 UNL A   1      44.681   7.489  49.582  1.00  0.00    +0.000 C 
ATOM     14  O4  UNL A   1      44.436   6.746  48.666  1.00  0.00    +0.000 O 
ATOM     15  C11 UNL A   1      45.330   8.828  49.523  1.00  0.00    +0.000 C 
ATOM     16  C12 UNL A   1      45.803   9.395  48.410  1.00  0.00    +0.000 C 
ATOM     17  C13 UNL A   1      46.784  10.481  48.544  1.00  0.00    +0.000 C 
ATOM     18  C14 UNL A   1      46.704  11.604  47.707  1.00  0.00    +0.000 C 
ATOM     19  C15 UNL A   1      47.711  12.567  47.758  1.00  0.00    +0.000 C 
ATOM     21  C16 UNL A   1      48.808  12.403  48.599  1.00  0.00    +0.000 C 
ATOM     23  C17 UNL A   1      48.906  11.297  49.426  1.00  0.00    +0.000 C 
ATOM     24  C18 UNL A   1      47.874  10.358  49.437  1.00  0.00    +0.000 C 
ATOM     25  O7  UNL A   1      48.077   9.281  50.258  1.00  0.00    +0.000 O 
ATOM     26  C19 UNL A   1      47.075   8.919  51.247  1.00  0.00    +0.000 C 
ATOM     35  C26 UNL A   1      45.585   9.312  50.937  1.00  0.00    +0.000 C 
ATOM    111  H3  UNL A   1      44.787   9.280  53.772  1.00  0.00    +0.000 H 
ATOM    113  H5  UNL A   1      44.475   5.156  51.042  1.00  0.00    +0.000 H 
ATOM    114  H6  UNL A   1      45.488   9.079  47.480  1.00  0.00    +0.000 H 
ATOM    115  H7  UNL A   1      45.908  11.716  47.061  1.00  0.00    +0.000 H 
ATOM    118  H10 UNL A   1      49.734  11.168  50.027  1.00  0.00    +0.000 H 
ATOM    119  H11 UNL A   1      46.978   7.853  51.223  1.00  0.00    +0.000 H 
ATOM    125  H17 UNL A   1      45.529  10.355  51.172  1.00  0.00    +0.000 H 
BRANCH    7    8
ATOM    112  H4  UNL A   1      44.222   6.488  55.687  1.00  0.00    +0.000 H 
ATOM      8  O2  UNL A   1      44.644   7.185  55.225  1.00  0.00    +0.000 O 
ENDBRANCH    7    8
BRANCH   19   20
ATOM    116  H8  UNL A   1      46.931  13.874  46.448  1.00  0.00    +0.000 H 
ATOM     20  O5  UNL A   1      47.681  13.692  46.982  1.00  0.00    +0.000 O 
ENDBRANCH   19   20
BRANCH   21   22
ATOM    117  H9  UNL A   1      50.614  13.144  49.057  1.00  0.00    +0.000 H 
ATOM     22  O6  UNL A   1      49.809  13.331  48.615  1.00  0.00    +0.000 O 
ENDBRANCH   21   22
BRANCH   26   27
ATOM     34  C25 UNL A   1      48.283   8.516  53.465  1.00  0.00    +0.000 C 
ATOM     28  C21 UNL A   1      47.366  10.701  53.022  1.00  0.00    +0.000 C 
ATOM    120  H12 UNL A   1      46.759  11.317  52.460  1.00  0.00    +0.000 H 
ATOM    121  H13 UNL A   1      47.853  12.192  54.440  1.00  0.00    +0.000 H 
ATOM     27  C20 UNL A   1      47.581   9.374  52.608  1.00  0.00    +0.000 C 
ATOM    124  H16 UNL A   1      48.413   7.525  53.208  1.00  0.00    +0.000 H 
ATOM     29  C22 UNL A   1      47.961  11.198  54.184  1.00  0.00    +0.000 C 
ATOM     30  C23 UNL A   1      48.701  10.344  54.992  1.00  0.00    +0.000 C 
ATOM     32  C24 UNL A   1      48.808   8.996  54.664  1.00  0.00    +0.000 C 
BRANCH   30   31
ATOM    122  H14 UNL A   1      49.948  10.292  56.561  1.00  0.00    +0.000 H 
ATOM     31  O8  UNL A   1      49.319  10.821  56.111  1.00  0.00    +0.000 O 
ENDBRANCH   30   31
BRANCH   32   33
ATOM     33  O9  UNL A   1      49.454   8.141  55.510  1.00  0.00    +0.000 O 
ATOM    123  H15 UNL A   1      50.385   8.050  55.462  1.00  0.00    +0.000 H 
ENDBRANCH   32   33
ENDBRANCH   26   27
ENDBRANCH    4    5
ENDBRANCH    3    4
ENDBRANCH    2    3
ENDBRANCH   36    2
ENDBRANCH   37   36
ENDBRANCH   38   37
ENDBRANCH   39   38
ENDBRANCH   40   39
ENDBRANCH   41   40
ENDBRANCH   42   41
ENDBRANCH   43   42
ENDBRANCH   44   43
ENDBRANCH   46   44
ENDBRANCH   50   49
BRANCH   54   55
ATOM     65  F5  UNL A   1      45.771  11.762  44.695  1.00  0.00    +0.000 F 
ATOM     55  C42 UNL A   1      43.562  12.642  44.594  1.00  0.00    +0.000 C 
ATOM     56  C43 UNL A   1      42.239  12.453  44.171  1.00  0.00    +0.000 C 
ATOM     57  F1  UNL A   1      41.309  13.386  44.423  1.00  0.00    +0.000 F 
ATOM     58  C44 UNL A   1      41.858  11.288  43.506  1.00  0.00    +0.000 C 
ATOM     59  F2  UNL A   1      40.582  11.115  43.139  1.00  0.00    +0.000 F 
ATOM     60  C45 UNL A   1      42.798  10.306  43.230  1.00  0.00    +0.000 C 
ATOM     61  F3  UNL A   1      42.432   9.193  42.578  1.00  0.00    +0.000 F 
ATOM     62  C46 UNL A   1      44.114  10.476  43.631  1.00  0.00    +0.000 C 
ATOM     63  F4  UNL A   1      45.025   9.532  43.355  1.00  0.00    +0.000 F 
ATOM     64  C47 UNL A   1      44.492  11.628  44.317  1.00  0.00    +0.000 C 
ENDBRANCH   54   55
BRANCH   71   72
ATOM     72  C53 UNL A   1      46.017  19.110  42.612  1.00  0.00    +0.000 C 
ATOM     73  C54 UNL A   1      47.133  18.732  41.851  1.00  0.00    +0.000 C 
ATOM     74  F6  UNL A   1      47.951  17.762  42.289  1.00  0.00    +0.000 F 
ATOM     75  C55 UNL A   1      47.430  19.372  40.651  1.00  0.00    +0.000 C 
ATOM     76  F7  UNL A   1      48.520  19.020  39.958  1.00  0.00    +0.000 F 
ATOM     77  C56 UNL A   1      46.602  20.381  40.177  1.00  0.00    +0.000 C 
ATOM     78  F8  UNL A   1      46.883  20.988  39.016  1.00  0.00    +0.000 F 
ATOM     79  C57 UNL A   1      45.487  20.761  40.909  1.00  0.00    +0.000 C 
ATOM     80  F9  UNL A   1      44.681  21.726  40.446  1.00  0.00    +0.000 F 
ATOM     81  C58 UNL A   1      45.202  20.140  42.121  1.00  0.00    +0.000 C 
ATOM     82  F10 UNL A   1      44.120  20.532  42.809  1.00  0.00    +0.000 F 
ENDBRANCH   71   72
BRANCH   86   87
ATOM     97  F15 UNL A   1      44.042  21.854  49.134  1.00  0.00    +0.000 F 
ATOM     87  C62 UNL A   1      46.256  21.008  49.313  1.00  0.00    +0.000 C 
ATOM     88  C63 UNL A   1      47.569  21.230  49.749  1.00  0.00    +0.000 C 
ATOM     89  F11 UNL A   1      48.500  20.280  49.578  1.00  0.00    +0.000 F 
ATOM     90  C64 UNL A   1      47.922  22.419  50.383  1.00  0.00    +0.000 C 
ATOM     91  F12 UNL A   1      49.178  22.596  50.817  1.00  0.00    +0.000 F 
ATOM     92  C65 UNL A   1      46.976  23.415  50.572  1.00  0.00    +0.000 C 
ATOM     93  F13 UNL A   1      47.321  24.565  51.170  1.00  0.00    +0.000 F 
ATOM     94  C66 UNL A   1      45.672  23.219  50.144  1.00  0.00    +0.000 C 
ATOM     95  F14 UNL A   1      44.758  24.185  50.312  1.00  0.00    +0.000 F 
ATOM     96  C67 UNL A   1      45.312  22.021  49.534  1.00  0.00    +0.000 C 
ENDBRANCH   86   87
TORSDOF 23
ENDMDL
MODEL 9
REMARK VINA RESULT:      -9.3     25.922     30.854
ROOT
ATOM    142  H34 UNL A   1      20.560  52.898  -5.954  1.00  0.00    +0.000 H 
ATOM    143  H35 UNL A   1      22.723  54.301  -6.338  1.00  0.00    +0.000 H 
ATOM    144  H36 UNL A   1      20.728  55.856  -3.059  1.00  0.00    +0.000 H 
ATOM    145  H37 UNL A   1      20.209  60.313   1.467  1.00  0.00    +0.000 H 
ATOM    146  H38 UNL A   1      18.259  58.783   2.015  1.00  0.00    +0.000 H 
ATOM    147  H39 UNL A   1      20.211  57.214  -1.303  1.00  0.00    +0.000 H 
ATOM    148  H40 UNL A   1      24.260  60.112  -1.998  1.00  0.00    +0.000 H 
ATOM    149  H41 UNL A   1      24.824  58.628  -4.007  1.00  0.00    +0.000 H 
ATOM    150  H42 UNL A   1      16.667  53.015  -2.272  1.00  0.00    +0.000 H 
ATOM    151  H43 UNL A   1      15.981  54.599  -0.380  1.00  0.00    +0.000 H 
ATOM     50  C38 UNL A   1      17.905  56.637   0.177  1.00  0.00    +0.000 C 
ATOM     51  C39 UNL A   1      17.950  55.594  -0.909  1.00  0.00    +0.000 C 
ATOM     52  N3  UNL A   1      18.857  55.402  -1.834  1.00  0.00    +0.000 N 
ATOM     53  C40 UNL A   1      18.430  54.301  -2.566  1.00  0.00    +0.000 C 
ATOM     54  C41 UNL A   1      19.009  53.730  -3.650  1.00  0.00    +0.000 C 
ATOM     66  C48 UNL A   1      20.220  54.201  -4.268  1.00  0.00    +0.000 C 
ATOM     67  C49 UNL A   1      20.872  53.697  -5.381  1.00  0.00    +0.000 C 
ATOM     68  C50 UNL A   1      22.025  54.459  -5.595  1.00  0.00    +0.000 C 
ATOM     69  C51 UNL A   1      22.070  55.461  -4.640  1.00  0.00    +0.000 C 
ATOM     70  N4  UNL A   1      20.959  55.289  -3.830  1.00  0.00    +0.000 N 
ATOM     71  C52 UNL A   1      23.057  56.497  -4.474  1.00  0.00    +0.000 C 
ATOM     83  C59 UNL A   1      23.005  57.478  -3.540  1.00  0.00    +0.000 C 
ATOM     84  N5  UNL A   1      22.047  57.698  -2.561  1.00  0.00    +0.000 N 
ATOM     85  C60 UNL A   1      22.454  58.745  -1.889  1.00  0.00    +0.000 C 
ATOM     86  C61 UNL A   1      21.809  59.428  -0.717  1.00  0.00    +0.000 C 
ATOM     98  C68 UNL A   1      20.683  58.910  -0.192  1.00  0.00    +0.000 C 
ATOM     99  C69 UNL A   1      19.959  59.454   0.954  1.00  0.00    +0.000 C 
ATOM    100  C70 UNL A   1      18.918  58.656   1.231  1.00  0.00    +0.000 C 
ATOM    101  C71 UNL A   1      18.865  57.578   0.243  1.00  0.00    +0.000 C 
ATOM    102  N6  UNL A   1      19.963  57.798  -0.550  1.00  0.00    +0.000 N 
ATOM    103  C72 UNL A   1      23.724  59.310  -2.366  1.00  0.00    +0.000 C 
ATOM    104  C73 UNL A   1      24.002  58.518  -3.392  1.00  0.00    +0.000 C 
ATOM    105  C74 UNL A   1      17.195  53.847  -1.964  1.00  0.00    +0.000 C 
ATOM    106  C75 UNL A   1      16.830  54.640  -0.966  1.00  0.00    +0.000 C 
ENDROOT
BRANCH   50   49
ATOM    107  C76 UNL A   1      16.824  56.007   2.364  1.00  0.00    +0.000 C 
ATOM    108  C77 UNL A   1      15.687  55.926   3.173  1.00  0.00    +0.000 C 
ATOM    140  H32 UNL A   1      13.668  57.943   1.410  1.00  0.00    +0.000 H 
ATOM     46  C34 UNL A   1      14.512  56.565   2.773  1.00  0.00    +0.000 C 
ATOM     47  C35 UNL A   1      14.495  57.365   1.628  1.00  0.00    +0.000 C 
ATOM     48  C36 UNL A   1      15.600  57.377   0.785  1.00  0.00    +0.000 C 
ATOM    141  H33 UNL A   1      15.561  57.901  -0.102  1.00  0.00    +0.000 H 
ATOM     49  C37 UNL A   1      16.770  56.682   1.134  1.00  0.00    +0.000 C 
ATOM    152  H44 UNL A   1      17.707  55.569   2.672  1.00  0.00    +0.000 H 
ATOM    153  H45 UNL A   1      15.717  55.398   4.059  1.00  0.00    +0.000 H 
BRANCH   46   44
ATOM     44  C33 UNL A   1      13.264  56.308   3.521  1.00  0.00    +0.000 C 
ATOM     45  O10 UNL A   1      12.529  57.237   3.836  1.00  0.00    +0.000 O 
BRANCH   44   43
ATOM     43  N2  UNL A   1      12.970  55.017   3.896  1.00  0.00    +0.000 N 
ATOM    139  H31 UNL A   1      13.359  54.721   4.750  1.00  0.00    +0.000 H 
BRANCH   43   42
ATOM    137  H29 UNL A   1      11.473  53.597   3.891  1.00  0.00    +0.000 H 
ATOM     42  C32 UNL A   1      12.159  54.033   3.195  1.00  0.00    +0.000 C 
ATOM    138  H30 UNL A   1      11.652  54.542   2.401  1.00  0.00    +0.000 H 
BRANCH   42   41
ATOM     41  C31 UNL A   1      12.988  52.922   2.569  1.00  0.00    +0.000 C 
ATOM    135  H27 UNL A   1      12.384  52.041   2.522  1.00  0.00    +0.000 H 
ATOM    136  H28 UNL A   1      13.292  53.278   1.607  1.00  0.00    +0.000 H 
BRANCH   41   40
ATOM    133  H25 UNL A   1      14.958  52.143   2.630  1.00  0.00    +0.000 H 
ATOM    134  H26 UNL A   1      14.618  53.495   3.754  1.00  0.00    +0.000 H 
ATOM     40  C30 UNL A   1      14.270  52.578   3.325  1.00  0.00    +0.000 C 
BRANCH   40   39
ATOM    131  H23 UNL A   1      13.049  51.438   4.634  1.00  0.00    +0.000 H 
ATOM    132  H24 UNL A   1      14.637  50.718   4.222  1.00  0.00    +0.000 H 
ATOM     39  C29 UNL A   1      14.097  51.602   4.493  1.00  0.00    +0.000 C 
BRANCH   39   38
ATOM    129  H21 UNL A   1      15.201  51.237   6.275  1.00  0.00    +0.000 H 
ATOM    130  H22 UNL A   1      15.337  52.885   5.613  1.00  0.00    +0.000 H 
ATOM     38  C28 UNL A   1      14.688  52.064   5.831  1.00  0.00    +0.000 C 
BRANCH   38   37
ATOM     37  C27 UNL A   1      13.651  52.577   6.829  1.00  0.00    +0.000 C 
ATOM    127  H19 UNL A   1      13.853  52.153   7.791  1.00  0.00    +0.000 H 
ATOM    128  H20 UNL A   1      13.715  53.644   6.866  1.00  0.00    +0.000 H 
BRANCH   37   36
ATOM     36  N1  UNL A   1      12.309  52.214   6.426  1.00  0.00    +0.000 N 
ATOM    126  H18 UNL A   1      12.059  52.245   5.475  1.00  0.00    +0.000 H 
BRANCH   36    2
ATOM      1  O1  UNL A   1      10.862  52.583   8.162  1.00  0.00    +0.000 O 
ATOM      2  C1  UNL A   1      11.394  51.828   7.356  1.00  0.00    +0.000 C 
BRANCH    2    3
ATOM      3  C2  UNL A   1      11.015  50.399   7.358  1.00  0.00    +0.000 C 
ATOM    109  H1  UNL A   1      10.377  50.117   8.119  1.00  0.00    +0.000 H 
BRANCH    3    4
ATOM      4  C3  UNL A   1      11.377  49.406   6.517  1.00  0.00    +0.000 C 
ATOM    110  H2  UNL A   1      10.892  49.313   5.610  1.00  0.00    +0.000 H 
BRANCH    4    5
ATOM      5  C4  UNL A   1      12.506  48.399   6.877  1.00  0.00    +0.000 C 
ATOM      6  C5  UNL A   1      12.788  48.643   8.335  1.00  0.00    +0.000 C 
ATOM      7  C6  UNL A   1      12.400  47.802   9.304  1.00  0.00    +0.000 C 
ATOM      9  C7  UNL A   1      11.748  46.490   8.979  1.00  0.00    +0.000 C 
ATOM     10  O3  UNL A   1      11.387  45.752   9.888  1.00  0.00    +0.000 O 
ATOM     11  C8  UNL A   1      11.633  46.100   7.553  1.00  0.00    +0.000 C 
ATOM     12  C9  UNL A   1      12.002  46.994   6.631  1.00  0.00    +0.000 C 
ATOM     13  C10 UNL A   1      12.115  46.739   5.173  1.00  0.00    +0.000 C 
ATOM     14  O4  UNL A   1      11.527  45.906   4.531  1.00  0.00    +0.000 O 
ATOM     15  C11 UNL A   1      13.176  47.672   4.702  1.00  0.00    +0.000 C 
ATOM     16  C12 UNL A   1      13.689  47.681   3.469  1.00  0.00    +0.000 C 
ATOM     17  C13 UNL A   1      14.993  48.325   3.262  1.00  0.00    +0.000 C 
ATOM     18  C14 UNL A   1      15.214  49.107   2.118  1.00  0.00    +0.000 C 
ATOM     19  C15 UNL A   1      16.491  49.609   1.869  1.00  0.00    +0.000 C 
ATOM     21  C16 UNL A   1      17.550  49.307   2.721  1.00  0.00    +0.000 C 
ATOM     23  C17 UNL A   1      17.351  48.531   3.849  1.00  0.00    +0.000 C 
ATOM     24  C18 UNL A   1      16.065  48.078   4.150  1.00  0.00    +0.000 C 
ATOM     25  O7  UNL A   1      15.974  47.287   5.264  1.00  0.00    +0.000 O 
ATOM     26  C19 UNL A   1      15.026  47.616   6.315  1.00  0.00    +0.000 C 
ATOM     35  C26 UNL A   1      13.739  48.417   5.897  1.00  0.00    +0.000 C 
ATOM    111  H3  UNL A   1      13.301  49.497   8.602  1.00  0.00    +0.000 H 
ATOM    113  H5  UNL A   1      11.278  45.170   7.282  1.00  0.00    +0.000 H 
ATOM    114  H6  UNL A   1      13.182  47.247   2.682  1.00  0.00    +0.000 H 
ATOM    115  H7  UNL A   1      14.439  49.309   1.468  1.00  0.00    +0.000 H 
ATOM    118  H10 UNL A   1      18.145  48.289   4.462  1.00  0.00    +0.000 H 
ATOM    119  H11 UNL A   1      14.564  46.701   6.622  1.00  0.00    +0.000 H 
ATOM    125  H17 UNL A   1      14.074  49.428   5.798  1.00  0.00    +0.000 H 
BRANCH    7    8
ATOM    112  H4  UNL A   1      13.478  48.192  10.965  1.00  0.00    +0.000 H 
ATOM      8  O2  UNL A   1      12.606  48.114  10.633  1.00  0.00    +0.000 O 
ENDBRANCH    7    8
BRANCH   19   20
ATOM    116  H8  UNL A   1      17.654  50.600   0.567  1.00  0.00    +0.000 H 
ATOM     20  O5  UNL A   1      16.765  50.392   0.783  1.00  0.00    +0.000 O 
ENDBRANCH   19   20
BRANCH   21   22
ATOM    117  H9  UNL A   1      19.248  50.314   3.071  1.00  0.00    +0.000 H 
ATOM     22  O6  UNL A   1      18.805  49.769   2.450  1.00  0.00    +0.000 O 
ENDBRANCH   21   22
BRANCH   26   27
ATOM     34  C25 UNL A   1      16.512  49.432   7.334  1.00  0.00    +0.000 C 
ATOM     28  C21 UNL A   1      15.808  47.593   8.724  1.00  0.00    +0.000 C 
ATOM    120  H12 UNL A   1      15.390  46.654   8.818  1.00  0.00    +0.000 H 
ATOM    121  H13 UNL A   1      16.301  47.764  10.772  1.00  0.00    +0.000 H 
ATOM     27  C20 UNL A   1      15.806  48.229   7.469  1.00  0.00    +0.000 C 
ATOM    124  H16 UNL A   1      16.568  49.895   6.413  1.00  0.00    +0.000 H 
ATOM     29  C22 UNL A   1      16.368  48.210   9.844  1.00  0.00    +0.000 C 
ATOM     30  C23 UNL A   1      17.015  49.431   9.699  1.00  0.00    +0.000 C 
ATOM     32  C24 UNL A   1      17.139  50.006   8.439  1.00  0.00    +0.000 C 
BRANCH   30   31
ATOM    122  H14 UNL A   1      17.161  50.871  11.087  1.00  0.00    +0.000 H 
ATOM     31  O8  UNL A   1      17.536  50.066  10.789  1.00  0.00    +0.000 O 
ENDBRANCH   30   31
BRANCH   32   33
ATOM     33  O9  UNL A   1      17.858  51.157   8.285  1.00  0.00    +0.000 O 
ATOM    123  H15 UNL A   1      18.794  51.131   8.312  1.00  0.00    +0.000 H 
ENDBRANCH   32   33
ENDBRANCH   26   27
ENDBRANCH    4    5
ENDBRANCH    3    4
ENDBRANCH    2    3
ENDBRANCH   36    2
ENDBRANCH   37   36
ENDBRANCH   38   37
ENDBRANCH   39   38
ENDBRANCH   40   39
ENDBRANCH   41   40
ENDBRANCH   42   41
ENDBRANCH   43   42
ENDBRANCH   44   43
ENDBRANCH   46   44
ENDBRANCH   50   49
BRANCH   54   55
ATOM     65  F5  UNL A   1      19.444  51.086  -2.701  1.00  0.00    +0.000 F 
ATOM     55  C42 UNL A   1      18.343  52.524  -4.245  1.00  0.00    +0.000 C 
ATOM     56  C43 UNL A   1      17.485  52.630  -5.349  1.00  0.00    +0.000 C 
ATOM     57  F1  UNL A   1      17.173  53.834  -5.850  1.00  0.00    +0.000 F 
ATOM     58  C44 UNL A   1      16.921  51.495  -5.929  1.00  0.00    +0.000 C 
ATOM     59  F2  UNL A   1      16.079  51.620  -6.963  1.00  0.00    +0.000 F 
ATOM     60  C45 UNL A   1      17.226  50.235  -5.433  1.00  0.00    +0.000 C 
ATOM     61  F3  UNL A   1      16.694  49.144  -6.002  1.00  0.00    +0.000 F 
ATOM     62  C46 UNL A   1      18.079  50.107  -4.349  1.00  0.00    +0.000 C 
ATOM     63  F4  UNL A   1      18.382  48.890  -3.876  1.00  0.00    +0.000 F 
ATOM     64  C47 UNL A   1      18.625  51.241  -3.751  1.00  0.00    +0.000 C 
ENDBRANCH   54   55
BRANCH   71   72
ATOM     72  C53 UNL A   1      24.230  56.498  -5.408  1.00  0.00    +0.000 C 
ATOM     73  C54 UNL A   1      24.165  57.135  -6.655  1.00  0.00    +0.000 C 
ATOM     74  F6  UNL A   1      23.019  57.701  -7.065  1.00  0.00    +0.000 F 
ATOM     75  C55 UNL A   1      25.271  57.167  -7.500  1.00  0.00    +0.000 C 
ATOM     76  F7  UNL A   1      25.177  57.750  -8.702  1.00  0.00    +0.000 F 
ATOM     77  C56 UNL A   1      26.467  56.588  -7.102  1.00  0.00    +0.000 C 
ATOM     78  F8  UNL A   1      27.534  56.629  -7.912  1.00  0.00    +0.000 F 
ATOM     79  C57 UNL A   1      26.556  55.963  -5.867  1.00  0.00    +0.000 C 
ATOM     80  F9  UNL A   1      27.714  55.414  -5.477  1.00  0.00    +0.000 F 
ATOM     81  C58 UNL A   1      25.444  55.908  -5.031  1.00  0.00    +0.000 C 
ATOM     82  F10 UNL A   1      25.558  55.293  -3.844  1.00  0.00    +0.000 F 
ENDBRANCH   71   72
BRANCH   86   87
ATOM     97  F15 UNL A   1      23.681  59.403   1.427  1.00  0.00    +0.000 F 
ATOM     87  C62 UNL A   1      22.393  60.658  -0.127  1.00  0.00    +0.000 C 
ATOM     88  C63 UNL A   1      22.030  61.926  -0.603  1.00  0.00    +0.000 C 
ATOM     89  F11 UNL A   1      21.179  62.035  -1.634  1.00  0.00    +0.000 F 
ATOM     90  C64 UNL A   1      22.558  63.082  -0.035  1.00  0.00    +0.000 C 
ATOM     91  F12 UNL A   1      22.217  64.282  -0.526  1.00  0.00    +0.000 F 
ATOM     92  C65 UNL A   1      23.441  62.995   1.031  1.00  0.00    +0.000 C 
ATOM     93  F13 UNL A   1      23.937  64.110   1.586  1.00  0.00    +0.000 F 
ATOM     94  C66 UNL A   1      23.811  61.751   1.521  1.00  0.00    +0.000 C 
ATOM     95  F14 UNL A   1      24.652  61.663   2.560  1.00  0.00    +0.000 F 
ATOM     96  C67 UNL A   1      23.304  60.594   0.937  1.00  0.00    +0.000 C 
ENDBRANCH   86   87
TORSDOF 23
ENDMDL
MODEL 10
REMARK VINA RESULT:      -9.3     54.959     60.936
ROOT
ATOM    142  H34 UNL A   1      52.411  14.673  50.862  1.00  0.00    +0.000 H 
ATOM    143  H35 UNL A   1      52.883  12.950  52.760  1.00  0.00    +0.000 H 
ATOM    144  H36 UNL A   1      49.667  11.588  50.536  1.00  0.00    +0.000 H 
ATOM    145  H37 UNL A   1      44.992   7.348  49.637  1.00  0.00    +0.000 H 
ATOM    146  H38 UNL A   1      44.709   8.872  47.627  1.00  0.00    +0.000 H 
ATOM    147  H39 UNL A   1      47.918  10.293  49.854  1.00  0.00    +0.000 H 
ATOM    148  H40 UNL A   1      48.599   6.949  53.547  1.00  0.00    +0.000 H 
ATOM    149  H41 UNL A   1      50.531   8.423  54.356  1.00  0.00    +0.000 H 
ATOM    150  H42 UNL A   1      48.913  14.858  46.805  1.00  0.00    +0.000 H 
ATOM    151  H43 UNL A   1      46.860  13.504  46.093  1.00  0.00    +0.000 H 
ATOM     50  C38 UNL A   1      46.487  11.096  47.586  1.00  0.00    +0.000 C 
ATOM     51  C39 UNL A   1      47.537  12.156  47.787  1.00  0.00    +0.000 C 
ATOM     52  N3  UNL A   1      48.488  12.219  48.686  1.00  0.00    +0.000 N 
ATOM     53  C40 UNL A   1      49.191  13.388  48.421  1.00  0.00    +0.000 C 
ATOM     54  C41 UNL A   1      50.243  13.913  49.093  1.00  0.00    +0.000 C 
ATOM     66  C48 UNL A   1      50.834  13.326  50.265  1.00  0.00    +0.000 C 
ATOM     67  C49 UNL A   1      51.893  13.796  51.025  1.00  0.00    +0.000 C 
ATOM     68  C50 UNL A   1      52.136  12.878  52.052  1.00  0.00    +0.000 C 
ATOM     69  C51 UNL A   1      51.205  11.857  51.956  1.00  0.00    +0.000 C 
ATOM     70  N4  UNL A   1      50.415  12.142  50.853  1.00  0.00    +0.000 N 
ATOM     71  C52 UNL A   1      51.050  10.702  52.803  1.00  0.00    +0.000 C 
ATOM     83  C59 UNL A   1      50.077   9.768  52.674  1.00  0.00    +0.000 C 
ATOM     84  N5  UNL A   1      49.060   9.695  51.733  1.00  0.00    +0.000 N 
ATOM     85  C60 UNL A   1      48.399   8.598  52.003  1.00  0.00    +0.000 C 
ATOM     86  C61 UNL A   1      47.201   8.018  51.307  1.00  0.00    +0.000 C 
ATOM     98  C68 UNL A   1      46.721   8.627  50.206  1.00  0.00    +0.000 C 
ATOM     99  C69 UNL A   1      45.580   8.168  49.419  1.00  0.00    +0.000 C 
ATOM    100  C70 UNL A   1      45.418   8.984  48.368  1.00  0.00    +0.000 C 
ATOM    101  C71 UNL A   1      46.407  10.060  48.441  1.00  0.00    +0.000 C 
ATOM    102  N6  UNL A   1      47.150   9.755  49.553  1.00  0.00    +0.000 N 
ATOM    103  C72 UNL A   1      48.925   7.845  53.150  1.00  0.00    +0.000 C 
ATOM    104  C73 UNL A   1      49.930   8.617  53.539  1.00  0.00    +0.000 C 
ATOM    105  C74 UNL A   1      48.575  13.995  47.260  1.00  0.00    +0.000 C 
ATOM    106  C75 UNL A   1      47.521  13.298  46.859  1.00  0.00    +0.000 C 
ENDROOT
BRANCH   50   49
ATOM    107  C76 UNL A   1      44.262  11.875  46.697  1.00  0.00    +0.000 C 
ATOM    108  C77 UNL A   1      43.272  11.838  45.710  1.00  0.00    +0.000 C 
ATOM    140  H32 UNL A   1      45.028  10.313  43.292  1.00  0.00    +0.000 H 
ATOM     46  C34 UNL A   1      43.532  11.188  44.501  1.00  0.00    +0.000 C 
ATOM     47  C35 UNL A   1      44.800  10.669  44.234  1.00  0.00    +0.000 C 
ATOM     48  C36 UNL A   1      45.753  10.636  45.245  1.00  0.00    +0.000 C 
ATOM    141  H33 UNL A   1      46.662  10.179  45.076  1.00  0.00    +0.000 H 
ATOM     49  C37 UNL A   1      45.488  11.221  46.494  1.00  0.00    +0.000 C 
ATOM    152  H44 UNL A   1      44.091  12.387  47.577  1.00  0.00    +0.000 H 
ATOM    153  H45 UNL A   1      42.358  12.286  45.874  1.00  0.00    +0.000 H 
BRANCH   46   44
ATOM     44  C33 UNL A   1      42.422  10.973  43.549  1.00  0.00    +0.000 C 
ATOM     45  O10 UNL A   1      41.801   9.916  43.554  1.00  0.00    +0.000 O 
BRANCH   44   43
ATOM     43  N2  UNL A   1      42.135  11.957  42.632  1.00  0.00    +0.000 N 
ATOM    139  H31 UNL A   1      42.499  11.819  41.728  1.00  0.00    +0.000 H 
BRANCH   43   42
ATOM    137  H29 UNL A   1      40.325  12.947  42.696  1.00  0.00    +0.000 H 
ATOM     42  C32 UNL A   1      41.363  13.176  42.824  1.00  0.00    +0.000 C 
ATOM    138  H30 UNL A   1      41.573  13.537  43.809  1.00  0.00    +0.000 H 
BRANCH   42   41
ATOM     41  C31 UNL A   1      41.742  14.275  41.844  1.00  0.00    +0.000 C 
ATOM    135  H27 UNL A   1      41.975  13.819  40.905  1.00  0.00    +0.000 H 
ATOM    136  H28 UNL A   1      40.903  14.938  41.794  1.00  0.00    +0.000 H 
BRANCH   41   40
ATOM    133  H25 UNL A   1      43.778  14.836  41.674  1.00  0.00    +0.000 H 
ATOM    134  H26 UNL A   1      42.643  16.146  42.125  1.00  0.00    +0.000 H 
ATOM     40  C30 UNL A   1      42.937  15.126  42.268  1.00  0.00    +0.000 C 
BRANCH   40   39
ATOM    131  H23 UNL A   1      43.093  15.926  44.228  1.00  0.00    +0.000 H 
ATOM    132  H24 UNL A   1      42.793  14.163  44.125  1.00  0.00    +0.000 H 
ATOM     39  C29 UNL A   1      43.334  15.003  43.743  1.00  0.00    +0.000 C 
BRANCH   39   38
ATOM    129  H21 UNL A   1      44.879  13.848  44.641  1.00  0.00    +0.000 H 
ATOM    130  H22 UNL A   1      45.270  14.543  43.047  1.00  0.00    +0.000 H 
ATOM     38  C28 UNL A   1      44.817  14.704  44.003  1.00  0.00    +0.000 C 
BRANCH   38   37
ATOM     37  C27 UNL A   1      45.580  15.852  44.662  1.00  0.00    +0.000 C 
ATOM    127  H19 UNL A   1      46.199  15.457  45.440  1.00  0.00    +0.000 H 
ATOM    128  H20 UNL A   1      46.174  16.337  43.916  1.00  0.00    +0.000 H 
BRANCH   37   36
ATOM     36  N1  UNL A   1      44.674  16.827  45.230  1.00  0.00    +0.000 N 
ATOM    126  H18 UNL A   1      44.009  17.271  44.656  1.00  0.00    +0.000 H 
BRANCH   36    2
ATOM      1  O1  UNL A   1      45.200  18.173  47.006  1.00  0.00    +0.000 O 
ATOM      2  C1  UNL A   1      44.736  17.133  46.555  1.00  0.00    +0.000 C 
BRANCH    2    3
ATOM      3  C2  UNL A   1      44.176  16.134  47.491  1.00  0.00    +0.000 C 
ATOM    109  H1  UNL A   1      43.146  16.119  47.549  1.00  0.00    +0.000 H 
BRANCH    3    4
ATOM      4  C3  UNL A   1      44.809  15.239  48.280  1.00  0.00    +0.000 C 
ATOM    110  H2  UNL A   1      45.439  14.544  47.850  1.00  0.00    +0.000 H 
BRANCH    4    5
ATOM      5  C4  UNL A   1      44.612  15.227  49.824  1.00  0.00    +0.000 C 
ATOM      6  C5  UNL A   1      44.323  13.789  50.163  1.00  0.00    +0.000 C 
ATOM      7  C6  UNL A   1      45.214  12.988  50.762  1.00  0.00    +0.000 C 
ATOM      9  C7  UNL A   1      46.536  13.514  51.237  1.00  0.00    +0.000 C 
ATOM     10  O3  UNL A   1      47.337  12.750  51.764  1.00  0.00    +0.000 O 
ATOM     11  C8  UNL A   1      46.794  14.968  51.118  1.00  0.00    +0.000 C 
ATOM     12  C9  UNL A   1      45.886  15.712  50.480  1.00  0.00    +0.000 C 
ATOM     13  C10 UNL A   1      45.881  17.195  50.398  1.00  0.00    +0.000 C 
ATOM     14  O4  UNL A   1      46.830  17.932  50.488  1.00  0.00    +0.000 O 
ATOM     15  C11 UNL A   1      44.444  17.566  50.276  1.00  0.00    +0.000 C 
ATOM     16  C12 UNL A   1      43.977  18.817  50.308  1.00  0.00    +0.000 C 
ATOM     17  C13 UNL A   1      42.555  19.022  50.615  1.00  0.00    +0.000 C 
ATOM     18  C14 UNL A   1      41.819  19.989  49.912  1.00  0.00    +0.000 C 
ATOM     19  C15 UNL A   1      40.507  20.261  50.296  1.00  0.00    +0.000 C 
ATOM     21  C16 UNL A   1      39.939  19.614  51.390  1.00  0.00    +0.000 C 
ATOM     23  C17 UNL A   1      40.653  18.663  52.098  1.00  0.00    +0.000 C 
ATOM     24  C18 UNL A   1      41.944  18.329  51.685  1.00  0.00    +0.000 C 
ATOM     25  O7  UNL A   1      42.585  17.407  52.469  1.00  0.00    +0.000 O 
ATOM     26  C19 UNL A   1      43.157  16.213  51.870  1.00  0.00    +0.000 C 
ATOM     35  C26 UNL A   1      43.603  16.308  50.365  1.00  0.00    +0.000 C 
ATOM    111  H3  UNL A   1      43.397  13.403  49.924  1.00  0.00    +0.000 H 
ATOM    113  H5  UNL A   1      47.647  15.392  51.514  1.00  0.00    +0.000 H 
ATOM    114  H6  UNL A   1      44.599  19.619  50.122  1.00  0.00    +0.000 H 
ATOM    115  H7  UNL A   1      42.245  20.492  49.119  1.00  0.00    +0.000 H 
ATOM    118  H10 UNL A   1      40.236  18.206  52.924  1.00  0.00    +0.000 H 
ATOM    119  H11 UNL A   1      44.115  16.061  52.322  1.00  0.00    +0.000 H 
ATOM    125  H17 UNL A   1      42.692  16.224  49.811  1.00  0.00    +0.000 H 
BRANCH    7    8
ATOM    112  H4  UNL A   1      44.164  11.271  50.594  1.00  0.00    +0.000 H 
ATOM      8  O2  UNL A   1      44.931  11.653  50.973  1.00  0.00    +0.000 O 
ENDBRANCH    7    8
BRANCH   19   20
ATOM    116  H8  UNL A   1      39.363  20.967  48.804  1.00  0.00    +0.000 H 
ATOM     20  O5  UNL A   1      39.733  21.178  49.640  1.00  0.00    +0.000 O 
ENDBRANCH   19   20
BRANCH   21   22
ATOM    117  H9  UNL A   1      37.945  19.731  51.215  1.00  0.00    +0.000 H 
ATOM     22  O6  UNL A   1      38.667  19.914  51.784  1.00  0.00    +0.000 O 
ENDBRANCH   21   22
BRANCH   26   27
ATOM     34  C25 UNL A   1      42.503  14.141  53.219  1.00  0.00    +0.000 C 
ATOM     28  C21 UNL A   1      41.052  14.873  51.439  1.00  0.00    +0.000 C 
ATOM    120  H12 UNL A   1      40.887  15.457  50.605  1.00  0.00    +0.000 H 
ATOM    121  H13 UNL A   1      39.208  13.850  51.295  1.00  0.00    +0.000 H 
ATOM     27  C20 UNL A   1      42.232  15.047  52.184  1.00  0.00    +0.000 C 
ATOM    124  H16 UNL A   1      43.385  14.215  53.750  1.00  0.00    +0.000 H 
ATOM     29  C22 UNL A   1      40.100  13.920  51.808  1.00  0.00    +0.000 C 
ATOM     30  C23 UNL A   1      40.364  13.068  52.873  1.00  0.00    +0.000 C 
ATOM     32  C24 UNL A   1      41.586  13.140  53.534  1.00  0.00    +0.000 C 
BRANCH   30   31
ATOM    122  H14 UNL A   1      39.057  11.565  52.647  1.00  0.00    +0.000 H 
ATOM     31  O8  UNL A   1      39.431  12.156  53.270  1.00  0.00    +0.000 O 
ENDBRANCH   30   31
BRANCH   32   33
ATOM     33  O9  UNL A   1      41.881  12.237  54.516  1.00  0.00    +0.000 O 
ATOM    123  H15 UNL A   1      41.437  12.281  55.340  1.00  0.00    +0.000 H 
ENDBRANCH   32   33
ENDBRANCH   26   27
ENDBRANCH    4    5
ENDBRANCH    3    4
ENDBRANCH    2    3
ENDBRANCH   36    2
ENDBRANCH   37   36
ENDBRANCH   38   37
ENDBRANCH   39   38
ENDBRANCH   40   39
ENDBRANCH   41   40
ENDBRANCH   42   41
ENDBRANCH   43   42
ENDBRANCH   44   43
ENDBRANCH   46   44
ENDBRANCH   50   49
BRANCH   54   55
ATOM     65  F5  UNL A   1      52.328  13.999  47.162  1.00  0.00    +0.000 F 
ATOM     55  C42 UNL A   1      50.833  15.193  48.579  1.00  0.00    +0.000 C 
ATOM     56  C43 UNL A   1      50.412  16.441  49.059  1.00  0.00    +0.000 C 
ATOM     57  F1  UNL A   1      49.403  16.521  49.939  1.00  0.00    +0.000 F 
ATOM     58  C44 UNL A   1      51.011  17.619  48.616  1.00  0.00    +0.000 C 
ATOM     59  F2  UNL A   1      50.572  18.802  49.065  1.00  0.00    +0.000 F 
ATOM     60  C45 UNL A   1      52.058  17.568  47.707  1.00  0.00    +0.000 C 
ATOM     61  F3  UNL A   1      52.642  18.702  47.294  1.00  0.00    +0.000 F 
ATOM     62  C46 UNL A   1      52.497  16.345  47.226  1.00  0.00    +0.000 C 
ATOM     63  F4  UNL A   1      53.515  16.294  46.356  1.00  0.00    +0.000 F 
ATOM     64  C47 UNL A   1      51.883  15.167  47.648  1.00  0.00    +0.000 C 
ENDBRANCH   54   55
BRANCH   71   72
ATOM     72  C53 UNL A   1      52.034  10.521  53.919  1.00  0.00    +0.000 C 
ATOM     73  C54 UNL A   1      51.787  11.039  55.198  1.00  0.00    +0.000 C 
ATOM     74  F6  UNL A   1      50.686  11.771  55.428  1.00  0.00    +0.000 F 
ATOM     75  C55 UNL A   1      52.686  10.831  56.240  1.00  0.00    +0.000 C 
ATOM     76  F7  UNL A   1      52.448  11.364  57.445  1.00  0.00    +0.000 F 
ATOM     77  C56 UNL A   1      53.834  10.079  56.029  1.00  0.00    +0.000 C 
ATOM     78  F8  UNL A   1      54.693   9.871  57.036  1.00  0.00    +0.000 F 
ATOM     79  C57 UNL A   1      54.091   9.548  54.774  1.00  0.00    +0.000 C 
ATOM     80  F9  UNL A   1      55.193   8.812  54.572  1.00  0.00    +0.000 F 
ATOM     81  C58 UNL A   1      53.206   9.776  53.724  1.00  0.00    +0.000 C 
ATOM     82  F10 UNL A   1      53.483   9.253  52.520  1.00  0.00    +0.000 F 
ENDBRANCH   71   72
BRANCH   86   87
ATOM     97  F15 UNL A   1      44.771   8.033  52.789  1.00  0.00    +0.000 F 
ATOM     87  C62 UNL A   1      46.542   6.787  51.809  1.00  0.00    +0.000 C 
ATOM     88  C63 UNL A   1      47.108   5.525  51.583  1.00  0.00    +0.000 C 
ATOM     89  F11 UNL A   1      48.236   5.417  50.864  1.00  0.00    +0.000 F 
ATOM     90  C64 UNL A   1      46.505   4.370  52.075  1.00  0.00    +0.000 C 
ATOM     91  F12 UNL A   1      47.051   3.173  51.821  1.00  0.00    +0.000 F 
ATOM     92  C65 UNL A   1      45.339   4.456  52.820  1.00  0.00    +0.000 C 
ATOM     93  F13 UNL A   1      44.767   3.345  53.304  1.00  0.00    +0.000 F 
ATOM     94  C66 UNL A   1      44.763   5.695  53.060  1.00  0.00    +0.000 C 
ATOM     95  F14 UNL A   1      43.643   5.784  53.791  1.00  0.00    +0.000 F 
ATOM     96  C67 UNL A   1      45.350   6.847  52.546  1.00  0.00    +0.000 C 
ENDBRANCH   86   87
TORSDOF 23
ENDMDL
