MODEL 1
REMARK VINA RESULT:     -13.1      0.000      0.000
ROOT
ATOM     21  C17 UNL A   1      40.779  28.404  28.801  1.00  0.00    +0.000 C 
ATOM     22  C18 UNL A   1      41.367  27.185  28.210  1.00  0.00    +0.000 C 
ATOM     23  N3  UNL A   1      42.391  26.565  28.699  1.00  0.00    +0.000 N 
ATOM     24  C19 UNL A   1      42.790  25.625  27.775  1.00  0.00    +0.000 C 
ATOM     25  C20 UNL A   1      44.022  25.048  27.879  1.00  0.00    +0.000 C 
ATOM     37  C27 UNL A   1      44.755  25.546  29.037  1.00  0.00    +0.000 C 
ATOM     38  C28 UNL A   1      45.707  26.544  29.169  1.00  0.00    +0.000 C 
ATOM     39  C29 UNL A   1      45.834  26.854  30.542  1.00  0.00    +0.000 C 
ATOM     40  C30 UNL A   1      44.968  26.038  31.247  1.00  0.00    +0.000 C 
ATOM     41  N4  UNL A   1      44.336  25.227  30.324  1.00  0.00    +0.000 N 
ATOM     42  C31 UNL A   1      44.682  25.934  32.667  1.00  0.00    +0.000 C 
ATOM     54  C38 UNL A   1      44.035  27.008  33.204  1.00  0.00    +0.000 C 
ATOM     55  N5  UNL A   1      43.438  27.956  32.417  1.00  0.00    +0.000 N 
ATOM     56  C39 UNL A   1      42.833  28.822  33.179  1.00  0.00    +0.000 C 
ATOM     57  C40 UNL A   1      41.979  29.945  32.651  1.00  0.00    +0.000 C 
ATOM     69  C47 UNL A   1      42.214  30.265  31.347  1.00  0.00    +0.000 C 
ATOM     70  C48 UNL A   1      43.419  29.935  30.607  1.00  0.00    +0.000 C 
ATOM     71  C49 UNL A   1      43.034  29.278  29.503  1.00  0.00    +0.000 C 
ATOM     72  C50 UNL A   1      41.575  29.287  29.445  1.00  0.00    +0.000 C 
ATOM     73  N6  UNL A   1      41.172  30.284  30.374  1.00  0.00    +0.000 N 
ATOM     74  C51 UNL A   1      43.017  28.549  34.601  1.00  0.00    +0.000 C 
ATOM     75  C52 UNL A   1      43.767  27.435  34.563  1.00  0.00    +0.000 C 
ATOM     76  C53 UNL A   1      41.747  25.619  26.772  1.00  0.00    +0.000 C 
ATOM     77  C54 UNL A   1      40.821  26.552  27.017  1.00  0.00    +0.000 C 
ATOM    117  H22 UNL A   1      46.231  26.986  28.399  1.00  0.00    +0.000 H 
ATOM    118  H23 UNL A   1      46.462  27.565  30.947  1.00  0.00    +0.000 H 
ATOM    119  H24 UNL A   1      43.683  24.524  30.546  1.00  0.00    +0.000 H 
ATOM    120  H25 UNL A   1      44.388  30.163  30.879  1.00  0.00    +0.000 H 
ATOM    121  H26 UNL A   1      43.662  28.840  28.811  1.00  0.00    +0.000 H 
ATOM    122  H27 UNL A   1      40.368  30.851  30.351  1.00  0.00    +0.000 H 
ATOM    123  H28 UNL A   1      42.664  29.072  35.419  1.00  0.00    +0.000 H 
ATOM    124  H29 UNL A   1      44.113  26.942  35.402  1.00  0.00    +0.000 H 
ATOM    125  H30 UNL A   1      41.720  24.974  25.968  1.00  0.00    +0.000 H 
ATOM    126  H31 UNL A   1      39.954  26.768  26.500  1.00  0.00    +0.000 H 
ENDROOT
BRANCH   21   20
ATOM     78  C55 UNL A   1      38.972  29.431  27.533  1.00  0.00    +0.000 C 
ATOM     79  C56 UNL A   1      37.713  29.999  27.475  1.00  0.00    +0.000 C 
ATOM     17  C13 UNL A   1      36.893  29.942  28.600  1.00  0.00    +0.000 C 
ATOM     18  C14 UNL A   1      37.196  29.073  29.654  1.00  0.00    +0.000 C 
ATOM     19  C15 UNL A   1      38.436  28.436  29.678  1.00  0.00    +0.000 C 
ATOM    115  H20 UNL A   1      36.509  28.905  30.406  1.00  0.00    +0.000 H 
ATOM    116  H21 UNL A   1      38.668  27.772  30.434  1.00  0.00    +0.000 H 
ATOM     20  C16 UNL A   1      39.358  28.707  28.665  1.00  0.00    +0.000 C 
ATOM    127  H32 UNL A   1      39.627  29.541  26.742  1.00  0.00    +0.000 H 
ATOM    128  H33 UNL A   1      37.385  30.459  26.612  1.00  0.00    +0.000 H 
BRANCH   17   15
ATOM     15  C12 UNL A   1      35.793  30.915  28.798  1.00  0.00    +0.000 C 
ATOM     16  O2  UNL A   1      36.015  31.992  29.322  1.00  0.00    +0.000 O 
BRANCH   15   14
ATOM    114  H19 UNL A   1      33.779  30.892  28.848  1.00  0.00    +0.000 H 
ATOM     14  N2  UNL A   1      34.540  30.625  28.285  1.00  0.00    +0.000 N 
BRANCH   14   13
ATOM    113  H18 UNL A   1      35.075  29.977  26.422  1.00  0.00    +0.000 H 
ATOM     13  C11 UNL A   1      34.192  29.978  27.026  1.00  0.00    +0.000 C 
ATOM    112  H17 UNL A   1      33.389  30.525  26.577  1.00  0.00    +0.000 H 
BRANCH   13   12
ATOM     12  C10 UNL A   1      33.758  28.526  27.179  1.00  0.00    +0.000 C 
ATOM    110  H15 UNL A   1      34.265  28.112  28.025  1.00  0.00    +0.000 H 
ATOM    111  H16 UNL A   1      32.694  28.535  27.293  1.00  0.00    +0.000 H 
BRANCH   12   11
ATOM     11  C9  UNL A   1      34.060  27.645  25.961  1.00  0.00    +0.000 C 
ATOM    108  H13 UNL A   1      33.803  28.202  25.085  1.00  0.00    +0.000 H 
ATOM    109  H14 UNL A   1      35.098  27.396  26.043  1.00  0.00    +0.000 H 
BRANCH   11   10
ATOM     10  C8  UNL A   1      33.324  26.295  25.889  1.00  0.00    +0.000 C 
ATOM    107  H12 UNL A   1      33.610  25.771  26.777  1.00  0.00    +0.000 H 
ATOM    106  H11 UNL A   1      33.613  25.817  24.976  1.00  0.00    +0.000 H 
BRANCH   10    9
ATOM      9  C7  UNL A   1      31.791  26.345  25.923  1.00  0.00    +0.000 C 
ATOM    105  H10 UNL A   1      31.481  26.675  24.954  1.00  0.00    +0.000 H 
ATOM    104  H9  UNL A   1      31.499  27.006  26.712  1.00  0.00    +0.000 H 
BRANCH    9    8
ATOM    102  H7  UNL A   1      31.243  24.713  27.175  1.00  0.00    +0.000 H 
ATOM    103  H8  UNL A   1      30.067  25.122  25.917  1.00  0.00    +0.000 H 
ATOM      8  C6  UNL A   1      31.103  25.000  26.154  1.00  0.00    +0.000 C 
BRANCH    8    7
ATOM    101  H6  UNL A   1      32.121  23.238  25.765  1.00  0.00    +0.000 H 
ATOM      7  N1  UNL A   1      31.625  23.952  25.304  1.00  0.00    +0.000 N 
BRANCH    7    5
ATOM      5  C5  UNL A   1      31.525  23.820  23.947  1.00  0.00    +0.000 C 
ATOM      6  O1  UNL A   1      30.423  24.001  23.424  1.00  0.00    +0.000 O 
BRANCH    5    4
ATOM    100  H5  UNL A   1      33.355  24.301  23.036  1.00  0.00    +0.000 H 
ATOM     99  H4  UNL A   1      32.399  23.075  22.164  1.00  0.00    +0.000 H 
ATOM      4  C4  UNL A   1      32.741  23.428  23.114  1.00  0.00    +0.000 C 
BRANCH    4    3
ATOM    129  H34 UNL A   1      35.087  23.752  24.267  1.00  0.00    +0.000 H 
ATOM      2  C2  UNL A   1      33.248  20.970  23.767  1.00  0.00    +0.000 C 
ATOM      3  C3  UNL A   1      33.602  22.344  23.743  1.00  0.00    +0.000 C 
ATOM    135  H40 UNL A   1      35.926  19.838  25.475  1.00  0.00    +0.000 H 
ATOM     80  C57 UNL A   1      34.824  22.755  24.315  1.00  0.00    +0.000 C 
ATOM     81  C58 UNL A   1      35.691  21.857  24.943  1.00  0.00    +0.000 C 
ATOM     88  C65 UNL A   1      35.308  20.513  24.996  1.00  0.00    +0.000 C 
ATOM     89  C66 UNL A   1      34.106  20.046  24.422  1.00  0.00    +0.000 C 
BRANCH    2    1
ATOM      1  C1  UNL A   1      32.004  20.482  23.055  1.00  0.00    +0.000 C 
ATOM     98  H3  UNL A   1      31.553  19.697  23.624  1.00  0.00    +0.000 H 
ATOM     97  H2  UNL A   1      31.312  21.291  22.950  1.00  0.00    +0.000 H 
ATOM     96  H1  UNL A   1      32.271  20.112  22.087  1.00  0.00    +0.000 H 
ENDBRANCH    2    1
BRANCH   81   82
ATOM    130  H35 UNL A   1      38.003  20.498  25.228  1.00  0.00    +0.000 H 
ATOM    131  H36 UNL A   1      40.082  21.247  26.217  1.00  0.00    +0.000 H 
ATOM    132  H37 UNL A   1      40.272  23.501  27.091  1.00  0.00    +0.000 H 
ATOM    133  H38 UNL A   1      38.379  25.011  26.959  1.00  0.00    +0.000 H 
ATOM    134  H39 UNL A   1      36.301  24.271  25.963  1.00  0.00    +0.000 H 
ATOM     82  C59 UNL A   1      36.967  22.316  25.513  1.00  0.00    +0.000 C 
ATOM     83  C60 UNL A   1      38.076  21.459  25.595  1.00  0.00    +0.000 C 
ATOM     84  C61 UNL A   1      39.277  21.889  26.165  1.00  0.00    +0.000 C 
ATOM     85  C62 UNL A   1      39.387  23.184  26.666  1.00  0.00    +0.000 C 
ATOM     86  C63 UNL A   1      38.299  24.051  26.590  1.00  0.00    +0.000 C 
ATOM     87  C64 UNL A   1      37.100  23.621  26.017  1.00  0.00    +0.000 C 
ENDBRANCH   81   82
BRANCH   89   90
ATOM    136  H41 UNL A   1      32.307  18.890  26.045  1.00  0.00    +0.000 H 
ATOM    137  H42 UNL A   1      31.755  16.546  26.285  1.00  0.00    +0.000 H 
ATOM    138  H43 UNL A   1      32.894  14.885  24.933  1.00  0.00    +0.000 H 
ATOM    139  H44 UNL A   1      34.615  15.573  23.369  1.00  0.00    +0.000 H 
ATOM    140  H45 UNL A   1      35.202  17.913  23.155  1.00  0.00    +0.000 H 
ATOM     90  C67 UNL A   1      33.789  18.610  24.564  1.00  0.00    +0.000 C 
ATOM     91  C68 UNL A   1      32.802  18.189  25.472  1.00  0.00    +0.000 C 
ATOM     92  C69 UNL A   1      32.480  16.838  25.611  1.00  0.00    +0.000 C 
ATOM     93  C70 UNL A   1      33.139  15.884  24.839  1.00  0.00    +0.000 C 
ATOM     94  C71 UNL A   1      34.126  16.280  23.940  1.00  0.00    +0.000 C 
ATOM     95  C72 UNL A   1      34.457  17.631  23.812  1.00  0.00    +0.000 C 
ENDBRANCH   89   90
ENDBRANCH    4    3
ENDBRANCH    5    4
ENDBRANCH    7    5
ENDBRANCH    8    7
ENDBRANCH    9    8
ENDBRANCH   10    9
ENDBRANCH   11   10
ENDBRANCH   12   11
ENDBRANCH   13   12
ENDBRANCH   14   13
ENDBRANCH   15   14
ENDBRANCH   17   15
ENDBRANCH   21   20
BRANCH   25   26
ATOM     33  C25 UNL A   1      46.407  24.042  25.021  1.00  0.00    +0.000 C 
ATOM     34  F4  UNL A   1      47.394  24.601  24.306  1.00  0.00    +0.000 F 
ATOM     35  C26 UNL A   1      45.640  24.833  25.884  1.00  0.00    +0.000 C 
ATOM     36  F5  UNL A   1      45.840  26.157  25.826  1.00  0.00    +0.000 F 
ATOM     26  C21 UNL A   1      44.676  24.284  26.747  1.00  0.00    +0.000 C 
ATOM     27  C22 UNL A   1      44.393  22.918  26.526  1.00  0.00    +0.000 C 
ATOM     28  F1  UNL A   1      43.407  22.289  27.177  1.00  0.00    +0.000 F 
ATOM     29  C23 UNL A   1      45.120  22.137  25.624  1.00  0.00    +0.000 C 
ATOM     30  F2  UNL A   1      44.820  20.838  25.475  1.00  0.00    +0.000 F 
ATOM     31  C24 UNL A   1      46.160  22.689  24.906  1.00  0.00    +0.000 C 
ATOM     32  F3  UNL A   1      46.900  21.927  24.088  1.00  0.00    +0.000 F 
ENDBRANCH   25   26
BRANCH   42   43
ATOM     43  C32 UNL A   1      45.191  24.749  33.438  1.00  0.00    +0.000 C 
ATOM     44  C33 UNL A   1      44.435  23.587  33.661  1.00  0.00    +0.000 C 
ATOM     45  F6  UNL A   1      43.181  23.476  33.200  1.00  0.00    +0.000 F 
ATOM     46  C34 UNL A   1      44.968  22.476  34.321  1.00  0.00    +0.000 C 
ATOM     47  F7  UNL A   1      44.195  21.405  34.546  1.00  0.00    +0.000 F 
ATOM     48  C35 UNL A   1      46.292  22.465  34.722  1.00  0.00    +0.000 C 
ATOM     49  F8  UNL A   1      46.809  21.384  35.320  1.00  0.00    +0.000 F 
ATOM     50  C36 UNL A   1      47.081  23.571  34.480  1.00  0.00    +0.000 C 
ATOM     51  F9  UNL A   1      48.377  23.557  34.820  1.00  0.00    +0.000 F 
ATOM     52  C37 UNL A   1      46.538  24.699  33.866  1.00  0.00    +0.000 C 
ATOM     53  F10 UNL A   1      47.367  25.737  33.682  1.00  0.00    +0.000 F 
ENDBRANCH   42   43
BRANCH   57   58
ATOM     65  C45 UNL A   1      38.249  29.581  33.100  1.00  0.00    +0.000 C 
ATOM     66  F14 UNL A   1      37.316  28.626  32.978  1.00  0.00    +0.000 F 
ATOM     67  C46 UNL A   1      39.602  29.235  33.073  1.00  0.00    +0.000 C 
ATOM     68  F15 UNL A   1      39.932  27.945  32.916  1.00  0.00    +0.000 F 
ATOM     58  C41 UNL A   1      40.593  30.222  33.103  1.00  0.00    +0.000 C 
ATOM     59  C42 UNL A   1      40.180  31.558  33.249  1.00  0.00    +0.000 C 
ATOM     60  F11 UNL A   1      41.092  32.543  33.283  1.00  0.00    +0.000 F 
ATOM     61  C43 UNL A   1      38.829  31.901  33.264  1.00  0.00    +0.000 C 
ATOM     62  F12 UNL A   1      38.467  33.191  33.312  1.00  0.00    +0.000 F 
ATOM     63  C44 UNL A   1      37.865  30.913  33.165  1.00  0.00    +0.000 C 
ATOM     64  F13 UNL A   1      36.568  31.243  33.102  1.00  0.00    +0.000 F 
ENDBRANCH   57   58
TORSDOF 19
ENDMDL
MODEL 2
REMARK VINA RESULT:     -11.6     24.070     30.296
ROOT
ATOM     21  C17 UNL A   1      20.344  36.922  48.543  1.00  0.00    +0.000 C 
ATOM     22  C18 UNL A   1      19.473  37.968  49.117  1.00  0.00    +0.000 C 
ATOM     23  N3  UNL A   1      19.876  39.157  49.426  1.00  0.00    +0.000 N 
ATOM     24  C19 UNL A   1      18.866  39.770  50.132  1.00  0.00    +0.000 C 
ATOM     25  C20 UNL A   1      19.126  40.899  50.853  1.00  0.00    +0.000 C 
ATOM     37  C27 UNL A   1      20.522  41.304  50.736  1.00  0.00    +0.000 C 
ATOM     38  C28 UNL A   1      21.622  41.073  51.546  1.00  0.00    +0.000 C 
ATOM     39  C29 UNL A   1      22.787  41.382  50.809  1.00  0.00    +0.000 C 
ATOM     40  C30 UNL A   1      22.396  41.811  49.553  1.00  0.00    +0.000 C 
ATOM     41  N4  UNL A   1      21.015  41.785  49.528  1.00  0.00    +0.000 N 
ATOM     42  C31 UNL A   1      23.166  42.242  48.399  1.00  0.00    +0.000 C 
ATOM     54  C38 UNL A   1      23.888  41.259  47.789  1.00  0.00    +0.000 C 
ATOM     55  N5  UNL A   1      23.666  39.934  48.052  1.00  0.00    +0.000 N 
ATOM     56  C39 UNL A   1      24.434  39.213  47.285  1.00  0.00    +0.000 C 
ATOM     57  C40 UNL A   1      24.379  37.709  47.225  1.00  0.00    +0.000 C 
ATOM     69  C47 UNL A   1      23.795  37.125  48.310  1.00  0.00    +0.000 C 
ATOM     70  C48 UNL A   1      23.624  37.751  49.609  1.00  0.00    +0.000 C 
ATOM     71  C49 UNL A   1      22.320  37.670  49.914  1.00  0.00    +0.000 C 
ATOM     72  C50 UNL A   1      21.652  36.880  48.884  1.00  0.00    +0.000 C 
ATOM     73  N6  UNL A   1      22.699  36.222  48.183  1.00  0.00    +0.000 N 
ATOM     74  C51 UNL A   1      25.308  40.022  46.440  1.00  0.00    +0.000 C 
ATOM     75  C52 UNL A   1      24.942  41.266  46.793  1.00  0.00    +0.000 C 
ATOM     76  C53 UNL A   1      17.734  38.876  50.019  1.00  0.00    +0.000 C 
ATOM     77  C54 UNL A   1      18.054  37.753  49.366  1.00  0.00    +0.000 C 
ATOM    117  H22 UNL A   1      21.596  40.733  52.520  1.00  0.00    +0.000 H 
ATOM    118  H23 UNL A   1      23.758  41.302  51.147  1.00  0.00    +0.000 H 
ATOM    119  H24 UNL A   1      20.460  42.067  48.766  1.00  0.00    +0.000 H 
ATOM    120  H25 UNL A   1      24.365  38.176  50.188  1.00  0.00    +0.000 H 
ATOM    121  H26 UNL A   1      21.866  38.095  50.737  1.00  0.00    +0.000 H 
ATOM    122  H27 UNL A   1      22.673  35.354  47.721  1.00  0.00    +0.000 H 
ATOM    123  H28 UNL A   1      26.018  39.720  45.754  1.00  0.00    +0.000 H 
ATOM    124  H29 UNL A   1      25.362  42.124  46.403  1.00  0.00    +0.000 H 
ATOM    125  H30 UNL A   1      16.794  39.079  50.394  1.00  0.00    +0.000 H 
ATOM    126  H31 UNL A   1      17.458  36.951  49.111  1.00  0.00    +0.000 H 
ENDROOT
BRANCH   21   20
ATOM     78  C55 UNL A   1      19.954  34.567  48.065  1.00  0.00    +0.000 C 
ATOM     79  C56 UNL A   1      19.746  33.541  47.163  1.00  0.00    +0.000 C 
ATOM     17  C13 UNL A   1      19.520  33.852  45.823  1.00  0.00    +0.000 C 
ATOM     18  C14 UNL A   1      19.202  35.161  45.444  1.00  0.00    +0.000 C 
ATOM     19  C15 UNL A   1      19.336  36.192  46.374  1.00  0.00    +0.000 C 
ATOM    115  H20 UNL A   1      18.872  35.362  44.487  1.00  0.00    +0.000 H 
ATOM    116  H21 UNL A   1      19.082  37.160  46.120  1.00  0.00    +0.000 H 
ATOM     20  C16 UNL A   1      19.816  35.896  47.651  1.00  0.00    +0.000 C 
ATOM    127  H32 UNL A   1      20.211  34.354  49.041  1.00  0.00    +0.000 H 
ATOM    128  H33 UNL A   1      19.757  32.558  47.476  1.00  0.00    +0.000 H 
BRANCH   17   15
ATOM     15  C12 UNL A   1      19.786  32.865  44.750  1.00  0.00    +0.000 C 
ATOM     16  O2  UNL A   1      19.572  33.153  43.586  1.00  0.00    +0.000 O 
BRANCH   15   14
ATOM    114  H19 UNL A   1      21.312  31.711  45.380  1.00  0.00    +0.000 H 
ATOM     14  N2  UNL A   1      20.376  31.657  45.081  1.00  0.00    +0.000 N 
BRANCH   14   13
ATOM    113  H18 UNL A   1      19.598  30.043  46.064  1.00  0.00    +0.000 H 
ATOM     13  C11 UNL A   1      19.804  30.317  45.050  1.00  0.00    +0.000 C 
ATOM    112  H17 UNL A   1      20.509  29.660  44.583  1.00  0.00    +0.000 H 
BRANCH   13   12
ATOM     12  C10 UNL A   1      18.486  30.227  44.291  1.00  0.00    +0.000 C 
ATOM    110  H15 UNL A   1      17.724  30.680  44.889  1.00  0.00    +0.000 H 
ATOM    111  H16 UNL A   1      18.637  30.727  43.357  1.00  0.00    +0.000 H 
BRANCH   12   11
ATOM     11  C9  UNL A   1      18.047  28.797  43.956  1.00  0.00    +0.000 C 
ATOM    108  H13 UNL A   1      18.453  28.548  42.998  1.00  0.00    +0.000 H 
ATOM    109  H14 UNL A   1      18.408  28.194  44.763  1.00  0.00    +0.000 H 
BRANCH   11   10
ATOM     10  C8  UNL A   1      16.531  28.537  43.902  1.00  0.00    +0.000 C 
ATOM    107  H12 UNL A   1      16.148  29.251  43.202  1.00  0.00    +0.000 H 
ATOM    106  H11 UNL A   1      16.149  28.638  44.896  1.00  0.00    +0.000 H 
BRANCH   10    9
ATOM      9  C7  UNL A   1      16.085  27.169  43.368  1.00  0.00    +0.000 C 
ATOM    105  H10 UNL A   1      16.069  26.511  44.212  1.00  0.00    +0.000 H 
ATOM    104  H9  UNL A   1      16.775  26.870  42.607  1.00  0.00    +0.000 H 
BRANCH    9    8
ATOM    102  H7  UNL A   1      14.247  28.107  42.850  1.00  0.00    +0.000 H 
ATOM    103  H8  UNL A   1      14.767  26.817  41.754  1.00  0.00    +0.000 H 
ATOM      8  C6  UNL A   1      14.678  27.131  42.773  1.00  0.00    +0.000 C 
BRANCH    8    7
ATOM    101  H6  UNL A   1      13.634  26.378  44.396  1.00  0.00    +0.000 H 
ATOM      7  N1  UNL A   1      13.812  26.189  43.447  1.00  0.00    +0.000 N 
BRANCH    7    5
ATOM      5  C5  UNL A   1      13.209  25.069  42.946  1.00  0.00    +0.000 C 
ATOM      6  O1  UNL A   1      12.035  25.155  42.580  1.00  0.00    +0.000 O 
BRANCH    5    4
ATOM    100  H5  UNL A   1      13.528  23.103  43.610  1.00  0.00    +0.000 H 
ATOM     99  H4  UNL A   1      15.001  23.940  43.058  1.00  0.00    +0.000 H 
ATOM      4  C4  UNL A   1      13.965  23.746  42.875  1.00  0.00    +0.000 C 
BRANCH    4    3
ATOM    129  H34 UNL A   1      12.539  21.591  42.369  1.00  0.00    +0.000 H 
ATOM      2  C2  UNL A   1      14.525  23.435  40.363  1.00  0.00    +0.000 C 
ATOM      3  C3  UNL A   1      13.843  23.031  41.540  1.00  0.00    +0.000 C 
ATOM    135  H40 UNL A   1      13.281  21.090  38.285  1.00  0.00    +0.000 H 
ATOM     80  C57 UNL A   1      13.008  21.895  41.501  1.00  0.00    +0.000 C 
ATOM     81  C58 UNL A   1      12.797  21.167  40.328  1.00  0.00    +0.000 C 
ATOM     88  C65 UNL A   1      13.442  21.603  39.166  1.00  0.00    +0.000 C 
ATOM     89  C66 UNL A   1      14.304  22.721  39.155  1.00  0.00    +0.000 C 
BRANCH    2    1
ATOM      1  C1  UNL A   1      15.522  24.575  40.402  1.00  0.00    +0.000 C 
ATOM     98  H3  UNL A   1      16.367  24.329  39.795  1.00  0.00    +0.000 H 
ATOM     97  H2  UNL A   1      15.060  25.465  40.029  1.00  0.00    +0.000 H 
ATOM     96  H1  UNL A   1      15.841  24.734  41.411  1.00  0.00    +0.000 H 
ENDBRANCH    2    1
BRANCH   81   82
ATOM    130  H35 UNL A   1      12.656  19.182  38.507  1.00  0.00    +0.000 H 
ATOM    131  H36 UNL A   1      11.194  17.251  38.488  1.00  0.00    +0.000 H 
ATOM    132  H37 UNL A   1       9.607  16.909  40.289  1.00  0.00    +0.000 H 
ATOM    133  H38 UNL A   1       9.495  18.496  42.120  1.00  0.00    +0.000 H 
ATOM    134  H39 UNL A   1      10.961  20.422  42.149  1.00  0.00    +0.000 H 
ATOM     82  C59 UNL A   1      11.934  19.975  40.327  1.00  0.00    +0.000 C 
ATOM     83  C60 UNL A   1      11.985  19.042  39.279  1.00  0.00    +0.000 C 
ATOM     84  C61 UNL A   1      11.143  17.927  39.265  1.00  0.00    +0.000 C 
ATOM     85  C62 UNL A   1      10.232  17.730  40.300  1.00  0.00    +0.000 C 
ATOM     86  C63 UNL A   1      10.168  18.641  41.351  1.00  0.00    +0.000 C 
ATOM     87  C64 UNL A   1      11.013  19.754  41.365  1.00  0.00    +0.000 C 
ENDBRANCH   81   82
BRANCH   89   90
ATOM    136  H41 UNL A   1      13.495  24.622  37.441  1.00  0.00    +0.000 H 
ATOM    137  H42 UNL A   1      14.477  25.290  35.332  1.00  0.00    +0.000 H 
ATOM    138  H43 UNL A   1      16.479  24.187  34.520  1.00  0.00    +0.000 H 
ATOM    139  H44 UNL A   1      17.474  22.387  35.806  1.00  0.00    +0.000 H 
ATOM    140  H45 UNL A   1      16.472  21.685  37.896  1.00  0.00    +0.000 H 
ATOM     90  C67 UNL A   1      14.909  23.108  37.865  1.00  0.00    +0.000 C 
ATOM     91  C68 UNL A   1      14.342  24.142  37.099  1.00  0.00    +0.000 C 
ATOM     92  C69 UNL A   1      14.908  24.531  35.882  1.00  0.00    +0.000 C 
ATOM     93  C70 UNL A   1      16.054  23.893  35.414  1.00  0.00    +0.000 C 
ATOM     94  C71 UNL A   1      16.625  22.860  36.153  1.00  0.00    +0.000 C 
ATOM     95  C72 UNL A   1      16.051  22.463  37.364  1.00  0.00    +0.000 C 
ENDBRANCH   89   90
ENDBRANCH    4    3
ENDBRANCH    5    4
ENDBRANCH    7    5
ENDBRANCH    8    7
ENDBRANCH    9    8
ENDBRANCH   10    9
ENDBRANCH   11   10
ENDBRANCH   12   11
ENDBRANCH   13   12
ENDBRANCH   14   13
ENDBRANCH   15   14
ENDBRANCH   17   15
ENDBRANCH   21   20
BRANCH   25   26
ATOM     33  C25 UNL A   1      16.263  42.788  52.615  1.00  0.00    +0.000 C 
ATOM     34  F4  UNL A   1      15.350  43.721  52.307  1.00  0.00    +0.000 F 
ATOM     35  C26 UNL A   1      17.282  42.486  51.704  1.00  0.00    +0.000 C 
ATOM     36  F5  UNL A   1      17.378  43.274  50.623  1.00  0.00    +0.000 F 
ATOM     26  C21 UNL A   1      18.192  41.436  51.917  1.00  0.00    +0.000 C 
ATOM     27  C22 UNL A   1      18.135  40.856  53.203  1.00  0.00    +0.000 C 
ATOM     28  F1  UNL A   1      19.024  39.937  53.600  1.00  0.00    +0.000 F 
ATOM     29  C23 UNL A   1      17.152  41.194  54.137  1.00  0.00    +0.000 C 
ATOM     30  F2  UNL A   1      17.135  40.590  55.334  1.00  0.00    +0.000 F 
ATOM     31  C24 UNL A   1      16.187  42.128  53.824  1.00  0.00    +0.000 C 
ATOM     32  F3  UNL A   1      15.205  42.406  54.693  1.00  0.00    +0.000 F 
ENDBRANCH   25   26
BRANCH   42   43
ATOM     43  C32 UNL A   1      23.197  43.700  48.034  1.00  0.00    +0.000 C 
ATOM     44  C33 UNL A   1      22.109  44.379  47.463  1.00  0.00    +0.000 C 
ATOM     45  F6  UNL A   1      20.961  43.743  47.189  1.00  0.00    +0.000 F 
ATOM     46  C34 UNL A   1      22.151  45.751  47.204  1.00  0.00    +0.000 C 
ATOM     47  F7  UNL A   1      21.103  46.348  46.619  1.00  0.00    +0.000 F 
ATOM     48  C35 UNL A   1      23.255  46.502  47.567  1.00  0.00    +0.000 C 
ATOM     49  F8  UNL A   1      23.275  47.823  47.352  1.00  0.00    +0.000 F 
ATOM     50  C36 UNL A   1      24.326  45.879  48.174  1.00  0.00    +0.000 C 
ATOM     51  F9  UNL A   1      25.382  46.600  48.574  1.00  0.00    +0.000 F 
ATOM     52  C37 UNL A   1      24.306  44.501  48.387  1.00  0.00    +0.000 C 
ATOM     53  F10 UNL A   1      25.394  43.971  48.968  1.00  0.00    +0.000 F 
ENDBRANCH   42   43
BRANCH   57   58
ATOM     65  C45 UNL A   1      22.791  35.904  44.316  1.00  0.00    +0.000 C 
ATOM     66  F14 UNL A   1      21.606  35.866  43.689  1.00  0.00    +0.000 F 
ATOM     67  C46 UNL A   1      23.057  36.922  45.234  1.00  0.00    +0.000 C 
ATOM     68  F15 UNL A   1      22.106  37.837  45.472  1.00  0.00    +0.000 F 
ATOM     58  C41 UNL A   1      24.246  36.928  45.971  1.00  0.00    +0.000 C 
ATOM     59  C42 UNL A   1      25.194  35.929  45.688  1.00  0.00    +0.000 C 
ATOM     60  F11 UNL A   1      26.352  35.891  46.367  1.00  0.00    +0.000 F 
ATOM     61  C43 UNL A   1      24.922  34.908  44.779  1.00  0.00    +0.000 C 
ATOM     62  F12 UNL A   1      25.808  33.919  44.599  1.00  0.00    +0.000 F 
ATOM     63  C44 UNL A   1      23.710  34.884  44.112  1.00  0.00    +0.000 C 
ATOM     64  F13 UNL A   1      23.412  33.865  43.295  1.00  0.00    +0.000 F 
ENDBRANCH   57   58
TORSDOF 19
ENDMDL
MODEL 3
REMARK VINA RESULT:     -11.5     23.860     30.021
ROOT
ATOM     21  C17 UNL A   1      20.702  37.117  48.596  1.00  0.00    +0.000 C 
ATOM     22  C18 UNL A   1      19.855  38.179  49.175  1.00  0.00    +0.000 C 
ATOM     23  N3  UNL A   1      20.277  39.368  49.460  1.00  0.00    +0.000 N 
ATOM     24  C19 UNL A   1      19.289  40.000  50.180  1.00  0.00    +0.000 C 
ATOM     25  C20 UNL A   1      19.577  41.137  50.880  1.00  0.00    +0.000 C 
ATOM     37  C27 UNL A   1      20.974  41.525  50.726  1.00  0.00    +0.000 C 
ATOM     38  C28 UNL A   1      22.090  41.293  51.514  1.00  0.00    +0.000 C 
ATOM     39  C29 UNL A   1      23.241  41.581  50.747  1.00  0.00    +0.000 C 
ATOM     40  C30 UNL A   1      22.826  41.997  49.494  1.00  0.00    +0.000 C 
ATOM     41  N4  UNL A   1      21.444  41.985  49.501  1.00  0.00    +0.000 N 
ATOM     42  C31 UNL A   1      23.574  42.405  48.318  1.00  0.00    +0.000 C 
ATOM     54  C38 UNL A   1      24.272  41.407  47.705  1.00  0.00    +0.000 C 
ATOM     55  N5  UNL A   1      24.042  40.087  47.990  1.00  0.00    +0.000 N 
ATOM     56  C39 UNL A   1      24.785  39.349  47.216  1.00  0.00    +0.000 C 
ATOM     57  C40 UNL A   1      24.714  37.845  47.177  1.00  0.00    +0.000 C 
ATOM     69  C47 UNL A   1      24.149  37.281  48.282  1.00  0.00    +0.000 C 
ATOM     70  C48 UNL A   1      24.013  37.925  49.577  1.00  0.00    +0.000 C 
ATOM     71  C49 UNL A   1      22.716  37.863  49.912  1.00  0.00    +0.000 C 
ATOM     72  C50 UNL A   1      22.017  37.066  48.908  1.00  0.00    +0.000 C 
ATOM     73  N6  UNL A   1      23.041  36.388  48.192  1.00  0.00    +0.000 N 
ATOM     74  C51 UNL A   1      25.648  40.137  46.341  1.00  0.00    +0.000 C 
ATOM     75  C52 UNL A   1      25.303  41.389  46.685  1.00  0.00    +0.000 C 
ATOM     76  C53 UNL A   1      18.146  39.117  50.104  1.00  0.00    +0.000 C 
ATOM     77  C54 UNL A   1      18.440  37.983  49.460  1.00  0.00    +0.000 C 
ATOM    117  H22 UNL A   1      22.083  40.967  52.493  1.00  0.00    +0.000 H 
ATOM    118  H23 UNL A   1      24.218  41.495  51.064  1.00  0.00    +0.000 H 
ATOM    119  H24 UNL A   1      20.875  42.263  48.748  1.00  0.00    +0.000 H 
ATOM    120  H25 UNL A   1      24.771  38.350  50.133  1.00  0.00    +0.000 H 
ATOM    121  H26 UNL A   1      22.285  38.303  50.739  1.00  0.00    +0.000 H 
ATOM    122  H27 UNL A   1      22.995  35.514  47.743  1.00  0.00    +0.000 H 
ATOM    123  H28 UNL A   1      26.339  39.819  45.643  1.00  0.00    +0.000 H 
ATOM    124  H29 UNL A   1      25.723  42.238  46.274  1.00  0.00    +0.000 H 
ATOM    125  H30 UNL A   1      17.217  39.336  50.498  1.00  0.00    +0.000 H 
ATOM    126  H31 UNL A   1      17.830  37.183  49.228  1.00  0.00    +0.000 H 
ENDROOT
BRANCH   21   20
ATOM     78  C55 UNL A   1      20.439  34.758  48.056  1.00  0.00    +0.000 C 
ATOM     79  C56 UNL A   1      20.195  33.753  47.139  1.00  0.00    +0.000 C 
ATOM     17  C13 UNL A   1      19.771  34.096  45.856  1.00  0.00    +0.000 C 
ATOM     18  C14 UNL A   1      19.303  35.386  45.586  1.00  0.00    +0.000 C 
ATOM     19  C15 UNL A   1      19.477  36.388  46.541  1.00  0.00    +0.000 C 
ATOM    115  H20 UNL A   1      18.835  35.595  44.691  1.00  0.00    +0.000 H 
ATOM    116  H21 UNL A   1      19.116  37.340  46.370  1.00  0.00    +0.000 H 
ATOM     20  C16 UNL A   1      20.143  36.085  47.730  1.00  0.00    +0.000 C 
ATOM    127  H32 UNL A   1      20.839  34.530  48.980  1.00  0.00    +0.000 H 
ATOM    128  H33 UNL A   1      20.326  32.763  47.399  1.00  0.00    +0.000 H 
BRANCH   17   15
ATOM     15  C12 UNL A   1      19.969  33.176  44.711  1.00  0.00    +0.000 C 
ATOM     16  O2  UNL A   1      19.744  33.555  43.575  1.00  0.00    +0.000 O 
BRANCH   15   14
ATOM    114  H19 UNL A   1      21.496  31.882  44.945  1.00  0.00    +0.000 H 
ATOM     14  N2  UNL A   1      20.513  31.924  44.943  1.00  0.00    +0.000 N 
BRANCH   14   13
ATOM    113  H18 UNL A   1      19.540  30.654  46.215  1.00  0.00    +0.000 H 
ATOM     13  C11 UNL A   1      19.831  30.658  45.185  1.00  0.00    +0.000 C 
ATOM    112  H17 UNL A   1      20.505  29.862  44.946  1.00  0.00    +0.000 H 
BRANCH   13   12
ATOM     12  C10 UNL A   1      18.561  30.476  44.364  1.00  0.00    +0.000 C 
ATOM    110  H15 UNL A   1      17.741  30.877  44.923  1.00  0.00    +0.000 H 
ATOM    111  H16 UNL A   1      18.721  30.983  43.436  1.00  0.00    +0.000 H 
BRANCH   12   11
ATOM     11  C9  UNL A   1      18.237  29.018  44.018  1.00  0.00    +0.000 C 
ATOM    108  H13 UNL A   1      18.900  28.716  43.234  1.00  0.00    +0.000 H 
ATOM    109  H14 UNL A   1      18.353  28.477  44.934  1.00  0.00    +0.000 H 
BRANCH   11   10
ATOM     10  C8  UNL A   1      16.799  28.725  43.552  1.00  0.00    +0.000 C 
ATOM    107  H12 UNL A   1      16.557  29.514  42.872  1.00  0.00    +0.000 H 
ATOM    106  H11 UNL A   1      16.180  28.680  44.423  1.00  0.00    +0.000 H 
BRANCH   10    9
ATOM      9  C7  UNL A   1      16.584  27.428  42.760  1.00  0.00    +0.000 C 
ATOM    105  H10 UNL A   1      16.772  26.626  43.444  1.00  0.00    +0.000 H 
ATOM    104  H9  UNL A   1      17.248  27.438  41.921  1.00  0.00    +0.000 H 
BRANCH    9    8
ATOM    102  H7  UNL A   1      14.676  28.165  42.173  1.00  0.00    +0.000 H 
ATOM    103  H8  UNL A   1      15.240  26.745  41.279  1.00  0.00    +0.000 H 
ATOM      8  C6  UNL A   1      15.164  27.215  42.237  1.00  0.00    +0.000 C 
BRANCH    8    7
ATOM    101  H6  UNL A   1      14.267  26.653  44.018  1.00  0.00    +0.000 H 
ATOM      7  N1  UNL A   1      14.379  26.348  43.089  1.00  0.00    +0.000 N 
BRANCH    7    5
ATOM      5  C5  UNL A   1      13.773  25.163  42.780  1.00  0.00    +0.000 C 
ATOM      6  O1  UNL A   1      12.545  25.146  42.676  1.00  0.00    +0.000 O 
BRANCH    5    4
ATOM    100  H5  UNL A   1      14.421  23.287  43.466  1.00  0.00    +0.000 H 
ATOM     99  H4  UNL A   1      15.626  24.171  42.495  1.00  0.00    +0.000 H 
ATOM      4  C4  UNL A   1      14.599  23.893  42.602  1.00  0.00    +0.000 C 
BRANCH    4    3
ATOM    129  H34 UNL A   1      15.455  24.195  40.130  1.00  0.00    +0.000 H 
ATOM      2  C2  UNL A   1      13.274  21.988  41.447  1.00  0.00    +0.000 C 
ATOM      3  C3  UNL A   1      14.204  23.058  41.395  1.00  0.00    +0.000 C 
ATOM    135  H40 UNL A   1      13.460  21.064  38.210  1.00  0.00    +0.000 H 
ATOM     80  C57 UNL A   1      14.802  23.397  40.163  1.00  0.00    +0.000 C 
ATOM     81  C58 UNL A   1      14.538  22.690  38.988  1.00  0.00    +0.000 C 
ATOM     88  C65 UNL A   1      13.651  21.611  39.064  1.00  0.00    +0.000 C 
ATOM     89  C66 UNL A   1      13.009  21.242  40.266  1.00  0.00    +0.000 C 
BRANCH    2    1
ATOM      1  C1  UNL A   1      12.524  21.679  42.725  1.00  0.00    +0.000 C 
ATOM     98  H3  UNL A   1      12.667  22.476  43.423  1.00  0.00    +0.000 H 
ATOM     97  H2  UNL A   1      11.481  21.575  42.510  1.00  0.00    +0.000 H 
ATOM     96  H1  UNL A   1      12.895  20.767  43.144  1.00  0.00    +0.000 H 
ENDBRANCH    2    1
BRANCH   81   82
ATOM    130  H35 UNL A   1      13.818  24.652  37.282  1.00  0.00    +0.000 H 
ATOM    131  H36 UNL A   1      14.825  25.255  35.164  1.00  0.00    +0.000 H 
ATOM    132  H37 UNL A   1      16.758  24.041  34.346  1.00  0.00    +0.000 H 
ATOM    133  H38 UNL A   1      17.693  22.229  35.660  1.00  0.00    +0.000 H 
ATOM    134  H39 UNL A   1      16.695  21.627  37.782  1.00  0.00    +0.000 H 
ATOM     82  C59 UNL A   1      15.165  23.083  37.716  1.00  0.00    +0.000 C 
ATOM     83  C60 UNL A   1      14.642  24.131  36.942  1.00  0.00    +0.000 C 
ATOM     84  C61 UNL A   1      15.221  24.482  35.720  1.00  0.00    +0.000 C 
ATOM     85  C62 UNL A   1      16.333  23.785  35.250  1.00  0.00    +0.000 C 
ATOM     86  C63 UNL A   1      16.868  22.745  36.005  1.00  0.00    +0.000 C 
ATOM     87  C64 UNL A   1      16.290  22.397  37.229  1.00  0.00    +0.000 C 
ENDBRANCH   81   82
BRANCH   89   90
ATOM    136  H41 UNL A   1      12.930  19.256  38.461  1.00  0.00    +0.000 H 
ATOM    137  H42 UNL A   1      11.489  17.312  38.397  1.00  0.00    +0.000 H 
ATOM    138  H43 UNL A   1       9.839  16.965  40.140  1.00  0.00    +0.000 H 
ATOM    139  H44 UNL A   1       9.609  18.589  41.927  1.00  0.00    +0.000 H 
ATOM    140  H45 UNL A   1      11.018  20.557  41.974  1.00  0.00    +0.000 H 
ATOM     90  C67 UNL A   1      12.115  20.068  40.235  1.00  0.00    +0.000 C 
ATOM     91  C68 UNL A   1      12.225  19.120  39.202  1.00  0.00    +0.000 C 
ATOM     92  C69 UNL A   1      11.396  17.997  39.164  1.00  0.00    +0.000 C 
ATOM     93  C70 UNL A   1      10.445  17.801  40.162  1.00  0.00    +0.000 C 
ATOM     94  C71 UNL A   1      10.314  18.733  41.188  1.00  0.00    +0.000 C 
ATOM     95  C72 UNL A   1      11.134  19.864  41.219  1.00  0.00    +0.000 C 
ENDBRANCH   89   90
ENDBRANCH    4    3
ENDBRANCH    5    4
ENDBRANCH    7    5
ENDBRANCH    8    7
ENDBRANCH    9    8
ENDBRANCH   10    9
ENDBRANCH   11   10
ENDBRANCH   12   11
ENDBRANCH   13   12
ENDBRANCH   14   13
ENDBRANCH   15   14
ENDBRANCH   17   15
ENDBRANCH   21   20
BRANCH   25   26
ATOM     33  C25 UNL A   1      16.912  43.233  52.715  1.00  0.00    +0.000 C 
ATOM     34  F4  UNL A   1      16.149  44.308  52.468  1.00  0.00    +0.000 F 
ATOM     35  C26 UNL A   1      17.924  42.878  51.816  1.00  0.00    +0.000 C 
ATOM     36  F5  UNL A   1      18.178  43.741  50.823  1.00  0.00    +0.000 F 
ATOM     26  C21 UNL A   1      18.673  41.697  51.957  1.00  0.00    +0.000 C 
ATOM     27  C22 UNL A   1      18.476  41.013  53.177  1.00  0.00    +0.000 C 
ATOM     28  F1  UNL A   1      19.213  39.948  53.514  1.00  0.00    +0.000 F 
ATOM     29  C23 UNL A   1      17.503  41.396  54.104  1.00  0.00    +0.000 C 
ATOM     30  F2  UNL A   1      17.346  40.692  55.235  1.00  0.00    +0.000 F 
ATOM     31  C24 UNL A   1      16.688  42.480  53.850  1.00  0.00    +0.000 C 
ATOM     32  F3  UNL A   1      15.712  42.811  54.707  1.00  0.00    +0.000 F 
ENDBRANCH   25   26
BRANCH   42   43
ATOM     43  C32 UNL A   1      23.611  43.857  47.933  1.00  0.00    +0.000 C 
ATOM     44  C33 UNL A   1      24.750  44.667  48.073  1.00  0.00    +0.000 C 
ATOM     45  F6  UNL A   1      25.888  44.179  48.586  1.00  0.00    +0.000 F 
ATOM     46  C34 UNL A   1      24.768  45.995  47.638  1.00  0.00    +0.000 C 
ATOM     47  F7  UNL A   1      25.865  46.741  47.830  1.00  0.00    +0.000 F 
ATOM     48  C35 UNL A   1      23.673  46.537  46.990  1.00  0.00    +0.000 C 
ATOM     49  F8  UNL A   1      23.709  47.798  46.541  1.00  0.00    +0.000 F 
ATOM     50  C36 UNL A   1      22.550  45.759  46.792  1.00  0.00    +0.000 C 
ATOM     51  F9  UNL A   1      21.500  46.255  46.124  1.00  0.00    +0.000 F 
ATOM     52  C37 UNL A   1      22.512  44.450  47.270  1.00  0.00    +0.000 C 
ATOM     53  F10 UNL A   1      21.379  43.766  47.051  1.00  0.00    +0.000 F 
ENDBRANCH   42   43
BRANCH   57   58
ATOM     65  C45 UNL A   1      23.042  35.992  44.346  1.00  0.00    +0.000 C 
ATOM     66  F14 UNL A   1      21.836  35.935  43.762  1.00  0.00    +0.000 F 
ATOM     67  C46 UNL A   1      23.329  37.022  45.243  1.00  0.00    +0.000 C 
ATOM     68  F15 UNL A   1      22.378  37.930  45.505  1.00  0.00    +0.000 F 
ATOM     58  C41 UNL A   1      24.544  37.049  45.936  1.00  0.00    +0.000 C 
ATOM     59  C42 UNL A   1      25.492  36.057  45.630  1.00  0.00    +0.000 C 
ATOM     60  F11 UNL A   1      26.675  36.038  46.267  1.00  0.00    +0.000 F 
ATOM     61  C43 UNL A   1      25.199  35.023  44.742  1.00  0.00    +0.000 C 
ATOM     62  F12 UNL A   1      26.089  34.041  44.541  1.00  0.00    +0.000 F 
ATOM     63  C44 UNL A   1      23.964  34.980  44.119  1.00  0.00    +0.000 C 
ATOM     64  F13 UNL A   1      23.648  33.948  43.324  1.00  0.00    +0.000 F 
ENDBRANCH   57   58
TORSDOF 19
ENDMDL
MODEL 4
REMARK VINA RESULT:     -11.3     20.316     26.728
ROOT
ATOM     21  C17 UNL A   1      55.800  19.544   8.610  1.00  0.00    +0.000 C 
ATOM     22  C18 UNL A   1      55.711  19.000   7.239  1.00  0.00    +0.000 C 
ATOM     23  N3  UNL A   1      54.641  18.476   6.736  1.00  0.00    +0.000 N 
ATOM     24  C19 UNL A   1      54.988  17.883   5.544  1.00  0.00    +0.000 C 
ATOM     25  C20 UNL A   1      54.140  16.989   4.955  1.00  0.00    +0.000 C 
ATOM     37  C27 UNL A   1      52.919  16.812   5.733  1.00  0.00    +0.000 C 
ATOM     38  C28 UNL A   1      52.551  15.860   6.671  1.00  0.00    +0.000 C 
ATOM     39  C29 UNL A   1      51.419  16.340   7.366  1.00  0.00    +0.000 C 
ATOM     40  C30 UNL A   1      51.092  17.580   6.847  1.00  0.00    +0.000 C 
ATOM     41  N4  UNL A   1      51.994  17.845   5.834  1.00  0.00    +0.000 N 
ATOM     42  C31 UNL A   1      50.037  18.519   7.186  1.00  0.00    +0.000 C 
ATOM     54  C38 UNL A   1      50.168  19.116   8.404  1.00  0.00    +0.000 C 
ATOM     55  N5  UNL A   1      51.342  19.067   9.108  1.00  0.00    +0.000 N 
ATOM     56  C39 UNL A   1      51.218  19.776  10.194  1.00  0.00    +0.000 C 
ATOM     57  C40 UNL A   1      52.347  20.035  11.155  1.00  0.00    +0.000 C 
ATOM     69  C47 UNL A   1      53.381  19.151  11.060  1.00  0.00    +0.000 C 
ATOM     70  C48 UNL A   1      53.303  17.832  10.458  1.00  0.00    +0.000 C 
ATOM     71  C49 UNL A   1      54.265  17.769   9.525  1.00  0.00    +0.000 C 
ATOM     72  C50 UNL A   1      55.060  18.991   9.598  1.00  0.00    +0.000 C 
ATOM     73  N6  UNL A   1      54.724  19.579  10.847  1.00  0.00    +0.000 N 
ATOM     74  C51 UNL A   1      49.883  20.347  10.346  1.00  0.00    +0.000 C 
ATOM     75  C52 UNL A   1      49.276  19.906   9.231  1.00  0.00    +0.000 C 
ATOM     76  C53 UNL A   1      56.350  18.303   5.298  1.00  0.00    +0.000 C 
ATOM     77  C54 UNL A   1      56.834  19.028   6.312  1.00  0.00    +0.000 C 
ATOM    117  H22 UNL A   1      53.022  14.957   6.833  1.00  0.00    +0.000 H 
ATOM    118  H23 UNL A   1      50.925  15.853   8.129  1.00  0.00    +0.000 H 
ATOM    119  H24 UNL A   1      51.984  18.649   5.267  1.00  0.00    +0.000 H 
ATOM    120  H25 UNL A   1      52.635  17.085  10.702  1.00  0.00    +0.000 H 
ATOM    121  H26 UNL A   1      54.417  16.989   8.867  1.00  0.00    +0.000 H 
ATOM    122  H27 UNL A   1      55.284  20.146  11.426  1.00  0.00    +0.000 H 
ATOM    123  H28 UNL A   1      49.505  20.934  11.107  1.00  0.00    +0.000 H 
ATOM    124  H29 UNL A   1      48.292  20.105   8.991  1.00  0.00    +0.000 H 
ATOM    125  H30 UNL A   1      56.884  18.072   4.445  1.00  0.00    +0.000 H 
ATOM    126  H31 UNL A   1      57.754  19.483   6.413  1.00  0.00    +0.000 H 
ENDROOT
BRANCH   21   20
ATOM     78  C55 UNL A   1      57.827  20.318   9.713  1.00  0.00    +0.000 C 
ATOM     79  C56 UNL A   1      58.568  21.327  10.300  1.00  0.00    +0.000 C 
ATOM     17  C13 UNL A   1      58.113  22.641  10.208  1.00  0.00    +0.000 C 
ATOM     18  C14 UNL A   1      57.112  22.982   9.292  1.00  0.00    +0.000 C 
ATOM     19  C15 UNL A   1      56.413  21.969   8.637  1.00  0.00    +0.000 C 
ATOM    115  H20 UNL A   1      56.893  23.973   9.103  1.00  0.00    +0.000 H 
ATOM    116  H21 UNL A   1      55.688  22.201   7.940  1.00  0.00    +0.000 H 
ATOM     20  C16 UNL A   1      56.708  20.637   8.937  1.00  0.00    +0.000 C 
ATOM    127  H32 UNL A   1      58.099  19.331   9.846  1.00  0.00    +0.000 H 
ATOM    128  H33 UNL A   1      59.444  21.111  10.799  1.00  0.00    +0.000 H 
BRANCH   17   15
ATOM     15  C12 UNL A   1      58.537  23.670  11.187  1.00  0.00    +0.000 C 
ATOM     16  O2  UNL A   1      57.942  24.731  11.257  1.00  0.00    +0.000 O 
BRANCH   15   14
ATOM    114  H19 UNL A   1      60.372  23.009  11.691  1.00  0.00    +0.000 H 
ATOM     14  N2  UNL A   1      59.544  23.365  12.087  1.00  0.00    +0.000 N 
BRANCH   14   13
ATOM    113  H18 UNL A   1      59.267  24.505  13.760  1.00  0.00    +0.000 H 
ATOM     13  C11 UNL A   1      59.549  23.497  13.538  1.00  0.00    +0.000 C 
ATOM    112  H17 UNL A   1      60.530  23.258  13.895  1.00  0.00    +0.000 H 
BRANCH   13   12
ATOM     12  C10 UNL A   1      58.548  22.591  14.243  1.00  0.00    +0.000 C 
ATOM    110  H15 UNL A   1      57.738  23.197  14.594  1.00  0.00    +0.000 H 
ATOM    111  H16 UNL A   1      58.241  21.859  13.526  1.00  0.00    +0.000 H 
BRANCH   12   11
ATOM     11  C9  UNL A   1      59.124  21.822  15.438  1.00  0.00    +0.000 C 
ATOM    108  H13 UNL A   1      58.609  20.886  15.499  1.00  0.00    +0.000 H 
ATOM    109  H14 UNL A   1      60.173  21.742  15.243  1.00  0.00    +0.000 H 
BRANCH   11   10
ATOM     10  C8  UNL A   1      59.017  22.505  16.813  1.00  0.00    +0.000 C 
ATOM    107  H12 UNL A   1      60.004  22.855  17.031  1.00  0.00    +0.000 H 
ATOM    106  H11 UNL A   1      58.635  21.783  17.504  1.00  0.00    +0.000 H 
BRANCH   10    9
ATOM      9  C7  UNL A   1      58.120  23.748  16.896  1.00  0.00    +0.000 C 
ATOM    105  H10 UNL A   1      57.891  24.018  15.886  1.00  0.00    +0.000 H 
ATOM    104  H9  UNL A   1      58.655  24.507  17.429  1.00  0.00    +0.000 H 
BRANCH    9    8
ATOM    102  H7  UNL A   1      56.930  22.906  18.446  1.00  0.00    +0.000 H 
ATOM    103  H8  UNL A   1      56.404  24.497  17.876  1.00  0.00    +0.000 H 
ATOM      8  C6  UNL A   1      56.778  23.535  17.595  1.00  0.00    +0.000 C 
BRANCH    8    7
ATOM    101  H6  UNL A   1      56.002  22.928  15.772  1.00  0.00    +0.000 H 
ATOM      7  N1  UNL A   1      55.792  22.918  16.734  1.00  0.00    +0.000 N 
BRANCH    7    5
ATOM      5  C5  UNL A   1      54.609  22.325  17.074  1.00  0.00    +0.000 C 
ATOM      6  O1  UNL A   1      53.590  23.018  17.077  1.00  0.00    +0.000 O 
BRANCH    5    4
ATOM    100  H5  UNL A   1      53.697  20.434  17.001  1.00  0.00    +0.000 H 
ATOM     99  H4  UNL A   1      54.532  20.790  18.536  1.00  0.00    +0.000 H 
ATOM      4  C4  UNL A   1      54.565  20.852  17.468  1.00  0.00    +0.000 C 
BRANCH    4    3
ATOM    129  H34 UNL A   1      56.706  20.207  18.859  1.00  0.00    +0.000 H 
ATOM      2  C2  UNL A   1      55.876  19.533  15.662  1.00  0.00    +0.000 C 
ATOM      3  C3  UNL A   1      55.755  20.041  16.981  1.00  0.00    +0.000 C 
ATOM    135  H40 UNL A   1      58.829  17.953  16.050  1.00  0.00    +0.000 H 
ATOM     80  C57 UNL A   1      56.790  19.809  17.911  1.00  0.00    +0.000 C 
ATOM     81  C58 UNL A   1      57.923  19.058  17.590  1.00  0.00    +0.000 C 
ATOM     88  C65 UNL A   1      58.008  18.527  16.299  1.00  0.00    +0.000 C 
ATOM     89  C66 UNL A   1      57.011  18.747  15.324  1.00  0.00    +0.000 C 
BRANCH    2    1
ATOM      1  C1  UNL A   1      54.842  19.869  14.608  1.00  0.00    +0.000 C 
ATOM     98  H3  UNL A   1      54.346  20.778  14.873  1.00  0.00    +0.000 H 
ATOM     97  H2  UNL A   1      55.326  19.989  13.661  1.00  0.00    +0.000 H 
ATOM     96  H1  UNL A   1      54.126  19.076  14.545  1.00  0.00    +0.000 H 
ENDBRANCH    2    1
BRANCH   81   82
ATOM    130  H35 UNL A   1      58.131  20.049  20.091  1.00  0.00    +0.000 H 
ATOM    131  H36 UNL A   1      59.922  19.743  21.691  1.00  0.00    +0.000 H 
ATOM    132  H37 UNL A   1      61.841  18.373  21.124  1.00  0.00    +0.000 H 
ATOM    133  H38 UNL A   1      61.957  17.295  18.955  1.00  0.00    +0.000 H 
ATOM    134  H39 UNL A   1      60.166  17.590  17.354  1.00  0.00    +0.000 H 
ATOM     82  C59 UNL A   1      58.993  18.850  18.579  1.00  0.00    +0.000 C 
ATOM     83  C60 UNL A   1      58.943  19.462  19.842  1.00  0.00    +0.000 C 
ATOM     84  C61 UNL A   1      59.975  19.288  20.768  1.00  0.00    +0.000 C 
ATOM     85  C62 UNL A   1      61.076  18.499  20.443  1.00  0.00    +0.000 C 
ATOM     86  C63 UNL A   1      61.143  17.881  19.197  1.00  0.00    +0.000 C 
ATOM     87  C64 UNL A   1      60.109  18.054  18.273  1.00  0.00    +0.000 C 
ENDBRANCH   81   82
BRANCH   89   90
ATOM    136  H41 UNL A   1      58.978  19.146  13.541  1.00  0.00    +0.000 H 
ATOM    137  H42 UNL A   1      59.307  18.109  11.378  1.00  0.00    +0.000 H 
ATOM    138  H43 UNL A   1      57.729  16.453  10.573  1.00  0.00    +0.000 H 
ATOM    139  H44 UNL A   1      55.799  15.865  11.919  1.00  0.00    +0.000 H 
ATOM    140  H45 UNL A   1      55.442  16.930  14.065  1.00  0.00    +0.000 H 
ATOM     90  C67 UNL A   1      57.191  18.114  14.002  1.00  0.00    +0.000 C 
ATOM     91  C68 UNL A   1      58.298  18.448  13.201  1.00  0.00    +0.000 C 
ATOM     92  C69 UNL A   1      58.491  17.850  11.954  1.00  0.00    +0.000 C 
ATOM     93  C70 UNL A   1      57.581  16.903  11.490  1.00  0.00    +0.000 C 
ATOM     94  C71 UNL A   1      56.474  16.566  12.264  1.00  0.00    +0.000 C 
ATOM     95  C72 UNL A   1      56.274  17.175  13.505  1.00  0.00    +0.000 C 
ENDBRANCH   89   90
ENDBRANCH    4    3
ENDBRANCH    5    4
ENDBRANCH    7    5
ENDBRANCH    8    7
ENDBRANCH    9    8
ENDBRANCH   10    9
ENDBRANCH   11   10
ENDBRANCH   12   11
ENDBRANCH   13   12
ENDBRANCH   14   13
ENDBRANCH   15   14
ENDBRANCH   17   15
ENDBRANCH   21   20
BRANCH   25   26
ATOM     33  C25 UNL A   1      55.863  14.119   3.041  1.00  0.00    +0.000 C 
ATOM     34  F4  UNL A   1      56.837  13.223   3.258  1.00  0.00    +0.000 F 
ATOM     35  C26 UNL A   1      55.649  15.150   3.963  1.00  0.00    +0.000 C 
ATOM     36  F5  UNL A   1      56.549  15.274   4.948  1.00  0.00    +0.000 F 
ATOM     26  C21 UNL A   1      54.569  16.043   3.854  1.00  0.00    +0.000 C 
ATOM     27  C22 UNL A   1      53.850  15.956   2.641  1.00  0.00    +0.000 C 
ATOM     28  F1  UNL A   1      52.881  16.827   2.334  1.00  0.00    +0.000 F 
ATOM     29  C23 UNL A   1      54.097  14.962   1.691  1.00  0.00    +0.000 C 
ATOM     30  F2  UNL A   1      53.364  14.917   0.569  1.00  0.00    +0.000 F 
ATOM     31  C24 UNL A   1      55.073  14.014   1.914  1.00  0.00    +0.000 C 
ATOM     32  F3  UNL A   1      55.268  13.021   1.035  1.00  0.00    +0.000 F 
ENDBRANCH   25   26
BRANCH   42   43
ATOM     43  C32 UNL A   1      48.868  18.683   6.256  1.00  0.00    +0.000 C 
ATOM     44  C33 UNL A   1      48.433  19.927   5.771  1.00  0.00    +0.000 C 
ATOM     45  F6  UNL A   1      49.043  21.064   6.132  1.00  0.00    +0.000 F 
ATOM     46  C34 UNL A   1      47.386  20.033   4.851  1.00  0.00    +0.000 C 
ATOM     47  F7  UNL A   1      46.979  21.245   4.447  1.00  0.00    +0.000 F 
ATOM     48  C35 UNL A   1      46.783  18.899   4.337  1.00  0.00    +0.000 C 
ATOM     49  F8  UNL A   1      45.807  19.005   3.427  1.00  0.00    +0.000 F 
ATOM     50  C36 UNL A   1      47.213  17.656   4.755  1.00  0.00    +0.000 C 
ATOM     51  F9  UNL A   1      46.672  16.548   4.231  1.00  0.00    +0.000 F 
ATOM     52  C37 UNL A   1      48.224  17.549   5.710  1.00  0.00    +0.000 C 
ATOM     53  F10 UNL A   1      48.573  16.306   6.074  1.00  0.00    +0.000 F 
ENDBRANCH   42   43
BRANCH   57   58
ATOM     65  C45 UNL A   1      52.424  23.195  13.219  1.00  0.00    +0.000 C 
ATOM     66  F14 UNL A   1      52.023  23.608  14.429  1.00  0.00    +0.000 F 
ATOM     67  C46 UNL A   1      52.422  21.831  12.916  1.00  0.00    +0.000 C 
ATOM     68  F15 UNL A   1      52.006  20.966  13.852  1.00  0.00    +0.000 F 
ATOM     58  C41 UNL A   1      52.745  21.384  11.631  1.00  0.00    +0.000 C 
ATOM     59  C42 UNL A   1      53.155  22.344  10.688  1.00  0.00    +0.000 C 
ATOM     60  F11 UNL A   1      53.476  21.966   9.441  1.00  0.00    +0.000 F 
ATOM     61  C43 UNL A   1      53.146  23.704  10.990  1.00  0.00    +0.000 C 
ATOM     62  F12 UNL A   1      53.453  24.601  10.042  1.00  0.00    +0.000 F 
ATOM     63  C44 UNL A   1      52.757  24.130  12.248  1.00  0.00    +0.000 C 
ATOM     64  F13 UNL A   1      52.672  25.439  12.519  1.00  0.00    +0.000 F 
ENDBRANCH   57   58
TORSDOF 19
ENDMDL
MODEL 5
REMARK VINA RESULT:     -11.3     21.235     29.024
ROOT
ATOM     21  C17 UNL A   1      22.865  36.667  48.923  1.00  0.00    +0.000 C 
ATOM     22  C18 UNL A   1      21.429  36.552  49.251  1.00  0.00    +0.000 C 
ATOM     23  N3  UNL A   1      20.529  36.132  48.423  1.00  0.00    +0.000 N 
ATOM     24  C19 UNL A   1      19.297  36.371  48.989  1.00  0.00    +0.000 C 
ATOM     25  C20 UNL A   1      18.172  36.325  48.217  1.00  0.00    +0.000 C 
ATOM     37  C27 UNL A   1      18.482  35.992  46.831  1.00  0.00    +0.000 C 
ATOM     38  C28 UNL A   1      18.675  36.786  45.712  1.00  0.00    +0.000 C 
ATOM     39  C29 UNL A   1      19.286  35.998  44.711  1.00  0.00    +0.000 C 
ATOM     40  C30 UNL A   1      19.457  34.722  45.218  1.00  0.00    +0.000 C 
ATOM     41  N4  UNL A   1      18.940  34.722  46.499  1.00  0.00    +0.000 N 
ATOM     42  C31 UNL A   1      20.035  33.523  44.635  1.00  0.00    +0.000 C 
ATOM     54  C38 UNL A   1      21.382  33.574  44.432  1.00  0.00    +0.000 C 
ATOM     55  N5  UNL A   1      22.161  34.542  45.008  1.00  0.00    +0.000 N 
ATOM     56  C39 UNL A   1      23.410  34.314  44.713  1.00  0.00    +0.000 C 
ATOM     57  C40 UNL A   1      24.557  35.117  45.267  1.00  0.00    +0.000 C 
ATOM     69  C47 UNL A   1      24.206  36.344  45.745  1.00  0.00    +0.000 C 
ATOM     70  C48 UNL A   1      22.991  37.062  45.401  1.00  0.00    +0.000 C 
ATOM     71  C49 UNL A   1      22.375  37.364  46.553  1.00  0.00    +0.000 C 
ATOM     72  C50 UNL A   1      23.241  36.966  47.659  1.00  0.00    +0.000 C 
ATOM     73  N6  UNL A   1      24.519  36.756  47.073  1.00  0.00    +0.000 N 
ATOM     74  C51 UNL A   1      23.583  33.156  43.842  1.00  0.00    +0.000 C 
ATOM     75  C52 UNL A   1      22.313  32.744  43.691  1.00  0.00    +0.000 C 
ATOM     76  C53 UNL A   1      19.582  36.789  50.344  1.00  0.00    +0.000 C 
ATOM     77  C54 UNL A   1      20.898  36.886  50.565  1.00  0.00    +0.000 C 
ATOM    117  H22 UNL A   1      18.418  37.781  45.623  1.00  0.00    +0.000 H 
ATOM    118  H23 UNL A   1      19.559  36.317  43.769  1.00  0.00    +0.000 H 
ATOM    119  H24 UNL A   1      18.900  33.937  47.091  1.00  0.00    +0.000 H 
ATOM    120  H25 UNL A   1      22.664  37.294  44.450  1.00  0.00    +0.000 H 
ATOM    121  H26 UNL A   1      21.446  37.804  46.644  1.00  0.00    +0.000 H 
ATOM    122  H27 UNL A   1      25.405  36.868  47.486  1.00  0.00    +0.000 H 
ATOM    123  H28 UNL A   1      24.450  32.758  43.446  1.00  0.00    +0.000 H 
ATOM    124  H29 UNL A   1      22.032  31.935  43.116  1.00  0.00    +0.000 H 
ATOM    125  H30 UNL A   1      18.860  36.987  51.054  1.00  0.00    +0.000 H 
ATOM    126  H31 UNL A   1      21.401  37.132  51.432  1.00  0.00    +0.000 H 
ENDROOT
BRANCH   21   20
ATOM     78  C55 UNL A   1      24.159  35.215  50.387  1.00  0.00    +0.000 C 
ATOM     79  C56 UNL A   1      24.899  35.016  51.538  1.00  0.00    +0.000 C 
ATOM     17  C13 UNL A   1      25.264  36.120  52.306  1.00  0.00    +0.000 C 
ATOM     18  C14 UNL A   1      25.163  37.413  51.782  1.00  0.00    +0.000 C 
ATOM     19  C15 UNL A   1      24.485  37.610  50.580  1.00  0.00    +0.000 C 
ATOM    115  H20 UNL A   1      25.586  38.212  52.279  1.00  0.00    +0.000 H 
ATOM    116  H21 UNL A   1      24.421  38.553  50.165  1.00  0.00    +0.000 H 
ATOM     20  C16 UNL A   1      23.894  36.515  49.946  1.00  0.00    +0.000 C 
ATOM    127  H32 UNL A   1      23.803  34.406  49.854  1.00  0.00    +0.000 H 
ATOM    128  H33 UNL A   1      25.176  34.065  51.824  1.00  0.00    +0.000 H 
BRANCH   17   15
ATOM     15  C12 UNL A   1      25.593  35.978  53.745  1.00  0.00    +0.000 C 
ATOM     16  O2  UNL A   1      24.716  35.721  54.551  1.00  0.00    +0.000 O 
BRANCH   15   14
ATOM    114  H19 UNL A   1      27.256  36.936  54.356  1.00  0.00    +0.000 H 
ATOM     14  N2  UNL A   1      26.919  36.038  54.139  1.00  0.00    +0.000 N 
BRANCH   14   13
ATOM    113  H18 UNL A   1      27.430  34.210  54.898  1.00  0.00    +0.000 H 
ATOM     13  C11 UNL A   1      27.884  34.955  54.277  1.00  0.00    +0.000 C 
ATOM    112  H17 UNL A   1      28.780  35.354  54.706  1.00  0.00    +0.000 H 
BRANCH   13   12
ATOM     12  C10 UNL A   1      28.242  34.276  52.961  1.00  0.00    +0.000 C 
ATOM    110  H15 UNL A   1      28.714  33.342  53.184  1.00  0.00    +0.000 H 
ATOM    111  H16 UNL A   1      27.328  34.163  52.417  1.00  0.00    +0.000 H 
BRANCH   12   11
ATOM     11  C9  UNL A   1      29.187  35.089  52.068  1.00  0.00    +0.000 C 
ATOM    108  H13 UNL A   1      29.640  35.843  52.677  1.00  0.00    +0.000 H 
ATOM    109  H14 UNL A   1      29.871  34.376  51.658  1.00  0.00    +0.000 H 
BRANCH   11   10
ATOM     10  C8  UNL A   1      28.552  35.789  50.853  1.00  0.00    +0.000 C 
ATOM    107  H12 UNL A   1      29.087  36.710  50.747  1.00  0.00    +0.000 H 
ATOM    106  H11 UNL A   1      27.507  35.901  51.053  1.00  0.00    +0.000 H 
BRANCH   10    9
ATOM      9  C7  UNL A   1      28.693  35.081  49.500  1.00  0.00    +0.000 C 
ATOM    105  H10 UNL A   1      28.719  35.853  48.760  1.00  0.00    +0.000 H 
ATOM    104  H9  UNL A   1      27.866  34.411  49.388  1.00  0.00    +0.000 H 
BRANCH    9    8
ATOM    102  H7  UNL A   1      30.597  34.417  50.182  1.00  0.00    +0.000 H 
ATOM    103  H8  UNL A   1      29.705  33.250  49.193  1.00  0.00    +0.000 H 
ATOM      8  C6  UNL A   1      29.980  34.276  49.319  1.00  0.00    +0.000 C 
BRANCH    8    7
ATOM    101  H6  UNL A   1      30.205  34.755  47.316  1.00  0.00    +0.000 H 
ATOM      7  N1  UNL A   1      30.727  34.675  48.146  1.00  0.00    +0.000 N 
BRANCH    7    5
ATOM      5  C5  UNL A   1      32.061  34.954  48.033  1.00  0.00    +0.000 C 
ATOM      6  O1  UNL A   1      32.867  34.129  48.468  1.00  0.00    +0.000 O 
BRANCH    5    4
ATOM    100  H5  UNL A   1      33.482  36.073  46.968  1.00  0.00    +0.000 H 
ATOM     99  H4  UNL A   1      32.574  37.006  48.186  1.00  0.00    +0.000 H 
ATOM      4  C4  UNL A   1      32.528  36.267  47.414  1.00  0.00    +0.000 C 
BRANCH    4    3
ATOM    129  H34 UNL A   1      32.641  35.633  44.860  1.00  0.00    +0.000 H 
ATOM      2  C2  UNL A   1      30.590  37.735  46.516  1.00  0.00    +0.000 C 
ATOM      3  C3  UNL A   1      31.627  36.789  46.307  1.00  0.00    +0.000 C 
ATOM    135  H40 UNL A   1      29.447  37.866  43.346  1.00  0.00    +0.000 H 
ATOM     80  C57 UNL A   1      31.866  36.299  45.007  1.00  0.00    +0.000 C 
ATOM     81  C58 UNL A   1      31.090  36.685  43.911  1.00  0.00    +0.000 C 
ATOM     88  C65 UNL A   1      30.045  37.585  44.140  1.00  0.00    +0.000 C 
ATOM     89  C66 UNL A   1      29.775  38.122  45.417  1.00  0.00    +0.000 C 
BRANCH    2    1
ATOM      1  C1  UNL A   1      30.388  38.371  47.875  1.00  0.00    +0.000 C 
ATOM     98  H3  UNL A   1      30.757  39.375  47.856  1.00  0.00    +0.000 H 
ATOM     97  H2  UNL A   1      29.345  38.379  48.113  1.00  0.00    +0.000 H 
ATOM     96  H1  UNL A   1      30.920  37.809  48.614  1.00  0.00    +0.000 H 
ENDBRANCH    2    1
BRANCH   81   82
ATOM    130  H35 UNL A   1      31.657  34.158  43.155  1.00  0.00    +0.000 H 
ATOM    131  H36 UNL A   1      32.183  33.327  40.942  1.00  0.00    +0.000 H 
ATOM    132  H37 UNL A   1      32.224  34.844  39.050  1.00  0.00    +0.000 H 
ATOM    133  H38 UNL A   1      31.721  37.194  39.374  1.00  0.00    +0.000 H 
ATOM    134  H39 UNL A   1      31.185  38.029  41.582  1.00  0.00    +0.000 H 
ATOM     82  C59 UNL A   1      31.379  36.168  42.565  1.00  0.00    +0.000 C 
ATOM     83  C60 UNL A   1      31.669  34.810  42.355  1.00  0.00    +0.000 C 
ATOM     84  C61 UNL A   1      31.974  34.328  41.079  1.00  0.00    +0.000 C 
ATOM     85  C62 UNL A   1      31.995  35.198  39.992  1.00  0.00    +0.000 C 
ATOM     86  C63 UNL A   1      31.707  36.548  40.179  1.00  0.00    +0.000 C 
ATOM     87  C64 UNL A   1      31.400  37.028  41.454  1.00  0.00    +0.000 C 
ENDBRANCH   81   82
BRANCH   89   90
ATOM    136  H41 UNL A   1      29.651  40.730  44.792  1.00  0.00    +0.000 H 
ATOM    137  H42 UNL A   1      27.781  42.255  44.977  1.00  0.00    +0.000 H 
ATOM    138  H43 UNL A   1      25.649  41.464  45.822  1.00  0.00    +0.000 H 
ATOM    139  H44 UNL A   1      25.405  39.153  46.518  1.00  0.00    +0.000 H 
ATOM    140  H45 UNL A   1      27.285  37.634  46.374  1.00  0.00    +0.000 H 
ATOM     90  C67 UNL A   1      28.627  39.042  45.548  1.00  0.00    +0.000 C 
ATOM     91  C68 UNL A   1      28.750  40.388  45.160  1.00  0.00    +0.000 C 
ATOM     92  C69 UNL A   1      27.672  41.269  45.264  1.00  0.00    +0.000 C 
ATOM     93  C70 UNL A   1      26.450  40.816  45.755  1.00  0.00    +0.000 C 
ATOM     94  C71 UNL A   1      26.310  39.489  46.153  1.00  0.00    +0.000 C 
ATOM     95  C72 UNL A   1      27.394  38.611  46.061  1.00  0.00    +0.000 C 
ENDBRANCH   89   90
ENDBRANCH    4    3
ENDBRANCH    5    4
ENDBRANCH    7    5
ENDBRANCH    8    7
ENDBRANCH    9    8
ENDBRANCH   10    9
ENDBRANCH   11   10
ENDBRANCH   12   11
ENDBRANCH   13   12
ENDBRANCH   14   13
ENDBRANCH   15   14
ENDBRANCH   17   15
ENDBRANCH   21   20
BRANCH   25   26
ATOM     33  C25 UNL A   1      14.402  36.761  48.900  1.00  0.00    +0.000 C 
ATOM     34  F4  UNL A   1      13.257  36.138  48.588  1.00  0.00    +0.000 F 
ATOM     35  C26 UNL A   1      15.596  36.372  48.281  1.00  0.00    +0.000 C 
ATOM     36  F5  UNL A   1      15.495  35.487  47.279  1.00  0.00    +0.000 F 
ATOM     26  C21 UNL A   1      16.843  36.901  48.656  1.00  0.00    +0.000 C 
ATOM     27  C22 UNL A   1      16.778  37.999  49.542  1.00  0.00    +0.000 C 
ATOM     28  F1  UNL A   1      17.870  38.693  49.884  1.00  0.00    +0.000 F 
ATOM     29  C23 UNL A   1      15.580  38.427  50.120  1.00  0.00    +0.000 C 
ATOM     30  F2  UNL A   1      15.585  39.461  50.974  1.00  0.00    +0.000 F 
ATOM     31  C24 UNL A   1      14.398  37.777  49.834  1.00  0.00    +0.000 C 
ATOM     32  F3  UNL A   1      13.258  38.145  50.437  1.00  0.00    +0.000 F 
ENDBRANCH   25   26
BRANCH   42   43
ATOM     43  C32 UNL A   1      19.132  32.397  44.216  1.00  0.00    +0.000 C 
ATOM     44  C33 UNL A   1      18.181  32.508  43.189  1.00  0.00    +0.000 C 
ATOM     45  F6  UNL A   1      18.012  33.658  42.522  1.00  0.00    +0.000 F 
ATOM     46  C34 UNL A   1      17.410  31.418  42.778  1.00  0.00    +0.000 C 
ATOM     47  F7  UNL A   1      16.485  31.582  41.821  1.00  0.00    +0.000 F 
ATOM     48  C35 UNL A   1      17.608  30.167  43.334  1.00  0.00    +0.000 C 
ATOM     49  F8  UNL A   1      16.893  29.117  42.911  1.00  0.00    +0.000 F 
ATOM     50  C36 UNL A   1      18.566  30.006  44.315  1.00  0.00    +0.000 C 
ATOM     51  F9  UNL A   1      18.803  28.792  44.829  1.00  0.00    +0.000 F 
ATOM     52  C37 UNL A   1      19.302  31.104  44.760  1.00  0.00    +0.000 C 
ATOM     53  F10 UNL A   1      20.202  30.867  45.727  1.00  0.00    +0.000 F 
ENDBRANCH   42   43
BRANCH   57   58
ATOM     65  C45 UNL A   1      28.108  33.965  45.827  1.00  0.00    +0.000 C 
ATOM     66  F14 UNL A   1      29.327  34.200  45.321  1.00  0.00    +0.000 F 
ATOM     67  C46 UNL A   1      27.044  34.806  45.493  1.00  0.00    +0.000 C 
ATOM     68  F15 UNL A   1      27.274  35.831  44.659  1.00  0.00    +0.000 F 
ATOM     58  C41 UNL A   1      25.746  34.526  45.931  1.00  0.00    +0.000 C 
ATOM     59  C42 UNL A   1      25.569  33.424  46.787  1.00  0.00    +0.000 C 
ATOM     60  F11 UNL A   1      24.342  33.113  47.236  1.00  0.00    +0.000 F 
ATOM     61  C43 UNL A   1      26.629  32.580  47.110  1.00  0.00    +0.000 C 
ATOM     62  F12 UNL A   1      26.412  31.486  47.854  1.00  0.00    +0.000 F 
ATOM     63  C44 UNL A   1      27.894  32.839  46.609  1.00  0.00    +0.000 C 
ATOM     64  F13 UNL A   1      28.900  31.989  46.854  1.00  0.00    +0.000 F 
ENDBRANCH   57   58
TORSDOF 19
ENDMDL
MODEL 6
REMARK VINA RESULT:     -11.2     35.054     44.106
ROOT
ATOM     21  C17 UNL A   1       9.269  -2.647  25.445  1.00  0.00    +0.000 C 
ATOM     22  C18 UNL A   1       9.668  -1.374  26.078  1.00  0.00    +0.000 C 
ATOM     23  N3  UNL A   1      10.352  -0.452  25.481  1.00  0.00    +0.000 N 
ATOM     24  C19 UNL A   1      10.726   0.471  26.432  1.00  0.00    +0.000 C 
ATOM     25  C20 UNL A   1      11.712   1.373  26.154  1.00  0.00    +0.000 C 
ATOM     37  C27 UNL A   1      12.230   1.207  24.801  1.00  0.00    +0.000 C 
ATOM     38  C28 UNL A   1      13.333   0.527  24.312  1.00  0.00    +0.000 C 
ATOM     39  C29 UNL A   1      13.185   0.393  22.913  1.00  0.00    +0.000 C 
ATOM     40  C30 UNL A   1      11.996   1.000  22.549  1.00  0.00    +0.000 C 
ATOM     41  N4  UNL A   1      11.436   1.516  23.702  1.00  0.00    +0.000 N 
ATOM     42  C31 UNL A   1      11.347   1.152  21.259  1.00  0.00    +0.000 C 
ATOM     54  C38 UNL A   1      10.870  -0.003  20.714  1.00  0.00    +0.000 C 
ATOM     55  N5  UNL A   1      10.741  -1.148  21.454  1.00  0.00    +0.000 N 
ATOM     56  C39 UNL A   1      10.197  -2.073  20.716  1.00  0.00    +0.000 C 
ATOM     57  C40 UNL A   1       9.806  -3.432  21.234  1.00  0.00    +0.000 C 
ATOM     69  C47 UNL A   1      10.432  -3.794  22.389  1.00  0.00    +0.000 C 
ATOM     70  C48 UNL A   1      11.665  -3.215  22.893  1.00  0.00    +0.000 C 
ATOM     71  C49 UNL A   1      11.419  -2.795  24.143  1.00  0.00    +0.000 C 
ATOM     72  C50 UNL A   1      10.070  -3.212  24.514  1.00  0.00    +0.000 C 
ATOM     73  N6  UNL A   1       9.705  -4.191  23.550  1.00  0.00    +0.000 N 
ATOM     74  C51 UNL A   1       9.945  -1.629  19.348  1.00  0.00    +0.000 C 
ATOM     75  C52 UNL A   1      10.383  -0.360  19.396  1.00  0.00    +0.000 C 
ATOM     76  C53 UNL A   1       9.999   0.095  27.625  1.00  0.00    +0.000 C 
ATOM     77  C54 UNL A   1       9.300  -1.030  27.445  1.00  0.00    +0.000 C 
ATOM    117  H22 UNL A   1      14.127   0.178  24.871  1.00  0.00    +0.000 H 
ATOM    118  H23 UNL A   1      13.846  -0.075  22.275  1.00  0.00    +0.000 H 
ATOM    119  H24 UNL A   1      10.597   2.028  23.740  1.00  0.00    +0.000 H 
ATOM    120  H25 UNL A   1      12.560  -3.140  22.385  1.00  0.00    +0.000 H 
ATOM    121  H26 UNL A   1      12.073  -2.267  24.742  1.00  0.00    +0.000 H 
ATOM    122  H27 UNL A   1       9.098  -4.958  23.658  1.00  0.00    +0.000 H 
ATOM    123  H28 UNL A   1       9.539  -2.151  18.555  1.00  0.00    +0.000 H 
ATOM    124  H29 UNL A   1      10.375   0.285  18.590  1.00  0.00    +0.000 H 
ATOM    125  H30 UNL A   1      10.017   0.631  28.507  1.00  0.00    +0.000 H 
ATOM    126  H31 UNL A   1       8.672  -1.524  28.097  1.00  0.00    +0.000 H 
ENDROOT
BRANCH   21   20
ATOM     78  C55 UNL A   1       8.198  -4.604  26.422  1.00  0.00    +0.000 C 
ATOM     79  C56 UNL A   1       7.103  -5.436  26.554  1.00  0.00    +0.000 C 
ATOM     17  C13 UNL A   1       5.888  -5.050  25.991  1.00  0.00    +0.000 C 
ATOM     18  C14 UNL A   1       5.688  -3.730  25.574  1.00  0.00    +0.000 C 
ATOM     19  C15 UNL A   1       6.777  -2.861  25.513  1.00  0.00    +0.000 C 
ATOM    115  H20 UNL A   1       4.744  -3.401  25.315  1.00  0.00    +0.000 H 
ATOM    116  H21 UNL A   1       6.645  -1.877  25.232  1.00  0.00    +0.000 H 
ATOM     20  C16 UNL A   1       8.048  -3.342  25.837  1.00  0.00    +0.000 C 
ATOM    127  H32 UNL A   1       9.126  -4.912  26.754  1.00  0.00    +0.000 H 
ATOM    128  H33 UNL A   1       7.182  -6.330  27.062  1.00  0.00    +0.000 H 
BRANCH   17   15
ATOM     15  C12 UNL A   1       4.848  -6.050  25.650  1.00  0.00    +0.000 C 
ATOM     16  O2  UNL A   1       3.771  -5.688  25.209  1.00  0.00    +0.000 O 
BRANCH   15   14
ATOM    114  H19 UNL A   1       5.554  -7.794  24.931  1.00  0.00    +0.000 H 
ATOM     14  N2  UNL A   1       5.158  -7.397  25.739  1.00  0.00    +0.000 N 
BRANCH   14   13
ATOM    113  H18 UNL A   1       4.070  -8.843  26.687  1.00  0.00    +0.000 H 
ATOM     13  C11 UNL A   1       4.979  -8.307  26.863  1.00  0.00    +0.000 C 
ATOM    112  H17 UNL A   1       4.946  -7.728  27.763  1.00  0.00    +0.000 H 
BRANCH   13   12
ATOM     12  C10 UNL A   1       6.087  -9.343  26.999  1.00  0.00    +0.000 C 
ATOM    110  H15 UNL A   1       6.529  -9.489  26.036  1.00  0.00    +0.000 H 
ATOM    111  H16 UNL A   1       6.778  -8.960  27.721  1.00  0.00    +0.000 H 
BRANCH   12   11
ATOM     11  C9  UNL A   1       5.617 -10.705  27.522  1.00  0.00    +0.000 C 
ATOM    108  H13 UNL A   1       6.289 -11.004  28.299  1.00  0.00    +0.000 H 
ATOM    109  H14 UNL A   1       4.607 -10.553  27.841  1.00  0.00    +0.000 H 
BRANCH   11   10
ATOM     10  C8  UNL A   1       5.550 -11.851  26.496  1.00  0.00    +0.000 C 
ATOM    107  H12 UNL A   1       5.147 -12.685  27.031  1.00  0.00    +0.000 H 
ATOM    106  H11 UNL A   1       6.538 -12.001  26.114  1.00  0.00    +0.000 H 
BRANCH   10    9
ATOM      9  C7  UNL A   1       4.614 -11.648  25.298  1.00  0.00    +0.000 C 
ATOM    105  H10 UNL A   1       5.237 -11.360  24.477  1.00  0.00    +0.000 H 
ATOM    104  H9  UNL A   1       3.890 -10.905  25.565  1.00  0.00    +0.000 H 
BRANCH    9    8
ATOM    102  H7  UNL A   1       3.387 -13.341  25.692  1.00  0.00    +0.000 H 
ATOM    103  H8  UNL A   1       3.149 -12.595  24.104  1.00  0.00    +0.000 H 
ATOM      8  C6  UNL A   1       3.862 -12.898  24.842  1.00  0.00    +0.000 C 
BRANCH    8    7
ATOM    101  H6  UNL A   1       5.282 -14.406  24.857  1.00  0.00    +0.000 H 
ATOM      7  N1  UNL A   1       4.731 -13.881  24.233  1.00  0.00    +0.000 N 
BRANCH    7    5
ATOM      5  C5  UNL A   1       4.891 -14.179  22.909  1.00  0.00    +0.000 C 
ATOM      6  O1  UNL A   1       3.894 -14.499  22.259  1.00  0.00    +0.000 O 
BRANCH    5    4
ATOM    100  H5  UNL A   1       6.229 -13.431  21.473  1.00  0.00    +0.000 H 
ATOM     99  H4  UNL A   1       6.513 -15.131  21.927  1.00  0.00    +0.000 H 
ATOM      4  C4  UNL A   1       6.276 -14.145  22.269  1.00  0.00    +0.000 C 
BRANCH    4    3
ATOM    129  H34 UNL A   1       6.860 -11.660  22.915  1.00  0.00    +0.000 H 
ATOM      2  C2  UNL A   1       8.286 -14.569  23.850  1.00  0.00    +0.000 C 
ATOM      3  C3  UNL A   1       7.382 -13.686  23.204  1.00  0.00    +0.000 C 
ATOM    135  H40 UNL A   1      10.025 -12.256  25.581  1.00  0.00    +0.000 H 
ATOM     80  C57 UNL A   1       7.503 -12.296  23.412  1.00  0.00    +0.000 C 
ATOM     81  C58 UNL A   1       8.465 -11.753  24.266  1.00  0.00    +0.000 C 
ATOM     88  C65 UNL A   1       9.321 -12.639  24.929  1.00  0.00    +0.000 C 
ATOM     89  C66 UNL A   1       9.257 -14.036  24.741  1.00  0.00    +0.000 C 
BRANCH    2    1
ATOM      1  C1  UNL A   1       8.260 -16.053  23.552  1.00  0.00    +0.000 C 
ATOM     98  H3  UNL A   1       8.993 -16.549  24.151  1.00  0.00    +0.000 H 
ATOM     97  H2  UNL A   1       7.290 -16.445  23.776  1.00  0.00    +0.000 H 
ATOM     96  H1  UNL A   1       8.479 -16.212  22.516  1.00  0.00    +0.000 H 
ENDBRANCH    2    1
BRANCH   81   82
ATOM    130  H35 UNL A   1       7.288  -9.779  22.853  1.00  0.00    +0.000 H 
ATOM    131  H36 UNL A   1       7.519  -7.384  23.124  1.00  0.00    +0.000 H 
ATOM    132  H37 UNL A   1       8.946  -6.489  24.868  1.00  0.00    +0.000 H 
ATOM    133  H38 UNL A   1      10.131  -7.996  26.353  1.00  0.00    +0.000 H 
ATOM    134  H39 UNL A   1       9.897 -10.391  26.093  1.00  0.00    +0.000 H 
ATOM     82  C59 UNL A   1       8.576 -10.297  24.446  1.00  0.00    +0.000 C 
ATOM     83  C60 UNL A   1       7.895  -9.407  23.600  1.00  0.00    +0.000 C 
ATOM     84  C61 UNL A   1       8.027  -8.024  23.754  1.00  0.00    +0.000 C 
ATOM     85  C62 UNL A   1       8.845  -7.509  24.757  1.00  0.00    +0.000 C 
ATOM     86  C63 UNL A   1       9.525  -8.376  25.609  1.00  0.00    +0.000 C 
ATOM     87  C64 UNL A   1       9.391  -9.758  25.456  1.00  0.00    +0.000 C 
ENDBRANCH   81   82
BRANCH   89   90
ATOM    136  H41 UNL A   1      11.799 -14.670  24.159  1.00  0.00    +0.000 H 
ATOM    137  H42 UNL A   1      13.357 -16.030  25.417  1.00  0.00    +0.000 H 
ATOM    138  H43 UNL A   1      12.677 -17.022  27.524  1.00  0.00    +0.000 H 
ATOM    139  H44 UNL A   1      10.421 -16.682  28.348  1.00  0.00    +0.000 H 
ATOM    140  H45 UNL A   1       8.845 -15.358  27.073  1.00  0.00    +0.000 H 
ATOM     90  C67 UNL A   1      10.191 -14.877  25.515  1.00  0.00    +0.000 C 
ATOM     91  C68 UNL A   1      11.500 -15.096  25.050  1.00  0.00    +0.000 C 
ATOM     92  C69 UNL A   1      12.401 -15.878  25.775  1.00  0.00    +0.000 C 
ATOM     93  C70 UNL A   1      12.008 -16.452  26.981  1.00  0.00    +0.000 C 
ATOM     94  C71 UNL A   1      10.713 -16.256  27.455  1.00  0.00    +0.000 C 
ATOM     95  C72 UNL A   1       9.808 -15.484  26.722  1.00  0.00    +0.000 C 
ENDBRANCH   89   90
ENDBRANCH    4    3
ENDBRANCH    5    4
ENDBRANCH    7    5
ENDBRANCH    8    7
ENDBRANCH    9    8
ENDBRANCH   10    9
ENDBRANCH   11   10
ENDBRANCH   12   11
ENDBRANCH   13   12
ENDBRANCH   14   13
ENDBRANCH   15   14
ENDBRANCH   17   15
ENDBRANCH   21   20
BRANCH   25   26
ATOM     33  C25 UNL A   1      14.454   2.868  28.417  1.00  0.00    +0.000 C 
ATOM     34  F4  UNL A   1      15.755   2.664  28.669  1.00  0.00    +0.000 F 
ATOM     35  C26 UNL A   1      13.749   1.956  27.622  1.00  0.00    +0.000 C 
ATOM     36  F5  UNL A   1      14.391   0.829  27.283  1.00  0.00    +0.000 F 
ATOM     26  C21 UNL A   1      12.420   2.180  27.222  1.00  0.00    +0.000 C 
ATOM     27  C22 UNL A   1      11.789   3.274  27.853  1.00  0.00    +0.000 C 
ATOM     28  F1  UNL A   1      10.487   3.532  27.677  1.00  0.00    +0.000 F 
ATOM     29  C23 UNL A   1      12.475   4.156  28.692  1.00  0.00    +0.000 C 
ATOM     30  F2  UNL A   1      11.826   5.192  29.243  1.00  0.00    +0.000 F 
ATOM     31  C24 UNL A   1      13.821   3.979  28.936  1.00  0.00    +0.000 C 
ATOM     32  F3  UNL A   1      14.495   4.859  29.688  1.00  0.00    +0.000 F 
ENDBRANCH   25   26
BRANCH   42   43
ATOM     43  C32 UNL A   1      11.338   2.499  20.591  1.00  0.00    +0.000 C 
ATOM     44  C33 UNL A   1      12.102   2.804  19.454  1.00  0.00    +0.000 C 
ATOM     45  F6  UNL A   1      12.914   1.893  18.898  1.00  0.00    +0.000 F 
ATOM     46  C34 UNL A   1      12.014   4.045  18.817  1.00  0.00    +0.000 C 
ATOM     47  F7  UNL A   1      12.793   4.305  17.758  1.00  0.00    +0.000 F 
ATOM     48  C35 UNL A   1      11.112   4.998  19.257  1.00  0.00    +0.000 C 
ATOM     49  F8  UNL A   1      11.003   6.171  18.621  1.00  0.00    +0.000 F 
ATOM     50  C36 UNL A   1      10.309   4.718  20.345  1.00  0.00    +0.000 C 
ATOM     51  F9  UNL A   1       9.398   5.612  20.753  1.00  0.00    +0.000 F 
ATOM     52  C37 UNL A   1      10.432   3.499  21.011  1.00  0.00    +0.000 C 
ATOM     53  F10 UNL A   1       9.627   3.312  22.068  1.00  0.00    +0.000 F 
ENDBRANCH   42   43
BRANCH   57   58
ATOM     65  C45 UNL A   1       6.189  -4.302  21.871  1.00  0.00    +0.000 C 
ATOM     66  F14 UNL A   1       5.154  -3.822  22.575  1.00  0.00    +0.000 F 
ATOM     67  C46 UNL A   1       7.335  -3.523  21.705  1.00  0.00    +0.000 C 
ATOM     68  F15 UNL A   1       7.372  -2.306  22.269  1.00  0.00    +0.000 F 
ATOM     58  C41 UNL A   1       8.463  -4.038  21.057  1.00  0.00    +0.000 C 
ATOM     59  C42 UNL A   1       8.366  -5.328  20.505  1.00  0.00    +0.000 C 
ATOM     60  F11 UNL A   1       9.420  -5.868  19.872  1.00  0.00    +0.000 F 
ATOM     61  C43 UNL A   1       7.225  -6.108  20.681  1.00  0.00    +0.000 C 
ATOM     62  F12 UNL A   1       7.198  -7.367  20.223  1.00  0.00    +0.000 F 
ATOM     63  C44 UNL A   1       6.146  -5.602  21.385  1.00  0.00    +0.000 C 
ATOM     64  F13 UNL A   1       5.078  -6.374  21.624  1.00  0.00    +0.000 F 
ENDBRANCH   57   58
TORSDOF 19
ENDMDL
MODEL 7
REMARK VINA RESULT:     -11.1     32.307     38.163
ROOT
ATOM     21  C17 UNL A   1       8.846   3.486  26.923  1.00  0.00    +0.000 C 
ATOM     22  C18 UNL A   1       8.097   4.339  25.979  1.00  0.00    +0.000 C 
ATOM     23  N3  UNL A   1       8.031   5.628  26.063  1.00  0.00    +0.000 N 
ATOM     24  C19 UNL A   1       7.077   6.057  25.168  1.00  0.00    +0.000 C 
ATOM     25  C20 UNL A   1       6.573   7.322  25.263  1.00  0.00    +0.000 C 
ATOM     37  C27 UNL A   1       7.180   8.062  26.363  1.00  0.00    +0.000 C 
ATOM     38  C28 UNL A   1       6.767   8.282  27.668  1.00  0.00    +0.000 C 
ATOM     39  C29 UNL A   1       7.872   8.763  28.405  1.00  0.00    +0.000 C 
ATOM     40  C30 UNL A   1       8.955   8.846  27.548  1.00  0.00    +0.000 C 
ATOM     41  N4  UNL A   1       8.515   8.443  26.301  1.00  0.00    +0.000 N 
ATOM     42  C31 UNL A   1      10.328   9.263  27.768  1.00  0.00    +0.000 C 
ATOM     54  C38 UNL A   1      11.067   8.422  28.547  1.00  0.00    +0.000 C 
ATOM     55  N5  UNL A   1      10.645   7.152  28.838  1.00  0.00    +0.000 N 
ATOM     56  C39 UNL A   1      11.567   6.545  29.530  1.00  0.00    +0.000 C 
ATOM     57  C40 UNL A   1      11.490   5.096  29.932  1.00  0.00    +0.000 C 
ATOM     69  C47 UNL A   1      10.232   4.572  29.908  1.00  0.00    +0.000 C 
ATOM     70  C48 UNL A   1       9.001   5.343  29.941  1.00  0.00    +0.000 C 
ATOM     71  C49 UNL A   1       8.274   4.967  28.878  1.00  0.00    +0.000 C 
ATOM     72  C50 UNL A   1       8.959   3.859  28.218  1.00  0.00    +0.000 C 
ATOM     73  N6  UNL A   1       9.916   3.399  29.162  1.00  0.00    +0.000 N 
ATOM     74  C51 UNL A   1      12.714   7.402  29.817  1.00  0.00    +0.000 C 
ATOM     75  C52 UNL A   1      12.355   8.542  29.203  1.00  0.00    +0.000 C 
ATOM     76  C53 UNL A   1       6.739   4.884  24.391  1.00  0.00    +0.000 C 
ATOM     77  C54 UNL A   1       7.373   3.795  24.838  1.00  0.00    +0.000 C 
ATOM    117  H22 UNL A   1       5.817   8.122  28.037  1.00  0.00    +0.000 H 
ATOM    118  H23 UNL A   1       7.872   9.008  29.407  1.00  0.00    +0.000 H 
ATOM    119  H24 UNL A   1       9.068   8.428  25.487  1.00  0.00    +0.000 H 
ATOM    120  H25 UNL A   1       8.737   6.047  30.647  1.00  0.00    +0.000 H 
ATOM    121  H26 UNL A   1       7.381   5.388  28.578  1.00  0.00    +0.000 H 
ATOM    122  H27 UNL A   1      10.275   2.489  29.273  1.00  0.00    +0.000 H 
ATOM    123  H28 UNL A   1      13.572   7.189  30.350  1.00  0.00    +0.000 H 
ATOM    124  H29 UNL A   1      12.927   9.401  29.199  1.00  0.00    +0.000 H 
ATOM    125  H30 UNL A   1       6.088   4.887  23.590  1.00  0.00    +0.000 H 
ATOM    126  H31 UNL A   1       7.353   2.829  24.476  1.00  0.00    +0.000 H 
ENDROOT
BRANCH   21   20
ATOM     78  C55 UNL A   1       8.567   1.119  26.425  1.00  0.00    +0.000 C 
ATOM     79  C56 UNL A   1       9.085  -0.158  26.317  1.00  0.00    +0.000 C 
ATOM     17  C13 UNL A   1      10.464  -0.338  26.413  1.00  0.00    +0.000 C 
ATOM     18  C14 UNL A   1      11.331   0.755  26.307  1.00  0.00    +0.000 C 
ATOM     19  C15 UNL A   1      10.806   2.046  26.336  1.00  0.00    +0.000 C 
ATOM    115  H20 UNL A   1      12.348   0.608  26.209  1.00  0.00    +0.000 H 
ATOM    116  H21 UNL A   1      11.427   2.865  26.235  1.00  0.00    +0.000 H 
ATOM     20  C16 UNL A   1       9.430   2.217  26.503  1.00  0.00    +0.000 C 
ATOM    127  H32 UNL A   1       7.545   1.263  26.446  1.00  0.00    +0.000 H 
ATOM    128  H33 UNL A   1       8.462  -0.965  26.170  1.00  0.00    +0.000 H 
BRANCH   17   15
ATOM     15  C12 UNL A   1      11.042  -1.646  26.807  1.00  0.00    +0.000 C 
ATOM     16  O2  UNL A   1      11.027  -1.994  27.974  1.00  0.00    +0.000 O 
BRANCH   15   14
ATOM    114  H19 UNL A   1      12.401  -2.315  25.480  1.00  0.00    +0.000 H 
ATOM     14  N2  UNL A   1      11.497  -2.502  25.819  1.00  0.00    +0.000 N 
BRANCH   14   13
ATOM    113  H18 UNL A   1       9.813  -3.633  25.568  1.00  0.00    +0.000 H 
ATOM     13  C11 UNL A   1      10.822  -3.643  25.212  1.00  0.00    +0.000 C 
ATOM    112  H17 UNL A   1      11.347  -4.533  25.491  1.00  0.00    +0.000 H 
BRANCH   13   12
ATOM     12  C10 UNL A   1      10.756  -3.582  23.691  1.00  0.00    +0.000 C 
ATOM    110  H15 UNL A   1      11.757  -3.550  23.314  1.00  0.00    +0.000 H 
ATOM    111  H16 UNL A   1      10.218  -4.450  23.373  1.00  0.00    +0.000 H 
BRANCH   12   11
ATOM     11  C9  UNL A   1       9.998  -2.369  23.140  1.00  0.00    +0.000 C 
ATOM    108  H13 UNL A   1       9.245  -2.105  23.854  1.00  0.00    +0.000 H 
ATOM    109  H14 UNL A   1      10.743  -1.618  22.979  1.00  0.00    +0.000 H 
BRANCH   11   10
ATOM     10  C8  UNL A   1       9.305  -2.552  21.777  1.00  0.00    +0.000 C 
ATOM    107  H12 UNL A   1       8.284  -2.274  21.941  1.00  0.00    +0.000 H 
ATOM    106  H11 UNL A   1       9.449  -3.568  21.475  1.00  0.00    +0.000 H 
BRANCH   10    9
ATOM      9  C7  UNL A   1       9.790  -1.652  20.633  1.00  0.00    +0.000 C 
ATOM    105  H10 UNL A   1       9.230  -0.743  20.711  1.00  0.00    +0.000 H 
ATOM    104  H9  UNL A   1       9.631  -2.173  19.712  1.00  0.00    +0.000 H 
BRANCH    9    8
ATOM    102  H7  UNL A   1      11.698  -1.691  21.574  1.00  0.00    +0.000 H 
ATOM    103  H8  UNL A   1      11.734  -1.600  19.806  1.00  0.00    +0.000 H 
ATOM      8  C6  UNL A   1      11.263  -1.251  20.701  1.00  0.00    +0.000 C 
BRANCH    8    7
ATOM    101  H6  UNL A   1      11.316   0.665  19.917  1.00  0.00    +0.000 H 
ATOM      7  N1  UNL A   1      11.449   0.182  20.764  1.00  0.00    +0.000 N 
BRANCH    7    5
ATOM      5  C5  UNL A   1      11.786   0.957  21.838  1.00  0.00    +0.000 C 
ATOM      6  O1  UNL A   1      12.978   1.218  22.017  1.00  0.00    +0.000 O 
BRANCH    5    4
ATOM    100  H5  UNL A   1      11.210   2.075  23.520  1.00  0.00    +0.000 H 
ATOM     99  H4  UNL A   1      10.242   0.603  23.248  1.00  0.00    +0.000 H 
ATOM      4  C4  UNL A   1      10.714   1.453  22.803  1.00  0.00    +0.000 C 
BRANCH    4    3
ATOM    129  H34 UNL A   1      11.028   3.850  21.759  1.00  0.00    +0.000 H 
ATOM      2  C2  UNL A   1       8.280   1.919  22.043  1.00  0.00    +0.000 C 
ATOM      3  C3  UNL A   1       9.639   2.309  22.152  1.00  0.00    +0.000 C 
ATOM    135  H40 UNL A   1       7.159   4.630  20.381  1.00  0.00    +0.000 H 
ATOM     80  C57 UNL A   1      10.043   3.563  21.649  1.00  0.00    +0.000 C 
ATOM     81  C58 UNL A   1       9.154   4.429  21.009  1.00  0.00    +0.000 C 
ATOM     88  C65 UNL A   1       7.826   4.012  20.871  1.00  0.00    +0.000 C 
ATOM     89  C66 UNL A   1       7.365   2.777  21.374  1.00  0.00    +0.000 C 
BRANCH    2    1
ATOM      1  C1  UNL A   1       7.792   0.635  22.681  1.00  0.00    +0.000 C 
ATOM     98  H3  UNL A   1       8.601   0.163  23.195  1.00  0.00    +0.000 H 
ATOM     97  H2  UNL A   1       7.009   0.858  23.375  1.00  0.00    +0.000 H 
ATOM     96  H1  UNL A   1       7.420  -0.021  21.922  1.00  0.00    +0.000 H 
ENDBRANCH    2    1
BRANCH   81   82
ATOM    130  H35 UNL A   1      10.960   4.977  19.081  1.00  0.00    +0.000 H 
ATOM    131  H36 UNL A   1      11.734   7.137  18.308  1.00  0.00    +0.000 H 
ATOM    132  H37 UNL A   1      10.842   9.170  19.284  1.00  0.00    +0.000 H 
ATOM    133  H38 UNL A   1       9.162   9.038  21.028  1.00  0.00    +0.000 H 
ATOM    134  H39 UNL A   1       8.378   6.882  21.798  1.00  0.00    +0.000 H 
ATOM     82  C59 UNL A   1       9.604   5.738  20.512  1.00  0.00    +0.000 C 
ATOM     83  C60 UNL A   1      10.573   5.837  19.501  1.00  0.00    +0.000 C 
ATOM     84  C61 UNL A   1      11.022   7.083  19.052  1.00  0.00    +0.000 C 
ATOM     85  C62 UNL A   1      10.509   8.250  19.612  1.00  0.00    +0.000 C 
ATOM     86  C63 UNL A   1       9.544   8.174  20.613  1.00  0.00    +0.000 C 
ATOM     87  C64 UNL A   1       9.094   6.928  21.058  1.00  0.00    +0.000 C 
ENDBRANCH   81   82
BRANCH   89   90
ATOM    136  H41 UNL A   1       5.254   3.253  22.963  1.00  0.00    +0.000 H 
ATOM    137  H42 UNL A   1       2.923   2.708  22.606  1.00  0.00    +0.000 H 
ATOM    138  H43 UNL A   1       2.238   1.580  20.570  1.00  0.00    +0.000 H 
ATOM    139  H44 UNL A   1       3.898   0.964  18.912  1.00  0.00    +0.000 H 
ATOM    140  H45 UNL A   1       6.237   1.468  19.283  1.00  0.00    +0.000 H 
ATOM     90  C67 UNL A   1       5.948   2.427  21.145  1.00  0.00    +0.000 C 
ATOM     91  C68 UNL A   1       4.972   2.765  22.099  1.00  0.00    +0.000 C 
ATOM     92  C69 UNL A   1       3.626   2.454  21.894  1.00  0.00    +0.000 C 
ATOM     93  C70 UNL A   1       3.234   1.801  20.728  1.00  0.00    +0.000 C 
ATOM     94  C71 UNL A   1       4.187   1.449  19.775  1.00  0.00    +0.000 C 
ATOM     95  C72 UNL A   1       5.536   1.748  19.988  1.00  0.00    +0.000 C 
ENDBRANCH   89   90
ENDBRANCH    4    3
ENDBRANCH    5    4
ENDBRANCH    7    5
ENDBRANCH    8    7
ENDBRANCH    9    8
ENDBRANCH   10    9
ENDBRANCH   11   10
ENDBRANCH   12   11
ENDBRANCH   13   12
ENDBRANCH   14   13
ENDBRANCH   15   14
ENDBRANCH   17   15
ENDBRANCH   21   20
BRANCH   25   26
ATOM     33  C25 UNL A   1       2.979   8.556  24.609  1.00  0.00    +0.000 C 
ATOM     34  F4  UNL A   1       1.859   8.776  25.313  1.00  0.00    +0.000 F 
ATOM     35  C26 UNL A   1       4.064   7.910  25.212  1.00  0.00    +0.000 C 
ATOM     36  F5  UNL A   1       3.858   7.401  26.435  1.00  0.00    +0.000 F 
ATOM     26  C21 UNL A   1       5.303   7.761  24.566  1.00  0.00    +0.000 C 
ATOM     27  C22 UNL A   1       5.303   8.116  23.199  1.00  0.00    +0.000 C 
ATOM     28  F1  UNL A   1       6.369   7.905  22.417  1.00  0.00    +0.000 F 
ATOM     29  C23 UNL A   1       4.203   8.711  22.577  1.00  0.00    +0.000 C 
ATOM     30  F2  UNL A   1       4.272   9.048  21.281  1.00  0.00    +0.000 F 
ATOM     31  C24 UNL A   1       3.055   8.974  23.296  1.00  0.00    +0.000 C 
ATOM     32  F3  UNL A   1       2.022   9.602  22.718  1.00  0.00    +0.000 F 
ENDBRANCH   25   26
BRANCH   42   43
ATOM     43  C32 UNL A   1      10.793  10.588  27.233  1.00  0.00    +0.000 C 
ATOM     44  C33 UNL A   1      11.347  10.757  25.955  1.00  0.00    +0.000 C 
ATOM     45  F6  UNL A   1      11.511   9.715  25.127  1.00  0.00    +0.000 F 
ATOM     46  C34 UNL A   1      11.700  12.017  25.465  1.00  0.00    +0.000 C 
ATOM     47  F7  UNL A   1      12.264  12.124  24.253  1.00  0.00    +0.000 F 
ATOM     48  C35 UNL A   1      11.452  13.156  26.210  1.00  0.00    +0.000 C 
ATOM     49  F8  UNL A   1      11.757  14.365  25.721  1.00  0.00    +0.000 F 
ATOM     50  C36 UNL A   1      10.866  13.036  27.454  1.00  0.00    +0.000 C 
ATOM     51  F9  UNL A   1      10.576  14.133  28.167  1.00  0.00    +0.000 F 
ATOM     52  C37 UNL A   1      10.558  11.776  27.964  1.00  0.00    +0.000 C 
ATOM     53  F10 UNL A   1      10.006  11.744  29.187  1.00  0.00    +0.000 F 
ENDBRANCH   42   43
BRANCH   57   58
ATOM     65  C45 UNL A   1      14.480   2.873  30.537  1.00  0.00    +0.000 C 
ATOM     66  F14 UNL A   1      15.144   2.354  31.579  1.00  0.00    +0.000 F 
ATOM     67  C46 UNL A   1      13.234   3.471  30.739  1.00  0.00    +0.000 C 
ATOM     68  F15 UNL A   1      12.738   3.517  31.984  1.00  0.00    +0.000 F 
ATOM     58  C41 UNL A   1      12.565   4.103  29.686  1.00  0.00    +0.000 C 
ATOM     59  C42 UNL A   1      13.149   4.036  28.408  1.00  0.00    +0.000 C 
ATOM     60  F11 UNL A   1      12.546   4.627  27.363  1.00  0.00    +0.000 F 
ATOM     61  C43 UNL A   1      14.396   3.448  28.211  1.00  0.00    +0.000 C 
ATOM     62  F12 UNL A   1      14.968   3.480  26.999  1.00  0.00    +0.000 F 
ATOM     63  C44 UNL A   1      15.071   2.888  29.282  1.00  0.00    +0.000 C 
ATOM     64  F13 UNL A   1      16.304   2.390  29.114  1.00  0.00    +0.000 F 
ENDBRANCH   57   58
TORSDOF 19
ENDMDL
MODEL 8
REMARK VINA RESULT:     -11.1     37.651     45.154
ROOT
ATOM     21  C17 UNL A   1      11.791  29.694  -5.463  1.00  0.00    +0.000 C 
ATOM     22  C18 UNL A   1      12.787  30.307  -4.561  1.00  0.00    +0.000 C 
ATOM     23  N3  UNL A   1      13.394  29.671  -3.613  1.00  0.00    +0.000 N 
ATOM     24  C19 UNL A   1      14.065  30.600  -2.850  1.00  0.00    +0.000 C 
ATOM     25  C20 UNL A   1      14.526  30.260  -1.611  1.00  0.00    +0.000 C 
ATOM     37  C27 UNL A   1      14.223  28.871  -1.286  1.00  0.00    +0.000 C 
ATOM     38  C28 UNL A   1      13.188  28.296  -0.566  1.00  0.00    +0.000 C 
ATOM     39  C29 UNL A   1      13.174  26.910  -0.844  1.00  0.00    +0.000 C 
ATOM     40  C30 UNL A   1      14.206  26.640  -1.724  1.00  0.00    +0.000 C 
ATOM     41  N4  UNL A   1      14.855  27.836  -1.966  1.00  0.00    +0.000 N 
ATOM     42  C31 UNL A   1      14.645  25.402  -2.344  1.00  0.00    +0.000 C 
ATOM     54  C38 UNL A   1      13.784  24.883  -3.266  1.00  0.00    +0.000 C 
ATOM     55  N5  UNL A   1      12.751  25.620  -3.781  1.00  0.00    +0.000 N 
ATOM     56  C39 UNL A   1      12.136  24.915  -4.688  1.00  0.00    +0.000 C 
ATOM     57  C40 UNL A   1      11.016  25.447  -5.542  1.00  0.00    +0.000 C 
ATOM     69  C47 UNL A   1      10.397  26.550  -5.033  1.00  0.00    +0.000 C 
ATOM     70  C48 UNL A   1      10.436  26.968  -3.642  1.00  0.00    +0.000 C 
ATOM     71  C49 UNL A   1      10.872  28.236  -3.626  1.00  0.00    +0.000 C 
ATOM     72  C50 UNL A   1      10.995  28.701  -5.004  1.00  0.00    +0.000 C 
ATOM     73  N6  UNL A   1      10.269  27.757  -5.781  1.00  0.00    +0.000 N 
ATOM     74  C51 UNL A   1      12.693  23.573  -4.834  1.00  0.00    +0.000 C 
ATOM     75  C52 UNL A   1      13.692  23.600  -3.935  1.00  0.00    +0.000 C 
ATOM     76  C53 UNL A   1      13.956  31.840  -3.588  1.00  0.00    +0.000 C 
ATOM     77  C54 UNL A   1      13.195  31.700  -4.679  1.00  0.00    +0.000 C 
ATOM    117  H22 UNL A   1      12.539  28.793   0.063  1.00  0.00    +0.000 H 
ATOM    118  H23 UNL A   1      12.510  26.222  -0.458  1.00  0.00    +0.000 H 
ATOM    119  H24 UNL A   1      15.650  27.940  -2.536  1.00  0.00    +0.000 H 
ATOM    120  H25 UNL A   1      10.178  26.397  -2.823  1.00  0.00    +0.000 H 
ATOM    121  H26 UNL A   1      11.084  28.791  -2.782  1.00  0.00    +0.000 H 
ATOM    122  H27 UNL A   1       9.794  27.903  -6.630  1.00  0.00    +0.000 H 
ATOM    123  H28 UNL A   1      12.399  22.807  -5.461  1.00  0.00    +0.000 H 
ATOM    124  H29 UNL A   1      14.319  22.803  -3.744  1.00  0.00    +0.000 H 
ATOM    125  H30 UNL A   1      14.410  32.723  -3.308  1.00  0.00    +0.000 H 
ATOM    126  H31 UNL A   1      12.959  32.392  -5.407  1.00  0.00    +0.000 H 
ENDROOT
BRANCH   21   20
ATOM     78  C55 UNL A   1      12.754  30.256  -7.627  1.00  0.00    +0.000 C 
ATOM     79  C56 UNL A   1      12.712  30.956  -8.818  1.00  0.00    +0.000 C 
ATOM     17  C13 UNL A   1      11.558  31.666  -9.145  1.00  0.00    +0.000 C 
ATOM     18  C14 UNL A   1      10.364  31.434  -8.454  1.00  0.00    +0.000 C 
ATOM     19  C15 UNL A   1      10.387  30.663  -7.292  1.00  0.00    +0.000 C 
ATOM    115  H20 UNL A   1       9.475  31.830  -8.799  1.00  0.00    +0.000 H 
ATOM    116  H21 UNL A   1       9.512  30.460  -6.782  1.00  0.00    +0.000 H 
ATOM     20  C16 UNL A   1      11.608  30.167  -6.830  1.00  0.00    +0.000 C 
ATOM    127  H32 UNL A   1      13.629  29.799  -7.326  1.00  0.00    +0.000 H 
ATOM    128  H33 UNL A   1      13.522  30.954  -9.456  1.00  0.00    +0.000 H 
BRANCH   17   15
ATOM     15  C12 UNL A   1      11.600  32.803 -10.095  1.00  0.00    +0.000 C 
ATOM     16  O2  UNL A   1      12.669  33.278 -10.434  1.00  0.00    +0.000 O 
BRANCH   15   14
ATOM    114  H19 UNL A   1      10.031  32.646 -11.349  1.00  0.00    +0.000 H 
ATOM     14  N2  UNL A   1      10.418  33.241 -10.668  1.00  0.00    +0.000 N 
BRANCH   14   13
ATOM    113  H18 UNL A   1       8.638  34.182 -10.321  1.00  0.00    +0.000 H 
ATOM     13  C11 UNL A   1       9.667  34.462 -10.403  1.00  0.00    +0.000 C 
ATOM    112  H17 UNL A   1       9.842  35.147 -11.207  1.00  0.00    +0.000 H 
BRANCH   13   12
ATOM     12  C10 UNL A   1      10.046  35.147  -9.097  1.00  0.00    +0.000 C 
ATOM    110  H15 UNL A   1      11.050  34.870  -8.853  1.00  0.00    +0.000 H 
ATOM    111  H16 UNL A   1       9.931  36.199  -9.259  1.00  0.00    +0.000 H 
BRANCH   12   11
ATOM     11  C9  UNL A   1       9.146  34.785  -7.909  1.00  0.00    +0.000 C 
ATOM    108  H13 UNL A   1       9.388  33.786  -7.612  1.00  0.00    +0.000 H 
ATOM    109  H14 UNL A   1       9.343  35.531  -7.168  1.00  0.00    +0.000 H 
BRANCH   11   10
ATOM     10  C8  UNL A   1       7.628  34.846  -8.153  1.00  0.00    +0.000 C 
ATOM    107  H12 UNL A   1       7.181  34.603  -7.211  1.00  0.00    +0.000 H 
ATOM    106  H11 UNL A   1       7.399  34.163  -8.945  1.00  0.00    +0.000 H 
BRANCH   10    9
ATOM      9  C7  UNL A   1       7.046  36.213  -8.535  1.00  0.00    +0.000 C 
ATOM    105  H10 UNL A   1       7.432  36.440  -9.507  1.00  0.00    +0.000 H 
ATOM    104  H9  UNL A   1       7.338  36.919  -7.785  1.00  0.00    +0.000 H 
BRANCH    9    8
ATOM    102  H7  UNL A   1       5.258  36.073  -9.681  1.00  0.00    +0.000 H 
ATOM    103  H8  UNL A   1       5.123  35.515  -8.006  1.00  0.00    +0.000 H 
ATOM      8  C6  UNL A   1       5.524  36.259  -8.662  1.00  0.00    +0.000 C 
BRANCH    8    7
ATOM    101  H6  UNL A   1       5.006  38.245  -8.946  1.00  0.00    +0.000 H 
ATOM      7  N1  UNL A   1       4.969  37.535  -8.265  1.00  0.00    +0.000 N 
BRANCH    7    5
ATOM      5  C5  UNL A   1       4.403  37.890  -7.073  1.00  0.00    +0.000 C 
ATOM      6  O1  UNL A   1       3.242  38.305  -7.080  1.00  0.00    +0.000 O 
BRANCH    5    4
ATOM    100  H5  UNL A   1       4.654  38.349  -5.039  1.00  0.00    +0.000 H 
ATOM     99  H4  UNL A   1       6.177  38.211  -5.955  1.00  0.00    +0.000 H 
ATOM      4  C4  UNL A   1       5.204  37.803  -5.777  1.00  0.00    +0.000 C 
BRANCH    4    3
ATOM    129  H34 UNL A   1       3.342  35.946  -5.633  1.00  0.00    +0.000 H 
ATOM      2  C2  UNL A   1       6.585  35.885  -4.713  1.00  0.00    +0.000 C 
ATOM      3  C3  UNL A   1       5.369  36.390  -5.242  1.00  0.00    +0.000 C 
ATOM    135  H40 UNL A   1       5.525  32.756  -4.042  1.00  0.00    +0.000 H 
ATOM     80  C57 UNL A   1       4.229  35.560  -5.273  1.00  0.00    +0.000 C 
ATOM     81  C58 UNL A   1       4.261  34.236  -4.832  1.00  0.00    +0.000 C 
ATOM     88  C65 UNL A   1       5.478  33.739  -4.353  1.00  0.00    +0.000 C 
ATOM     89  C66 UNL A   1       6.643  34.532  -4.281  1.00  0.00    +0.000 C 
BRANCH    2    1
ATOM      1  C1  UNL A   1       7.791  36.787  -4.553  1.00  0.00    +0.000 C 
ATOM     98  H3  UNL A   1       8.053  36.850  -3.519  1.00  0.00    +0.000 H 
ATOM     97  H2  UNL A   1       8.613  36.384  -5.107  1.00  0.00    +0.000 H 
ATOM     96  H1  UNL A   1       7.556  37.764  -4.922  1.00  0.00    +0.000 H 
ENDBRANCH    2    1
BRANCH   81   82
ATOM    130  H35 UNL A   1       2.061  34.398  -3.279  1.00  0.00    +0.000 H 
ATOM    131  H36 UNL A   1       0.092  32.989  -3.300  1.00  0.00    +0.000 H 
ATOM    132  H37 UNL A   1      -0.081  31.161  -4.885  1.00  0.00    +0.000 H 
ATOM    133  H38 UNL A   1       1.716  30.756  -6.462  1.00  0.00    +0.000 H 
ATOM    134  H39 UNL A   1       3.683  32.167  -6.452  1.00  0.00    +0.000 H 
ATOM     82  C59 UNL A   1       3.048  33.403  -4.861  1.00  0.00    +0.000 C 
ATOM     83  C60 UNL A   1       1.995  33.624  -3.959  1.00  0.00    +0.000 C 
ATOM     84  C61 UNL A   1       0.857  32.812  -3.969  1.00  0.00    +0.000 C 
ATOM     85  C62 UNL A   1       0.757  31.764  -4.880  1.00  0.00    +0.000 C 
ATOM     86  C63 UNL A   1       1.790  31.531  -5.785  1.00  0.00    +0.000 C 
ATOM     87  C64 UNL A   1       2.925  32.345  -5.777  1.00  0.00    +0.000 C 
ENDBRANCH   81   82
BRANCH   89   90
ATOM    136  H41 UNL A   1       8.473  33.144  -5.670  1.00  0.00    +0.000 H 
ATOM    137  H42 UNL A   1      10.515  32.105  -4.887  1.00  0.00    +0.000 H 
ATOM    138  H43 UNL A   1      11.136  32.259  -2.547  1.00  0.00    +0.000 H 
ATOM    139  H44 UNL A   1       9.689  33.421  -0.986  1.00  0.00    +0.000 H 
ATOM    140  H45 UNL A   1       7.624  34.426  -1.755  1.00  0.00    +0.000 H 
ATOM     90  C67 UNL A   1       7.879  33.894  -3.785  1.00  0.00    +0.000 C 
ATOM     91  C68 UNL A   1       8.726  33.207  -4.672  1.00  0.00    +0.000 C 
ATOM     92  C69 UNL A   1       9.906  32.608  -4.223  1.00  0.00    +0.000 C 
ATOM     93  C70 UNL A   1      10.259  32.692  -2.878  1.00  0.00    +0.000 C 
ATOM     94  C71 UNL A   1       9.428  33.360  -1.982  1.00  0.00    +0.000 C 
ATOM     95  C72 UNL A   1       8.241  33.947  -2.429  1.00  0.00    +0.000 C 
ENDBRANCH   89   90
ENDBRANCH    4    3
ENDBRANCH    5    4
ENDBRANCH    7    5
ENDBRANCH    8    7
ENDBRANCH    9    8
ENDBRANCH   10    9
ENDBRANCH   11   10
ENDBRANCH   12   11
ENDBRANCH   13   12
ENDBRANCH   14   13
ENDBRANCH   15   14
ENDBRANCH   17   15
ENDBRANCH   21   20
BRANCH   25   26
ATOM     33  C25 UNL A   1      14.451  33.020   1.080  1.00  0.00    +0.000 C 
ATOM     34  F4  UNL A   1      13.554  33.859   1.619  1.00  0.00    +0.000 F 
ATOM     35  C26 UNL A   1      14.105  32.263  -0.045  1.00  0.00    +0.000 C 
ATOM     36  F5  UNL A   1      12.928  32.543  -0.622  1.00  0.00    +0.000 F 
ATOM     26  C21 UNL A   1      14.957  31.280  -0.579  1.00  0.00    +0.000 C 
ATOM     27  C22 UNL A   1      16.259  31.265  -0.033  1.00  0.00    +0.000 C 
ATOM     28  F1  UNL A   1      17.221  30.478  -0.529  1.00  0.00    +0.000 F 
ATOM     29  C23 UNL A   1      16.625  32.060   1.057  1.00  0.00    +0.000 C 
ATOM     30  F2  UNL A   1      17.871  31.983   1.548  1.00  0.00    +0.000 F 
ATOM     31  C24 UNL A   1      15.705  32.904   1.643  1.00  0.00    +0.000 C 
ATOM     32  F3  UNL A   1      16.036  33.619   2.728  1.00  0.00    +0.000 F 
ENDBRANCH   25   26
BRANCH   42   43
ATOM     43  C32 UNL A   1      15.913  24.749  -1.873  1.00  0.00    +0.000 C 
ATOM     44  C33 UNL A   1      17.191  25.132  -2.310  1.00  0.00    +0.000 C 
ATOM     45  F6  UNL A   1      17.351  26.115  -3.207  1.00  0.00    +0.000 F 
ATOM     46  C34 UNL A   1      18.352  24.549  -1.794  1.00  0.00    +0.000 C 
ATOM     47  F7  UNL A   1      19.548  24.919  -2.272  1.00  0.00    +0.000 F 
ATOM     48  C35 UNL A   1      18.277  23.612  -0.780  1.00  0.00    +0.000 C 
ATOM     49  F8  UNL A   1      19.394  23.085  -0.262  1.00  0.00    +0.000 F 
ATOM     50  C36 UNL A   1      17.041  23.243  -0.290  1.00  0.00    +0.000 C 
ATOM     51  F9  UNL A   1      16.955  22.372   0.725  1.00  0.00    +0.000 F 
ATOM     52  C37 UNL A   1      15.880  23.787  -0.838  1.00  0.00    +0.000 C 
ATOM     53  F10 UNL A   1      14.718  23.363  -0.317  1.00  0.00    +0.000 F 
ENDBRANCH   42   43
BRANCH   57   58
ATOM     65  C45 UNL A   1      10.388  24.096  -9.010  1.00  0.00    +0.000 C 
ATOM     66  F14 UNL A   1       9.621  23.167  -9.597  1.00  0.00    +0.000 F 
ATOM     67  C46 UNL A   1      10.138  24.467  -7.686  1.00  0.00    +0.000 C 
ATOM     68  F15 UNL A   1       9.132  23.869  -7.032  1.00  0.00    +0.000 F 
ATOM     58  C41 UNL A   1      10.983  25.363  -7.023  1.00  0.00    +0.000 C 
ATOM     59  C42 UNL A   1      12.032  25.940  -7.760  1.00  0.00    +0.000 C 
ATOM     60  F11 UNL A   1      12.870  26.807  -7.170  1.00  0.00    +0.000 F 
ATOM     61  C43 UNL A   1      12.286  25.561  -9.077  1.00  0.00    +0.000 C 
ATOM     62  F12 UNL A   1      13.348  26.060  -9.724  1.00  0.00    +0.000 F 
ATOM     63  C44 UNL A   1      11.477  24.621  -9.692  1.00  0.00    +0.000 C 
ATOM     64  F13 UNL A   1      11.762  24.196 -10.931  1.00  0.00    +0.000 F 
ENDBRANCH   57   58
TORSDOF 19
ENDMDL
MODEL 9
REMARK VINA RESULT:     -10.9     20.582     27.226
ROOT
ATOM     21  C17 UNL A   1      47.894  10.079  50.276  1.00  0.00    +0.000 C 
ATOM     22  C18 UNL A   1      47.501  10.906  49.117  1.00  0.00    +0.000 C 
ATOM     23  N3  UNL A   1      48.102  11.996  48.767  1.00  0.00    +0.000 N 
ATOM     24  C19 UNL A   1      47.335  12.604  47.800  1.00  0.00    +0.000 C 
ATOM     25  C20 UNL A   1      47.555  13.912  47.478  1.00  0.00    +0.000 C 
ATOM     37  C27 UNL A   1      48.651  14.481  48.254  1.00  0.00    +0.000 C 
ATOM     38  C28 UNL A   1      48.664  15.232  49.419  1.00  0.00    +0.000 C 
ATOM     39  C29 UNL A   1      49.981  15.229  49.931  1.00  0.00    +0.000 C 
ATOM     40  C30 UNL A   1      50.771  14.484  49.074  1.00  0.00    +0.000 C 
ATOM     41  N4  UNL A   1      49.957  14.056  48.042  1.00  0.00    +0.000 N 
ATOM     42  C31 UNL A   1      52.183  14.145  49.114  1.00  0.00    +0.000 C 
ATOM     54  C38 UNL A   1      52.542  13.290  50.113  1.00  0.00    +0.000 C 
ATOM     55  N5  UNL A   1      51.610  12.577  50.820  1.00  0.00    +0.000 N 
ATOM     56  C39 UNL A   1      52.222  11.788  51.656  1.00  0.00    +0.000 C 
ATOM     57  C40 UNL A   1      51.515  10.778  52.521  1.00  0.00    +0.000 C 
ATOM     69  C47 UNL A   1      50.185  11.023  52.698  1.00  0.00    +0.000 C 
ATOM     70  C48 UNL A   1      49.534  12.306  52.497  1.00  0.00    +0.000 C 
ATOM     71  C49 UNL A   1      48.526  12.103  51.636  1.00  0.00    +0.000 C 
ATOM     72  C50 UNL A   1      48.426  10.671  51.370  1.00  0.00    +0.000 C 
ATOM     73  N6  UNL A   1      49.190  10.048  52.394  1.00  0.00    +0.000 N 
ATOM     74  C51 UNL A   1      53.673  11.940  51.618  1.00  0.00    +0.000 C 
ATOM     75  C52 UNL A   1      53.817  12.878  50.666  1.00  0.00    +0.000 C 
ATOM     76  C53 UNL A   1      46.314  11.634  47.466  1.00  0.00    +0.000 C 
ATOM     77  C54 UNL A   1      46.396  10.545  48.238  1.00  0.00    +0.000 C 
ATOM    117  H22 UNL A   1      47.854  15.711  49.840  1.00  0.00    +0.000 H 
ATOM    118  H23 UNL A   1      50.298  15.698  50.793  1.00  0.00    +0.000 H 
ATOM    119  H24 UNL A   1      50.259  13.528  47.269  1.00  0.00    +0.000 H 
ATOM    120  H25 UNL A   1      49.798  13.202  52.933  1.00  0.00    +0.000 H 
ATOM    121  H26 UNL A   1      47.922  12.835  51.230  1.00  0.00    +0.000 H 
ATOM    122  H27 UNL A   1      49.063   9.159  52.795  1.00  0.00    +0.000 H 
ATOM    123  H28 UNL A   1      54.397  11.457  52.174  1.00  0.00    +0.000 H 
ATOM    124  H29 UNL A   1      54.728  13.259  50.363  1.00  0.00    +0.000 H 
ATOM    125  H30 UNL A   1      45.610  11.765  46.723  1.00  0.00    +0.000 H 
ATOM    126  H31 UNL A   1      45.829   9.684  48.219  1.00  0.00    +0.000 H 
ENDROOT
BRANCH   21   20
ATOM     78  C55 UNL A   1      46.705   8.135  49.419  1.00  0.00    +0.000 C 
ATOM     79  C56 UNL A   1      46.241   6.843  49.575  1.00  0.00    +0.000 C 
ATOM     17  C13 UNL A   1      46.661   6.102  50.679  1.00  0.00    +0.000 C 
ATOM     18  C14 UNL A   1      47.755   6.525  51.441  1.00  0.00    +0.000 C 
ATOM     19  C15 UNL A   1      48.279   7.800  51.234  1.00  0.00    +0.000 C 
ATOM    115  H20 UNL A   1      48.172   5.900  52.149  1.00  0.00    +0.000 H 
ATOM    116  H21 UNL A   1      49.101   8.121  51.769  1.00  0.00    +0.000 H 
ATOM     20  C16 UNL A   1      47.675   8.637  50.293  1.00  0.00    +0.000 C 
ATOM    127  H32 UNL A   1      46.336   8.729  48.660  1.00  0.00    +0.000 H 
ATOM    128  H33 UNL A   1      45.593   6.432  48.887  1.00  0.00    +0.000 H 
BRANCH   17   15
ATOM     15  C12 UNL A   1      45.864   4.959  51.185  1.00  0.00    +0.000 C 
ATOM     16  O2  UNL A   1      46.314   4.237  52.056  1.00  0.00    +0.000 O 
BRANCH   15   14
ATOM    114  H19 UNL A   1      44.481   4.393  49.834  1.00  0.00    +0.000 H 
ATOM     14  N2  UNL A   1      44.567   4.792  50.729  1.00  0.00    +0.000 N 
BRANCH   14   13
ATOM    113  H18 UNL A   1      43.560   5.462  52.375  1.00  0.00    +0.000 H 
ATOM     13  C11 UNL A   1      43.312   5.125  51.390  1.00  0.00    +0.000 C 
ATOM    112  H17 UNL A   1      42.694   4.251  51.399  1.00  0.00    +0.000 H 
BRANCH   13   12
ATOM     12  C10 UNL A   1      42.541   6.253  50.717  1.00  0.00    +0.000 C 
ATOM    110  H15 UNL A   1      42.740   6.213  49.666  1.00  0.00    +0.000 H 
ATOM    111  H16 UNL A   1      41.508   6.100  50.952  1.00  0.00    +0.000 H 
BRANCH   12   11
ATOM     11  C9  UNL A   1      42.903   7.655  51.221  1.00  0.00    +0.000 C 
ATOM    108  H13 UNL A   1      43.827   7.937  50.760  1.00  0.00    +0.000 H 
ATOM    109  H14 UNL A   1      42.068   8.272  50.963  1.00  0.00    +0.000 H 
BRANCH   11   10
ATOM     10  C8  UNL A   1      43.072   7.816  52.743  1.00  0.00    +0.000 C 
ATOM    107  H12 UNL A   1      43.681   6.990  53.047  1.00  0.00    +0.000 H 
ATOM    106  H11 UNL A   1      42.094   7.834  53.177  1.00  0.00    +0.000 H 
BRANCH   10    9
ATOM      9  C7  UNL A   1      43.818   9.068  53.223  1.00  0.00    +0.000 C 
ATOM    105  H10 UNL A   1      44.353   8.777  54.103  1.00  0.00    +0.000 H 
ATOM    104  H9  UNL A   1      43.095   9.837  53.398  1.00  0.00    +0.000 H 
BRANCH    9    8
ATOM    102  H7  UNL A   1      45.811   9.175  52.486  1.00  0.00    +0.000 H 
ATOM    103  H8  UNL A   1      44.546   9.363  51.261  1.00  0.00    +0.000 H 
ATOM      8  C6  UNL A   1      44.864   9.613  52.252  1.00  0.00    +0.000 C 
BRANCH    8    7
ATOM    101  H6  UNL A   1      45.448  11.403  53.117  1.00  0.00    +0.000 H 
ATOM      7  N1  UNL A   1      44.991  11.053  52.319  1.00  0.00    +0.000 N 
BRANCH    7    5
ATOM      5  C5  UNL A   1      44.561  11.994  51.426  1.00  0.00    +0.000 C 
ATOM      6  O1  UNL A   1      45.369  12.840  51.037  1.00  0.00    +0.000 O 
BRANCH    5    4
ATOM    100  H5  UNL A   1      42.507  12.184  51.819  1.00  0.00    +0.000 H 
ATOM     99  H4  UNL A   1      42.900  11.071  50.483  1.00  0.00    +0.000 H 
ATOM      4  C4  UNL A   1      43.111  12.009  50.952  1.00  0.00    +0.000 C 
BRANCH    4    3
ATOM    129  H34 UNL A   1      43.352  11.904  48.332  1.00  0.00    +0.000 H 
ATOM      2  C2  UNL A   1      42.327  14.404  50.348  1.00  0.00    +0.000 C 
ATOM      3  C3  UNL A   1      42.790  13.119  49.965  1.00  0.00    +0.000 C 
ATOM    135  H40 UNL A   1      41.975  15.701  47.255  1.00  0.00    +0.000 H 
ATOM     80  C57 UNL A   1      42.987  12.832  48.599  1.00  0.00    +0.000 C 
ATOM     81  C58 UNL A   1      42.706  13.761  47.595  1.00  0.00    +0.000 C 
ATOM     88  C65 UNL A   1      42.209  15.009  47.985  1.00  0.00    +0.000 C 
ATOM     89  C66 UNL A   1      42.013  15.356  49.339  1.00  0.00    +0.000 C 
BRANCH    2    1
ATOM      1  C1  UNL A   1      42.223  14.784  51.810  1.00  0.00    +0.000 C 
ATOM     98  H3  UNL A   1      42.622  15.765  51.952  1.00  0.00    +0.000 H 
ATOM     97  H2  UNL A   1      41.196  14.769  52.110  1.00  0.00    +0.000 H 
ATOM     96  H1  UNL A   1      42.778  14.084  52.400  1.00  0.00    +0.000 H 
ENDBRANCH    2    1
BRANCH   81   82
ATOM    130  H35 UNL A   1      41.848  15.064  45.394  1.00  0.00    +0.000 H 
ATOM    131  H36 UNL A   1      42.195  14.488  43.068  1.00  0.00    +0.000 H 
ATOM    132  H37 UNL A   1      43.483  12.519  42.480  1.00  0.00    +0.000 H 
ATOM    133  H38 UNL A   1      44.437  11.133  44.227  1.00  0.00    +0.000 H 
ATOM    134  H39 UNL A   1      44.102  11.709  46.554  1.00  0.00    +0.000 H 
ATOM     82  C59 UNL A   1      42.940  13.435  46.180  1.00  0.00    +0.000 C 
ATOM     83  C60 UNL A   1      42.400  14.226  45.153  1.00  0.00    +0.000 C 
ATOM     84  C61 UNL A   1      42.598  13.896  43.809  1.00  0.00    +0.000 C 
ATOM     85  C62 UNL A   1      43.339  12.766  43.472  1.00  0.00    +0.000 C 
ATOM     86  C63 UNL A   1      43.887  11.970  44.476  1.00  0.00    +0.000 C 
ATOM     87  C64 UNL A   1      43.690  12.303  45.818  1.00  0.00    +0.000 C 
ENDBRANCH   81   82
BRANCH   89   90
ATOM    136  H41 UNL A   1      39.443  16.049  49.682  1.00  0.00    +0.000 H 
ATOM    137  H42 UNL A   1      38.504  18.223  50.182  1.00  0.00    +0.000 H 
ATOM    138  H43 UNL A   1      39.963  20.143  50.449  1.00  0.00    +0.000 H 
ATOM    139  H44 UNL A   1      42.359  19.889  50.175  1.00  0.00    +0.000 H 
ATOM    140  H45 UNL A   1      43.300  17.725  49.632  1.00  0.00    +0.000 H 
ATOM     90  C67 UNL A   1      41.456  16.691  49.633  1.00  0.00    +0.000 C 
ATOM     91  C68 UNL A   1      40.069  16.862  49.785  1.00  0.00    +0.000 C 
ATOM     92  C69 UNL A   1      39.525  18.115  50.076  1.00  0.00    +0.000 C 
ATOM     93  C70 UNL A   1      40.362  19.218  50.223  1.00  0.00    +0.000 C 
ATOM     94  C71 UNL A   1      41.738  19.072  50.067  1.00  0.00    +0.000 C 
ATOM     95  C72 UNL A   1      42.280  17.820  49.762  1.00  0.00    +0.000 C 
ENDBRANCH   89   90
ENDBRANCH    4    3
ENDBRANCH    5    4
ENDBRANCH    7    5
ENDBRANCH    8    7
ENDBRANCH    9    8
ENDBRANCH   10    9
ENDBRANCH   11   10
ENDBRANCH   12   11
ENDBRANCH   13   12
ENDBRANCH   14   13
ENDBRANCH   15   14
ENDBRANCH   17   15
ENDBRANCH   21   20
BRANCH   25   26
ATOM     33  C25 UNL A   1      44.988  16.628  46.527  1.00  0.00    +0.000 C 
ATOM     34  F4  UNL A   1      44.275  17.581  47.144  1.00  0.00    +0.000 F 
ATOM     35  C26 UNL A   1      45.703  15.694  47.286  1.00  0.00    +0.000 C 
ATOM     36  F5  UNL A   1      45.502  15.714  48.612  1.00  0.00    +0.000 F 
ATOM     26  C21 UNL A   1      46.564  14.751  46.699  1.00  0.00    +0.000 C 
ATOM     27  C22 UNL A   1      46.489  14.677  45.291  1.00  0.00    +0.000 C 
ATOM     28  F1  UNL A   1      47.147  13.739  44.599  1.00  0.00    +0.000 F 
ATOM     29  C23 UNL A   1      45.733  15.573  44.531  1.00  0.00    +0.000 C 
ATOM     30  F2  UNL A   1      45.720  15.467  43.194  1.00  0.00    +0.000 F 
ATOM     31  C24 UNL A   1      45.019  16.579  45.149  1.00  0.00    +0.000 C 
ATOM     32  F3  UNL A   1      44.344  17.479  44.419  1.00  0.00    +0.000 F 
ENDBRANCH   25   26
BRANCH   42   43
ATOM     43  C32 UNL A   1      53.131  14.814  48.158  1.00  0.00    +0.000 C 
ATOM     44  C33 UNL A   1      53.310  14.400  46.828  1.00  0.00    +0.000 C 
ATOM     45  F6  UNL A   1      52.641  13.350  46.332  1.00  0.00    +0.000 F 
ATOM     46  C34 UNL A   1      54.147  15.092  45.948  1.00  0.00    +0.000 C 
ATOM     47  F7  UNL A   1      54.318  14.635  44.699  1.00  0.00    +0.000 F 
ATOM     48  C35 UNL A   1      54.780  16.255  46.348  1.00  0.00    +0.000 C 
ATOM     49  F8  UNL A   1      55.551  16.935  45.489  1.00  0.00    +0.000 F 
ATOM     50  C36 UNL A   1      54.593  16.720  47.633  1.00  0.00    +0.000 C 
ATOM     51  F9  UNL A   1      55.161  17.870  48.020  1.00  0.00    +0.000 F 
ATOM     52  C37 UNL A   1      53.798  16.004  48.528  1.00  0.00    +0.000 C 
ATOM     53  F10 UNL A   1      53.679  16.515  49.763  1.00  0.00    +0.000 F 
ENDBRANCH   42   43
BRANCH   57   58
ATOM     65  C45 UNL A   1      51.659   7.098  51.693  1.00  0.00    +0.000 C 
ATOM     66  F14 UNL A   1      51.399   6.297  50.650  1.00  0.00    +0.000 F 
ATOM     67  C46 UNL A   1      51.708   8.482  51.509  1.00  0.00    +0.000 C 
ATOM     68  F15 UNL A   1      51.481   8.975  50.283  1.00  0.00    +0.000 F 
ATOM     58  C41 UNL A   1      51.882   9.342  52.598  1.00  0.00    +0.000 C 
ATOM     59  C42 UNL A   1      52.095   8.762  53.861  1.00  0.00    +0.000 C 
ATOM     60  F11 UNL A   1      52.269   9.545  54.939  1.00  0.00    +0.000 F 
ATOM     61  C43 UNL A   1      52.036   7.382  54.044  1.00  0.00    +0.000 C 
ATOM     62  F12 UNL A   1      52.152   6.864  55.275  1.00  0.00    +0.000 F 
ATOM     63  C44 UNL A   1      51.795   6.553  52.962  1.00  0.00    +0.000 C 
ATOM     64  F13 UNL A   1      51.660   5.232  53.144  1.00  0.00    +0.000 F 
ENDBRANCH   57   58
TORSDOF 19
ENDMDL
MODEL 10
REMARK VINA RESULT:     -10.9     20.339     26.995
ROOT
ATOM     21  C17 UNL A   1      54.154  19.357  10.486  1.00  0.00    +0.000 C 
ATOM     22  C18 UNL A   1      53.159  18.550   9.751  1.00  0.00    +0.000 C 
ATOM     23  N3  UNL A   1      53.270  18.221   8.505  1.00  0.00    +0.000 N 
ATOM     24  C19 UNL A   1      52.071  17.675   8.109  1.00  0.00    +0.000 C 
ATOM     25  C20 UNL A   1      51.793  17.533   6.780  1.00  0.00    +0.000 C 
ATOM     37  C27 UNL A   1      52.893  18.002   5.946  1.00  0.00    +0.000 C 
ATOM     38  C28 UNL A   1      53.119  19.212   5.310  1.00  0.00    +0.000 C 
ATOM     39  C29 UNL A   1      54.478  19.264   4.929  1.00  0.00    +0.000 C 
ATOM     40  C30 UNL A   1      55.078  18.082   5.324  1.00  0.00    +0.000 C 
ATOM     41  N4  UNL A   1      54.098  17.309   5.918  1.00  0.00    +0.000 N 
ATOM     42  C31 UNL A   1      56.444  17.605   5.198  1.00  0.00    +0.000 C 
ATOM     54  C38 UNL A   1      57.359  18.270   5.960  1.00  0.00    +0.000 C 
ATOM     55  N5  UNL A   1      56.978  19.102   6.978  1.00  0.00    +0.000 N 
ATOM     56  C39 UNL A   1      58.042  19.546   7.586  1.00  0.00    +0.000 C 
ATOM     57  C40 UNL A   1      58.000  20.401   8.825  1.00  0.00    +0.000 C 
ATOM     69  C47 UNL A   1      56.811  21.037   9.029  1.00  0.00    +0.000 C 
ATOM     70  C48 UNL A   1      55.806  21.284   8.009  1.00  0.00    +0.000 C 
ATOM     71  C49 UNL A   1      54.653  20.772   8.463  1.00  0.00    +0.000 C 
ATOM     72  C50 UNL A   1      54.860  20.306   9.831  1.00  0.00    +0.000 C 
ATOM     73  N6  UNL A   1      56.082  20.904  10.246  1.00  0.00    +0.000 N 
ATOM     74  C51 UNL A   1      59.280  19.069   6.978  1.00  0.00    +0.000 C 
ATOM     75  C52 UNL A   1      58.808  18.301   5.981  1.00  0.00    +0.000 C 
ATOM     76  C53 UNL A   1      51.307  17.523   9.328  1.00  0.00    +0.000 C 
ATOM     77  C54 UNL A   1      51.957  18.025  10.384  1.00  0.00    +0.000 C 
ATOM    117  H22 UNL A   1      52.416  19.949   5.144  1.00  0.00    +0.000 H 
ATOM    118  H23 UNL A   1      54.943  20.046   4.443  1.00  0.00    +0.000 H 
ATOM    119  H24 UNL A   1      54.233  16.400   6.269  1.00  0.00    +0.000 H 
ATOM    120  H25 UNL A   1      55.953  21.762   7.107  1.00  0.00    +0.000 H 
ATOM    121  H26 UNL A   1      53.768  20.717   7.936  1.00  0.00    +0.000 H 
ATOM    122  H27 UNL A   1      56.357  21.162  11.155  1.00  0.00    +0.000 H 
ATOM    123  H28 UNL A   1      60.258  19.268   7.242  1.00  0.00    +0.000 H 
ATOM    124  H29 UNL A   1      59.406  17.793   5.310  1.00  0.00    +0.000 H 
ATOM    125  H30 UNL A   1      50.375  17.082   9.378  1.00  0.00    +0.000 H 
ATOM    126  H31 UNL A   1      51.680  18.039  11.378  1.00  0.00    +0.000 H 
ENDROOT
BRANCH   21   20
ATOM     78  C55 UNL A   1      53.741  20.121  12.760  1.00  0.00    +0.000 C 
ATOM     79  C56 UNL A   1      54.115  20.205  14.088  1.00  0.00    +0.000 C 
ATOM     17  C13 UNL A   1      55.191  19.442  14.538  1.00  0.00    +0.000 C 
ATOM     18  C14 UNL A   1      55.686  18.389  13.761  1.00  0.00    +0.000 C 
ATOM     19  C15 UNL A   1      55.254  18.252  12.443  1.00  0.00    +0.000 C 
ATOM    115  H20 UNL A   1      56.365  17.721  14.159  1.00  0.00    +0.000 H 
ATOM    116  H21 UNL A   1      55.589  17.468  11.861  1.00  0.00    +0.000 H 
ATOM     20  C16 UNL A   1      54.360  19.190  11.920  1.00  0.00    +0.000 C 
ATOM    127  H32 UNL A   1      53.006  20.744  12.389  1.00  0.00    +0.000 H 
ATOM    128  H33 UNL A   1      53.606  20.824  14.738  1.00  0.00    +0.000 H 
BRANCH   17   15
ATOM     15  C12 UNL A   1      55.953  19.828  15.750  1.00  0.00    +0.000 C 
ATOM     16  O2  UNL A   1      55.626  19.397  16.841  1.00  0.00    +0.000 O 
BRANCH   15   14
ATOM    114  H19 UNL A   1      57.920  20.093  15.405  1.00  0.00    +0.000 H 
ATOM     14  N2  UNL A   1      57.097  20.594  15.606  1.00  0.00    +0.000 N 
BRANCH   14   13
ATOM    113  H18 UNL A   1      58.049  22.216  16.404  1.00  0.00    +0.000 H 
ATOM     13  C11 UNL A   1      57.253  22.039  15.712  1.00  0.00    +0.000 C 
ATOM    112  H17 UNL A   1      56.323  22.455  16.042  1.00  0.00    +0.000 H 
BRANCH   13   12
ATOM     12  C10 UNL A   1      57.643  22.714  14.404  1.00  0.00    +0.000 C 
ATOM    110  H15 UNL A   1      58.061  23.672  14.633  1.00  0.00    +0.000 H 
ATOM    111  H16 UNL A   1      58.339  22.061  13.918  1.00  0.00    +0.000 H 
BRANCH   12   11
ATOM     11  C9  UNL A   1      56.480  22.920  13.427  1.00  0.00    +0.000 C 
ATOM    108  H13 UNL A   1      56.070  21.957  13.202  1.00  0.00    +0.000 H 
ATOM    109  H14 UNL A   1      55.807  23.586  13.926  1.00  0.00    +0.000 H 
BRANCH   11   10
ATOM     10  C8  UNL A   1      56.816  23.608  12.092  1.00  0.00    +0.000 C 
ATOM    107  H12 UNL A   1      56.006  24.284  11.911  1.00  0.00    +0.000 H 
ATOM    106  H11 UNL A   1      56.932  22.842  11.353  1.00  0.00    +0.000 H 
BRANCH   10    9
ATOM      9  C7  UNL A   1      58.081  24.476  12.064  1.00  0.00    +0.000 C 
ATOM    105  H10 UNL A   1      58.785  23.959  11.445  1.00  0.00    +0.000 H 
ATOM    104  H9  UNL A   1      58.416  24.606  13.072  1.00  0.00    +0.000 H 
BRANCH    9    8
ATOM    102  H7  UNL A   1      58.527  26.554  11.967  1.00  0.00    +0.000 H 
ATOM    103  H8  UNL A   1      58.178  25.788  10.409  1.00  0.00    +0.000 H 
ATOM      8  C6  UNL A   1      57.905  25.861  11.441  1.00  0.00    +0.000 C 
BRANCH    8    7
ATOM    101  H6  UNL A   1      55.973  26.088  10.730  1.00  0.00    +0.000 H 
ATOM      7  N1  UNL A   1      56.537  26.328  11.499  1.00  0.00    +0.000 N 
BRANCH    7    5
ATOM      5  C5  UNL A   1      55.922  27.060  12.476  1.00  0.00    +0.000 C 
ATOM      6  O1  UNL A   1      56.623  27.553  13.363  1.00  0.00    +0.000 O 
BRANCH    5    4
ATOM    100  H5  UNL A   1      54.152  27.735  11.571  1.00  0.00    +0.000 H 
ATOM     99  H4  UNL A   1      54.131  27.784  13.352  1.00  0.00    +0.000 H 
ATOM      4  C4  UNL A   1      54.407  27.230  12.480  1.00  0.00    +0.000 C 
BRANCH    4    3
ATOM    129  H34 UNL A   1      54.069  25.606  14.525  1.00  0.00    +0.000 H 
ATOM      2  C2  UNL A   1      52.994  25.380  11.338  1.00  0.00    +0.000 C 
ATOM      3  C3  UNL A   1      53.634  25.921  12.483  1.00  0.00    +0.000 C 
ATOM    135  H40 UNL A   1      51.678  22.642  12.800  1.00  0.00    +0.000 H 
ATOM     80  C57 UNL A   1      53.577  25.219  13.705  1.00  0.00    +0.000 C 
ATOM     81  C58 UNL A   1      52.878  24.017  13.841  1.00  0.00    +0.000 C 
ATOM     88  C65 UNL A   1      52.217  23.518  12.713  1.00  0.00    +0.000 C 
ATOM     89  C66 UNL A   1      52.259  24.170  11.462  1.00  0.00    +0.000 C 
BRANCH    2    1
ATOM      1  C1  UNL A   1      53.140  26.046   9.986  1.00  0.00    +0.000 C 
ATOM     98  H3  UNL A   1      52.264  26.622   9.776  1.00  0.00    +0.000 H 
ATOM     97  H2  UNL A   1      53.996  26.688   9.995  1.00  0.00    +0.000 H 
ATOM     96  H1  UNL A   1      53.264  25.297   9.231  1.00  0.00    +0.000 H 
ENDBRANCH    2    1
BRANCH   81   82
ATOM    130  H35 UNL A   1      54.742  23.981  15.791  1.00  0.00    +0.000 H 
ATOM    131  H36 UNL A   1      54.717  22.756  17.879  1.00  0.00    +0.000 H 
ATOM    132  H37 UNL A   1      52.824  21.350  18.444  1.00  0.00    +0.000 H 
ATOM    133  H38 UNL A   1      50.945  21.184  16.920  1.00  0.00    +0.000 H 
ATOM    134  H39 UNL A   1      50.959  22.414  14.835  1.00  0.00    +0.000 H 
ATOM     82  C59 UNL A   1      52.855  23.301  15.126  1.00  0.00    +0.000 C 
ATOM     83  C60 UNL A   1      53.931  23.387  16.024  1.00  0.00    +0.000 C 
ATOM     84  C61 UNL A   1      53.919  22.681  17.231  1.00  0.00    +0.000 C 
ATOM     85  C62 UNL A   1      52.831  21.875  17.556  1.00  0.00    +0.000 C 
ATOM     86  C63 UNL A   1      51.752  21.780  16.680  1.00  0.00    +0.000 C 
ATOM     87  C64 UNL A   1      51.764  22.488  15.476  1.00  0.00    +0.000 C 
ENDBRANCH   81   82
BRANCH   89   90
ATOM    136  H41 UNL A   1      52.300  21.627  10.603  1.00  0.00    +0.000 H 
ATOM    137  H42 UNL A   1      51.054  20.610   8.794  1.00  0.00    +0.000 H 
ATOM    138  H43 UNL A   1      49.505  21.942   7.486  1.00  0.00    +0.000 H 
ATOM    139  H44 UNL A   1      49.236  24.304   7.968  1.00  0.00    +0.000 H 
ATOM    140  H45 UNL A   1      50.511  25.337   9.748  1.00  0.00    +0.000 H 
ATOM     90  C67 UNL A   1      51.500  23.567  10.348  1.00  0.00    +0.000 C 
ATOM     91  C68 UNL A   1      51.649  22.202  10.045  1.00  0.00    +0.000 C 
ATOM     92  C69 UNL A   1      50.930  21.613   9.004  1.00  0.00    +0.000 C 
ATOM     93  C70 UNL A   1      50.045  22.379   8.249  1.00  0.00    +0.000 C 
ATOM     94  C71 UNL A   1      49.891  23.735   8.527  1.00  0.00    +0.000 C 
ATOM     95  C72 UNL A   1      50.621  24.328   9.561  1.00  0.00    +0.000 C 
ENDBRANCH   89   90
ENDBRANCH    4    3
ENDBRANCH    5    4
ENDBRANCH    7    5
ENDBRANCH    8    7
ENDBRANCH    9    8
ENDBRANCH   10    9
ENDBRANCH   11   10
ENDBRANCH   12   11
ENDBRANCH   13   12
ENDBRANCH   14   13
ENDBRANCH   15   14
ENDBRANCH   17   15
ENDBRANCH   21   20
BRANCH   25   26
ATOM     33  C25 UNL A   1      48.708  15.802   5.244  1.00  0.00    +0.000 C 
ATOM     34  F4  UNL A   1      48.420  14.646   4.628  1.00  0.00    +0.000 F 
ATOM     35  C26 UNL A   1      50.042  16.140   5.500  1.00  0.00    +0.000 C 
ATOM     36  F5  UNL A   1      50.979  15.345   4.964  1.00  0.00    +0.000 F 
ATOM     26  C21 UNL A   1      50.399  17.275   6.249  1.00  0.00    +0.000 C 
ATOM     27  C22 UNL A   1      49.331  18.153   6.536  1.00  0.00    +0.000 C 
ATOM     28  F1  UNL A   1      49.534  19.338   7.125  1.00  0.00    +0.000 F 
ATOM     29  C23 UNL A   1      48.002  17.845   6.234  1.00  0.00    +0.000 C 
ATOM     30  F2  UNL A   1      47.029  18.710   6.553  1.00  0.00    +0.000 F 
ATOM     31  C24 UNL A   1      47.686  16.647   5.629  1.00  0.00    +0.000 C 
ATOM     32  F3  UNL A   1      46.407  16.321   5.396  1.00  0.00    +0.000 F 
ENDBRANCH   25   26
BRANCH   42   43
ATOM     43  C32 UNL A   1      56.761  16.527   4.199  1.00  0.00    +0.000 C 
ATOM     44  C33 UNL A   1      56.701  15.156   4.494  1.00  0.00    +0.000 C 
ATOM     45  F6  UNL A   1      56.365  14.724   5.717  1.00  0.00    +0.000 F 
ATOM     46  C34 UNL A   1      56.933  14.182   3.519  1.00  0.00    +0.000 C 
ATOM     47  F7  UNL A   1      56.905  12.885   3.857  1.00  0.00    +0.000 F 
ATOM     48  C35 UNL A   1      57.169  14.544   2.205  1.00  0.00    +0.000 C 
ATOM     49  F8  UNL A   1      57.352  13.607   1.267  1.00  0.00    +0.000 F 
ATOM     50  C36 UNL A   1      57.190  15.882   1.866  1.00  0.00    +0.000 C 
ATOM     51  F9  UNL A   1      57.369  16.247   0.589  1.00  0.00    +0.000 F 
ATOM     52  C37 UNL A   1      57.008  16.856   2.847  1.00  0.00    +0.000 C 
ATOM     53  F10 UNL A   1      57.059  18.133   2.438  1.00  0.00    +0.000 F 
ENDBRANCH   42   43
BRANCH   57   58
ATOM     65  C45 UNL A   1      58.910  18.828  12.133  1.00  0.00    +0.000 C 
ATOM     66  F14 UNL A   1      58.610  17.724  12.831  1.00  0.00    +0.000 F 
ATOM     67  C46 UNL A   1      58.532  18.925  10.792  1.00  0.00    +0.000 C 
ATOM     68  F15 UNL A   1      57.863  17.902  10.239  1.00  0.00    +0.000 F 
ATOM     58  C41 UNL A   1      58.749  20.103  10.071  1.00  0.00    +0.000 C 
ATOM     59  C42 UNL A   1      59.438  21.146  10.715  1.00  0.00    +0.000 C 
ATOM     60  F11 UNL A   1      59.672  22.298  10.066  1.00  0.00    +0.000 F 
ATOM     61  C43 UNL A   1      59.805  21.051  12.056  1.00  0.00    +0.000 C 
ATOM     62  F12 UNL A   1      60.379  22.097  12.668  1.00  0.00    +0.000 F 
ATOM     63  C44 UNL A   1      59.519  19.900  12.770  1.00  0.00    +0.000 C 
ATOM     64  F13 UNL A   1      59.801  19.834  14.078  1.00  0.00    +0.000 F 
ENDBRANCH   57   58
TORSDOF 19
ENDMDL
