MODEL 1
REMARK VINA RESULT:      -9.0      0.000      0.000
ROOT
ATOM     33  C26 UNL A   1      13.005  49.721   3.287  1.00  0.00    +0.000 C 
ATOM     34  C27 UNL A   1      13.963  49.372   2.183  1.00  0.00    +0.000 C 
ATOM     35  N4  UNL A   1      14.868  50.122   1.604  1.00  0.00    +0.000 N 
ATOM     36  C28 UNL A   1      15.506  49.300   0.686  1.00  0.00    +0.000 C 
ATOM     37  C29 UNL A   1      16.481  49.620  -0.200  1.00  0.00    +0.000 C 
ATOM     49  C36 UNL A   1      17.045  50.936  -0.349  1.00  0.00    +0.000 C 
ATOM     50  C37 UNL A   1      17.990  51.372  -1.261  1.00  0.00    +0.000 C 
ATOM     51  C38 UNL A   1      18.261  52.720  -1.000  1.00  0.00    +0.000 C 
ATOM     52  C39 UNL A   1      17.453  53.134   0.046  1.00  0.00    +0.000 C 
ATOM     53  N5  UNL A   1      16.715  52.029   0.439  1.00  0.00    +0.000 N 
ATOM     54  C40 UNL A   1      17.362  54.440   0.648  1.00  0.00    +0.000 C 
ATOM     66  C47 UNL A   1      16.531  54.769   1.667  1.00  0.00    +0.000 C 
ATOM     67  N6  UNL A   1      15.612  53.972   2.335  1.00  0.00    +0.000 N 
ATOM     68  C48 UNL A   1      15.061  54.739   3.242  1.00  0.00    +0.000 C 
ATOM     69  C49 UNL A   1      13.978  54.412   4.234  1.00  0.00    +0.000 C 
ATOM     81  C56 UNL A   1      13.443  53.176   4.242  1.00  0.00    +0.000 C 
ATOM     82  C57 UNL A   1      12.389  52.717   5.143  1.00  0.00    +0.000 C 
ATOM     83  C58 UNL A   1      12.139  51.420   4.898  1.00  0.00    +0.000 C 
ATOM     84  C59 UNL A   1      12.990  50.968   3.797  1.00  0.00    +0.000 C 
ATOM     85  N7  UNL A   1      13.726  52.078   3.467  1.00  0.00    +0.000 N 
ATOM     86  C60 UNL A   1      15.593  56.110   3.272  1.00  0.00    +0.000 C 
ATOM     87  C61 UNL A   1      16.457  56.085   2.267  1.00  0.00    +0.000 C 
ATOM     88  C62 UNL A   1      14.919  47.984   0.815  1.00  0.00    +0.000 C 
ATOM     89  C63 UNL A   1      13.916  47.991   1.682  1.00  0.00    +0.000 C 
ATOM    118  H27 UNL A   1      18.420  50.803  -2.006  1.00  0.00    +0.000 H 
ATOM    119  H28 UNL A   1      18.946  53.306  -1.502  1.00  0.00    +0.000 H 
ATOM    120  H29 UNL A   1      16.054  52.020   1.168  1.00  0.00    +0.000 H 
ATOM    121  H30 UNL A   1      11.914  53.295   5.853  1.00  0.00    +0.000 H 
ATOM    122  H31 UNL A   1      11.454  50.837   5.404  1.00  0.00    +0.000 H 
ATOM    123  H32 UNL A   1      14.392  52.088   2.743  1.00  0.00    +0.000 H 
ATOM    124  H33 UNL A   1      15.356  56.887   3.908  1.00  0.00    +0.000 H 
ATOM    125  H34 UNL A   1      17.007  56.900   1.953  1.00  0.00    +0.000 H 
ATOM    126  H35 UNL A   1      15.238  47.149   0.299  1.00  0.00    +0.000 H 
ATOM    127  H36 UNL A   1      13.272  47.227   1.938  1.00  0.00    +0.000 H 
ENDROOT
BRANCH   33   32
ATOM    129  H38 UNL A   1      12.230  46.081   5.999  1.00  0.00    +0.000 H 
ATOM    128  H37 UNL A   1      13.638  47.822   5.067  1.00  0.00    +0.000 H 
ATOM    116  H25 UNL A   1       8.932  47.608   3.878  1.00  0.00    +0.000 H 
ATOM    117  H26 UNL A   1      10.383  49.222   2.790  1.00  0.00    +0.000 H 
ATOM     90  C64 UNL A   1      12.643  47.768   4.801  1.00  0.00    +0.000 C 
ATOM     91  C65 UNL A   1      11.825  46.791   5.368  1.00  0.00    +0.000 C 
ATOM     29  C22 UNL A   1      10.457  46.775   5.080  1.00  0.00    +0.000 C 
ATOM     30  C23 UNL A   1       9.933  47.653   4.126  1.00  0.00    +0.000 C 
ATOM     31  C24 UNL A   1      10.766  48.591   3.512  1.00  0.00    +0.000 C 
ATOM     32  C25 UNL A   1      12.120  48.679   3.869  1.00  0.00    +0.000 C 
BRANCH   29   27
ATOM     27  C21 UNL A   1       9.540  45.832   5.760  1.00  0.00    +0.000 C 
ATOM     28  O2  UNL A   1       8.479  45.526   5.223  1.00  0.00    +0.000 O 
BRANCH   27   26
ATOM     26  N3  UNL A   1       9.860  45.325   6.995  1.00  0.00    +0.000 N 
ATOM    115  H24 UNL A   1      10.247  44.420   6.989  1.00  0.00    +0.000 H 
BRANCH   26   25
ATOM     25  C20 UNL A   1       9.710  45.927   8.310  1.00  0.00    +0.000 C 
ATOM    114  H23 UNL A   1       9.227  45.209   8.940  1.00  0.00    +0.000 H 
ATOM    113  H22 UNL A   1       9.130  46.822   8.213  1.00  0.00    +0.000 H 
BRANCH   25   24
ATOM    112  H21 UNL A   1      11.791  45.737   8.411  1.00  0.00    +0.000 H 
ATOM    111  H20 UNL A   1      10.993  46.012   9.992  1.00  0.00    +0.000 H 
ATOM     24  C19 UNL A   1      11.046  46.280   8.956  1.00  0.00    +0.000 C 
BRANCH   24   23
ATOM    109  H18 UNL A   1      11.658  48.098   9.860  1.00  0.00    +0.000 H 
ATOM    110  H19 UNL A   1      12.294  47.789   8.213  1.00  0.00    +0.000 H 
ATOM     23  C18 UNL A   1      11.449  47.753   8.869  1.00  0.00    +0.000 C 
BRANCH   23   22
ATOM    107  H16 UNL A   1      10.291  48.428   7.225  1.00  0.00    +0.000 H 
ATOM    108  H17 UNL A   1       9.510  48.546   8.834  1.00  0.00    +0.000 H 
ATOM     22  C17 UNL A   1      10.400  48.687   8.257  1.00  0.00    +0.000 C 
BRANCH   22   21
ATOM    105  H14 UNL A   1      10.560  50.612   7.370  1.00  0.00    +0.000 H 
ATOM    106  H15 UNL A   1      10.078  50.590   9.091  1.00  0.00    +0.000 H 
ATOM     21  C16 UNL A   1      10.721  50.185   8.338  1.00  0.00    +0.000 C 
BRANCH   21   20
ATOM     20  C15 UNL A   1      12.149  50.514   8.770  1.00  0.00    +0.000 C 
ATOM    103  H12 UNL A   1      12.713  49.608   8.831  1.00  0.00    +0.000 H 
ATOM    104  H13 UNL A   1      12.576  51.177   8.045  1.00  0.00    +0.000 H 
BRANCH   20   19
ATOM     19  N2  UNL A   1      12.170  51.173  10.059  1.00  0.00    +0.000 N 
ATOM    102  H11 UNL A   1      11.425  51.010  10.681  1.00  0.00    +0.000 H 
BRANCH   19    2
ATOM      1  O1  UNL A   1      13.199  52.600  11.536  1.00  0.00    +0.000 O 
ATOM      2  C1  UNL A   1      13.185  52.014  10.457  1.00  0.00    +0.000 C 
BRANCH    2    3
ATOM      3  C2  UNL A   1      14.301  52.184   9.439  1.00  0.00    +0.000 C 
ATOM     92  H1  UNL A   1      14.603  53.211   9.430  1.00  0.00    +0.000 H 
ATOM     93  H2  UNL A   1      13.922  51.874   8.488  1.00  0.00    +0.000 H 
BRANCH    3    4
ATOM     97  H6  UNL A   1      17.528  48.954   8.512  1.00  0.00    +0.000 H 
ATOM      4  C3  UNL A   1      15.510  51.326   9.751  1.00  0.00    +0.000 C 
ATOM      5  C4  UNL A   1      16.167  51.515  10.982  1.00  0.00    +0.000 C 
ATOM      6  C5  UNL A   1      17.307  50.782  11.300  1.00  0.00    +0.000 C 
ATOM      7  C6  UNL A   1      17.803  49.855  10.394  1.00  0.00    +0.000 C 
ATOM      8  C7  UNL A   1      17.154  49.653   9.173  1.00  0.00    +0.000 C 
ATOM      9  C8  UNL A   1      16.003  50.377   8.826  1.00  0.00    +0.000 C 
ATOM     94  H3  UNL A   1      15.798  52.203  11.657  1.00  0.00    +0.000 H 
ATOM     95  H4  UNL A   1      17.780  50.927  12.205  1.00  0.00    +0.000 H 
ATOM     96  H5  UNL A   1      18.652  49.315  10.621  1.00  0.00    +0.000 H 
BRANCH    9   10
ATOM     10  N1  UNL A   1      15.295  50.133   7.620  1.00  0.00    +0.000 N 
ATOM     98  H7  UNL A   1      14.375  50.483   7.584  1.00  0.00    +0.000 H 
BRANCH   10   11
ATOM     99  H8  UNL A   1      17.261  50.096   3.508  1.00  0.00    +0.000 H 
ATOM    100  H9  UNL A   1      17.175  47.677   3.335  1.00  0.00    +0.000 H 
ATOM    101  H10 UNL A   1      16.161  46.379   5.114  1.00  0.00    +0.000 H 
ATOM     11  C9  UNL A   1      15.745  49.446   6.459  1.00  0.00    +0.000 C 
ATOM     12  C10 UNL A   1      16.332  50.176   5.404  1.00  0.00    +0.000 C 
ATOM     13 Cl1  UNL A   1      16.448  51.903   5.480  1.00  0.00    +0.000 Cl
ATOM     14  C11 UNL A   1      16.843  49.539   4.268  1.00  0.00    +0.000 C 
ATOM     15  C12 UNL A   1      16.788  48.153   4.165  1.00  0.00    +0.000 C 
ATOM     16  C13 UNL A   1      16.207  47.407   5.191  1.00  0.00    +0.000 C 
ATOM     17  C14 UNL A   1      15.686  48.044   6.324  1.00  0.00    +0.000 C 
ATOM     18 Cl2  UNL A   1      14.901  47.036   7.495  1.00  0.00    +0.000 Cl
ENDBRANCH   10   11
ENDBRANCH    9   10
ENDBRANCH    3    4
ENDBRANCH    2    3
ENDBRANCH   19    2
ENDBRANCH   20   19
ENDBRANCH   21   20
ENDBRANCH   22   21
ENDBRANCH   23   22
ENDBRANCH   24   23
ENDBRANCH   25   24
ENDBRANCH   26   25
ENDBRANCH   27   26
ENDBRANCH   29   27
ENDBRANCH   33   32
BRANCH   37   38
ATOM     38  C30 UNL A   1      16.999  48.523  -1.084  1.00  0.00    +0.000 C 
ATOM     39  C31 UNL A   1      18.131  47.771  -0.736  1.00  0.00    +0.000 C 
ATOM     40  F1  UNL A   1      18.806  48.050   0.390  1.00  0.00    +0.000 F 
ATOM     41  C32 UNL A   1      18.598  46.754  -1.563  1.00  0.00    +0.000 C 
ATOM     42  F2  UNL A   1      19.710  46.082  -1.234  1.00  0.00    +0.000 F 
ATOM     43  C33 UNL A   1      17.925  46.444  -2.735  1.00  0.00    +0.000 C 
ATOM     44  F3  UNL A   1      18.374  45.462  -3.528  1.00  0.00    +0.000 F 
ATOM     45  C34 UNL A   1      16.790  47.159  -3.088  1.00  0.00    +0.000 C 
ATOM     46  F4  UNL A   1      16.131  46.853  -4.214  1.00  0.00    +0.000 F 
ATOM     47  C35 UNL A   1      16.336  48.196  -2.277  1.00  0.00    +0.000 C 
ATOM     48  F5  UNL A   1      15.244  48.879  -2.654  1.00  0.00    +0.000 F 
ENDBRANCH   37   38
BRANCH   54   55
ATOM     65  F10 UNL A   1      16.718  55.893  -1.707  1.00  0.00    +0.000 F 
ATOM     55  C41 UNL A   1      18.233  55.528   0.092  1.00  0.00    +0.000 C 
ATOM     56  C42 UNL A   1      19.445  55.883   0.701  1.00  0.00    +0.000 C 
ATOM     57  F6  UNL A   1      19.830  55.282   1.837  1.00  0.00    +0.000 F 
ATOM     58  C43 UNL A   1      20.248  56.885   0.164  1.00  0.00    +0.000 C 
ATOM     59  F7  UNL A   1      21.382  57.237   0.786  1.00  0.00    +0.000 F 
ATOM     60  C44 UNL A   1      19.872  57.528  -1.006  1.00  0.00    +0.000 C 
ATOM     61  F8  UNL A   1      20.650  58.488  -1.524  1.00  0.00    +0.000 F 
ATOM     62  C45 UNL A   1      18.684  57.182  -1.633  1.00  0.00    +0.000 C 
ATOM     63  F9  UNL A   1      18.324  57.795  -2.769  1.00  0.00    +0.000 F 
ATOM     64  C46 UNL A   1      17.866  56.199  -1.084  1.00  0.00    +0.000 C 
ENDBRANCH   54   55
BRANCH   69   70
ATOM     70  C50 UNL A   1      13.476  55.444   5.178  1.00  0.00    +0.000 C 
ATOM     71  C51 UNL A   1      13.947  55.497   6.496  1.00  0.00    +0.000 C 
ATOM     72  F11 UNL A   1      14.846  54.597   6.923  1.00  0.00    +0.000 F 
ATOM     73  C52 UNL A   1      13.467  56.448   7.394  1.00  0.00    +0.000 C 
ATOM     74  F12 UNL A   1      13.904  56.450   8.661  1.00  0.00    +0.000 F 
ATOM     75  C53 UNL A   1      12.529  57.381   6.982  1.00  0.00    +0.000 C 
ATOM     76  F13 UNL A   1      12.070  58.299   7.844  1.00  0.00    +0.000 F 
ATOM     77  C54 UNL A   1      12.061  57.358   5.677  1.00  0.00    +0.000 C 
ATOM     78  F14 UNL A   1      11.162  58.266   5.272  1.00  0.00    +0.000 F 
ATOM     79  C55 UNL A   1      12.520  56.391   4.786  1.00  0.00    +0.000 C 
ATOM     80  F15 UNL A   1      12.041  56.384   3.533  1.00  0.00    +0.000 F 
ENDBRANCH   69   70
TORSDOF 18
ENDMDL
MODEL 2
REMARK VINA RESULT:      -8.9     37.517     42.469
ROOT
ATOM     33  C26 UNL A   1      41.482  26.340  27.627  1.00  0.00    +0.000 C 
ATOM     34  C27 UNL A   1      42.887  26.644  27.190  1.00  0.00    +0.000 C 
ATOM     35  N4  UNL A   1      43.617  27.706  27.427  1.00  0.00    +0.000 N 
ATOM     36  C28 UNL A   1      44.848  27.456  26.836  1.00  0.00    +0.000 C 
ATOM     37  C29 UNL A   1      45.927  28.271  26.756  1.00  0.00    +0.000 C 
ATOM     49  C36 UNL A   1      45.981  29.605  27.295  1.00  0.00    +0.000 C 
ATOM     50  C37 UNL A   1      47.007  30.531  27.208  1.00  0.00    +0.000 C 
ATOM     51  C38 UNL A   1      46.624  31.675  27.918  1.00  0.00    +0.000 C 
ATOM     52  C39 UNL A   1      45.345  31.478  28.410  1.00  0.00    +0.000 C 
ATOM     53  N5  UNL A   1      44.963  30.203  28.024  1.00  0.00    +0.000 N 
ATOM     54  C40 UNL A   1      44.530  32.383  29.179  1.00  0.00    +0.000 C 
ATOM     66  C47 UNL A   1      43.273  32.118  29.614  1.00  0.00    +0.000 C 
ATOM     67  N6  UNL A   1      42.509  30.975  29.427  1.00  0.00    +0.000 N 
ATOM     68  C48 UNL A   1      41.374  31.194  30.042  1.00  0.00    +0.000 C 
ATOM     69  C49 UNL A   1      40.161  30.310  30.145  1.00  0.00    +0.000 C 
ATOM     81  C56 UNL A   1      40.166  29.111  29.532  1.00  0.00    +0.000 C 
ATOM     82  C57 UNL A   1      39.065  28.152  29.544  1.00  0.00    +0.000 C 
ATOM     83  C58 UNL A   1      39.437  27.050  28.871  1.00  0.00    +0.000 C 
ATOM     84  C59 UNL A   1      40.791  27.242  28.350  1.00  0.00    +0.000 C 
ATOM     85  N7  UNL A   1      41.141  28.496  28.786  1.00  0.00    +0.000 N 
ATOM     86  C60 UNL A   1      41.302  32.498  30.719  1.00  0.00    +0.000 C 
ATOM     87  C61 UNL A   1      42.469  33.036  30.394  1.00  0.00    +0.000 C 
ATOM     88  C62 UNL A   1      44.784  26.127  26.270  1.00  0.00    +0.000 C 
ATOM     89  C63 UNL A   1      43.572  25.607  26.405  1.00  0.00    +0.000 C 
ATOM    118  H27 UNL A   1      47.898  30.401  26.706  1.00  0.00    +0.000 H 
ATOM    119  H28 UNL A   1      47.199  32.521  28.052  1.00  0.00    +0.000 H 
ATOM    120  H29 UNL A   1      44.098  29.784  28.234  1.00  0.00    +0.000 H 
ATOM    121  H30 UNL A   1      38.148  28.296  29.996  1.00  0.00    +0.000 H 
ATOM    122  H31 UNL A   1      38.860  26.205  28.741  1.00  0.00    +0.000 H 
ATOM    123  H32 UNL A   1      42.008  28.915  28.583  1.00  0.00    +0.000 H 
ATOM    124  H33 UNL A   1      40.542  32.891  31.297  1.00  0.00    +0.000 H 
ATOM    125  H34 UNL A   1      42.767  33.986  30.662  1.00  0.00    +0.000 H 
ATOM    126  H35 UNL A   1      45.578  25.646  25.818  1.00  0.00    +0.000 H 
ATOM    127  H36 UNL A   1      43.206  24.709  26.052  1.00  0.00    +0.000 H 
ENDROOT
BRANCH   33   32
ATOM    129  H38 UNL A   1      38.375  23.664  25.532  1.00  0.00    +0.000 H 
ATOM    128  H37 UNL A   1      39.418  25.800  26.005  1.00  0.00    +0.000 H 
ATOM    116  H25 UNL A   1      41.210  21.734  27.970  1.00  0.00    +0.000 H 
ATOM    117  H26 UNL A   1      42.127  23.892  28.604  1.00  0.00    +0.000 H 
ATOM     90  C64 UNL A   1      39.790  24.940  26.436  1.00  0.00    +0.000 C 
ATOM     91  C65 UNL A   1      39.214  23.707  26.132  1.00  0.00    +0.000 C 
ATOM     29  C22 UNL A   1      39.775  22.532  26.641  1.00  0.00    +0.000 C 
ATOM     30  C23 UNL A   1      40.829  22.600  27.557  1.00  0.00    +0.000 C 
ATOM     31  C24 UNL A   1      41.365  23.840  27.910  1.00  0.00    +0.000 C 
ATOM     32  C25 UNL A   1      40.873  25.019  27.327  1.00  0.00    +0.000 C 
BRANCH   29   27
ATOM     27  C21 UNL A   1      39.265  21.202  26.238  1.00  0.00    +0.000 C 
ATOM     28  O2  UNL A   1      40.034  20.244  26.205  1.00  0.00    +0.000 O 
BRANCH   27   26
ATOM     26  N3  UNL A   1      37.951  21.044  25.877  1.00  0.00    +0.000 N 
ATOM    115  H24 UNL A   1      37.305  21.068  26.620  1.00  0.00    +0.000 H 
BRANCH   26   25
ATOM     25  C20 UNL A   1      37.370  20.847  24.558  1.00  0.00    +0.000 C 
ATOM    114  H23 UNL A   1      37.122  19.810  24.468  1.00  0.00    +0.000 H 
ATOM    113  H22 UNL A   1      38.086  21.149  23.821  1.00  0.00    +0.000 H 
BRANCH   25   24
ATOM    112  H21 UNL A   1      35.705  21.851  25.327  1.00  0.00    +0.000 H 
ATOM    111  H20 UNL A   1      35.428  21.060  23.744  1.00  0.00    +0.000 H 
ATOM     24  C19 UNL A   1      36.088  21.646  24.349  1.00  0.00    +0.000 C 
BRANCH   24   23
ATOM    109  H18 UNL A   1      36.362  23.747  24.437  1.00  0.00    +0.000 H 
ATOM    110  H19 UNL A   1      37.132  22.914  23.049  1.00  0.00    +0.000 H 
ATOM     23  C18 UNL A   1      36.265  23.006  23.672  1.00  0.00    +0.000 C 
BRANCH   23   22
ATOM    107  H16 UNL A   1      35.019  24.496  22.818  1.00  0.00    +0.000 H 
ATOM    108  H17 UNL A   1      35.400  23.094  21.766  1.00  0.00    +0.000 H 
ATOM     22  C17 UNL A   1      35.124  23.434  22.743  1.00  0.00    +0.000 C 
BRANCH   22   21
ATOM    105  H14 UNL A   1      33.696  21.878  22.501  1.00  0.00    +0.000 H 
ATOM    106  H15 UNL A   1      33.708  22.676  24.100  1.00  0.00    +0.000 H 
ATOM     21  C16 UNL A   1      33.758  22.801  23.038  1.00  0.00    +0.000 C 
BRANCH   21   20
ATOM     20  C15 UNL A   1      32.555  23.658  22.649  1.00  0.00    +0.000 C 
ATOM    103  H12 UNL A   1      31.884  23.072  22.057  1.00  0.00    +0.000 H 
ATOM    104  H13 UNL A   1      32.075  23.993  23.545  1.00  0.00    +0.000 H 
BRANCH   20   19
ATOM     19  N2  UNL A   1      32.962  24.821  21.888  1.00  0.00    +0.000 N 
ATOM    102  H11 UNL A   1      33.416  24.682  21.026  1.00  0.00    +0.000 H 
BRANCH   19    2
ATOM      1  O1  UNL A   1      33.585  27.003  22.245  1.00  0.00    +0.000 O 
ATOM      2  C1  UNL A   1      32.743  26.112  22.313  1.00  0.00    +0.000 C 
BRANCH    2    3
ATOM      3  C2  UNL A   1      31.362  26.358  22.900  1.00  0.00    +0.000 C 
ATOM     92  H1  UNL A   1      30.906  25.413  23.110  1.00  0.00    +0.000 H 
ATOM     93  H2  UNL A   1      30.801  26.918  22.182  1.00  0.00    +0.000 H 
BRANCH    3    4
ATOM     97  H6  UNL A   1      31.625  26.938  27.515  1.00  0.00    +0.000 H 
ATOM      4  C3  UNL A   1      31.407  27.170  24.178  1.00  0.00    +0.000 C 
ATOM      5  C4  UNL A   1      31.403  28.574  24.082  1.00  0.00    +0.000 C 
ATOM      6  C5  UNL A   1      31.484  29.366  25.223  1.00  0.00    +0.000 C 
ATOM      7  C6  UNL A   1      31.572  28.765  26.472  1.00  0.00    +0.000 C 
ATOM      8  C7  UNL A   1      31.568  27.372  26.581  1.00  0.00    +0.000 C 
ATOM      9  C8  UNL A   1      31.486  26.548  25.446  1.00  0.00    +0.000 C 
ATOM     94  H3  UNL A   1      31.336  29.022  23.154  1.00  0.00    +0.000 H 
ATOM     95  H4  UNL A   1      31.479  30.395  25.143  1.00  0.00    +0.000 H 
ATOM     96  H5  UNL A   1      31.641  29.347  27.321  1.00  0.00    +0.000 H 
BRANCH    9   10
ATOM     10  N1  UNL A   1      31.412  25.135  25.546  1.00  0.00    +0.000 N 
ATOM     98  H7  UNL A   1      30.668  24.708  25.062  1.00  0.00    +0.000 H 
BRANCH   10   11
ATOM     99  H8  UNL A   1      32.101  21.505  28.217  1.00  0.00    +0.000 H 
ATOM    100  H9  UNL A   1      34.516  21.692  28.083  1.00  0.00    +0.000 H 
ATOM    101  H10 UNL A   1      35.516  23.509  26.827  1.00  0.00    +0.000 H 
ATOM     11  C9  UNL A   1      32.275  24.256  26.258  1.00  0.00    +0.000 C 
ATOM     12  C10 UNL A   1      31.721  23.194  27.004  1.00  0.00    +0.000 C 
ATOM     13 Cl1  UNL A   1      30.004  22.991  27.115  1.00  0.00    +0.000 Cl
ATOM     14  C11 UNL A   1      32.530  22.268  27.672  1.00  0.00    +0.000 C 
ATOM     15  C12 UNL A   1      33.915  22.379  27.602  1.00  0.00    +0.000 C 
ATOM     16  C13 UNL A   1      34.489  23.423  26.877  1.00  0.00    +0.000 C 
ATOM     17  C14 UNL A   1      33.680  24.356  26.215  1.00  0.00    +0.000 C 
ATOM     18 Cl2  UNL A   1      34.488  25.668  25.423  1.00  0.00    +0.000 Cl
ENDBRANCH   10   11
ENDBRANCH    9   10
ENDBRANCH    3    4
ENDBRANCH    2    3
ENDBRANCH   19    2
ENDBRANCH   20   19
ENDBRANCH   21   20
ENDBRANCH   22   21
ENDBRANCH   23   22
ENDBRANCH   24   23
ENDBRANCH   25   24
ENDBRANCH   26   25
ENDBRANCH   27   26
ENDBRANCH   29   27
ENDBRANCH   33   32
BRANCH   37   38
ATOM     38  C30 UNL A   1      47.143  27.741  26.054  1.00  0.00    +0.000 C 
ATOM     39  C31 UNL A   1      48.218  27.185  26.764  1.00  0.00    +0.000 C 
ATOM     40  F1  UNL A   1      48.196  27.153  28.105  1.00  0.00    +0.000 F 
ATOM     41  C32 UNL A   1      49.338  26.693  26.099  1.00  0.00    +0.000 C 
ATOM     42  F2  UNL A   1      50.373  26.211  26.801  1.00  0.00    +0.000 F 
ATOM     43  C33 UNL A   1      49.392  26.716  24.714  1.00  0.00    +0.000 C 
ATOM     44  F3  UNL A   1      50.469  26.239  24.076  1.00  0.00    +0.000 F 
ATOM     45  C34 UNL A   1      48.331  27.240  23.990  1.00  0.00    +0.000 C 
ATOM     46  F4  UNL A   1      48.377  27.252  22.651  1.00  0.00    +0.000 F 
ATOM     47  C35 UNL A   1      47.222  27.759  24.653  1.00  0.00    +0.000 C 
ATOM     48  F5  UNL A   1      46.219  28.273  23.925  1.00  0.00    +0.000 F 
ENDBRANCH   37   38
BRANCH   54   55
ATOM     65  F10 UNL A   1      44.252  34.638  27.473  1.00  0.00    +0.000 F 
ATOM     55  C41 UNL A   1      45.099  33.732  29.504  1.00  0.00    +0.000 C 
ATOM     56  C42 UNL A   1      45.831  33.958  30.679  1.00  0.00    +0.000 C 
ATOM     57  F6  UNL A   1      45.995  32.969  31.571  1.00  0.00    +0.000 F 
ATOM     58  C43 UNL A   1      46.365  35.212  30.959  1.00  0.00    +0.000 C 
ATOM     59  F7  UNL A   1      47.025  35.416  32.107  1.00  0.00    +0.000 F 
ATOM     60  C44 UNL A   1      46.205  36.254  30.058  1.00  0.00    +0.000 C 
ATOM     61  F8  UNL A   1      46.726  37.460  30.327  1.00  0.00    +0.000 F 
ATOM     62  C45 UNL A   1      45.498  36.050  28.883  1.00  0.00    +0.000 C 
ATOM     63  F9  UNL A   1      45.352  37.053  28.006  1.00  0.00    +0.000 F 
ATOM     64  C46 UNL A   1      44.940  34.804  28.612  1.00  0.00    +0.000 C 
ENDBRANCH   54   55
BRANCH   69   70
ATOM     70  C50 UNL A   1      38.955  30.760  30.886  1.00  0.00    +0.000 C 
ATOM     71  C51 UNL A   1      37.901  31.397  30.217  1.00  0.00    +0.000 C 
ATOM     72  F11 UNL A   1      37.985  31.625  28.898  1.00  0.00    +0.000 F 
ATOM     73  C52 UNL A   1      36.775  31.841  30.908  1.00  0.00    +0.000 C 
ATOM     74  F12 UNL A   1      35.800  32.485  30.251  1.00  0.00    +0.000 F 
ATOM     75  C53 UNL A   1      36.669  31.630  32.274  1.00  0.00    +0.000 C 
ATOM     76  F13 UNL A   1      35.584  32.053  32.937  1.00  0.00    +0.000 F 
ATOM     77  C54 UNL A   1      37.692  30.987  32.953  1.00  0.00    +0.000 C 
ATOM     78  F14 UNL A   1      37.588  30.771  34.272  1.00  0.00    +0.000 F 
ATOM     79  C55 UNL A   1      38.830  30.566  32.269  1.00  0.00    +0.000 C 
ATOM     80  F15 UNL A   1      39.810  29.958  32.953  1.00  0.00    +0.000 F 
ENDBRANCH   69   70
TORSDOF 18
ENDMDL
MODEL 3
REMARK VINA RESULT:      -8.8     45.467     50.751
ROOT
ATOM     33  C26 UNL A   1      53.319  19.777  11.688  1.00  0.00    +0.000 C 
ATOM     34  C27 UNL A   1      53.079  20.443  13.014  1.00  0.00    +0.000 C 
ATOM     35  N4  UNL A   1      53.908  20.625  14.012  1.00  0.00    +0.000 N 
ATOM     36  C28 UNL A   1      53.195  21.330  14.971  1.00  0.00    +0.000 C 
ATOM     37  C29 UNL A   1      53.593  21.714  16.208  1.00  0.00    +0.000 C 
ATOM     49  C36 UNL A   1      54.891  21.436  16.767  1.00  0.00    +0.000 C 
ATOM     50  C37 UNL A   1      55.365  21.727  18.034  1.00  0.00    +0.000 C 
ATOM     51  C38 UNL A   1      56.696  21.304  18.111  1.00  0.00    +0.000 C 
ATOM     52  C39 UNL A   1      57.037  20.711  16.907  1.00  0.00    +0.000 C 
ATOM     53  N5  UNL A   1      55.922  20.801  16.090  1.00  0.00    +0.000 N 
ATOM     54  C40 UNL A   1      58.289  20.108  16.526  1.00  0.00    +0.000 C 
ATOM     66  C47 UNL A   1      58.540  19.533  15.324  1.00  0.00    +0.000 C 
ATOM     67  N6  UNL A   1      57.694  19.388  14.233  1.00  0.00    +0.000 N 
ATOM     68  C48 UNL A   1      58.396  18.778  13.311  1.00  0.00    +0.000 C 
ATOM     69  C49 UNL A   1      57.979  18.340  11.934  1.00  0.00    +0.000 C 
ATOM     81  C56 UNL A   1      56.716  18.562  11.525  1.00  0.00    +0.000 C 
ATOM     82  C57 UNL A   1      56.171  18.192  10.222  1.00  0.00    +0.000 C 
ATOM     83  C58 UNL A   1      54.896  18.608  10.146  1.00  0.00    +0.000 C 
ATOM     84  C59 UNL A   1      54.524  19.243  11.411  1.00  0.00    +0.000 C 
ATOM     85  N7  UNL A   1      55.664  19.164  12.171  1.00  0.00    +0.000 N 
ATOM     86  C60 UNL A   1      59.784  18.493  13.705  1.00  0.00    +0.000 C 
ATOM     87  C61 UNL A   1      59.807  18.938  14.954  1.00  0.00    +0.000 C 
ATOM     88  C62 UNL A   1      51.882  21.585  14.419  1.00  0.00    +0.000 C 
ATOM     89  C63 UNL A   1      51.738  21.001  13.238  1.00  0.00    +0.000 C 
ATOM    118  H27 UNL A   1      54.829  22.177  18.792  1.00  0.00    +0.000 H 
ATOM    119  H28 UNL A   1      57.318  21.416  18.927  1.00  0.00    +0.000 H 
ATOM    120  H29 UNL A   1      55.868  20.465  15.167  1.00  0.00    +0.000 H 
ATOM    121  H30 UNL A   1      56.683  17.691   9.479  1.00  0.00    +0.000 H 
ATOM    122  H31 UNL A   1      54.278  18.497   9.327  1.00  0.00    +0.000 H 
ATOM    123  H32 UNL A   1      55.722  19.505  13.092  1.00  0.00    +0.000 H 
ATOM    124  H33 UNL A   1      60.542  18.060  13.153  1.00  0.00    +0.000 H 
ATOM    125  H34 UNL A   1      60.623  18.869  15.580  1.00  0.00    +0.000 H 
ATOM    126  H35 UNL A   1      51.152  22.147  14.885  1.00  0.00    +0.000 H 
ATOM    127  H36 UNL A   1      50.903  20.952  12.634  1.00  0.00    +0.000 H 
ENDROOT
BRANCH   33   32
ATOM    129  H38 UNL A   1      50.820  21.798   8.390  1.00  0.00    +0.000 H 
ATOM    128  H37 UNL A   1      52.581  21.771  10.057  1.00  0.00    +0.000 H 
ATOM    116  H25 UNL A   1      49.989  17.753   9.195  1.00  0.00    +0.000 H 
ATOM    117  H26 UNL A   1      51.611  17.783  11.002  1.00  0.00    +0.000 H 
ATOM     90  C64 UNL A   1      52.020  20.921   9.887  1.00  0.00    +0.000 C 
ATOM     91  C65 UNL A   1      51.035  20.927   8.901  1.00  0.00    +0.000 C 
ATOM     29  C22 UNL A   1      50.340  19.751   8.604  1.00  0.00    +0.000 C 
ATOM     30  C23 UNL A   1      50.539  18.606   9.383  1.00  0.00    +0.000 C 
ATOM     31  C24 UNL A   1      51.482  18.620  10.412  1.00  0.00    +0.000 C 
ATOM     32  C25 UNL A   1      52.255  19.767  10.651  1.00  0.00    +0.000 C 
BRANCH   29   27
ATOM     27  C21 UNL A   1      49.378  19.690   7.481  1.00  0.00    +0.000 C 
ATOM     28  O2  UNL A   1      48.398  20.431   7.482  1.00  0.00    +0.000 O 
BRANCH   27   26
ATOM     26  N3  UNL A   1      49.563  18.792   6.459  1.00  0.00    +0.000 N 
ATOM    115  H24 UNL A   1      50.468  18.778   6.072  1.00  0.00    +0.000 H 
BRANCH   26   25
ATOM     25  C20 UNL A   1      48.619  17.860   5.864  1.00  0.00    +0.000 C 
ATOM    114  H23 UNL A   1      47.916  17.584   6.623  1.00  0.00    +0.000 H 
ATOM    113  H22 UNL A   1      49.161  17.012   5.498  1.00  0.00    +0.000 H 
BRANCH   25   24
ATOM    112  H21 UNL A   1      47.816  17.729   3.937  1.00  0.00    +0.000 H 
ATOM    111  H20 UNL A   1      48.317  19.380   4.422  1.00  0.00    +0.000 H 
ATOM     24  C19 UNL A   1      47.831  18.470   4.709  1.00  0.00    +0.000 C 
BRANCH   24   23
ATOM    109  H18 UNL A   1      45.787  17.917   4.816  1.00  0.00    +0.000 H 
ATOM    110  H19 UNL A   1      46.341  19.106   6.036  1.00  0.00    +0.000 H 
ATOM     23  C18 UNL A   1      46.367  18.793   5.013  1.00  0.00    +0.000 C 
BRANCH   23   22
ATOM    107  H16 UNL A   1      45.323  20.637   4.893  1.00  0.00    +0.000 H 
ATOM    108  H17 UNL A   1      46.574  20.361   3.639  1.00  0.00    +0.000 H 
ATOM     22  C17 UNL A   1      45.766  19.947   4.204  1.00  0.00    +0.000 C 
BRANCH   22   21
ATOM    105  H14 UNL A   1      44.581  18.487   3.213  1.00  0.00    +0.000 H 
ATOM    106  H15 UNL A   1      43.807  20.081   3.452  1.00  0.00    +0.000 H 
ATOM     21  C16 UNL A   1      44.695  19.550   3.179  1.00  0.00    +0.000 C 
BRANCH   21   20
ATOM     20  C15 UNL A   1      45.008  19.948   1.737  1.00  0.00    +0.000 C 
ATOM    103  H12 UNL A   1      45.938  20.477   1.714  1.00  0.00    +0.000 H 
ATOM    104  H13 UNL A   1      45.066  19.056   1.147  1.00  0.00    +0.000 H 
BRANCH   20   19
ATOM     19  N2  UNL A   1      43.970  20.793   1.187  1.00  0.00    +0.000 N 
ATOM    102  H11 UNL A   1      44.113  21.767   1.180  1.00  0.00    +0.000 H 
BRANCH   19    2
ATOM      1  O1  UNL A   1      42.736  19.353  -0.109  1.00  0.00    +0.000 O 
ATOM      2  C1  UNL A   1      42.793  20.299   0.672  1.00  0.00    +0.000 C 
BRANCH    2    3
ATOM      3  C2  UNL A   1      41.544  21.030   1.135  1.00  0.00    +0.000 C 
ATOM     92  H1  UNL A   1      41.001  21.361   0.274  1.00  0.00    +0.000 H 
ATOM     93  H2  UNL A   1      41.857  21.851   1.745  1.00  0.00    +0.000 H 
BRANCH    3    4
ATOM     97  H6  UNL A   1      37.452  19.711   2.931  1.00  0.00    +0.000 H 
ATOM      4  C3  UNL A   1      40.634  20.158   1.975  1.00  0.00    +0.000 C 
ATOM      5  C4  UNL A   1      41.192  19.046   2.635  1.00  0.00    +0.000 C 
ATOM      6  C5  UNL A   1      40.392  18.189   3.386  1.00  0.00    +0.000 C 
ATOM      7  C6  UNL A   1      39.029  18.432   3.485  1.00  0.00    +0.000 C 
ATOM      8  C7  UNL A   1      38.465  19.537   2.842  1.00  0.00    +0.000 C 
ATOM      9  C8  UNL A   1      39.248  20.419   2.079  1.00  0.00    +0.000 C 
ATOM     94  H3  UNL A   1      42.206  18.866   2.562  1.00  0.00    +0.000 H 
ATOM     95  H4  UNL A   1      40.811  17.378   3.867  1.00  0.00    +0.000 H 
ATOM     96  H5  UNL A   1      38.430  17.795   4.034  1.00  0.00    +0.000 H 
BRANCH    9   10
ATOM     10  N1  UNL A   1      38.701  21.582   1.478  1.00  0.00    +0.000 N 
ATOM     98  H7  UNL A   1      39.124  22.435   1.730  1.00  0.00    +0.000 H 
BRANCH   10   11
ATOM     99  H8  UNL A   1      34.260  22.067   0.573  1.00  0.00    +0.000 H 
ATOM    100  H9  UNL A   1      34.613  22.117  -1.828  1.00  0.00    +0.000 H 
ATOM    101  H10 UNL A   1      36.852  21.857  -2.721  1.00  0.00    +0.000 H 
ATOM     11  C9  UNL A   1      37.618  21.673   0.560  1.00  0.00    +0.000 C 
ATOM     12  C10 UNL A   1      36.303  21.817   1.051  1.00  0.00    +0.000 C 
ATOM     13 Cl1  UNL A   1      35.989  21.817   2.755  1.00  0.00    +0.000 Cl
ATOM     14  C11 UNL A   1      35.212  21.971   0.189  1.00  0.00    +0.000 C 
ATOM     15  C12 UNL A   1      35.413  21.992  -1.188  1.00  0.00    +0.000 C 
ATOM     16  C13 UNL A   1      36.702  21.846  -1.700  1.00  0.00    +0.000 C 
ATOM     17  C14 UNL A   1      37.794  21.682  -0.838  1.00  0.00    +0.000 C 
ATOM     18 Cl2  UNL A   1      39.338  21.413  -1.576  1.00  0.00    +0.000 Cl
ENDBRANCH   10   11
ENDBRANCH    9   10
ENDBRANCH    3    4
ENDBRANCH    2    3
ENDBRANCH   19    2
ENDBRANCH   20   19
ENDBRANCH   21   20
ENDBRANCH   22   21
ENDBRANCH   23   22
ENDBRANCH   24   23
ENDBRANCH   25   24
ENDBRANCH   26   25
ENDBRANCH   27   26
ENDBRANCH   29   27
ENDBRANCH   33   32
BRANCH   37   38
ATOM     38  C30 UNL A   1      52.609  22.477  17.045  1.00  0.00    +0.000 C 
ATOM     39  C31 UNL A   1      52.432  23.860  16.895  1.00  0.00    +0.000 C 
ATOM     40  F1  UNL A   1      53.180  24.544  16.014  1.00  0.00    +0.000 F 
ATOM     41  C32 UNL A   1      51.512  24.555  17.676  1.00  0.00    +0.000 C 
ATOM     42  F2  UNL A   1      51.396  25.884  17.548  1.00  0.00    +0.000 F 
ATOM     43  C33 UNL A   1      50.728  23.877  18.597  1.00  0.00    +0.000 C 
ATOM     44  F3  UNL A   1      49.841  24.546  19.345  1.00  0.00    +0.000 F 
ATOM     45  C34 UNL A   1      50.870  22.505  18.747  1.00  0.00    +0.000 C 
ATOM     46  F4  UNL A   1      50.105  21.847  19.628  1.00  0.00    +0.000 F 
ATOM     47  C35 UNL A   1      51.809  21.812  17.987  1.00  0.00    +0.000 C 
ATOM     48  F5  UNL A   1      51.933  20.488  18.167  1.00  0.00    +0.000 F 
ENDBRANCH   37   38
BRANCH   54   55
ATOM     65  F10 UNL A   1      59.957  22.348  17.046  1.00  0.00    +0.000 F 
ATOM     55  C41 UNL A   1      59.394  20.089  17.541  1.00  0.00    +0.000 C 
ATOM     56  C42 UNL A   1      59.686  18.940  18.289  1.00  0.00    +0.000 C 
ATOM     57  F6  UNL A   1      58.939  17.835  18.146  1.00  0.00    +0.000 F 
ATOM     58  C43 UNL A   1      60.725  18.935  19.215  1.00  0.00    +0.000 C 
ATOM     59  F7  UNL A   1      60.959  17.839  19.950  1.00  0.00    +0.000 F 
ATOM     60  C44 UNL A   1      61.509  20.065  19.389  1.00  0.00    +0.000 C 
ATOM     61  F8  UNL A   1      62.513  20.056  20.277  1.00  0.00    +0.000 F 
ATOM     62  C45 UNL A   1      61.248  21.208  18.648  1.00  0.00    +0.000 C 
ATOM     63  F9  UNL A   1      62.012  22.298  18.806  1.00  0.00    +0.000 F 
ATOM     64  C46 UNL A   1      60.193  21.225  17.740  1.00  0.00    +0.000 C 
ENDBRANCH   54   55
BRANCH   69   70
ATOM     70  C50 UNL A   1      58.936  17.640  11.038  1.00  0.00    +0.000 C 
ATOM     71  C51 UNL A   1      59.722  18.360  10.129  1.00  0.00    +0.000 C 
ATOM     72  F11 UNL A   1      59.599  19.694  10.046  1.00  0.00    +0.000 F 
ATOM     73  C52 UNL A   1      60.607  17.710   9.271  1.00  0.00    +0.000 C 
ATOM     74  F12 UNL A   1      61.316  18.419   8.381  1.00  0.00    +0.000 F 
ATOM     75  C53 UNL A   1      60.743  16.332   9.327  1.00  0.00    +0.000 C 
ATOM     76  F13 UNL A   1      61.598  15.708   8.504  1.00  0.00    +0.000 F 
ATOM     77  C54 UNL A   1      59.989  15.601  10.230  1.00  0.00    +0.000 C 
ATOM     78  F14 UNL A   1      60.126  14.269  10.295  1.00  0.00    +0.000 F 
ATOM     79  C55 UNL A   1      59.084  16.247  11.070  1.00  0.00    +0.000 C 
ATOM     80  F15 UNL A   1      58.357  15.513  11.927  1.00  0.00    +0.000 F 
ENDBRANCH   69   70
TORSDOF 18
ENDMDL
MODEL 4
REMARK VINA RESULT:      -8.8     37.508     42.473
ROOT
ATOM     33  C26 UNL A   1      41.479  26.348  27.579  1.00  0.00    +0.000 C 
ATOM     34  C27 UNL A   1      42.880  26.656  27.134  1.00  0.00    +0.000 C 
ATOM     35  N4  UNL A   1      43.608  27.721  27.363  1.00  0.00    +0.000 N 
ATOM     36  C28 UNL A   1      44.835  27.474  26.765  1.00  0.00    +0.000 C 
ATOM     37  C29 UNL A   1      45.912  28.293  26.676  1.00  0.00    +0.000 C 
ATOM     49  C36 UNL A   1      45.963  29.629  27.211  1.00  0.00    +0.000 C 
ATOM     50  C37 UNL A   1      46.985  30.558  27.116  1.00  0.00    +0.000 C 
ATOM     51  C38 UNL A   1      46.603  31.702  27.825  1.00  0.00    +0.000 C 
ATOM     52  C39 UNL A   1      45.327  31.502  28.324  1.00  0.00    +0.000 C 
ATOM     53  N5  UNL A   1      44.947  30.225  27.944  1.00  0.00    +0.000 N 
ATOM     54  C40 UNL A   1      44.513  32.407  29.095  1.00  0.00    +0.000 C 
ATOM     66  C47 UNL A   1      43.260  32.138  29.539  1.00  0.00    +0.000 C 
ATOM     67  N6  UNL A   1      42.499  30.991  29.359  1.00  0.00    +0.000 N 
ATOM     68  C48 UNL A   1      41.367  31.209  29.981  1.00  0.00    +0.000 C 
ATOM     69  C49 UNL A   1      40.158  30.320  30.093  1.00  0.00    +0.000 C 
ATOM     81  C56 UNL A   1      40.163  29.120  29.484  1.00  0.00    +0.000 C 
ATOM     82  C57 UNL A   1      39.066  28.156  29.505  1.00  0.00    +0.000 C 
ATOM     83  C58 UNL A   1      39.439  27.054  28.834  1.00  0.00    +0.000 C 
ATOM     84  C59 UNL A   1      40.789  27.250  28.304  1.00  0.00    +0.000 C 
ATOM     85  N7  UNL A   1      41.136  28.506  28.734  1.00  0.00    +0.000 N 
ATOM     86  C60 UNL A   1      41.294  32.514  30.654  1.00  0.00    +0.000 C 
ATOM     87  C61 UNL A   1      42.457  33.055  30.320  1.00  0.00    +0.000 C 
ATOM     88  C62 UNL A   1      44.773  26.143  26.203  1.00  0.00    +0.000 C 
ATOM     89  C63 UNL A   1      43.564  25.619  26.347  1.00  0.00    +0.000 C 
ATOM    118  H27 UNL A   1      47.874  30.430  26.609  1.00  0.00    +0.000 H 
ATOM    119  H28 UNL A   1      47.176  32.551  27.953  1.00  0.00    +0.000 H 
ATOM    120  H29 UNL A   1      44.086  29.803  28.161  1.00  0.00    +0.000 H 
ATOM    121  H30 UNL A   1      38.152  28.299  29.962  1.00  0.00    +0.000 H 
ATOM    122  H31 UNL A   1      38.864  26.206  28.710  1.00  0.00    +0.000 H 
ATOM    123  H32 UNL A   1      42.001  28.928  28.524  1.00  0.00    +0.000 H 
ATOM    124  H33 UNL A   1      40.536  32.906  31.235  1.00  0.00    +0.000 H 
ATOM    125  H34 UNL A   1      42.752  34.008  30.584  1.00  0.00    +0.000 H 
ATOM    126  H35 UNL A   1      45.566  25.663  25.748  1.00  0.00    +0.000 H 
ATOM    127  H36 UNL A   1      43.199  24.719  25.999  1.00  0.00    +0.000 H 
ENDROOT
BRANCH   33   32
ATOM    129  H38 UNL A   1      38.373  23.653  25.506  1.00  0.00    +0.000 H 
ATOM    128  H37 UNL A   1      39.411  25.795  25.967  1.00  0.00    +0.000 H 
ATOM    116  H25 UNL A   1      41.222  21.743  27.943  1.00  0.00    +0.000 H 
ATOM    117  H26 UNL A   1      42.135  23.905  28.564  1.00  0.00    +0.000 H 
ATOM     90  C64 UNL A   1      39.787  24.938  26.400  1.00  0.00    +0.000 C 
ATOM     91  C65 UNL A   1      39.214  23.702  26.103  1.00  0.00    +0.000 C 
ATOM     29  C22 UNL A   1      39.780  22.531  26.615  1.00  0.00    +0.000 C 
ATOM     30  C23 UNL A   1      40.837  22.606  27.527  1.00  0.00    +0.000 C 
ATOM     31  C24 UNL A   1      41.371  23.849  27.873  1.00  0.00    +0.000 C 
ATOM     32  C25 UNL A   1      40.873  25.023  27.287  1.00  0.00    +0.000 C 
BRANCH   29   27
ATOM     27  C21 UNL A   1      39.274  21.197  26.220  1.00  0.00    +0.000 C 
ATOM     28  O2  UNL A   1      40.013  20.219  26.304  1.00  0.00    +0.000 O 
BRANCH   27   26
ATOM     26  N3  UNL A   1      37.997  21.057  25.736  1.00  0.00    +0.000 N 
ATOM    115  H24 UNL A   1      37.315  20.834  26.409  1.00  0.00    +0.000 H 
BRANCH   26   25
ATOM     25  C20 UNL A   1      37.504  21.188  24.374  1.00  0.00    +0.000 C 
ATOM    114  H23 UNL A   1      37.206  20.214  24.044  1.00  0.00    +0.000 H 
ATOM    113  H22 UNL A   1      38.286  21.592  23.764  1.00  0.00    +0.000 H 
BRANCH   25   24
ATOM    112  H21 UNL A   1      36.066  22.184  23.226  1.00  0.00    +0.000 H 
ATOM    111  H20 UNL A   1      36.530  23.033  24.734  1.00  0.00    +0.000 H 
ATOM     24  C19 UNL A   1      36.285  22.100  24.270  1.00  0.00    +0.000 C 
BRANCH   24   23
ATOM    109  H18 UNL A   1      34.191  21.768  24.270  1.00  0.00    +0.000 H 
ATOM    110  H19 UNL A   1      35.181  20.524  25.099  1.00  0.00    +0.000 H 
ATOM     23  C18 UNL A   1      35.010  21.567  24.928  1.00  0.00    +0.000 C 
BRANCH   23   22
ATOM    107  H16 UNL A   1      35.479  21.940  26.963  1.00  0.00    +0.000 H 
ATOM    108  H17 UNL A   1      34.536  23.216  26.129  1.00  0.00    +0.000 H 
ATOM     22  C17 UNL A   1      34.674  22.168  26.296  1.00  0.00    +0.000 C 
BRANCH   22   21
ATOM    105  H14 UNL A   1      32.722  21.341  26.154  1.00  0.00    +0.000 H 
ATOM    106  H15 UNL A   1      33.651  20.887  27.612  1.00  0.00    +0.000 H 
ATOM     21  C16 UNL A   1      33.373  21.669  26.937  1.00  0.00    +0.000 C 
BRANCH   21   20
ATOM     20  C15 UNL A   1      32.626  22.710  27.769  1.00  0.00    +0.000 C 
ATOM    103  H12 UNL A   1      31.822  22.232  28.287  1.00  0.00    +0.000 H 
ATOM    104  H13 UNL A   1      33.316  23.146  28.463  1.00  0.00    +0.000 H 
BRANCH   20   19
ATOM     19  N2  UNL A   1      32.090  23.765  26.935  1.00  0.00    +0.000 N 
ATOM    102  H11 UNL A   1      32.672  24.528  26.713  1.00  0.00    +0.000 H 
BRANCH   19    2
ATOM      1  O1  UNL A   1      29.880  23.141  26.963  1.00  0.00    +0.000 O 
ATOM      2  C1  UNL A   1      30.807  23.751  26.437  1.00  0.00    +0.000 C 
BRANCH    2    3
ATOM      3  C2  UNL A   1      30.618  24.547  25.156  1.00  0.00    +0.000 C 
ATOM     92  H1  UNL A   1      30.879  25.567  25.344  1.00  0.00    +0.000 H 
ATOM     93  H2  UNL A   1      29.593  24.449  24.863  1.00  0.00    +0.000 H 
BRANCH    3    4
ATOM     97  H6  UNL A   1      33.562  24.968  21.570  1.00  0.00    +0.000 H 
ATOM      4  C3  UNL A   1      31.471  24.030  24.016  1.00  0.00    +0.000 C 
ATOM      5  C4  UNL A   1      31.542  22.639  23.808  1.00  0.00    +0.000 C 
ATOM      6  C5  UNL A   1      32.344  22.111  22.802  1.00  0.00    +0.000 C 
ATOM      7  C6  UNL A   1      33.083  22.963  21.992  1.00  0.00    +0.000 C 
ATOM      8  C7  UNL A   1      33.014  24.346  22.184  1.00  0.00    +0.000 C 
ATOM      9  C8  UNL A   1      32.213  24.907  23.191  1.00  0.00    +0.000 C 
ATOM     94  H3  UNL A   1      30.992  22.005  24.409  1.00  0.00    +0.000 H 
ATOM     95  H4  UNL A   1      32.389  21.090  22.656  1.00  0.00    +0.000 H 
ATOM     96  H5  UNL A   1      33.686  22.576  21.249  1.00  0.00    +0.000 H 
BRANCH    9   10
ATOM     10  N1  UNL A   1      32.079  26.310  23.352  1.00  0.00    +0.000 N 
ATOM     98  H7  UNL A   1      31.755  26.804  22.564  1.00  0.00    +0.000 H 
BRANCH   10   11
ATOM     99  H8  UNL A   1      31.091  29.746  26.181  1.00  0.00    +0.000 H 
ATOM    100  H9  UNL A   1      32.890  29.186  27.710  1.00  0.00    +0.000 H 
ATOM    101  H10 UNL A   1      34.367  27.331  27.205  1.00  0.00    +0.000 H 
ATOM     11  C9  UNL A   1      32.356  27.095  24.506  1.00  0.00    +0.000 C 
ATOM     12  C10 UNL A   1      31.518  28.185  24.821  1.00  0.00    +0.000 C 
ATOM     13 Cl1  UNL A   1      30.200  28.618  23.783  1.00  0.00    +0.000 Cl
ATOM     14  C11 UNL A   1      31.714  28.949  25.977  1.00  0.00    +0.000 C 
ATOM     15  C12 UNL A   1      32.749  28.633  26.851  1.00  0.00    +0.000 C 
ATOM     16  C13 UNL A   1      33.596  27.564  26.560  1.00  0.00    +0.000 C 
ATOM     17  C14 UNL A   1      33.407  26.804  25.399  1.00  0.00    +0.000 C 
ATOM     18 Cl2  UNL A   1      34.571  25.560  25.082  1.00  0.00    +0.000 Cl
ENDBRANCH   10   11
ENDBRANCH    9   10
ENDBRANCH    3    4
ENDBRANCH    2    3
ENDBRANCH   19    2
ENDBRANCH   20   19
ENDBRANCH   21   20
ENDBRANCH   22   21
ENDBRANCH   23   22
ENDBRANCH   24   23
ENDBRANCH   25   24
ENDBRANCH   26   25
ENDBRANCH   27   26
ENDBRANCH   29   27
ENDBRANCH   33   32
BRANCH   37   38
ATOM     38  C30 UNL A   1      47.126  27.765  25.969  1.00  0.00    +0.000 C 
ATOM     39  C31 UNL A   1      47.233  27.797  24.570  1.00  0.00    +0.000 C 
ATOM     40  F1  UNL A   1      46.220  28.268  23.826  1.00  0.00    +0.000 F 
ATOM     41  C32 UNL A   1      48.367  27.307  23.927  1.00  0.00    +0.000 C 
ATOM     42  F2  UNL A   1      48.426  27.303  22.588  1.00  0.00    +0.000 F 
ATOM     43  C33 UNL A   1      49.428  26.810  24.668  1.00  0.00    +0.000 C 
ATOM     44  F3  UNL A   1      50.519  26.343  24.048  1.00  0.00    +0.000 F 
ATOM     45  C34 UNL A   1      49.353  26.790  26.053  1.00  0.00    +0.000 C 
ATOM     46  F4  UNL A   1      50.382  26.320  26.771  1.00  0.00    +0.000 F 
ATOM     47  C35 UNL A   1      48.209  27.252  26.699  1.00  0.00    +0.000 C 
ATOM     48  F5  UNL A   1      48.161  27.205  28.038  1.00  0.00    +0.000 F 
ENDBRANCH   37   38
BRANCH   54   55
ATOM     65  F10 UNL A   1      46.045  32.939  31.428  1.00  0.00    +0.000 F 
ATOM     55  C41 UNL A   1      45.079  33.759  29.414  1.00  0.00    +0.000 C 
ATOM     56  C42 UNL A   1      44.863  34.862  28.575  1.00  0.00    +0.000 C 
ATOM     57  F6  UNL A   1      44.180  34.715  27.430  1.00  0.00    +0.000 F 
ATOM     58  C43 UNL A   1      45.383  36.114  28.893  1.00  0.00    +0.000 C 
ATOM     59  F7  UNL A   1      45.201  37.144  28.056  1.00  0.00    +0.000 F 
ATOM     60  C44 UNL A   1      46.098  36.294  30.067  1.00  0.00    +0.000 C 
ATOM     61  F8  UNL A   1      46.592  37.501  30.374  1.00  0.00    +0.000 F 
ATOM     62  C45 UNL A   1      46.310  35.220  30.918  1.00  0.00    +0.000 C 
ATOM     63  F9  UNL A   1      46.993  35.394  32.059  1.00  0.00    +0.000 F 
ATOM     64  C46 UNL A   1      45.815  33.961  30.591  1.00  0.00    +0.000 C 
ENDBRANCH   54   55
BRANCH   69   70
ATOM     70  C50 UNL A   1      38.954  30.768  30.840  1.00  0.00    +0.000 C 
ATOM     71  C51 UNL A   1      37.904  31.420  30.179  1.00  0.00    +0.000 C 
ATOM     72  F11 UNL A   1      37.990  31.664  28.863  1.00  0.00    +0.000 F 
ATOM     73  C52 UNL A   1      36.781  31.862  30.875  1.00  0.00    +0.000 C 
ATOM     74  F12 UNL A   1      35.810  32.520  30.227  1.00  0.00    +0.000 F 
ATOM     75  C53 UNL A   1      36.674  31.634  32.239  1.00  0.00    +0.000 C 
ATOM     76  F13 UNL A   1      35.591  32.055  32.907  1.00  0.00    +0.000 F 
ATOM     77  C54 UNL A   1      37.693  30.976  32.910  1.00  0.00    +0.000 C 
ATOM     78  F14 UNL A   1      37.587  30.744  34.226  1.00  0.00    +0.000 F 
ATOM     79  C55 UNL A   1      38.828  30.557  32.220  1.00  0.00    +0.000 C 
ATOM     80  F15 UNL A   1      39.805  29.934  32.897  1.00  0.00    +0.000 F 
ENDBRANCH   69   70
TORSDOF 18
ENDMDL
MODEL 5
REMARK VINA RESULT:      -8.6     44.312     50.168
ROOT
ATOM     33  C26 UNL A   1      10.508   2.987  21.162  1.00  0.00    +0.000 C 
ATOM     34  C27 UNL A   1      11.080   3.467  19.858  1.00  0.00    +0.000 C 
ATOM     35  N4  UNL A   1      10.984   4.647  19.296  1.00  0.00    +0.000 N 
ATOM     36  C28 UNL A   1      11.730   4.569  18.129  1.00  0.00    +0.000 C 
ATOM     37  C29 UNL A   1      11.900   5.512  17.170  1.00  0.00    +0.000 C 
ATOM     49  C36 UNL A   1      11.299   6.820  17.201  1.00  0.00    +0.000 C 
ATOM     50  C37 UNL A   1      11.361   7.821  16.247  1.00  0.00    +0.000 C 
ATOM     51  C38 UNL A   1      10.658   8.931  16.731  1.00  0.00    +0.000 C 
ATOM     52  C39 UNL A   1      10.124   8.606  17.967  1.00  0.00    +0.000 C 
ATOM     53  N5  UNL A   1      10.528   7.309  18.245  1.00  0.00    +0.000 N 
ATOM     54  C40 UNL A   1       9.309   9.417  18.833  1.00  0.00    +0.000 C 
ATOM     66  C47 UNL A   1       8.812   9.018  20.030  1.00  0.00    +0.000 C 
ATOM     67  N6  UNL A   1       8.955   7.795  20.669  1.00  0.00    +0.000 N 
ATOM     68  C48 UNL A   1       8.302   7.899  21.799  1.00  0.00    +0.000 C 
ATOM     69  C49 UNL A   1       8.096   6.871  22.878  1.00  0.00    +0.000 C 
ATOM     81  C56 UNL A   1       8.620   5.640  22.723  1.00  0.00    +0.000 C 
ATOM     82  C57 UNL A   1       8.501   4.544  23.681  1.00  0.00    +0.000 C 
ATOM     83  C58 UNL A   1       9.185   3.484  23.220  1.00  0.00    +0.000 C 
ATOM     84  C59 UNL A   1       9.760   3.815  21.916  1.00  0.00    +0.000 C 
ATOM     85  N7  UNL A   1       9.367   5.112  21.699  1.00  0.00    +0.000 N 
ATOM     86  C60 UNL A   1       7.692   9.219  22.019  1.00  0.00    +0.000 C 
ATOM     87  C61 UNL A   1       7.999   9.849  20.894  1.00  0.00    +0.000 C 
ATOM     88  C62 UNL A   1      12.309   3.244  18.083  1.00  0.00    +0.000 C 
ATOM     89  C63 UNL A   1      11.886   2.502  19.097  1.00  0.00    +0.000 C 
ATOM    118  H27 UNL A   1      11.839   7.759  15.335  1.00  0.00    +0.000 H 
ATOM    119  H28 UNL A   1      10.557   9.837  16.248  1.00  0.00    +0.000 H 
ATOM    120  H29 UNL A   1      10.302   6.810  19.062  1.00  0.00    +0.000 H 
ATOM    121  H30 UNL A   1       7.976   4.578  24.569  1.00  0.00    +0.000 H 
ATOM    122  H31 UNL A   1       9.286   2.580  23.707  1.00  0.00    +0.000 H 
ATOM    123  H32 UNL A   1       9.598   5.617  20.886  1.00  0.00    +0.000 H 
ATOM    124  H33 UNL A   1       7.163   9.564  22.836  1.00  0.00    +0.000 H 
ATOM    125  H34 UNL A   1       7.699  10.809  20.664  1.00  0.00    +0.000 H 
ATOM    126  H35 UNL A   1      12.966   2.919  17.357  1.00  0.00    +0.000 H 
ATOM    127  H36 UNL A   1      12.074   1.508  19.298  1.00  0.00    +0.000 H 
ENDROOT
BRANCH   33   32
ATOM    129  H38 UNL A   1      13.175  -0.011  23.423  1.00  0.00    +0.000 H 
ATOM    128  H37 UNL A   1      12.609   2.211  22.634  1.00  0.00    +0.000 H 
ATOM    116  H25 UNL A   1       9.621  -1.516  21.747  1.00  0.00    +0.000 H 
ATOM    117  H26 UNL A   1       9.156   0.664  20.784  1.00  0.00    +0.000 H 
ATOM     90  C64 UNL A   1      11.982   1.418  22.430  1.00  0.00    +0.000 C 
ATOM     91  C65 UNL A   1      12.288   0.148  22.919  1.00  0.00    +0.000 C 
ATOM     29  C22 UNL A   1      11.392  -0.907  22.725  1.00  0.00    +0.000 C 
ATOM     30  C23 UNL A   1      10.256  -0.723  21.931  1.00  0.00    +0.000 C 
ATOM     31  C24 UNL A   1       9.982   0.534  21.389  1.00  0.00    +0.000 C 
ATOM     32  C25 UNL A   1      10.824   1.624  21.662  1.00  0.00    +0.000 C 
BRANCH   29   27
ATOM     27  C21 UNL A   1      11.626  -2.235  23.337  1.00  0.00    +0.000 C 
ATOM     28  O2  UNL A   1      12.378  -3.033  22.783  1.00  0.00    +0.000 O 
BRANCH   27   26
ATOM     26  N3  UNL A   1      10.986  -2.584  24.499  1.00  0.00    +0.000 N 
ATOM    115  H24 UNL A   1      10.006  -2.653  24.435  1.00  0.00    +0.000 H 
BRANCH   26   25
ATOM     25  C20 UNL A   1      11.541  -2.866  25.814  1.00  0.00    +0.000 C 
ATOM    114  H23 UNL A   1      12.521  -3.274  25.668  1.00  0.00    +0.000 H 
ATOM    113  H22 UNL A   1      10.895  -3.555  26.317  1.00  0.00    +0.000 H 
BRANCH   25   24
ATOM    112  H21 UNL A   1      11.222  -1.845  27.611  1.00  0.00    +0.000 H 
ATOM    111  H20 UNL A   1      11.229  -0.800  26.156  1.00  0.00    +0.000 H 
ATOM     24  C19 UNL A   1      11.688  -1.616  26.675  1.00  0.00    +0.000 C 
BRANCH   24   23
ATOM    109  H18 UNL A   1      13.099  -0.266  27.502  1.00  0.00    +0.000 H 
ATOM    110  H19 UNL A   1      13.520  -2.004  27.613  1.00  0.00    +0.000 H 
ATOM     23  C18 UNL A   1      13.126  -1.214  27.008  1.00  0.00    +0.000 C 
BRANCH   23   22
ATOM    107  H16 UNL A   1      14.856  -1.808  25.932  1.00  0.00    +0.000 H 
ATOM    108  H17 UNL A   1      13.465  -1.261  24.941  1.00  0.00    +0.000 H 
ATOM     22  C17 UNL A   1      14.070  -1.092  25.808  1.00  0.00    +0.000 C 
BRANCH   22   21
ATOM    105  H14 UNL A   1      15.756   0.202  25.835  1.00  0.00    +0.000 H 
ATOM    106  H15 UNL A   1      14.523   0.563  24.593  1.00  0.00    +0.000 H 
ATOM     21  C16 UNL A   1      14.714   0.286  25.609  1.00  0.00    +0.000 C 
BRANCH   21   20
ATOM     20  C15 UNL A   1      14.129   1.400  26.475  1.00  0.00    +0.000 C 
ATOM    103  H12 UNL A   1      14.067   2.297  25.897  1.00  0.00    +0.000 H 
ATOM    104  H13 UNL A   1      13.156   1.095  26.805  1.00  0.00    +0.000 H 
BRANCH   20   19
ATOM     19  N2  UNL A   1      14.949   1.645  27.642  1.00  0.00    +0.000 N 
ATOM    102  H11 UNL A   1      15.137   0.893  28.250  1.00  0.00    +0.000 H 
BRANCH   19    2
ATOM      1  O1  UNL A   1      16.679   3.078  28.123  1.00  0.00    +0.000 O 
ATOM      2  C1  UNL A   1      15.481   2.879  27.942  1.00  0.00    +0.000 C 
BRANCH    2    3
ATOM      3  C2  UNL A   1      14.458   3.999  28.050  1.00  0.00    +0.000 C 
ATOM     92  H1  UNL A   1      13.745   3.889  27.260  1.00  0.00    +0.000 H 
ATOM     93  H2  UNL A   1      14.986   4.927  27.981  1.00  0.00    +0.000 H 
BRANCH    3    4
ATOM     97  H6  UNL A   1      10.704   4.367  30.784  1.00  0.00    +0.000 H 
ATOM      4  C3  UNL A   1      13.721   3.989  29.373  1.00  0.00    +0.000 C 
ATOM      5  C4  UNL A   1      14.443   3.680  30.542  1.00  0.00    +0.000 C 
ATOM      6  C5  UNL A   1      13.805   3.617  31.777  1.00  0.00    +0.000 C 
ATOM      7  C6  UNL A   1      12.441   3.862  31.859  1.00  0.00    +0.000 C 
ATOM      8  C7  UNL A   1      11.716   4.179  30.707  1.00  0.00    +0.000 C 
ATOM      9  C8  UNL A   1      12.333   4.250  29.449  1.00  0.00    +0.000 C 
ATOM     94  H3  UNL A   1      15.458   3.499  30.481  1.00  0.00    +0.000 H 
ATOM     95  H4  UNL A   1      14.343   3.391  32.628  1.00  0.00    +0.000 H 
ATOM     96  H5  UNL A   1      11.961   3.809  32.771  1.00  0.00    +0.000 H 
BRANCH    9   10
ATOM     10  N1  UNL A   1      11.623   4.638  28.283  1.00  0.00    +0.000 N 
ATOM     98  H7  UNL A   1      12.147   5.114  27.599  1.00  0.00    +0.000 H 
BRANCH   10   11
ATOM     99  H8  UNL A   1       7.306   6.088  28.089  1.00  0.00    +0.000 H 
ATOM    100  H9  UNL A   1       6.524   4.053  27.024  1.00  0.00    +0.000 H 
ATOM    101  H10 UNL A   1       8.081   2.247  26.589  1.00  0.00    +0.000 H 
ATOM     11  C9  UNL A   1      10.249   4.428  27.978  1.00  0.00    +0.000 C 
ATOM     12  C10 UNL A   1       9.318   5.459  28.228  1.00  0.00    +0.000 C 
ATOM     13 Cl1  UNL A   1       9.820   6.946  28.961  1.00  0.00    +0.000 Cl
ATOM     14  C11 UNL A   1       7.968   5.323  27.890  1.00  0.00    +0.000 C 
ATOM     15  C12 UNL A   1       7.517   4.153  27.286  1.00  0.00    +0.000 C 
ATOM     16  C13 UNL A   1       8.415   3.116  27.034  1.00  0.00    +0.000 C 
ATOM     17  C14 UNL A   1       9.766   3.247  27.380  1.00  0.00    +0.000 C 
ATOM     18 Cl2  UNL A   1      10.778   1.867  27.112  1.00  0.00    +0.000 Cl
ENDBRANCH   10   11
ENDBRANCH    9   10
ENDBRANCH    3    4
ENDBRANCH    2    3
ENDBRANCH   19    2
ENDBRANCH   20   19
ENDBRANCH   21   20
ENDBRANCH   22   21
ENDBRANCH   23   22
ENDBRANCH   24   23
ENDBRANCH   25   24
ENDBRANCH   26   25
ENDBRANCH   27   26
ENDBRANCH   29   27
ENDBRANCH   33   32
BRANCH   37   38
ATOM     38  C30 UNL A   1      12.770   5.159  15.999  1.00  0.00    +0.000 C 
ATOM     39  C31 UNL A   1      12.250   4.525  14.861  1.00  0.00    +0.000 C 
ATOM     40  F1  UNL A   1      10.954   4.181  14.814  1.00  0.00    +0.000 F 
ATOM     41  C32 UNL A   1      13.069   4.208  13.781  1.00  0.00    +0.000 C 
ATOM     42  F2  UNL A   1      12.559   3.559  12.725  1.00  0.00    +0.000 F 
ATOM     43  C33 UNL A   1      14.413   4.547  13.802  1.00  0.00    +0.000 C 
ATOM     44  F3  UNL A   1      15.198   4.243  12.760  1.00  0.00    +0.000 F 
ATOM     45  C34 UNL A   1      14.944   5.194  14.907  1.00  0.00    +0.000 C 
ATOM     46  F4  UNL A   1      16.241   5.533  14.924  1.00  0.00    +0.000 F 
ATOM     47  C35 UNL A   1      14.135   5.488  16.001  1.00  0.00    +0.000 C 
ATOM     48  F5  UNL A   1      14.682   6.101  17.062  1.00  0.00    +0.000 F 
ENDBRANCH   37   38
BRANCH   54   55
ATOM     65  F10 UNL A   1      10.911  11.695  19.398  1.00  0.00    +0.000 F 
ATOM     55  C41 UNL A   1       8.958  10.801  18.371  1.00  0.00    +0.000 C 
ATOM     56  C42 UNL A   1       7.790  11.058  17.639  1.00  0.00    +0.000 C 
ATOM     57  F6  UNL A   1       6.978  10.049  17.290  1.00  0.00    +0.000 F 
ATOM     58  C43 UNL A   1       7.472  12.350  17.232  1.00  0.00    +0.000 C 
ATOM     59  F7  UNL A   1       6.373  12.566  16.496  1.00  0.00    +0.000 F 
ATOM     60  C44 UNL A   1       8.297  13.411  17.573  1.00  0.00    +0.000 C 
ATOM     61  F8  UNL A   1       7.985  14.655  17.184  1.00  0.00    +0.000 F 
ATOM     62  C45 UNL A   1       9.449  13.182  18.309  1.00  0.00    +0.000 C 
ATOM     63  F9  UNL A   1      10.242  14.208  18.649  1.00  0.00    +0.000 F 
ATOM     64  C46 UNL A   1       9.784  11.888  18.696  1.00  0.00    +0.000 C 
ENDBRANCH   54   55
BRANCH   69   70
ATOM     70  C50 UNL A   1       7.298   7.190  24.089  1.00  0.00    +0.000 C 
ATOM     71  C51 UNL A   1       7.844   7.965  25.121  1.00  0.00    +0.000 C 
ATOM     72  F11 UNL A   1       9.107   8.409  25.030  1.00  0.00    +0.000 F 
ATOM     73  C52 UNL A   1       7.110   8.253  26.270  1.00  0.00    +0.000 C 
ATOM     74  F12 UNL A   1       7.671   8.961  27.261  1.00  0.00    +0.000 F 
ATOM     75  C53 UNL A   1       5.808   7.795  26.396  1.00  0.00    +0.000 C 
ATOM     76  F13 UNL A   1       5.101   8.076  27.499  1.00  0.00    +0.000 F 
ATOM     77  C54 UNL A   1       5.241   7.041  25.380  1.00  0.00    +0.000 C 
ATOM     78  F14 UNL A   1       3.978   6.607  25.493  1.00  0.00    +0.000 F 
ATOM     79  C55 UNL A   1       5.983   6.731  24.242  1.00  0.00    +0.000 C 
ATOM     80  F15 UNL A   1       5.414   5.989  23.280  1.00  0.00    +0.000 F 
ENDBRANCH   69   70
TORSDOF 18
ENDMDL
MODEL 6
REMARK VINA RESULT:      -8.5     43.212     47.419
ROOT
ATOM     33  C26 UNL A   1      26.281  34.629  46.156  1.00  0.00    +0.000 C 
ATOM     34  C27 UNL A   1      26.084  35.708  47.183  1.00  0.00    +0.000 C 
ATOM     35  N4  UNL A   1      26.856  36.727  47.472  1.00  0.00    +0.000 N 
ATOM     36  C28 UNL A   1      26.188  37.436  48.460  1.00  0.00    +0.000 C 
ATOM     37  C29 UNL A   1      26.597  38.541  49.131  1.00  0.00    +0.000 C 
ATOM     49  C36 UNL A   1      27.863  39.196  48.923  1.00  0.00    +0.000 C 
ATOM     50  C37 UNL A   1      28.394  40.282  49.597  1.00  0.00    +0.000 C 
ATOM     51  C38 UNL A   1      29.631  40.592  49.021  1.00  0.00    +0.000 C 
ATOM     52  C39 UNL A   1      29.890  39.673  48.018  1.00  0.00    +0.000 C 
ATOM     53  N5  UNL A   1      28.795  38.824  47.965  1.00  0.00    +0.000 N 
ATOM     54  C40 UNL A   1      31.047  39.576  47.166  1.00  0.00    +0.000 C 
ATOM     66  C47 UNL A   1      31.231  38.633  46.209  1.00  0.00    +0.000 C 
ATOM     67  N6  UNL A   1      30.396  37.585  45.846  1.00  0.00    +0.000 N 
ATOM     68  C48 UNL A   1      31.005  36.960  44.870  1.00  0.00    +0.000 C 
ATOM     69  C49 UNL A   1      30.576  35.734  44.112  1.00  0.00    +0.000 C 
ATOM     81  C56 UNL A   1      29.415  35.132  44.435  1.00  0.00    +0.000 C 
ATOM     82  C57 UNL A   1      28.874  33.939  43.790  1.00  0.00    +0.000 C 
ATOM     83  C58 UNL A   1      27.681  33.649  44.336  1.00  0.00    +0.000 C 
ATOM     84  C59 UNL A   1      27.392  34.617  45.396  1.00  0.00    +0.000 C 
ATOM     85  N7  UNL A   1      28.480  35.454  45.387  1.00  0.00    +0.000 N 
ATOM     86  C60 UNL A   1      32.289  37.562  44.482  1.00  0.00    +0.000 C 
ATOM     87  C61 UNL A   1      32.397  38.554  45.355  1.00  0.00    +0.000 C 
ATOM     88  C62 UNL A   1      24.929  36.761  48.689  1.00  0.00    +0.000 C 
ATOM     89  C63 UNL A   1      24.845  35.650  47.971  1.00  0.00    +0.000 C 
ATOM    118  H27 UNL A   1      27.955  40.776  50.389  1.00  0.00    +0.000 H 
ATOM    119  H28 UNL A   1      30.246  41.373  49.298  1.00  0.00    +0.000 H 
ATOM    120  H29 UNL A   1      28.694  38.070  47.342  1.00  0.00    +0.000 H 
ATOM    121  H30 UNL A   1      29.333  33.404  43.036  1.00  0.00    +0.000 H 
ATOM    122  H31 UNL A   1      27.068  32.869  44.055  1.00  0.00    +0.000 H 
ATOM    123  H32 UNL A   1      28.580  36.214  46.005  1.00  0.00    +0.000 H 
ATOM    124  H33 UNL A   1      32.937  37.285  43.727  1.00  0.00    +0.000 H 
ATOM    125  H34 UNL A   1      33.208  39.189  45.417  1.00  0.00    +0.000 H 
ATOM    126  H35 UNL A   1      24.193  37.100  49.329  1.00  0.00    +0.000 H 
ATOM    127  H36 UNL A   1      24.102  34.934  47.965  1.00  0.00    +0.000 H 
ENDROOT
BRANCH   33   32
ATOM    129  H38 UNL A   1      24.281  30.562  46.974  1.00  0.00    +0.000 H 
ATOM    128  H37 UNL A   1      25.971  32.257  47.364  1.00  0.00    +0.000 H 
ATOM    116  H25 UNL A   1      22.418  33.062  44.149  1.00  0.00    +0.000 H 
ATOM    117  H26 UNL A   1      24.220  34.671  44.390  1.00  0.00    +0.000 H 
ATOM     90  C64 UNL A   1      25.227  32.423  46.669  1.00  0.00    +0.000 C 
ATOM     91  C65 UNL A   1      24.233  31.464  46.474  1.00  0.00    +0.000 C 
ATOM     29  C22 UNL A   1      23.173  31.727  45.603  1.00  0.00    +0.000 C 
ATOM     30  C23 UNL A   1      23.176  32.892  44.829  1.00  0.00    +0.000 C 
ATOM     31  C24 UNL A   1      24.205  33.824  44.979  1.00  0.00    +0.000 C 
ATOM     32  C25 UNL A   1      25.221  33.613  45.924  1.00  0.00    +0.000 C 
BRANCH   29   27
ATOM     27  C21 UNL A   1      22.038  30.786  45.468  1.00  0.00    +0.000 C 
ATOM     28  O2  UNL A   1      21.970  29.809  46.209  1.00  0.00    +0.000 O 
BRANCH   27   26
ATOM     26  N3  UNL A   1      21.084  30.986  44.502  1.00  0.00    +0.000 N 
ATOM    115  H24 UNL A   1      21.394  31.461  43.698  1.00  0.00    +0.000 H 
BRANCH   26   25
ATOM     25  C20 UNL A   1      19.681  30.601  44.492  1.00  0.00    +0.000 C 
ATOM    114  H23 UNL A   1      19.302  30.740  45.484  1.00  0.00    +0.000 H 
ATOM    113  H22 UNL A   1      19.609  29.580  44.180  1.00  0.00    +0.000 H 
BRANCH   25   24
ATOM    112  H21 UNL A   1      19.361  31.480  42.621  1.00  0.00    +0.000 H 
ATOM    111  H20 UNL A   1      18.722  32.424  44.004  1.00  0.00    +0.000 H 
ATOM     24  C19 UNL A   1      18.838  31.459  43.555  1.00  0.00    +0.000 C 
BRANCH   24   23
ATOM    109  H18 UNL A   1      17.558  29.996  42.708  1.00  0.00    +0.000 H 
ATOM    110  H19 UNL A   1      16.953  30.803  44.189  1.00  0.00    +0.000 H 
ATOM     23  C18 UNL A   1      17.442  30.914  43.244  1.00  0.00    +0.000 C 
BRANCH   23   22
ATOM    107  H16 UNL A   1      16.561  31.485  41.400  1.00  0.00    +0.000 H 
ATOM    108  H17 UNL A   1      15.579  31.794  42.868  1.00  0.00    +0.000 H 
ATOM     22  C17 UNL A   1      16.546  31.835  42.411  1.00  0.00    +0.000 C 
BRANCH   22   21
ATOM    105  H14 UNL A   1      17.975  33.385  42.680  1.00  0.00    +0.000 H 
ATOM    106  H15 UNL A   1      16.745  33.676  41.415  1.00  0.00    +0.000 H 
ATOM     21  C16 UNL A   1      16.944  33.317  42.404  1.00  0.00    +0.000 C 
BRANCH   21   20
ATOM     20  C15 UNL A   1      16.139  34.203  43.353  1.00  0.00    +0.000 C 
ATOM    103  H12 UNL A   1      16.165  35.211  42.997  1.00  0.00    +0.000 H 
ATOM    104  H13 UNL A   1      15.133  33.838  43.383  1.00  0.00    +0.000 H 
BRANCH   20   19
ATOM     19  N2  UNL A   1      16.679  34.163  44.696  1.00  0.00    +0.000 N 
ATOM    102  H11 UNL A   1      16.471  33.385  45.261  1.00  0.00    +0.000 H 
BRANCH   19    2
ATOM      1  O1  UNL A   1      17.029  36.143  45.805  1.00  0.00    +0.000 O 
ATOM      2  C1  UNL A   1      17.472  35.160  45.217  1.00  0.00    +0.000 C 
BRANCH    2    3
ATOM      3  C2  UNL A   1      18.963  34.964  44.996  1.00  0.00    +0.000 C 
ATOM     92  H1  UNL A   1      19.374  35.873  44.609  1.00  0.00    +0.000 H 
ATOM     93  H2  UNL A   1      19.084  34.152  44.310  1.00  0.00    +0.000 H 
BRANCH    3    4
ATOM     97  H6  UNL A   1      21.575  35.849  48.750  1.00  0.00    +0.000 H 
ATOM      4  C3  UNL A   1      19.699  34.601  46.269  1.00  0.00    +0.000 C 
ATOM      5  C4  UNL A   1      19.624  33.274  46.733  1.00  0.00    +0.000 C 
ATOM      6  C5  UNL A   1      20.248  32.898  47.918  1.00  0.00    +0.000 C 
ATOM      7  C6  UNL A   1      20.953  33.842  48.654  1.00  0.00    +0.000 C 
ATOM      8  C7  UNL A   1      21.042  35.160  48.199  1.00  0.00    +0.000 C 
ATOM      9  C8  UNL A   1      20.423  35.567  47.006  1.00  0.00    +0.000 C 
ATOM     94  H3  UNL A   1      19.102  32.571  46.186  1.00  0.00    +0.000 H 
ATOM     95  H4  UNL A   1      20.188  31.922  48.250  1.00  0.00    +0.000 H 
ATOM     96  H5  UNL A   1      21.410  33.571  49.538  1.00  0.00    +0.000 H 
BRANCH    9   10
ATOM     10  N1  UNL A   1      20.562  36.885  46.497  1.00  0.00    +0.000 N 
ATOM     98  H7  UNL A   1      19.731  37.323  46.206  1.00  0.00    +0.000 H 
BRANCH   10   11
ATOM     99  H8  UNL A   1      24.240  38.144  44.115  1.00  0.00    +0.000 H 
ATOM    100  H9  UNL A   1      24.904  39.805  45.755  1.00  0.00    +0.000 H 
ATOM    101  H10 UNL A   1      23.601  40.086  47.780  1.00  0.00    +0.000 H 
ATOM     11  C9  UNL A   1      21.753  37.650  46.352  1.00  0.00    +0.000 C 
ATOM     12  C10 UNL A   1      22.535  37.503  45.187  1.00  0.00    +0.000 C 
ATOM     13 Cl1  UNL A   1      22.098  36.353  43.967  1.00  0.00    +0.000 Cl
ATOM     14  C11 UNL A   1      23.681  38.276  44.972  1.00  0.00    +0.000 C 
ATOM     15  C12 UNL A   1      24.066  39.224  45.915  1.00  0.00    +0.000 C 
ATOM     16  C13 UNL A   1      23.314  39.386  47.078  1.00  0.00    +0.000 C 
ATOM     17  C14 UNL A   1      22.172  38.605  47.300  1.00  0.00    +0.000 C 
ATOM     18 Cl2  UNL A   1      21.364  38.817  48.818  1.00  0.00    +0.000 Cl
ENDBRANCH   10   11
ENDBRANCH    9   10
ENDBRANCH    3    4
ENDBRANCH    2    3
ENDBRANCH   19    2
ENDBRANCH   20   19
ENDBRANCH   21   20
ENDBRANCH   22   21
ENDBRANCH   23   22
ENDBRANCH   24   23
ENDBRANCH   25   24
ENDBRANCH   26   25
ENDBRANCH   27   26
ENDBRANCH   29   27
ENDBRANCH   33   32
BRANCH   37   38
ATOM     38  C30 UNL A   1      25.665  39.111  50.159  1.00  0.00    +0.000 C 
ATOM     39  C31 UNL A   1      25.490  38.502  51.411  1.00  0.00    +0.000 C 
ATOM     40  F1  UNL A   1      26.131  37.359  51.701  1.00  0.00    +0.000 F 
ATOM     41  C32 UNL A   1      24.624  39.044  52.357  1.00  0.00    +0.000 C 
ATOM     42  F2  UNL A   1      24.436  38.418  53.527  1.00  0.00    +0.000 F 
ATOM     43  C33 UNL A   1      23.944  40.221  52.085  1.00  0.00    +0.000 C 
ATOM     44  F3  UNL A   1      23.114  40.743  52.998  1.00  0.00    +0.000 F 
ATOM     45  C34 UNL A   1      24.119  40.853  50.863  1.00  0.00    +0.000 C 
ATOM     46  F4  UNL A   1      23.472  41.997  50.603  1.00  0.00    +0.000 F 
ATOM     47  C35 UNL A   1      24.962  40.299  49.903  1.00  0.00    +0.000 C 
ATOM     48  F5  UNL A   1      25.098  40.925  48.725  1.00  0.00    +0.000 F 
ENDBRANCH   37   38
BRANCH   54   55
ATOM     65  F10 UNL A   1      33.312  39.089  48.810  1.00  0.00    +0.000 F 
ATOM     55  C41 UNL A   1      32.147  40.577  47.364  1.00  0.00    +0.000 C 
ATOM     56  C42 UNL A   1      32.111  41.840  46.755  1.00  0.00    +0.000 C 
ATOM     57  F6  UNL A   1      31.102  42.163  45.932  1.00  0.00    +0.000 F 
ATOM     58  C43 UNL A   1      33.132  42.762  46.962  1.00  0.00    +0.000 C 
ATOM     59  F7  UNL A   1      33.098  43.947  46.337  1.00  0.00    +0.000 F 
ATOM     60  C44 UNL A   1      34.191  42.453  47.803  1.00  0.00    +0.000 C 
ATOM     61  F8  UNL A   1      35.170  43.346  48.005  1.00  0.00    +0.000 F 
ATOM     62  C45 UNL A   1      34.239  41.216  48.427  1.00  0.00    +0.000 C 
ATOM     63  F9  UNL A   1      35.256  40.920  49.248  1.00  0.00    +0.000 F 
ATOM     64  C46 UNL A   1      33.233  40.281  48.202  1.00  0.00    +0.000 C 
ENDBRANCH   54   55
BRANCH   69   70
ATOM     70  C50 UNL A   1      31.431  35.168  43.038  1.00  0.00    +0.000 C 
ATOM     71  C51 UNL A   1      31.353  35.658  41.727  1.00  0.00    +0.000 C 
ATOM     72  F11 UNL A   1      30.483  36.635  41.429  1.00  0.00    +0.000 F 
ATOM     73  C52 UNL A   1      32.136  35.119  40.709  1.00  0.00    +0.000 C 
ATOM     74  F12 UNL A   1      32.011  35.578  39.456  1.00  0.00    +0.000 F 
ATOM     75  C53 UNL A   1      33.033  34.100  40.988  1.00  0.00    +0.000 C 
ATOM     76  F13 UNL A   1      33.790  33.584  40.010  1.00  0.00    +0.000 F 
ATOM     77  C54 UNL A   1      33.140  33.610  42.281  1.00  0.00    +0.000 C 
ATOM     78  F14 UNL A   1      34.015  32.633  42.557  1.00  0.00    +0.000 F 
ATOM     79  C55 UNL A   1      32.338  34.130  43.294  1.00  0.00    +0.000 C 
ATOM     80  F15 UNL A   1      32.453  33.629  44.533  1.00  0.00    +0.000 F 
ENDBRANCH   69   70
TORSDOF 18
ENDMDL
MODEL 7
REMARK VINA RESULT:      -8.5     36.768     41.910
ROOT
ATOM     33  C26 UNL A   1      40.728  27.920  28.461  1.00  0.00    +0.000 C 
ATOM     34  C27 UNL A   1      42.163  28.145  28.847  1.00  0.00    +0.000 C 
ATOM     35  N4  UNL A   1      42.711  29.181  29.432  1.00  0.00    +0.000 N 
ATOM     36  C28 UNL A   1      44.050  28.856  29.597  1.00  0.00    +0.000 C 
ATOM     37  C29 UNL A   1      45.048  29.618  30.105  1.00  0.00    +0.000 C 
ATOM     49  C36 UNL A   1      44.880  30.967  30.580  1.00  0.00    +0.000 C 
ATOM     50  C37 UNL A   1      45.843  31.842  31.052  1.00  0.00    +0.000 C 
ATOM     51  C38 UNL A   1      45.206  33.027  31.438  1.00  0.00    +0.000 C 
ATOM     52  C39 UNL A   1      43.853  32.905  31.165  1.00  0.00    +0.000 C 
ATOM     53  N5  UNL A   1      43.666  31.635  30.642  1.00  0.00    +0.000 N 
ATOM     54  C40 UNL A   1      42.806  33.873  31.369  1.00  0.00    +0.000 C 
ATOM     66  C47 UNL A   1      41.500  33.680  31.062  1.00  0.00    +0.000 C 
ATOM     67  N6  UNL A   1      40.892  32.566  30.500  1.00  0.00    +0.000 N 
ATOM     68  C48 UNL A   1      39.619  32.859  30.407  1.00  0.00    +0.000 C 
ATOM     69  C49 UNL A   1      38.492  32.034  29.847  1.00  0.00    +0.000 C 
ATOM     81  C56 UNL A   1      38.756  30.815  29.340  1.00  0.00    +0.000 C 
ATOM     82  C57 UNL A   1      37.768  29.906  28.764  1.00  0.00    +0.000 C 
ATOM     83  C58 UNL A   1      38.380  28.766  28.405  1.00  0.00    +0.000 C 
ATOM     84  C59 UNL A   1      39.810  28.878  28.693  1.00  0.00    +0.000 C 
ATOM     85  N7  UNL A   1      39.942  30.130  29.241  1.00  0.00    +0.000 N 
ATOM     86  C60 UNL A   1      39.269  34.188  30.930  1.00  0.00    +0.000 C 
ATOM     87  C61 UNL A   1      40.457  34.661  31.280  1.00  0.00    +0.000 C 
ATOM     88  C62 UNL A   1      44.224  27.510  29.094  1.00  0.00    +0.000 C 
ATOM     89  C63 UNL A   1      43.101  27.050  28.560  1.00  0.00    +0.000 C 
ATOM    118  H27 UNL A   1      46.856  31.654  31.109  1.00  0.00    +0.000 H 
ATOM    119  H28 UNL A   1      45.666  33.851  31.855  1.00  0.00    +0.000 H 
ATOM    120  H29 UNL A   1      42.801  31.263  30.358  1.00  0.00    +0.000 H 
ATOM    121  H30 UNL A   1      36.762  30.108  28.651  1.00  0.00    +0.000 H 
ATOM    122  H31 UNL A   1      37.915  27.943  27.991  1.00  0.00    +0.000 H 
ATOM    123  H32 UNL A   1      40.805  30.502  29.533  1.00  0.00    +0.000 H 
ATOM    124  H33 UNL A   1      38.342  34.635  31.005  1.00  0.00    +0.000 H 
ATOM    125  H34 UNL A   1      40.618  35.607  31.660  1.00  0.00    +0.000 H 
ATOM    126  H35 UNL A   1      45.107  26.978  29.144  1.00  0.00    +0.000 H 
ATOM    127  H36 UNL A   1      42.931  26.158  28.072  1.00  0.00    +0.000 H 
ENDROOT
BRANCH   33   32
ATOM    129  H38 UNL A   1      38.668  23.813  28.764  1.00  0.00    +0.000 H 
ATOM    128  H37 UNL A   1      39.338  25.966  29.655  1.00  0.00    +0.000 H 
ATOM    116  H25 UNL A   1      40.344  24.828  25.040  1.00  0.00    +0.000 H 
ATOM    117  H26 UNL A   1      41.192  26.896  25.990  1.00  0.00    +0.000 H 
ATOM     90  C64 UNL A   1      39.567  25.719  28.680  1.00  0.00    +0.000 C 
ATOM     91  C65 UNL A   1      39.146  24.498  28.156  1.00  0.00    +0.000 C 
ATOM     29  C22 UNL A   1      39.374  24.202  26.810  1.00  0.00    +0.000 C 
ATOM     30  C23 UNL A   1      40.135  25.071  26.022  1.00  0.00    +0.000 C 
ATOM     31  C24 UNL A   1      40.610  26.267  26.565  1.00  0.00    +0.000 C 
ATOM     32  C25 UNL A   1      40.301  26.617  27.889  1.00  0.00    +0.000 C 
BRANCH   29   27
ATOM     27  C21 UNL A   1      38.832  22.971  26.191  1.00  0.00    +0.000 C 
ATOM     28  O2  UNL A   1      39.485  21.931  26.239  1.00  0.00    +0.000 O 
BRANCH   27   26
ATOM     26  N3  UNL A   1      37.621  22.996  25.545  1.00  0.00    +0.000 N 
ATOM    115  H24 UNL A   1      37.387  22.172  25.060  1.00  0.00    +0.000 H 
BRANCH   26   25
ATOM     25  C20 UNL A   1      36.633  24.061  25.471  1.00  0.00    +0.000 C 
ATOM    114  H23 UNL A   1      37.014  24.807  24.804  1.00  0.00    +0.000 H 
ATOM    113  H22 UNL A   1      36.477  24.451  26.455  1.00  0.00    +0.000 H 
BRANCH   25   24
ATOM    112  H21 UNL A   1      35.242  23.963  23.912  1.00  0.00    +0.000 H 
ATOM    111  H20 UNL A   1      34.520  23.963  25.552  1.00  0.00    +0.000 H 
ATOM     24  C19 UNL A   1      35.294  23.589  24.914  1.00  0.00    +0.000 C 
BRANCH   24   23
ATOM    109  H18 UNL A   1      34.624  21.858  23.888  1.00  0.00    +0.000 H 
ATOM    110  H19 UNL A   1      36.113  21.662  24.865  1.00  0.00    +0.000 H 
ATOM     23  C18 UNL A   1      35.126  22.072  24.808  1.00  0.00    +0.000 C 
BRANCH   23   22
ATOM    107  H16 UNL A   1      33.321  21.297  25.610  1.00  0.00    +0.000 H 
ATOM    108  H17 UNL A   1      34.829  20.492  26.151  1.00  0.00    +0.000 H 
ATOM     22  C17 UNL A   1      34.331  21.416  25.941  1.00  0.00    +0.000 C 
BRANCH   22   21
ATOM    105  H14 UNL A   1      34.963  21.698  27.951  1.00  0.00    +0.000 H 
ATOM    106  H15 UNL A   1      34.607  23.191  27.035  1.00  0.00    +0.000 H 
ATOM     21  C16 UNL A   1      34.306  22.190  27.266  1.00  0.00    +0.000 C 
BRANCH   21   20
ATOM     20  C15 UNL A   1      32.930  22.296  27.922  1.00  0.00    +0.000 C 
ATOM    103  H12 UNL A   1      32.690  21.361  28.383  1.00  0.00    +0.000 H 
ATOM    104  H13 UNL A   1      32.964  23.079  28.651  1.00  0.00    +0.000 H 
BRANCH   20   19
ATOM     19  N2  UNL A   1      31.907  22.621  26.950  1.00  0.00    +0.000 N 
ATOM    102  H11 UNL A   1      31.325  21.897  26.623  1.00  0.00    +0.000 H 
BRANCH   19    2
ATOM      1  O1  UNL A   1      32.207  24.898  26.965  1.00  0.00    +0.000 O 
ATOM      2  C1  UNL A   1      31.710  23.893  26.463  1.00  0.00    +0.000 C 
BRANCH    2    3
ATOM      3  C2  UNL A   1      30.803  23.970  25.246  1.00  0.00    +0.000 C 
ATOM     92  H1  UNL A   1      30.186  24.840  25.333  1.00  0.00    +0.000 H 
ATOM     93  H2  UNL A   1      30.221  23.073  25.219  1.00  0.00    +0.000 H 
BRANCH    3    4
ATOM     97  H6  UNL A   1      32.939  26.185  21.748  1.00  0.00    +0.000 H 
ATOM      4  C3  UNL A   1      31.576  24.053  23.946  1.00  0.00    +0.000 C 
ATOM      5  C4  UNL A   1      31.980  22.854  23.328  1.00  0.00    +0.000 C 
ATOM      6  C5  UNL A   1      32.727  22.875  22.155  1.00  0.00    +0.000 C 
ATOM      7  C6  UNL A   1      33.080  24.092  21.586  1.00  0.00    +0.000 C 
ATOM      8  C7  UNL A   1      32.677  25.288  22.185  1.00  0.00    +0.000 C 
ATOM      9  C8  UNL A   1      31.922  25.297  23.369  1.00  0.00    +0.000 C 
ATOM     94  H3  UNL A   1      31.716  21.949  23.750  1.00  0.00    +0.000 H 
ATOM     95  H4  UNL A   1      33.018  21.991  21.709  1.00  0.00    +0.000 H 
ATOM     96  H5  UNL A   1      33.641  24.113  20.720  1.00  0.00    +0.000 H 
BRANCH    9   10
ATOM     10  N1  UNL A   1      31.448  26.501  23.950  1.00  0.00    +0.000 N 
ATOM     98  H7  UNL A   1      31.618  26.610  24.914  1.00  0.00    +0.000 H 
BRANCH   10   11
ATOM     99  H8  UNL A   1      27.591  28.633  22.784  1.00  0.00    +0.000 H 
ATOM    100  H9  UNL A   1      28.766  30.513  21.797  1.00  0.00    +0.000 H 
ATOM    101  H10 UNL A   1      31.189  30.524  21.742  1.00  0.00    +0.000 H 
ATOM     11  C9  UNL A   1      30.757  27.572  23.317  1.00  0.00    +0.000 C 
ATOM     12  C10 UNL A   1      29.346  27.588  23.327  1.00  0.00    +0.000 C 
ATOM     13 Cl1  UNL A   1      28.450  26.288  24.041  1.00  0.00    +0.000 Cl
ATOM     14  C11 UNL A   1      28.622  28.648  22.770  1.00  0.00    +0.000 C 
ATOM     15  C12 UNL A   1      29.295  29.723  22.198  1.00  0.00    +0.000 C 
ATOM     16  C13 UNL A   1      30.689  29.730  22.170  1.00  0.00    +0.000 C 
ATOM     17  C14 UNL A   1      31.415  28.664  22.718  1.00  0.00    +0.000 C 
ATOM     18 Cl2  UNL A   1      33.138  28.723  22.546  1.00  0.00    +0.000 Cl
ENDBRANCH   10   11
ENDBRANCH    9   10
ENDBRANCH    3    4
ENDBRANCH    2    3
ENDBRANCH   19    2
ENDBRANCH   20   19
ENDBRANCH   21   20
ENDBRANCH   22   21
ENDBRANCH   23   22
ENDBRANCH   24   23
ENDBRANCH   25   24
ENDBRANCH   26   25
ENDBRANCH   27   26
ENDBRANCH   29   27
ENDBRANCH   33   32
BRANCH   37   38
ATOM     38  C30 UNL A   1      46.419  29.009  30.171  1.00  0.00    +0.000 C 
ATOM     39  C31 UNL A   1      47.321  29.113  29.102  1.00  0.00    +0.000 C 
ATOM     40  F1  UNL A   1      46.957  29.733  27.969  1.00  0.00    +0.000 F 
ATOM     41  C32 UNL A   1      48.591  28.547  29.179  1.00  0.00    +0.000 C 
ATOM     42  F2  UNL A   1      49.418  28.617  28.127  1.00  0.00    +0.000 F 
ATOM     43  C33 UNL A   1      48.995  27.896  30.335  1.00  0.00    +0.000 C 
ATOM     44  F3  UNL A   1      50.218  27.355  30.408  1.00  0.00    +0.000 F 
ATOM     45  C34 UNL A   1      48.128  27.801  31.413  1.00  0.00    +0.000 C 
ATOM     46  F4  UNL A   1      48.521  27.183  32.534  1.00  0.00    +0.000 F 
ATOM     47  C35 UNL A   1      46.847  28.342  31.329  1.00  0.00    +0.000 C 
ATOM     48  F5  UNL A   1      46.025  28.219  32.383  1.00  0.00    +0.000 F 
ENDBRANCH   37   38
BRANCH   54   55
ATOM     65  F10 UNL A   1      43.711  36.044  29.775  1.00  0.00    +0.000 F 
ATOM     55  C41 UNL A   1      43.188  35.207  31.941  1.00  0.00    +0.000 C 
ATOM     56  C42 UNL A   1      43.138  35.457  33.320  1.00  0.00    +0.000 C 
ATOM     57  F6  UNL A   1      42.695  34.511  34.161  1.00  0.00    +0.000 F 
ATOM     58  C43 UNL A   1      43.511  36.695  33.835  1.00  0.00    +0.000 C 
ATOM     59  F7  UNL A   1      43.415  36.926  35.151  1.00  0.00    +0.000 F 
ATOM     60  C44 UNL A   1      43.967  37.694  32.988  1.00  0.00    +0.000 C 
ATOM     61  F8  UNL A   1      44.330  38.883  33.488  1.00  0.00    +0.000 F 
ATOM     62  C45 UNL A   1      44.038  37.463  31.623  1.00  0.00    +0.000 C 
ATOM     63  F9  UNL A   1      44.489  38.424  30.804  1.00  0.00    +0.000 F 
ATOM     64  C46 UNL A   1      43.642  36.235  31.101  1.00  0.00    +0.000 C 
ENDBRANCH   54   55
BRANCH   69   70
ATOM     70  C50 UNL A   1      37.104  32.564  29.820  1.00  0.00    +0.000 C 
ATOM     71  C51 UNL A   1      36.227  32.326  30.886  1.00  0.00    +0.000 C 
ATOM     72  F11 UNL A   1      36.632  31.596  31.937  1.00  0.00    +0.000 F 
ATOM     73  C52 UNL A   1      34.918  32.802  30.860  1.00  0.00    +0.000 C 
ATOM     74  F12 UNL A   1      34.086  32.525  31.874  1.00  0.00    +0.000 F 
ATOM     75  C53 UNL A   1      34.470  33.548  29.781  1.00  0.00    +0.000 C 
ATOM     76  F13 UNL A   1      33.212  34.008  29.758  1.00  0.00    +0.000 F 
ATOM     77  C54 UNL A   1      35.326  33.809  28.722  1.00  0.00    +0.000 C 
ATOM     78  F14 UNL A   1      34.901  34.540  27.682  1.00  0.00    +0.000 F 
ATOM     79  C55 UNL A   1      36.627  33.312  28.735  1.00  0.00    +0.000 C 
ATOM     80  F15 UNL A   1      37.430  33.570  27.691  1.00  0.00    +0.000 F 
ENDBRANCH   69   70
TORSDOF 18
ENDMDL
MODEL 8
REMARK VINA RESULT:      -8.4     26.889     33.334
ROOT
ATOM     33  C26 UNL A   1      18.851  19.983   4.813  1.00  0.00    +0.000 C 
ATOM     34  C27 UNL A   1      17.594  20.607   5.350  1.00  0.00    +0.000 C 
ATOM     35  N4  UNL A   1      16.796  20.180   6.297  1.00  0.00    +0.000 N 
ATOM     36  C28 UNL A   1      15.814  21.151   6.429  1.00  0.00    +0.000 C 
ATOM     37  C29 UNL A   1      14.727  21.150   7.238  1.00  0.00    +0.000 C 
ATOM     49  C36 UNL A   1      14.388  20.081   8.142  1.00  0.00    +0.000 C 
ATOM     50  C37 UNL A   1      13.275  19.959   8.956  1.00  0.00    +0.000 C 
ATOM     51  C38 UNL A   1      13.396  18.772   9.688  1.00  0.00    +0.000 C 
ATOM     52  C39 UNL A   1      14.562  18.135   9.298  1.00  0.00    +0.000 C 
ATOM     53  N5  UNL A   1      15.163  18.950   8.352  1.00  0.00    +0.000 N 
ATOM     54  C40 UNL A   1      15.093  16.877   9.756  1.00  0.00    +0.000 C 
ATOM     66  C47 UNL A   1      16.243  16.311   9.312  1.00  0.00    +0.000 C 
ATOM     67  N6  UNL A   1      17.132  16.780   8.356  1.00  0.00    +0.000 N 
ATOM     68  C48 UNL A   1      18.088  15.888   8.285  1.00  0.00    +0.000 C 
ATOM     69  C49 UNL A   1      19.302  15.864   7.396  1.00  0.00    +0.000 C 
ATOM     81  C56 UNL A   1      19.493  16.863   6.513  1.00  0.00    +0.000 C 
ATOM     82  C57 UNL A   1      20.619  16.972   5.590  1.00  0.00    +0.000 C 
ATOM     83  C58 UNL A   1      20.507  18.117   4.897  1.00  0.00    +0.000 C 
ATOM     84  C59 UNL A   1      19.281  18.805   5.303  1.00  0.00    +0.000 C 
ATOM     85  N7  UNL A   1      18.741  17.984   6.261  1.00  0.00    +0.000 N 
ATOM     86  C60 UNL A   1      17.927  14.761   9.215  1.00  0.00    +0.000 C 
ATOM     87  C61 UNL A   1      16.767  15.048   9.789  1.00  0.00    +0.000 C 
ATOM     88  C62 UNL A   1      16.139  22.211   5.499  1.00  0.00    +0.000 C 
ATOM     89  C63 UNL A   1      17.194  21.894   4.762  1.00  0.00    +0.000 C 
ATOM    118  H27 UNL A   1      12.491  20.627   9.013  1.00  0.00    +0.000 H 
ATOM    119  H28 UNL A   1      12.729  18.431  10.397  1.00  0.00    +0.000 H 
ATOM    120  H29 UNL A   1      16.014  18.756   7.897  1.00  0.00    +0.000 H 
ATOM    121  H30 UNL A   1      21.378  16.281   5.486  1.00  0.00    +0.000 H 
ATOM    122  H31 UNL A   1      21.177  18.456   4.190  1.00  0.00    +0.000 H 
ATOM    123  H32 UNL A   1      17.894  18.180   6.723  1.00  0.00    +0.000 H 
ATOM    124  H33 UNL A   1      18.553  13.957   9.378  1.00  0.00    +0.000 H 
ATOM    125  H34 UNL A   1      16.299  14.449  10.485  1.00  0.00    +0.000 H 
ATOM    126  H35 UNL A   1      15.617  23.098   5.420  1.00  0.00    +0.000 H 
ATOM    127  H36 UNL A   1      17.623  22.415   3.982  1.00  0.00    +0.000 H 
ENDROOT
BRANCH   33   32
ATOM    129  H38 UNL A   1      19.900  21.060   0.460  1.00  0.00    +0.000 H 
ATOM    128  H37 UNL A   1      18.562  19.949   2.149  1.00  0.00    +0.000 H 
ATOM    116  H25 UNL A   1      22.220  22.858   3.475  1.00  0.00    +0.000 H 
ATOM    117  H26 UNL A   1      21.013  21.588   5.156  1.00  0.00    +0.000 H 
ATOM     90  C64 UNL A   1      19.349  20.553   2.432  1.00  0.00    +0.000 C 
ATOM     91  C65 UNL A   1      20.092  21.223   1.461  1.00  0.00    +0.000 C 
ATOM     29  C22 UNL A   1      21.097  22.115   1.847  1.00  0.00    +0.000 C 
ATOM     30  C23 UNL A   1      21.445  22.237   3.196  1.00  0.00    +0.000 C 
ATOM     31  C24 UNL A   1      20.741  21.517   4.163  1.00  0.00    +0.000 C 
ATOM     32  C25 UNL A   1      19.664  20.695   3.793  1.00  0.00    +0.000 C 
BRANCH   29   27
ATOM     27  C21 UNL A   1      21.820  22.935   0.848  1.00  0.00    +0.000 C 
ATOM     28  O2  UNL A   1      22.181  22.424  -0.208  1.00  0.00    +0.000 O 
BRANCH   27   26
ATOM     26  N3  UNL A   1      22.110  24.250   1.113  1.00  0.00    +0.000 N 
ATOM    115  H24 UNL A   1      23.069  24.463   1.185  1.00  0.00    +0.000 H 
BRANCH   26   25
ATOM     25  C20 UNL A   1      21.210  25.377   1.303  1.00  0.00    +0.000 C 
ATOM    114  H23 UNL A   1      20.987  25.438   2.348  1.00  0.00    +0.000 H 
ATOM    113  H22 UNL A   1      20.329  25.213   0.718  1.00  0.00    +0.000 H 
BRANCH   25   24
ATOM    112  H21 UNL A   1      21.287  27.030   0.023  1.00  0.00    +0.000 H 
ATOM    111  H20 UNL A   1      22.872  26.543   0.703  1.00  0.00    +0.000 H 
ATOM     24  C19 UNL A   1      21.830  26.708   0.887  1.00  0.00    +0.000 C 
BRANCH   24   23
ATOM    109  H18 UNL A   1      20.893  27.603   2.565  1.00  0.00    +0.000 H 
ATOM    110  H19 UNL A   1      22.654  27.894   2.405  1.00  0.00    +0.000 H 
ATOM     23  C18 UNL A   1      21.705  27.837   1.911  1.00  0.00    +0.000 C 
BRANCH   23   22
ATOM    107  H16 UNL A   1      22.060  29.929   1.863  1.00  0.00    +0.000 H 
ATOM    108  H17 UNL A   1      21.693  29.159   0.286  1.00  0.00    +0.000 H 
ATOM     22  C17 UNL A   1      21.452  29.231   1.327  1.00  0.00    +0.000 C 
BRANCH   22   21
ATOM    105  H14 UNL A   1      19.390  29.023   0.858  1.00  0.00    +0.000 H 
ATOM    106  H15 UNL A   1      19.753  29.795   2.429  1.00  0.00    +0.000 H 
ATOM     21  C16 UNL A   1      20.000  29.721   1.390  1.00  0.00    +0.000 C 
BRANCH   21   20
ATOM     20  C15 UNL A   1      19.764  31.108   0.793  1.00  0.00    +0.000 C 
ATOM    103  H12 UNL A   1      18.942  31.570   1.297  1.00  0.00    +0.000 H 
ATOM    104  H13 UNL A   1      20.657  31.686   0.919  1.00  0.00    +0.000 H 
BRANCH   20   19
ATOM     19  N2  UNL A   1      19.467  31.029  -0.621  1.00  0.00    +0.000 N 
ATOM    102  H11 UNL A   1      18.629  30.594  -0.901  1.00  0.00    +0.000 H 
BRANCH   19    2
ATOM      1  O1  UNL A   1      20.625  32.716  -1.665  1.00  0.00    +0.000 O 
ATOM      2  C1  UNL A   1      20.300  31.534  -1.594  1.00  0.00    +0.000 C 
BRANCH    2    3
ATOM      3  C2  UNL A   1      20.788  30.508  -2.604  1.00  0.00    +0.000 C 
ATOM     92  H1  UNL A   1      20.991  31.007  -3.529  1.00  0.00    +0.000 H 
ATOM     93  H2  UNL A   1      20.020  29.771  -2.713  1.00  0.00    +0.000 H 
BRANCH    3    4
ATOM     97  H6  UNL A   1      23.646  26.851  -2.207  1.00  0.00    +0.000 H 
ATOM      4  C3  UNL A   1      22.045  29.795  -2.152  1.00  0.00    +0.000 C 
ATOM      5  C4  UNL A   1      23.027  30.536  -1.467  1.00  0.00    +0.000 C 
ATOM      6  C5  UNL A   1      24.218  29.939  -1.066  1.00  0.00    +0.000 C 
ATOM      7  C6  UNL A   1      24.442  28.596  -1.344  1.00  0.00    +0.000 C 
ATOM      8  C7  UNL A   1      23.471  27.849  -2.015  1.00  0.00    +0.000 C 
ATOM      9  C8  UNL A   1      22.260  28.425  -2.431  1.00  0.00    +0.000 C 
ATOM     94  H3  UNL A   1      22.861  31.533  -1.259  1.00  0.00    +0.000 H 
ATOM     95  H4  UNL A   1      24.932  30.490  -0.564  1.00  0.00    +0.000 H 
ATOM     96  H5  UNL A   1      25.327  28.151  -1.056  1.00  0.00    +0.000 H 
BRANCH    9   10
ATOM     10  N1  UNL A   1      21.237  27.662  -3.050  1.00  0.00    +0.000 N 
ATOM     98  H7  UNL A   1      20.864  28.036  -3.881  1.00  0.00    +0.000 H 
BRANCH   10   11
ATOM     99  H8  UNL A   1      17.963  25.254  -0.984  1.00  0.00    +0.000 H 
ATOM    100  H9  UNL A   1      18.970  23.125  -1.567  1.00  0.00    +0.000 H 
ATOM    101  H10 UNL A   1      21.065  23.076  -2.786  1.00  0.00    +0.000 H 
ATOM     11  C9  UNL A   1      20.680  26.425  -2.622  1.00  0.00    +0.000 C 
ATOM     12  C10 UNL A   1      19.465  26.422  -1.904  1.00  0.00    +0.000 C 
ATOM     13 Cl1  UNL A   1      18.683  27.910  -1.482  1.00  0.00    +0.000 Cl
ATOM     14  C11 UNL A   1      18.847  25.229  -1.514  1.00  0.00    +0.000 C 
ATOM     15  C12 UNL A   1      19.428  24.008  -1.842  1.00  0.00    +0.000 C 
ATOM     16  C13 UNL A   1      20.631  23.981  -2.545  1.00  0.00    +0.000 C 
ATOM     17  C14 UNL A   1      21.256  25.175  -2.928  1.00  0.00    +0.000 C 
ATOM     18 Cl2  UNL A   1      22.794  25.035  -3.714  1.00  0.00    +0.000 Cl
ENDBRANCH   10   11
ENDBRANCH    9   10
ENDBRANCH    3    4
ENDBRANCH    2    3
ENDBRANCH   19    2
ENDBRANCH   20   19
ENDBRANCH   21   20
ENDBRANCH   22   21
ENDBRANCH   23   22
ENDBRANCH   24   23
ENDBRANCH   25   24
ENDBRANCH   26   25
ENDBRANCH   27   26
ENDBRANCH   29   27
ENDBRANCH   33   32
BRANCH   37   38
ATOM     38  C30 UNL A   1      13.819  22.343   7.180  1.00  0.00    +0.000 C 
ATOM     39  C31 UNL A   1      12.819  22.460   6.203  1.00  0.00    +0.000 C 
ATOM     40  F1  UNL A   1      12.681  21.511   5.264  1.00  0.00    +0.000 F 
ATOM     41  C32 UNL A   1      11.982  23.571   6.163  1.00  0.00    +0.000 C 
ATOM     42  F2  UNL A   1      11.066  23.683   5.191  1.00  0.00    +0.000 F 
ATOM     43  C33 UNL A   1      12.104  24.570   7.117  1.00  0.00    +0.000 C 
ATOM     44  F3  UNL A   1      11.294  25.636   7.079  1.00  0.00    +0.000 F 
ATOM     45  C34 UNL A   1      13.070  24.465   8.106  1.00  0.00    +0.000 C 
ATOM     46  F4  UNL A   1      13.181  25.423   9.036  1.00  0.00    +0.000 F 
ATOM     47  C35 UNL A   1      13.928  23.368   8.132  1.00  0.00    +0.000 C 
ATOM     48  F5  UNL A   1      14.863  23.304   9.092  1.00  0.00    +0.000 F 
ENDBRANCH   37   38
BRANCH   54   55
ATOM     65  F10 UNL A   1      15.431  17.243  12.553  1.00  0.00    +0.000 F 
ATOM     55  C41 UNL A   1      14.306  16.117  10.783  1.00  0.00    +0.000 C 
ATOM     56  C42 UNL A   1      13.357  15.152  10.416  1.00  0.00    +0.000 C 
ATOM     57  F6  UNL A   1      13.095  14.922   9.121  1.00  0.00    +0.000 F 
ATOM     58  C43 UNL A   1      12.646  14.445  11.383  1.00  0.00    +0.000 C 
ATOM     59  F7  UNL A   1      11.714  13.558  11.010  1.00  0.00    +0.000 F 
ATOM     60  C44 UNL A   1      12.892  14.667  12.729  1.00  0.00    +0.000 C 
ATOM     61  F8  UNL A   1      12.211  13.981  13.657  1.00  0.00    +0.000 F 
ATOM     62  C45 UNL A   1      13.837  15.606  13.114  1.00  0.00    +0.000 C 
ATOM     63  F9  UNL A   1      14.083  15.814  14.415  1.00  0.00    +0.000 F 
ATOM     64  C46 UNL A   1      14.530  16.333  12.151  1.00  0.00    +0.000 C 
ENDBRANCH   54   55
BRANCH   69   70
ATOM     70  C50 UNL A   1      20.268  14.737   7.461  1.00  0.00    +0.000 C 
ATOM     71  C51 UNL A   1      20.081  13.589   6.680  1.00  0.00    +0.000 C 
ATOM     72  F11 UNL A   1      19.010  13.491   5.879  1.00  0.00    +0.000 F 
ATOM     73  C52 UNL A   1      20.971  12.519   6.751  1.00  0.00    +0.000 C 
ATOM     74  F12 UNL A   1      20.747  11.415   6.024  1.00  0.00    +0.000 F 
ATOM     75  C53 UNL A   1      22.079  12.590   7.581  1.00  0.00    +0.000 C 
ATOM     76  F13 UNL A   1      22.937  11.562   7.645  1.00  0.00    +0.000 F 
ATOM     77  C54 UNL A   1      22.293  13.723   8.350  1.00  0.00    +0.000 C 
ATOM     78  F14 UNL A   1      23.369  13.800   9.145  1.00  0.00    +0.000 F 
ATOM     79  C55 UNL A   1      21.390  14.783   8.300  1.00  0.00    +0.000 C 
ATOM     80  F15 UNL A   1      21.615  15.862   9.064  1.00  0.00    +0.000 F 
ENDBRANCH   69   70
TORSDOF 18
ENDMDL
MODEL 9
REMARK VINA RESULT:      -8.4     39.409     44.650
ROOT
ATOM     33  C26 UNL A   1      40.383  28.279  29.681  1.00  0.00    +0.000 C 
ATOM     34  C27 UNL A   1      41.708  28.326  30.388  1.00  0.00    +0.000 C 
ATOM     35  N4  UNL A   1      42.172  29.227  31.218  1.00  0.00    +0.000 N 
ATOM     36  C28 UNL A   1      43.420  28.767  31.614  1.00  0.00    +0.000 C 
ATOM     37  C29 UNL A   1      44.324  29.368  32.425  1.00  0.00    +0.000 C 
ATOM     49  C36 UNL A   1      44.134  30.656  33.041  1.00  0.00    +0.000 C 
ATOM     50  C37 UNL A   1      45.018  31.376  33.826  1.00  0.00    +0.000 C 
ATOM     51  C38 UNL A   1      44.381  32.553  34.234  1.00  0.00    +0.000 C 
ATOM     52  C39 UNL A   1      43.118  32.586  33.668  1.00  0.00    +0.000 C 
ATOM     53  N5  UNL A   1      42.977  31.414  32.941  1.00  0.00    +0.000 N 
ATOM     54  C40 UNL A   1      42.109  33.609  33.783  1.00  0.00    +0.000 C 
ATOM     66  C47 UNL A   1      40.894  33.572  33.182  1.00  0.00    +0.000 C 
ATOM     67  N6  UNL A   1      40.361  32.596  32.352  1.00  0.00    +0.000 N 
ATOM     68  C48 UNL A   1      39.159  33.008  32.035  1.00  0.00    +0.000 C 
ATOM     69  C49 UNL A   1      38.138  32.363  31.138  1.00  0.00    +0.000 C 
ATOM     81  C56 UNL A   1      38.437  31.200  30.529  1.00  0.00    +0.000 C 
ATOM     82  C57 UNL A   1      37.549  30.462  29.634  1.00  0.00    +0.000 C 
ATOM     83  C58 UNL A   1      38.158  29.327  29.253  1.00  0.00    +0.000 C 
ATOM     84  C59 UNL A   1      39.494  29.276  29.849  1.00  0.00    +0.000 C 
ATOM     85  N7  UNL A   1      39.574  30.432  30.585  1.00  0.00    +0.000 N 
ATOM     86  C60 UNL A   1      38.781  34.285  32.657  1.00  0.00    +0.000 C 
ATOM     87  C61 UNL A   1      39.888  34.604  33.314  1.00  0.00    +0.000 C 
ATOM     88  C62 UNL A   1      43.623  27.487  30.972  1.00  0.00    +0.000 C 
ATOM     89  C63 UNL A   1      42.621  27.199  30.152  1.00  0.00    +0.000 C 
ATOM    118  H27 UNL A   1      45.980  31.094  34.068  1.00  0.00    +0.000 H 
ATOM    119  H28 UNL A   1      44.785  33.274  34.852  1.00  0.00    +0.000 H 
ATOM    120  H29 UNL A   1      42.177  31.159  32.430  1.00  0.00    +0.000 H 
ATOM    121  H30 UNL A   1      36.607  30.764  29.342  1.00  0.00    +0.000 H 
ATOM    122  H31 UNL A   1      37.750  28.607  28.636  1.00  0.00    +0.000 H 
ATOM    123  H32 UNL A   1      40.371  30.687  31.103  1.00  0.00    +0.000 H 
ATOM    124  H33 UNL A   1      37.887  34.799  32.599  1.00  0.00    +0.000 H 
ATOM    125  H34 UNL A   1      40.015  35.476  33.851  1.00  0.00    +0.000 H 
ATOM    126  H35 UNL A   1      44.441  26.877  31.130  1.00  0.00    +0.000 H 
ATOM    127  H36 UNL A   1      42.512  26.394  29.517  1.00  0.00    +0.000 H 
ENDROOT
BRANCH   33   32
ATOM    129  H38 UNL A   1      38.568  24.082  29.131  1.00  0.00    +0.000 H 
ATOM    128  H37 UNL A   1      39.134  26.036  30.450  1.00  0.00    +0.000 H 
ATOM    116  H25 UNL A   1      40.098  25.956  25.689  1.00  0.00    +0.000 H 
ATOM    117  H26 UNL A   1      40.848  27.826  27.045  1.00  0.00    +0.000 H 
ATOM     90  C64 UNL A   1      39.355  26.015  29.443  1.00  0.00    +0.000 C 
ATOM     91  C65 UNL A   1      38.992  24.907  28.677  1.00  0.00    +0.000 C 
ATOM     29  C22 UNL A   1      39.205  24.915  27.296  1.00  0.00    +0.000 C 
ATOM     30  C23 UNL A   1      39.898  25.975  26.702  1.00  0.00    +0.000 C 
ATOM     31  C24 UNL A   1      40.316  27.056  27.480  1.00  0.00    +0.000 C 
ATOM     32  C25 UNL A   1      40.018  27.101  28.851  1.00  0.00    +0.000 C 
BRANCH   29   27
ATOM     27  C21 UNL A   1      38.720  23.810  26.438  1.00  0.00    +0.000 C 
ATOM     28  O2  UNL A   1      37.907  24.047  25.549  1.00  0.00    +0.000 O 
BRANCH   27   26
ATOM     26  N3  UNL A   1      39.155  22.526  26.652  1.00  0.00    +0.000 N 
ATOM    115  H24 UNL A   1      38.493  21.822  26.465  1.00  0.00    +0.000 H 
BRANCH   26   25
ATOM     25  C20 UNL A   1      40.450  22.052  27.114  1.00  0.00    +0.000 C 
ATOM    114  H23 UNL A   1      40.310  21.064  27.503  1.00  0.00    +0.000 H 
ATOM    113  H22 UNL A   1      40.814  22.726  27.862  1.00  0.00    +0.000 H 
BRANCH   25   24
ATOM    112  H21 UNL A   1      42.012  22.891  26.005  1.00  0.00    +0.000 H 
ATOM    111  H20 UNL A   1      40.960  21.776  25.078  1.00  0.00    +0.000 H 
ATOM     24  C19 UNL A   1      41.482  21.962  25.994  1.00  0.00    +0.000 C 
BRANCH   24   23
ATOM    109  H18 UNL A   1      42.726  20.749  27.210  1.00  0.00    +0.000 H 
ATOM    110  H19 UNL A   1      42.139  19.996  25.694  1.00  0.00    +0.000 H 
ATOM     23  C18 UNL A   1      42.540  20.870  26.164  1.00  0.00    +0.000 C 
BRANCH   23   22
ATOM    107  H16 UNL A   1      44.633  21.212  26.234  1.00  0.00    +0.000 H 
ATOM    108  H17 UNL A   1      44.030  20.327  24.796  1.00  0.00    +0.000 H 
ATOM     22  C17 UNL A   1      43.881  21.140  25.475  1.00  0.00    +0.000 C 
BRANCH   22   21
ATOM    105  H14 UNL A   1      43.376  22.249  23.734  1.00  0.00    +0.000 H 
ATOM    106  H15 UNL A   1      43.554  23.203  25.235  1.00  0.00    +0.000 H 
ATOM     21  C16 UNL A   1      43.944  22.415  24.625  1.00  0.00    +0.000 C 
BRANCH   21   20
ATOM     20  C15 UNL A   1      45.352  22.846  24.216  1.00  0.00    +0.000 C 
ATOM    103  H12 UNL A   1      46.066  22.226  24.715  1.00  0.00    +0.000 H 
ATOM    104  H13 UNL A   1      45.440  22.745  23.154  1.00  0.00    +0.000 H 
BRANCH   20   19
ATOM     19  N2  UNL A   1      45.602  24.229  24.565  1.00  0.00    +0.000 N 
ATOM    102  H11 UNL A   1      44.860  24.872  24.490  1.00  0.00    +0.000 H 
BRANCH   19    2
ATOM      1  O1  UNL A   1      47.789  24.857  24.256  1.00  0.00    +0.000 O 
ATOM      2  C1  UNL A   1      46.826  24.686  24.998  1.00  0.00    +0.000 C 
BRANCH    2    3
ATOM      3  C2  UNL A   1      46.909  24.952  26.492  1.00  0.00    +0.000 C 
ATOM     92  H1  UNL A   1      47.171  25.979  26.643  1.00  0.00    +0.000 H 
ATOM     93  H2  UNL A   1      47.646  24.292  26.899  1.00  0.00    +0.000 H 
BRANCH    3    4
ATOM     97  H6  UNL A   1      42.510  25.856  27.734  1.00  0.00    +0.000 H 
ATOM      4  C3  UNL A   1      45.603  24.675  27.208  1.00  0.00    +0.000 C 
ATOM      5  C4  UNL A   1      45.480  23.480  27.943  1.00  0.00    +0.000 C 
ATOM      6  C5  UNL A   1      44.289  23.158  28.584  1.00  0.00    +0.000 C 
ATOM      7  C6  UNL A   1      43.207  24.025  28.500  1.00  0.00    +0.000 C 
ATOM      8  C7  UNL A   1      43.319  25.218  27.781  1.00  0.00    +0.000 C 
ATOM      9  C8  UNL A   1      44.509  25.568  27.125  1.00  0.00    +0.000 C 
ATOM     94  H3  UNL A   1      46.285  22.837  28.007  1.00  0.00    +0.000 H 
ATOM     95  H4  UNL A   1      44.209  22.280  29.121  1.00  0.00    +0.000 H 
ATOM     96  H5  UNL A   1      42.318  23.787  28.967  1.00  0.00    +0.000 H 
BRANCH    9   10
ATOM     10  N1  UNL A   1      44.660  26.808  26.450  1.00  0.00    +0.000 N 
ATOM     98  H7  UNL A   1      44.967  26.754  25.516  1.00  0.00    +0.000 H 
BRANCH   10   11
ATOM     99  H8  UNL A   1      42.227  30.661  26.585  1.00  0.00    +0.000 H 
ATOM    100  H9  UNL A   1      43.571  31.609  28.369  1.00  0.00    +0.000 H 
ATOM    101  H10 UNL A   1      45.467  30.373  29.237  1.00  0.00    +0.000 H 
ATOM     11  C9  UNL A   1      44.425  28.118  26.953  1.00  0.00    +0.000 C 
ATOM     12  C10 UNL A   1      43.333  28.864  26.461  1.00  0.00    +0.000 C 
ATOM     13 Cl1  UNL A   1      42.320  28.230  25.207  1.00  0.00    +0.000 Cl
ATOM     14  C11 UNL A   1      43.026  30.132  26.967  1.00  0.00    +0.000 C 
ATOM     15  C12 UNL A   1      43.801  30.680  27.985  1.00  0.00    +0.000 C 
ATOM     16  C13 UNL A   1      44.889  29.966  28.485  1.00  0.00    +0.000 C 
ATOM     17  C14 UNL A   1      45.204  28.701  27.973  1.00  0.00    +0.000 C 
ATOM     18 Cl2  UNL A   1      46.630  27.939  28.595  1.00  0.00    +0.000 Cl
ENDBRANCH   10   11
ENDBRANCH    9   10
ENDBRANCH    3    4
ENDBRANCH    2    3
ENDBRANCH   19    2
ENDBRANCH   20   19
ENDBRANCH   21   20
ENDBRANCH   22   21
ENDBRANCH   23   22
ENDBRANCH   24   23
ENDBRANCH   25   24
ENDBRANCH   26   25
ENDBRANCH   27   26
ENDBRANCH   29   27
ENDBRANCH   33   32
BRANCH   37   38
ATOM     38  C30 UNL A   1      45.608  28.638  32.690  1.00  0.00    +0.000 C 
ATOM     39  C31 UNL A   1      45.684  27.604  33.636  1.00  0.00    +0.000 C 
ATOM     40  F1  UNL A   1      44.604  27.272  34.360  1.00  0.00    +0.000 F 
ATOM     41  C32 UNL A   1      46.881  26.933  33.869  1.00  0.00    +0.000 C 
ATOM     42  F2  UNL A   1      46.941  25.982  34.812  1.00  0.00    +0.000 F 
ATOM     43  C33 UNL A   1      48.015  27.256  33.139  1.00  0.00    +0.000 C 
ATOM     44  F3  UNL A   1      49.165  26.606  33.362  1.00  0.00    +0.000 F 
ATOM     45  C34 UNL A   1      47.958  28.259  32.183  1.00  0.00    +0.000 C 
ATOM     46  F4  UNL A   1      49.050  28.564  31.469  1.00  0.00    +0.000 F 
ATOM     47  C35 UNL A   1      46.770  28.952  31.967  1.00  0.00    +0.000 C 
ATOM     48  F5  UNL A   1      46.750  29.927  31.046  1.00  0.00    +0.000 F 
ENDBRANCH   37   38
BRANCH   54   55
ATOM     65  F10 UNL A   1      43.155  36.007  32.675  1.00  0.00    +0.000 F 
ATOM     55  C41 UNL A   1      42.432  34.820  34.607  1.00  0.00    +0.000 C 
ATOM     56  C42 UNL A   1      42.252  34.832  35.998  1.00  0.00    +0.000 C 
ATOM     57  F6  UNL A   1      41.733  33.763  36.620  1.00  0.00    +0.000 F 
ATOM     58  C43 UNL A   1      42.571  35.960  36.749  1.00  0.00    +0.000 C 
ATOM     59  F7  UNL A   1      42.351  35.964  38.071  1.00  0.00    +0.000 F 
ATOM     60  C44 UNL A   1      43.102  37.082  36.132  1.00  0.00    +0.000 C 
ATOM     61  F8  UNL A   1      43.414  38.164  36.859  1.00  0.00    +0.000 F 
ATOM     62  C45 UNL A   1      43.303  37.086  34.760  1.00  0.00    +0.000 C 
ATOM     63  F9  UNL A   1      43.827  38.165  34.163  1.00  0.00    +0.000 F 
ATOM     64  C46 UNL A   1      42.961  35.970  34.001  1.00  0.00    +0.000 C 
ENDBRANCH   54   55
BRANCH   69   70
ATOM     70  C50 UNL A   1      36.824  33.012  30.895  1.00  0.00    +0.000 C 
ATOM     71  C51 UNL A   1      35.818  32.976  31.870  1.00  0.00    +0.000 C 
ATOM     72  F11 UNL A   1      36.030  32.334  33.028  1.00  0.00    +0.000 F 
ATOM     73  C52 UNL A   1      34.575  33.564  31.642  1.00  0.00    +0.000 C 
ATOM     74  F12 UNL A   1      33.617  33.480  32.575  1.00  0.00    +0.000 F 
ATOM     75  C53 UNL A   1      34.326  34.223  30.448  1.00  0.00    +0.000 C 
ATOM     76  F13 UNL A   1      33.132  34.792  30.231  1.00  0.00    +0.000 F 
ATOM     77  C54 UNL A   1      35.312  34.285  29.476  1.00  0.00    +0.000 C 
ATOM     78  F14 UNL A   1      35.079  34.931  28.325  1.00  0.00    +0.000 F 
ATOM     79  C55 UNL A   1      36.546  33.675  29.692  1.00  0.00    +0.000 C 
ATOM     80  F15 UNL A   1      37.478  33.740  28.729  1.00  0.00    +0.000 F 
ENDBRANCH   69   70
TORSDOF 18
ENDMDL
MODEL 10
REMARK VINA RESULT:      -8.4     43.375     47.135
ROOT
ATOM     33  C26 UNL A   1      25.756  35.072  45.499  1.00  0.00    +0.000 C 
ATOM     34  C27 UNL A   1      25.499  36.201  46.457  1.00  0.00    +0.000 C 
ATOM     35  N4  UNL A   1      26.277  37.202  46.786  1.00  0.00    +0.000 N 
ATOM     36  C28 UNL A   1      25.541  37.977  47.671  1.00  0.00    +0.000 C 
ATOM     37  C29 UNL A   1      25.924  39.093  48.337  1.00  0.00    +0.000 C 
ATOM     49  C36 UNL A   1      27.230  39.692  48.237  1.00  0.00    +0.000 C 
ATOM     50  C37 UNL A   1      27.732  40.786  48.921  1.00  0.00    +0.000 C 
ATOM     51  C38 UNL A   1      29.034  41.025  48.466  1.00  0.00    +0.000 C 
ATOM     52  C39 UNL A   1      29.356  40.056  47.531  1.00  0.00    +0.000 C 
ATOM     53  N5  UNL A   1      28.239  39.246  47.397  1.00  0.00    +0.000 N 
ATOM     54  C40 UNL A   1      30.590  39.881  46.809  1.00  0.00    +0.000 C 
ATOM     66  C47 UNL A   1      30.833  38.891  45.914  1.00  0.00    +0.000 C 
ATOM     67  N6  UNL A   1      29.998  37.860  45.507  1.00  0.00    +0.000 N 
ATOM     68  C48 UNL A   1      30.678  37.172  44.625  1.00  0.00    +0.000 C 
ATOM     69  C49 UNL A   1      30.280  35.931  43.874  1.00  0.00    +0.000 C 
ATOM     81  C56 UNL A   1      29.069  35.386  44.097  1.00  0.00    +0.000 C 
ATOM     82  C57 UNL A   1      28.548  34.187  43.445  1.00  0.00    +0.000 C 
ATOM     83  C58 UNL A   1      27.295  33.965  43.875  1.00  0.00    +0.000 C 
ATOM     84  C59 UNL A   1      26.938  34.987  44.860  1.00  0.00    +0.000 C 
ATOM     85  N7  UNL A   1      28.054  35.783  44.933  1.00  0.00    +0.000 N 
ATOM     86  C60 UNL A   1      32.019  37.710  44.350  1.00  0.00    +0.000 C 
ATOM     87  C61 UNL A   1      32.077  38.734  45.190  1.00  0.00    +0.000 C 
ATOM     88  C62 UNL A   1      24.239  37.359  47.793  1.00  0.00    +0.000 C 
ATOM     89  C63 UNL A   1      24.183  36.222  47.113  1.00  0.00    +0.000 C 
ATOM    118  H27 UNL A   1      27.234  41.329  49.642  1.00  0.00    +0.000 H 
ATOM    119  H28 UNL A   1      29.648  41.795  48.775  1.00  0.00    +0.000 H 
ATOM    120  H29 UNL A   1      28.173  38.470  46.796  1.00  0.00    +0.000 H 
ATOM    121  H30 UNL A   1      29.060  33.604  42.765  1.00  0.00    +0.000 H 
ATOM    122  H31 UNL A   1      26.683  33.196  43.562  1.00  0.00    +0.000 H 
ATOM    123  H32 UNL A   1      28.121  36.564  45.528  1.00  0.00    +0.000 H 
ATOM    124  H33 UNL A   1      32.729  37.377  43.678  1.00  0.00    +0.000 H 
ATOM    125  H34 UNL A   1      32.902  39.340  45.312  1.00  0.00    +0.000 H 
ATOM    126  H35 UNL A   1      23.455  37.751  48.339  1.00  0.00    +0.000 H 
ATOM    127  H36 UNL A   1      23.417  35.534  47.058  1.00  0.00    +0.000 H 
ENDROOT
BRANCH   33   32
ATOM    129  H38 UNL A   1      23.526  31.114  46.253  1.00  0.00    +0.000 H 
ATOM    128  H37 UNL A   1      25.234  32.761  46.752  1.00  0.00    +0.000 H 
ATOM    116  H25 UNL A   1      22.052  33.568  43.170  1.00  0.00    +0.000 H 
ATOM    117  H26 UNL A   1      23.884  35.120  43.534  1.00  0.00    +0.000 H 
ATOM     90  C64 UNL A   1      24.570  32.927  45.980  1.00  0.00    +0.000 C 
ATOM     91  C65 UNL A   1      23.563  31.998  45.720  1.00  0.00    +0.000 C 
ATOM     29  C22 UNL A   1      22.606  32.264  44.738  1.00  0.00    +0.000 C 
ATOM     30  C23 UNL A   1      22.732  33.397  43.928  1.00  0.00    +0.000 C 
ATOM     31  C24 UNL A   1      23.777  34.297  44.148  1.00  0.00    +0.000 C 
ATOM     32  C25 UNL A   1      24.685  34.087  45.198  1.00  0.00    +0.000 C 
BRANCH   29   27
ATOM     27  C21 UNL A   1      21.454  31.359  44.522  1.00  0.00    +0.000 C 
ATOM     28  O2  UNL A   1      21.489  30.217  44.972  1.00  0.00    +0.000 O 
BRANCH   27   26
ATOM     26  N3  UNL A   1      20.366  31.784  43.800  1.00  0.00    +0.000 N 
ATOM    115  H24 UNL A   1      20.577  32.278  42.975  1.00  0.00    +0.000 H 
BRANCH   26   25
ATOM     25  C20 UNL A   1      18.948  31.611  44.074  1.00  0.00    +0.000 C 
ATOM    114  H23 UNL A   1      18.672  32.339  44.809  1.00  0.00    +0.000 H 
ATOM    113  H22 UNL A   1      18.787  30.613  44.426  1.00  0.00    +0.000 H 
BRANCH   25   24
ATOM    112  H21 UNL A   1      18.254  31.013  42.194  1.00  0.00    +0.000 H 
ATOM    111  H20 UNL A   1      18.346  32.788  42.421  1.00  0.00    +0.000 H 
ATOM     24  C19 UNL A   1      18.075  31.843  42.846  1.00  0.00    +0.000 C 
BRANCH   24   23
ATOM    109  H18 UNL A   1      16.154  30.955  42.710  1.00  0.00    +0.000 H 
ATOM    110  H19 UNL A   1      16.453  31.956  44.166  1.00  0.00    +0.000 H 
ATOM     23  C18 UNL A   1      16.567  31.858  43.106  1.00  0.00    +0.000 C 
BRANCH   23   22
ATOM    107  H16 UNL A   1      16.058  33.085  41.452  1.00  0.00    +0.000 H 
ATOM    108  H17 UNL A   1      14.768  32.839  42.673  1.00  0.00    +0.000 H 
ATOM     22  C17 UNL A   1      15.804  33.035  42.490  1.00  0.00    +0.000 C 
BRANCH   22   21
ATOM    105  H14 UNL A   1      17.015  34.767  42.717  1.00  0.00    +0.000 H 
ATOM    106  H15 UNL A   1      15.253  35.029  42.867  1.00  0.00    +0.000 H 
ATOM     21  C16 UNL A   1      16.089  34.408  43.114  1.00  0.00    +0.000 C 
BRANCH   21   20
ATOM     20  C15 UNL A   1      16.193  34.412  44.638  1.00  0.00    +0.000 C 
ATOM    103  H12 UNL A   1      15.452  35.072  45.037  1.00  0.00    +0.000 H 
ATOM    104  H13 UNL A   1      16.037  33.412  44.989  1.00  0.00    +0.000 H 
BRANCH   20   19
ATOM     19  N2  UNL A   1      17.501  34.850  45.075  1.00  0.00    +0.000 N 
ATOM    102  H11 UNL A   1      18.248  34.209  45.036  1.00  0.00    +0.000 H 
BRANCH   19    2
ATOM      1  O1  UNL A   1      16.870  36.926  45.829  1.00  0.00    +0.000 O 
ATOM      2  C1  UNL A   1      17.752  36.121  45.541  1.00  0.00    +0.000 C 
BRANCH    2    3
ATOM      3  C2  UNL A   1      19.226  36.471  45.663  1.00  0.00    +0.000 C 
ATOM     92  H1  UNL A   1      19.323  37.536  45.704  1.00  0.00    +0.000 H 
ATOM     93  H2  UNL A   1      19.727  36.061  44.811  1.00  0.00    +0.000 H 
BRANCH    3    4
ATOM     97  H6  UNL A   1      20.147  36.218  50.222  1.00  0.00    +0.000 H 
ATOM      4  C3  UNL A   1      19.867  35.877  46.900  1.00  0.00    +0.000 C 
ATOM      5  C4  UNL A   1      20.638  34.707  46.760  1.00  0.00    +0.000 C 
ATOM      6  C5  UNL A   1      21.214  34.098  47.871  1.00  0.00    +0.000 C 
ATOM      7  C6  UNL A   1      21.027  34.649  49.131  1.00  0.00    +0.000 C 
ATOM      8  C7  UNL A   1      20.271  35.815  49.281  1.00  0.00    +0.000 C 
ATOM      9  C8  UNL A   1      19.679  36.451  48.178  1.00  0.00    +0.000 C 
ATOM     94  H3  UNL A   1      20.778  34.298  45.823  1.00  0.00    +0.000 H 
ATOM     95  H4  UNL A   1      21.779  33.242  47.758  1.00  0.00    +0.000 H 
ATOM     96  H5  UNL A   1      21.446  34.197  49.959  1.00  0.00    +0.000 H 
BRANCH    9   10
ATOM     10  N1  UNL A   1      18.967  37.672  48.307  1.00  0.00    +0.000 N 
ATOM     98  H7  UNL A   1      19.085  38.317  47.573  1.00  0.00    +0.000 H 
BRANCH   10   11
ATOM     99  H8  UNL A   1      17.784  40.615  51.581  1.00  0.00    +0.000 H 
ATOM    100  H9  UNL A   1      15.753  39.404  52.127  1.00  0.00    +0.000 H 
ATOM    101  H10 UNL A   1      15.224  37.350  50.955  1.00  0.00    +0.000 H 
ATOM     11  C9  UNL A   1      18.108  38.083  49.364  1.00  0.00    +0.000 C 
ATOM     12  C10 UNL A   1      18.395  39.271  50.069  1.00  0.00    +0.000 C 
ATOM     13 Cl1  UNL A   1      19.815  40.194  49.707  1.00  0.00    +0.000 Cl
ATOM     14  C11 UNL A   1      17.548  39.748  51.075  1.00  0.00    +0.000 C 
ATOM     15  C12 UNL A   1      16.387  39.050  51.394  1.00  0.00    +0.000 C 
ATOM     16  C13 UNL A   1      16.082  37.870  50.717  1.00  0.00    +0.000 C 
ATOM     17  C14 UNL A   1      16.935  37.386  49.715  1.00  0.00    +0.000 C 
ATOM     18 Cl2  UNL A   1      16.516  35.864  49.002  1.00  0.00    +0.000 Cl
ENDBRANCH   10   11
ENDBRANCH    9   10
ENDBRANCH    3    4
ENDBRANCH    2    3
ENDBRANCH   19    2
ENDBRANCH   20   19
ENDBRANCH   21   20
ENDBRANCH   22   21
ENDBRANCH   23   22
ENDBRANCH   24   23
ENDBRANCH   25   24
ENDBRANCH   26   25
ENDBRANCH   27   26
ENDBRANCH   29   27
ENDBRANCH   33   32
BRANCH   37   38
ATOM     38  C30 UNL A   1      24.914  39.741  49.239  1.00  0.00    +0.000 C 
ATOM     39  C31 UNL A   1      24.800  39.382  50.591  1.00  0.00    +0.000 C 
ATOM     40  F1  UNL A   1      25.575  38.412  51.100  1.00  0.00    +0.000 F 
ATOM     41  C32 UNL A   1      23.862  39.994  51.418  1.00  0.00    +0.000 C 
ATOM     42  F2  UNL A   1      23.738  39.601  52.693  1.00  0.00    +0.000 F 
ATOM     43  C33 UNL A   1      23.044  40.997  50.920  1.00  0.00    +0.000 C 
ATOM     44  F3  UNL A   1      22.144  41.588  51.718  1.00  0.00    +0.000 F 
ATOM     45  C34 UNL A   1      23.155  41.384  49.593  1.00  0.00    +0.000 C 
ATOM     46  F4  UNL A   1      22.374  42.361  49.114  1.00  0.00    +0.000 F 
ATOM     47  C35 UNL A   1      24.073  40.755  48.756  1.00  0.00    +0.000 C 
ATOM     48  F5  UNL A   1      24.145  41.140  47.473  1.00  0.00    +0.000 F 
ENDBRANCH   37   38
BRANCH   54   55
ATOM     65  F10 UNL A   1      30.733  42.459  45.624  1.00  0.00    +0.000 F 
ATOM     55  C41 UNL A   1      31.704  40.848  47.082  1.00  0.00    +0.000 C 
ATOM     56  C42 UNL A   1      32.768  40.523  47.936  1.00  0.00    +0.000 C 
ATOM     57  F6  UNL A   1      32.783  39.343  48.574  1.00  0.00    +0.000 F 
ATOM     58  C43 UNL A   1      33.801  41.426  48.166  1.00  0.00    +0.000 C 
ATOM     59  F7  UNL A   1      34.786  41.111  49.019  1.00  0.00    +0.000 F 
ATOM     60  C44 UNL A   1      33.808  42.656  47.526  1.00  0.00    +0.000 C 
ATOM     61  F8  UNL A   1      34.807  43.522  47.744  1.00  0.00    +0.000 F 
ATOM     62  C45 UNL A   1      32.774  42.992  46.665  1.00  0.00    +0.000 C 
ATOM     63  F9  UNL A   1      32.784  44.176  46.037  1.00  0.00    +0.000 F 
ATOM     64  C46 UNL A   1      31.725  42.102  46.453  1.00  0.00    +0.000 C 
ENDBRANCH   54   55
BRANCH   69   70
ATOM     70  C50 UNL A   1      31.217  35.288  42.918  1.00  0.00    +0.000 C 
ATOM     71  C51 UNL A   1      32.025  34.216  43.320  1.00  0.00    +0.000 C 
ATOM     72  F11 UNL A   1      31.969  33.773  44.585  1.00  0.00    +0.000 F 
ATOM     73  C52 UNL A   1      32.922  33.620  42.435  1.00  0.00    +0.000 C 
ATOM     74  F12 UNL A   1      33.712  32.623  42.857  1.00  0.00    +0.000 F 
ATOM     75  C53 UNL A   1      33.008  34.067  41.126  1.00  0.00    +0.000 C 
ATOM     76  F13 UNL A   1      33.868  33.492  40.275  1.00  0.00    +0.000 F 
ATOM     77  C54 UNL A   1      32.207  35.116  40.702  1.00  0.00    +0.000 C 
ATOM     78  F14 UNL A   1      32.279  35.543  39.434  1.00  0.00    +0.000 F 
ATOM     79  C55 UNL A   1      31.328  35.730  41.592  1.00  0.00    +0.000 C 
ATOM     80  F15 UNL A   1      30.574  36.751  41.158  1.00  0.00    +0.000 F 
ENDBRANCH   69   70
TORSDOF 18
ENDMDL
