MODEL 1
REMARK VINA RESULT:     -12.1      0.000      0.000
ROOT
ATOM     21  C17 UNL A   1      40.480  27.929  28.738  1.00  0.00    +0.000 C 
ATOM     22  C18 UNL A   1      41.648  28.704  28.235  1.00  0.00    +0.000 C 
ATOM     23  N3  UNL A   1      42.677  29.108  28.906  1.00  0.00    +0.000 N 
ATOM     24  C19 UNL A   1      43.485  29.788  27.998  1.00  0.00    +0.000 C 
ATOM     25  C20 UNL A   1      44.411  30.694  28.416  1.00  0.00    +0.000 C 
ATOM     37  C27 UNL A   1      44.747  30.495  29.802  1.00  0.00    +0.000 C 
ATOM     38  C28 UNL A   1      45.365  29.493  30.521  1.00  0.00    +0.000 C 
ATOM     39  C29 UNL A   1      44.690  29.467  31.777  1.00  0.00    +0.000 C 
ATOM     40  C30 UNL A   1      43.739  30.487  31.772  1.00  0.00    +0.000 C 
ATOM     41  N4  UNL A   1      44.123  31.289  30.730  1.00  0.00    +0.000 N 
ATOM     42  C31 UNL A   1      42.541  30.708  32.544  1.00  0.00    +0.000 C 
ATOM     54  C38 UNL A   1      41.512  31.522  32.168  1.00  0.00    +0.000 C 
ATOM     55  N5  UNL A   1      40.244  31.353  32.702  1.00  0.00    +0.000 N 
ATOM     56  C39 UNL A   1      39.439  31.815  31.787  1.00  0.00    +0.000 C 
ATOM     57  C40 UNL A   1      38.138  31.184  31.450  1.00  0.00    +0.000 C 
ATOM     69  C47 UNL A   1      38.422  29.984  30.881  1.00  0.00    +0.000 C 
ATOM     70  C48 UNL A   1      37.596  28.809  30.702  1.00  0.00    +0.000 C 
ATOM     71  C49 UNL A   1      38.310  27.875  30.040  1.00  0.00    +0.000 C 
ATOM     72  C50 UNL A   1      39.588  28.445  29.609  1.00  0.00    +0.000 C 
ATOM     73  N6  UNL A   1      39.639  29.669  30.243  1.00  0.00    +0.000 N 
ATOM     74  C51 UNL A   1      40.045  32.685  30.792  1.00  0.00    +0.000 C 
ATOM     75  C52 UNL A   1      41.330  32.403  31.019  1.00  0.00    +0.000 C 
ATOM     76  C53 UNL A   1      42.948  29.514  26.691  1.00  0.00    +0.000 C 
ATOM     77  C54 UNL A   1      41.762  28.911  26.783  1.00  0.00    +0.000 C 
ATOM    117  H22 UNL A   1      46.148  28.893  30.217  1.00  0.00    +0.000 H 
ATOM    118  H23 UNL A   1      44.872  28.809  32.551  1.00  0.00    +0.000 H 
ATOM    119  H24 UNL A   1      43.977  32.260  30.659  1.00  0.00    +0.000 H 
ATOM    120  H25 UNL A   1      36.622  28.702  31.028  1.00  0.00    +0.000 H 
ATOM    121  H26 UNL A   1      38.003  26.906  29.862  1.00  0.00    +0.000 H 
ATOM    122  H27 UNL A   1      40.431  30.254  30.248  1.00  0.00    +0.000 H 
ATOM    123  H28 UNL A   1      39.611  33.330  30.113  1.00  0.00    +0.000 H 
ATOM    124  H29 UNL A   1      42.107  32.768  30.446  1.00  0.00    +0.000 H 
ATOM    125  H30 UNL A   1      43.418  29.752  25.803  1.00  0.00    +0.000 H 
ATOM    126  H31 UNL A   1      41.100  28.657  26.034  1.00  0.00    +0.000 H 
ENDROOT
BRANCH   21   20
ATOM     78  C55 UNL A   1      39.444  26.287  27.182  1.00  0.00    +0.000 C 
ATOM     79  C56 UNL A   1      39.342  24.978  26.731  1.00  0.00    +0.000 C 
ATOM     17  C13 UNL A   1      40.174  23.963  27.243  1.00  0.00    +0.000 C 
ATOM     18  C14 UNL A   1      41.199  24.321  28.116  1.00  0.00    +0.000 C 
ATOM     19  C15 UNL A   1      41.285  25.622  28.597  1.00  0.00    +0.000 C 
ATOM    115  H20 UNL A   1      41.896  23.618  28.408  1.00  0.00    +0.000 H 
ATOM    116  H21 UNL A   1      42.026  25.875  29.268  1.00  0.00    +0.000 H 
ATOM     20  C16 UNL A   1      40.367  26.588  28.173  1.00  0.00    +0.000 C 
ATOM    127  H32 UNL A   1      38.841  27.026  26.786  1.00  0.00    +0.000 H 
ATOM    128  H33 UNL A   1      38.644  24.745  26.008  1.00  0.00    +0.000 H 
BRANCH   17   15
ATOM     15  C12 UNL A   1      39.801  22.573  26.867  1.00  0.00    +0.000 C 
ATOM     16  O2  UNL A   1      40.647  21.683  26.984  1.00  0.00    +0.000 O 
BRANCH   15   14
ATOM    114  H19 UNL A   1      37.838  22.626  26.759  1.00  0.00    +0.000 H 
ATOM     14  N2  UNL A   1      38.607  22.201  26.315  1.00  0.00    +0.000 N 
BRANCH   14   13
ATOM    113  H18 UNL A   1      37.805  20.442  25.670  1.00  0.00    +0.000 H 
ATOM     13  C11 UNL A   1      38.211  21.329  25.229  1.00  0.00    +0.000 C 
ATOM    112  H17 UNL A   1      39.072  21.127  24.627  1.00  0.00    +0.000 H 
BRANCH   13   12
ATOM     12  C10 UNL A   1      37.123  21.923  24.333  1.00  0.00    +0.000 C 
ATOM    110  H15 UNL A   1      37.459  21.873  23.319  1.00  0.00    +0.000 H 
ATOM    111  H16 UNL A   1      36.236  21.348  24.502  1.00  0.00    +0.000 H 
BRANCH   12   11
ATOM     11  C9  UNL A   1      36.775  23.380  24.655  1.00  0.00    +0.000 C 
ATOM    108  H13 UNL A   1      37.310  23.662  25.537  1.00  0.00    +0.000 H 
ATOM    109  H14 UNL A   1      37.046  23.950  23.791  1.00  0.00    +0.000 H 
BRANCH   11   10
ATOM     10  C8  UNL A   1      35.285  23.651  24.896  1.00  0.00    +0.000 C 
ATOM    107  H12 UNL A   1      34.751  22.875  24.391  1.00  0.00    +0.000 H 
ATOM    106  H11 UNL A   1      35.059  24.628  24.524  1.00  0.00    +0.000 H 
BRANCH   10    9
ATOM      9  C7  UNL A   1      34.852  23.589  26.366  1.00  0.00    +0.000 C 
ATOM    105  H10 UNL A   1      33.840  23.931  26.413  1.00  0.00    +0.000 H 
ATOM    104  H9  UNL A   1      35.513  24.204  26.942  1.00  0.00    +0.000 H 
BRANCH    9    8
ATOM    102  H7  UNL A   1      35.661  21.619  26.469  1.00  0.00    +0.000 H 
ATOM    103  H8  UNL A   1      35.051  22.244  27.998  1.00  0.00    +0.000 H 
ATOM      8  C6  UNL A   1      34.880  22.174  26.944  1.00  0.00    +0.000 C 
BRANCH    8    7
ATOM    101  H6  UNL A   1      32.992  21.504  27.491  1.00  0.00    +0.000 H 
ATOM      7  N1  UNL A   1      33.620  21.490  26.733  1.00  0.00    +0.000 N 
BRANCH    7    5
ATOM      5  C5  UNL A   1      33.192  20.830  25.617  1.00  0.00    +0.000 C 
ATOM      6  O1  UNL A   1      33.945  20.003  25.099  1.00  0.00    +0.000 O 
BRANCH    5    4
ATOM    100  H5  UNL A   1      31.099  20.968  25.745  1.00  0.00    +0.000 H 
ATOM     99  H4  UNL A   1      31.711  20.573  24.123  1.00  0.00    +0.000 H 
ATOM      4  C4  UNL A   1      31.842  21.170  25.002  1.00  0.00    +0.000 C 
BRANCH    4    3
ATOM    129  H34 UNL A   1      33.075  21.661  22.260  1.00  0.00    +0.000 H 
ATOM      2  C2  UNL A   1      31.121  23.634  25.366  1.00  0.00    +0.000 C 
ATOM      3  C3  UNL A   1      31.699  22.617  24.619  1.00  0.00    +0.000 C 
ATOM    132  H37 UNL A   1      32.218  26.437  22.485  1.00  0.00    +0.000 H 
ATOM    130  H35 UNL A   1      33.717  23.100  20.419  1.00  0.00    +0.000 H 
ATOM    131  H36 UNL A   1      33.318  25.474  20.548  1.00  0.00    +0.000 H 
ATOM     80  C57 UNL A   1      32.179  23.203  23.415  1.00  0.00    +0.000 C 
ATOM     81  C58 UNL A   1      32.862  22.669  22.298  1.00  0.00    +0.000 C 
ATOM     82  C59 UNL A   1      33.250  23.499  21.248  1.00  0.00    +0.000 C 
ATOM     83  C60 UNL A   1      33.011  24.860  21.319  1.00  0.00    +0.000 C 
ATOM     84  C61 UNL A   1      32.357  25.415  22.424  1.00  0.00    +0.000 C 
ATOM     85  C62 UNL A   1      31.889  24.572  23.454  1.00  0.00    +0.000 C 
ATOM     86  N7  UNL A   1      31.111  24.810  24.599  1.00  0.00    +0.000 N 
BRANCH    2    1
ATOM      1  C1  UNL A   1      30.533  23.560  26.743  1.00  0.00    +0.000 C 
ATOM     98  H3  UNL A   1      30.785  24.446  27.286  1.00  0.00    +0.000 H 
ATOM     97  H2  UNL A   1      29.470  23.474  26.672  1.00  0.00    +0.000 H 
ATOM     96  H1  UNL A   1      30.928  22.705  27.252  1.00  0.00    +0.000 H 
ENDBRANCH    2    1
BRANCH   86   87
ATOM     87  C63 UNL A   1      30.414  26.007  24.947  1.00  0.00    +0.000 C 
ATOM     88  O3  UNL A   1      29.202  26.060  24.775  1.00  0.00    +0.000 O 
BRANCH   87   89
ATOM    133  H38 UNL A   1      31.580  26.374  27.372  1.00  0.00    +0.000 H 
ATOM    134  H39 UNL A   1      32.406  28.472  28.294  1.00  0.00    +0.000 H 
ATOM    135  H40 UNL A   1      31.602  30.408  24.644  1.00  0.00    +0.000 H 
ATOM    136  H41 UNL A   1      30.727  28.328  23.734  1.00  0.00    +0.000 H 
ATOM     89  C64 UNL A   1      31.018  27.223  25.516  1.00  0.00    +0.000 C 
ATOM     90  C65 UNL A   1      31.550  27.239  26.808  1.00  0.00    +0.000 C 
ATOM     91  C66 UNL A   1      32.041  28.439  27.330  1.00  0.00    +0.000 C 
ATOM     92  C67 UNL A   1      32.037  29.593  26.544  1.00  0.00    +0.000 C 
ATOM     93 Cl1  UNL A   1      32.598  31.079  27.205  1.00  0.00    +0.000 Cl
ATOM     94  C68 UNL A   1      31.571  29.557  25.229  1.00  0.00    +0.000 C 
ATOM     95  C69 UNL A   1      31.065  28.368  24.709  1.00  0.00    +0.000 C 
ENDBRANCH   87   89
ENDBRANCH   86   87
ENDBRANCH    4    3
ENDBRANCH    5    4
ENDBRANCH    7    5
ENDBRANCH    8    7
ENDBRANCH    9    8
ENDBRANCH   10    9
ENDBRANCH   11   10
ENDBRANCH   12   11
ENDBRANCH   13   12
ENDBRANCH   14   13
ENDBRANCH   15   14
ENDBRANCH   17   15
ENDBRANCH   21   20
BRANCH   25   26
ATOM     33  C25 UNL A   1      44.573  34.424  27.495  1.00  0.00    +0.000 C 
ATOM     34  F4  UNL A   1      43.903  35.549  27.781  1.00  0.00    +0.000 F 
ATOM     35  C26 UNL A   1      44.059  33.197  27.915  1.00  0.00    +0.000 C 
ATOM     36  F5  UNL A   1      42.940  33.271  28.642  1.00  0.00    +0.000 F 
ATOM     26  C21 UNL A   1      44.733  31.977  27.688  1.00  0.00    +0.000 C 
ATOM     27  C22 UNL A   1      45.947  32.080  26.977  1.00  0.00    +0.000 C 
ATOM     28  F1  UNL A   1      46.682  30.989  26.715  1.00  0.00    +0.000 F 
ATOM     29  C23 UNL A   1      46.483  33.316  26.602  1.00  0.00    +0.000 C 
ATOM     30  F2  UNL A   1      47.700  33.372  26.044  1.00  0.00    +0.000 F 
ATOM     31  C24 UNL A   1      45.799  34.488  26.871  1.00  0.00    +0.000 C 
ATOM     32  F3  UNL A   1      46.340  35.676  26.571  1.00  0.00    +0.000 F 
ENDBRANCH   25   26
BRANCH   42   43
ATOM     43  C32 UNL A   1      42.320  29.802  33.724  1.00  0.00    +0.000 C 
ATOM     44  C33 UNL A   1      41.762  28.514  33.626  1.00  0.00    +0.000 C 
ATOM     45  F6  UNL A   1      41.338  28.037  32.448  1.00  0.00    +0.000 F 
ATOM     46  C34 UNL A   1      41.691  27.673  34.736  1.00  0.00    +0.000 C 
ATOM     47  F7  UNL A   1      41.153  26.450  34.622  1.00  0.00    +0.000 F 
ATOM     48  C35 UNL A   1      42.217  28.081  35.952  1.00  0.00    +0.000 C 
ATOM     49  F8  UNL A   1      42.197  27.254  37.007  1.00  0.00    +0.000 F 
ATOM     50  C36 UNL A   1      42.793  29.336  36.065  1.00  0.00    +0.000 C 
ATOM     51  F9  UNL A   1      43.348  29.716  37.225  1.00  0.00    +0.000 F 
ATOM     52  C37 UNL A   1      42.831  30.192  34.968  1.00  0.00    +0.000 C 
ATOM     53  F10 UNL A   1      43.421  31.389  35.106  1.00  0.00    +0.000 F 
ENDBRANCH   42   43
BRANCH   57   58
ATOM     65  C45 UNL A   1      35.565  33.667  30.183  1.00  0.00    +0.000 C 
ATOM     66  F14 UNL A   1      35.317  34.344  29.054  1.00  0.00    +0.000 F 
ATOM     67  C46 UNL A   1      36.534  32.662  30.189  1.00  0.00    +0.000 C 
ATOM     68  F15 UNL A   1      37.197  32.447  29.044  1.00  0.00    +0.000 F 
ATOM     58  C41 UNL A   1      36.884  31.972  31.366  1.00  0.00    +0.000 C 
ATOM     59  C42 UNL A   1      36.174  32.322  32.528  1.00  0.00    +0.000 C 
ATOM     60  F11 UNL A   1      36.472  31.742  33.700  1.00  0.00    +0.000 F 
ATOM     61  C43 UNL A   1      35.205  33.331  32.521  1.00  0.00    +0.000 C 
ATOM     62  F12 UNL A   1      34.600  33.685  33.665  1.00  0.00    +0.000 F 
ATOM     63  C44 UNL A   1      34.913  34.012  31.352  1.00  0.00    +0.000 C 
ATOM     64  F13 UNL A   1      34.036  35.028  31.360  1.00  0.00    +0.000 F 
ENDBRANCH   57   58
TORSDOF 19
ENDMDL
MODEL 2
REMARK VINA RESULT:     -11.8      1.535      2.529
ROOT
ATOM     21  C17 UNL A   1      40.830  28.166  28.484  1.00  0.00    +0.000 C 
ATOM     22  C18 UNL A   1      41.926  29.048  27.996  1.00  0.00    +0.000 C 
ATOM     23  N3  UNL A   1      42.884  29.574  28.687  1.00  0.00    +0.000 N 
ATOM     24  C19 UNL A   1      43.645  30.315  27.787  1.00  0.00    +0.000 C 
ATOM     25  C20 UNL A   1      44.457  31.323  28.208  1.00  0.00    +0.000 C 
ATOM     37  C27 UNL A   1      44.766  31.194  29.608  1.00  0.00    +0.000 C 
ATOM     38  C28 UNL A   1      45.462  30.279  30.372  1.00  0.00    +0.000 C 
ATOM     39  C29 UNL A   1      44.753  30.211  31.608  1.00  0.00    +0.000 C 
ATOM     40  C30 UNL A   1      43.701  31.125  31.547  1.00  0.00    +0.000 C 
ATOM     41  N4  UNL A   1      44.032  31.938  30.496  1.00  0.00    +0.000 N 
ATOM     42  C31 UNL A   1      42.461  31.236  32.276  1.00  0.00    +0.000 C 
ATOM     54  C38 UNL A   1      41.365  31.927  31.848  1.00  0.00    +0.000 C 
ATOM     55  N5  UNL A   1      40.105  31.637  32.347  1.00  0.00    +0.000 N 
ATOM     56  C39 UNL A   1      39.286  31.990  31.396  1.00  0.00    +0.000 C 
ATOM     57  C40 UNL A   1      38.071  31.217  31.036  1.00  0.00    +0.000 C 
ATOM     69  C47 UNL A   1      38.498  30.041  30.508  1.00  0.00    +0.000 C 
ATOM     70  C48 UNL A   1      37.806  28.781  30.336  1.00  0.00    +0.000 C 
ATOM     71  C49 UNL A   1      38.636  27.913  29.720  1.00  0.00    +0.000 C 
ATOM     72  C50 UNL A   1      39.860  28.605  29.314  1.00  0.00    +0.000 C 
ATOM     73  N6  UNL A   1      39.761  29.842  29.916  1.00  0.00    +0.000 N 
ATOM     74  C51 UNL A   1      39.830  32.896  30.397  1.00  0.00    +0.000 C 
ATOM     75  C52 UNL A   1      41.129  32.757  30.670  1.00  0.00    +0.000 C 
ATOM     76  C53 UNL A   1      43.184  29.955  26.472  1.00  0.00    +0.000 C 
ATOM     77  C54 UNL A   1      42.066  29.233  26.543  1.00  0.00    +0.000 C 
ATOM    117  H22 UNL A   1      46.313  29.759  30.109  1.00  0.00    +0.000 H 
ATOM    118  H23 UNL A   1      44.977  29.594  32.404  1.00  0.00    +0.000 H 
ATOM    119  H24 UNL A   1      43.787  32.886  30.395  1.00  0.00    +0.000 H 
ATOM    120  H25 UNL A   1      36.839  28.580  30.635  1.00  0.00    +0.000 H 
ATOM    121  H26 UNL A   1      38.438  26.913  29.559  1.00  0.00    +0.000 H 
ATOM    122  H27 UNL A   1      40.487  30.508  29.930  1.00  0.00    +0.000 H 
ATOM    123  H28 UNL A   1      39.353  33.475  29.688  1.00  0.00    +0.000 H 
ATOM    124  H29 UNL A   1      41.882  33.188  30.112  1.00  0.00    +0.000 H 
ATOM    125  H30 UNL A   1      43.655  30.221  25.593  1.00  0.00    +0.000 H 
ATOM    126  H31 UNL A   1      41.458  28.893  25.782  1.00  0.00    +0.000 H 
ENDROOT
BRANCH   21   20
ATOM     78  C55 UNL A   1      40.233  26.462  26.772  1.00  0.00    +0.000 C 
ATOM     79  C56 UNL A   1      40.263  25.138  26.352  1.00  0.00    +0.000 C 
ATOM     17  C13 UNL A   1      40.953  24.155  27.088  1.00  0.00    +0.000 C 
ATOM     18  C14 UNL A   1      41.724  24.557  28.176  1.00  0.00    +0.000 C 
ATOM     19  C15 UNL A   1      41.672  25.872  28.621  1.00  0.00    +0.000 C 
ATOM    115  H20 UNL A   1      42.336  23.877  28.654  1.00  0.00    +0.000 H 
ATOM    116  H21 UNL A   1      42.220  26.158  29.447  1.00  0.00    +0.000 H 
ATOM     20  C16 UNL A   1      40.877  26.808  27.952  1.00  0.00    +0.000 C 
ATOM    127  H32 UNL A   1      39.739  27.177  26.217  1.00  0.00    +0.000 H 
ATOM    128  H33 UNL A   1      39.769  24.871  25.487  1.00  0.00    +0.000 H 
BRANCH   17   15
ATOM     15  C12 UNL A   1      40.703  22.747  26.675  1.00  0.00    +0.000 C 
ATOM     16  O2  UNL A   1      41.641  22.090  26.219  1.00  0.00    +0.000 O 
BRANCH   15   14
ATOM    114  H19 UNL A   1      39.202  21.857  27.582  1.00  0.00    +0.000 H 
ATOM     14  N2  UNL A   1      39.482  22.133  26.680  1.00  0.00    +0.000 N 
BRANCH   14   13
ATOM    113  H18 UNL A   1      37.893  21.013  26.068  1.00  0.00    +0.000 H 
ATOM     13  C11 UNL A   1      38.505  21.793  25.666  1.00  0.00    +0.000 C 
ATOM    112  H17 UNL A   1      39.027  21.488  24.783  1.00  0.00    +0.000 H 
BRANCH   13   12
ATOM     12  C10 UNL A   1      37.574  22.951  25.301  1.00  0.00    +0.000 C 
ATOM    110  H15 UNL A   1      38.093  23.869  25.482  1.00  0.00    +0.000 H 
ATOM    111  H16 UNL A   1      37.310  22.823  24.272  1.00  0.00    +0.000 H 
BRANCH   12   11
ATOM     11  C9  UNL A   1      36.263  22.974  26.095  1.00  0.00    +0.000 C 
ATOM    108  H13 UNL A   1      36.470  23.378  27.064  1.00  0.00    +0.000 H 
ATOM    109  H14 UNL A   1      35.579  23.565  25.524  1.00  0.00    +0.000 H 
BRANCH   11   10
ATOM     10  C8  UNL A   1      35.596  21.607  26.282  1.00  0.00    +0.000 C 
ATOM    107  H12 UNL A   1      36.279  21.014  26.854  1.00  0.00    +0.000 H 
ATOM    106  H11 UNL A   1      35.393  21.199  25.315  1.00  0.00    +0.000 H 
BRANCH   10    9
ATOM      9  C7  UNL A   1      34.283  21.637  27.073  1.00  0.00    +0.000 C 
ATOM    105  H10 UNL A   1      34.177  22.621  27.475  1.00  0.00    +0.000 H 
ATOM    104  H9  UNL A   1      34.331  20.891  27.840  1.00  0.00    +0.000 H 
BRANCH    9    8
ATOM    102  H7  UNL A   1      33.260  20.546  25.553  1.00  0.00    +0.000 H 
ATOM    103  H8  UNL A   1      32.231  21.133  26.856  1.00  0.00    +0.000 H 
ATOM      8  C6  UNL A   1      33.051  21.364  26.208  1.00  0.00    +0.000 C 
BRANCH    8    7
ATOM    101  H6  UNL A   1      32.057  23.148  25.833  1.00  0.00    +0.000 H 
ATOM      7  N1  UNL A   1      32.694  22.524  25.416  1.00  0.00    +0.000 N 
BRANCH    7    5
ATOM      5  C5  UNL A   1      33.127  22.862  24.166  1.00  0.00    +0.000 C 
ATOM      6  O1  UNL A   1      33.193  21.977  23.310  1.00  0.00    +0.000 O 
BRANCH    5    4
ATOM    100  H5  UNL A   1      33.754  24.349  22.822  1.00  0.00    +0.000 H 
ATOM     99  H4  UNL A   1      34.460  24.484  24.448  1.00  0.00    +0.000 H 
ATOM      4  C4  UNL A   1      33.578  24.285  23.875  1.00  0.00    +0.000 C 
BRANCH    4    3
ATOM    129  H34 UNL A   1      34.780  26.402  25.707  1.00  0.00    +0.000 H 
ATOM      2  C2  UNL A   1      31.222  25.367  23.800  1.00  0.00    +0.000 C 
ATOM      3  C3  UNL A   1      32.548  25.327  24.212  1.00  0.00    +0.000 C 
ATOM    132  H37 UNL A   1      30.541  28.729  26.164  1.00  0.00    +0.000 H 
ATOM    130  H35 UNL A   1      34.631  28.403  27.065  1.00  0.00    +0.000 H 
ATOM    131  H36 UNL A   1      32.519  29.537  27.315  1.00  0.00    +0.000 H 
ATOM     80  C57 UNL A   1      32.756  26.450  25.059  1.00  0.00    +0.000 C 
ATOM     81  C58 UNL A   1      33.885  26.911  25.775  1.00  0.00    +0.000 C 
ATOM     82  C59 UNL A   1      33.796  28.050  26.573  1.00  0.00    +0.000 C 
ATOM     83  C60 UNL A   1      32.585  28.705  26.707  1.00  0.00    +0.000 C 
ATOM     84  C61 UNL A   1      31.448  28.255  26.028  1.00  0.00    +0.000 C 
ATOM     85  C62 UNL A   1      31.549  27.151  25.154  1.00  0.00    +0.000 C 
ATOM     86  N7  UNL A   1      30.640  26.557  24.263  1.00  0.00    +0.000 N 
BRANCH    2    1
ATOM      1  C1  UNL A   1      30.479  24.375  22.957  1.00  0.00    +0.000 C 
ATOM     98  H3  UNL A   1      29.568  24.815  22.611  1.00  0.00    +0.000 H 
ATOM     97  H2  UNL A   1      31.083  24.096  22.120  1.00  0.00    +0.000 H 
ATOM     96  H1  UNL A   1      30.257  23.507  23.543  1.00  0.00    +0.000 H 
ENDBRANCH    2    1
BRANCH   86   87
ATOM     87  C63 UNL A   1      29.359  27.048  23.867  1.00  0.00    +0.000 C 
ATOM     88  O3  UNL A   1      28.358  26.410  24.171  1.00  0.00    +0.000 O 
BRANCH   87   89
ATOM    133  H38 UNL A   1      31.003  28.395  22.178  1.00  0.00    +0.000 H 
ATOM    134  H39 UNL A   1      30.554  30.529  21.092  1.00  0.00    +0.000 H 
ATOM    135  H40 UNL A   1      26.632  30.494  22.619  1.00  0.00    +0.000 H 
ATOM    136  H41 UNL A   1      27.090  28.389  23.749  1.00  0.00    +0.000 H 
ATOM     89  C64 UNL A   1      29.104  28.284  23.108  1.00  0.00    +0.000 C 
ATOM     90  C65 UNL A   1      30.090  28.861  22.302  1.00  0.00    +0.000 C 
ATOM     91  C66 UNL A   1      29.824  30.076  21.663  1.00  0.00    +0.000 C 
ATOM     92  C67 UNL A   1      28.570  30.675  21.801  1.00  0.00    +0.000 C 
ATOM     93 Cl1  UNL A   1      28.263  32.194  21.054  1.00  0.00    +0.000 Cl
ATOM     94  C68 UNL A   1      27.566  30.060  22.549  1.00  0.00    +0.000 C 
ATOM     95  C69 UNL A   1      27.830  28.857  23.201  1.00  0.00    +0.000 C 
ENDBRANCH   87   89
ENDBRANCH   86   87
ENDBRANCH    4    3
ENDBRANCH    5    4
ENDBRANCH    7    5
ENDBRANCH    8    7
ENDBRANCH    9    8
ENDBRANCH   10    9
ENDBRANCH   11   10
ENDBRANCH   12   11
ENDBRANCH   13   12
ENDBRANCH   14   13
ENDBRANCH   15   14
ENDBRANCH   17   15
ENDBRANCH   21   20
BRANCH   25   26
ATOM     33  C25 UNL A   1      44.333  35.043  27.245  1.00  0.00    +0.000 C 
ATOM     34  F4  UNL A   1      43.598  36.125  27.541  1.00  0.00    +0.000 F 
ATOM     35  C26 UNL A   1      43.919  33.790  27.694  1.00  0.00    +0.000 C 
ATOM     36  F5  UNL A   1      42.822  33.797  28.458  1.00  0.00    +0.000 F 
ATOM     26  C21 UNL A   1      44.666  32.616  27.457  1.00  0.00    +0.000 C 
ATOM     27  C22 UNL A   1      45.846  32.792  26.704  1.00  0.00    +0.000 C 
ATOM     28  F1  UNL A   1      46.645  31.750  26.428  1.00  0.00    +0.000 F 
ATOM     29  C23 UNL A   1      46.284  34.057  26.298  1.00  0.00    +0.000 C 
ATOM     30  F2  UNL A   1      47.475  34.188  25.698  1.00  0.00    +0.000 F 
ATOM     31  C24 UNL A   1      45.531  35.183  26.578  1.00  0.00    +0.000 C 
ATOM     32  F3  UNL A   1      45.979  36.401  26.248  1.00  0.00    +0.000 F 
ENDBRANCH   25   26
BRANCH   42   43
ATOM     43  C32 UNL A   1      42.297  30.338  33.473  1.00  0.00    +0.000 C 
ATOM     44  C33 UNL A   1      42.437  30.774  34.802  1.00  0.00    +0.000 C 
ATOM     45  F6  UNL A   1      42.788  32.038  35.077  1.00  0.00    +0.000 F 
ATOM     46  C34 UNL A   1      42.155  29.926  35.873  1.00  0.00    +0.000 C 
ATOM     47  F7  UNL A   1      42.299  30.362  37.134  1.00  0.00    +0.000 F 
ATOM     48  C35 UNL A   1      41.684  28.644  35.638  1.00  0.00    +0.000 C 
ATOM     49  F8  UNL A   1      41.363  27.846  36.666  1.00  0.00    +0.000 F 
ATOM     50  C36 UNL A   1      41.515  28.202  34.336  1.00  0.00    +0.000 C 
ATOM     51  F9  UNL A   1      41.012  26.981  34.104  1.00  0.00    +0.000 F 
ATOM     52  C37 UNL A   1      41.831  29.033  33.266  1.00  0.00    +0.000 C 
ATOM     53  F10 UNL A   1      41.628  28.583  32.018  1.00  0.00    +0.000 F 
ENDBRANCH   42   43
BRANCH   57   58
ATOM     65  C45 UNL A   1      35.324  33.455  29.683  1.00  0.00    +0.000 C 
ATOM     66  F14 UNL A   1      35.076  34.149  28.564  1.00  0.00    +0.000 F 
ATOM     67  C46 UNL A   1      36.397  32.563  29.720  1.00  0.00    +0.000 C 
ATOM     68  F15 UNL A   1      37.153  32.472  28.617  1.00  0.00    +0.000 F 
ATOM     58  C41 UNL A   1      36.745  31.866  30.893  1.00  0.00    +0.000 C 
ATOM     59  C42 UNL A   1      35.926  32.085  32.015  1.00  0.00    +0.000 C 
ATOM     60  F11 UNL A   1      36.209  31.491  33.184  1.00  0.00    +0.000 F 
ATOM     61  C43 UNL A   1      34.851  32.981  31.977  1.00  0.00    +0.000 C 
ATOM     62  F12 UNL A   1      34.137  33.217  33.087  1.00  0.00    +0.000 F 
ATOM     63  C44 UNL A   1      34.561  33.676  30.815  1.00  0.00    +0.000 C 
ATOM     64  F13 UNL A   1      33.578  34.588  30.798  1.00  0.00    +0.000 F 
ENDBRANCH   57   58
TORSDOF 19
ENDMDL
MODEL 3
REMARK VINA RESULT:     -11.4      1.971      3.668
ROOT
ATOM     21  C17 UNL A   1      40.645  27.768  28.675  1.00  0.00    +0.000 C 
ATOM     22  C18 UNL A   1      41.828  28.522  28.175  1.00  0.00    +0.000 C 
ATOM     23  N3  UNL A   1      42.850  28.929  28.854  1.00  0.00    +0.000 N 
ATOM     24  C19 UNL A   1      43.677  29.585  27.946  1.00  0.00    +0.000 C 
ATOM     25  C20 UNL A   1      44.606  30.490  28.360  1.00  0.00    +0.000 C 
ATOM     37  C27 UNL A   1      44.919  30.314  29.754  1.00  0.00    +0.000 C 
ATOM     38  C28 UNL A   1      45.518  29.319  30.501  1.00  0.00    +0.000 C 
ATOM     39  C29 UNL A   1      44.825  29.322  31.747  1.00  0.00    +0.000 C 
ATOM     40  C30 UNL A   1      43.884  30.351  31.710  1.00  0.00    +0.000 C 
ATOM     41  N4  UNL A   1      44.290  31.130  30.659  1.00  0.00    +0.000 N 
ATOM     42  C31 UNL A   1      42.677  30.597  32.460  1.00  0.00    +0.000 C 
ATOM     54  C38 UNL A   1      41.661  31.413  32.055  1.00  0.00    +0.000 C 
ATOM     55  N5  UNL A   1      40.384  31.265  32.572  1.00  0.00    +0.000 N 
ATOM     56  C39 UNL A   1      39.596  31.718  31.637  1.00  0.00    +0.000 C 
ATOM     57  C40 UNL A   1      38.295  31.092  31.293  1.00  0.00    +0.000 C 
ATOM     69  C47 UNL A   1      38.575  29.880  30.750  1.00  0.00    +0.000 C 
ATOM     70  C48 UNL A   1      37.741  28.709  30.581  1.00  0.00    +0.000 C 
ATOM     71  C49 UNL A   1      38.456  27.757  29.946  1.00  0.00    +0.000 C 
ATOM     72  C50 UNL A   1      39.745  28.308  29.524  1.00  0.00    +0.000 C 
ATOM     73  N6  UNL A   1      39.798  29.543  30.136  1.00  0.00    +0.000 N 
ATOM     74  C51 UNL A   1      40.225  32.564  30.636  1.00  0.00    +0.000 C 
ATOM     75  C52 UNL A   1      41.503  32.275  30.887  1.00  0.00    +0.000 C 
ATOM     76  C53 UNL A   1      43.157  29.293  26.636  1.00  0.00    +0.000 C 
ATOM     77  C54 UNL A   1      41.964  28.702  26.721  1.00  0.00    +0.000 C 
ATOM    117  H22 UNL A   1      46.300  28.707  30.219  1.00  0.00    +0.000 H 
ATOM    118  H23 UNL A   1      44.990  28.677  32.535  1.00  0.00    +0.000 H 
ATOM    119  H24 UNL A   1      44.154  32.101  30.569  1.00  0.00    +0.000 H 
ATOM    120  H25 UNL A   1      36.762  28.618  30.895  1.00  0.00    +0.000 H 
ATOM    121  H26 UNL A   1      38.142  26.788  29.781  1.00  0.00    +0.000 H 
ATOM    122  H27 UNL A   1      40.596  30.120  30.142  1.00  0.00    +0.000 H 
ATOM    123  H28 UNL A   1      39.807  33.201  29.939  1.00  0.00    +0.000 H 
ATOM    124  H29 UNL A   1      42.292  32.622  30.319  1.00  0.00    +0.000 H 
ATOM    125  H30 UNL A   1      43.642  29.510  25.751  1.00  0.00    +0.000 H 
ATOM    126  H31 UNL A   1      41.310  28.441  25.967  1.00  0.00    +0.000 H 
ENDROOT
BRANCH   21   20
ATOM     78  C55 UNL A   1      39.569  26.091  27.184  1.00  0.00    +0.000 C 
ATOM     79  C56 UNL A   1      39.467  24.775  26.754  1.00  0.00    +0.000 C 
ATOM     17  C13 UNL A   1      40.333  23.778  27.246  1.00  0.00    +0.000 C 
ATOM     18  C14 UNL A   1      41.387  24.161  28.072  1.00  0.00    +0.000 C 
ATOM     19  C15 UNL A   1      41.474  25.470  28.533  1.00  0.00    +0.000 C 
ATOM    115  H20 UNL A   1      42.105  23.472  28.345  1.00  0.00    +0.000 H 
ATOM    116  H21 UNL A   1      42.239  25.741  29.169  1.00  0.00    +0.000 H 
ATOM     20  C16 UNL A   1      40.528  26.418  28.133  1.00  0.00    +0.000 C 
ATOM    127  H32 UNL A   1      38.941  26.817  26.803  1.00  0.00    +0.000 H 
ATOM    128  H33 UNL A   1      38.744  24.523  26.064  1.00  0.00    +0.000 H 
BRANCH   17   15
ATOM     15  C12 UNL A   1      39.964  22.378  26.904  1.00  0.00    +0.000 C 
ATOM     16  O2  UNL A   1      40.490  21.458  27.534  1.00  0.00    +0.000 O 
BRANCH   15   14
ATOM    114  H19 UNL A   1      39.629  21.837  25.043  1.00  0.00    +0.000 H 
ATOM     14  N2  UNL A   1      39.138  22.011  25.878  1.00  0.00    +0.000 N 
BRANCH   14   13
ATOM    113  H18 UNL A   1      37.284  21.886  26.714  1.00  0.00    +0.000 H 
ATOM     13  C11 UNL A   1      37.710  21.818  25.735  1.00  0.00    +0.000 C 
ATOM    112  H17 UNL A   1      37.542  20.863  25.283  1.00  0.00    +0.000 H 
BRANCH   13   12
ATOM     12  C10 UNL A   1      37.031  22.885  24.874  1.00  0.00    +0.000 C 
ATOM    110  H15 UNL A   1      37.622  23.776  24.917  1.00  0.00    +0.000 H 
ATOM    111  H16 UNL A   1      36.961  22.484  23.885  1.00  0.00    +0.000 H 
BRANCH   12   11
ATOM     11  C9  UNL A   1      35.605  23.231  25.315  1.00  0.00    +0.000 C 
ATOM    108  H13 UNL A   1      34.936  22.542  24.843  1.00  0.00    +0.000 H 
ATOM    109  H14 UNL A   1      35.599  23.166  26.383  1.00  0.00    +0.000 H 
BRANCH   11   10
ATOM     10  C8  UNL A   1      35.146  24.651  24.969  1.00  0.00    +0.000 C 
ATOM    107  H12 UNL A   1      34.619  24.581  24.041  1.00  0.00    +0.000 H 
ATOM    106  H11 UNL A   1      36.012  25.278  24.914  1.00  0.00    +0.000 H 
BRANCH   10    9
ATOM      9  C7  UNL A   1      34.170  25.274  25.974  1.00  0.00    +0.000 C 
ATOM    105  H10 UNL A   1      34.690  25.374  26.902  1.00  0.00    +0.000 H 
ATOM    104  H9  UNL A   1      33.315  24.634  26.058  1.00  0.00    +0.000 H 
BRANCH    9    8
ATOM    102  H7  UNL A   1      32.632  26.723  25.690  1.00  0.00    +0.000 H 
ATOM    103  H8  UNL A   1      34.184  27.387  26.192  1.00  0.00    +0.000 H 
ATOM      8  C6  UNL A   1      33.693  26.669  25.568  1.00  0.00    +0.000 C 
BRANCH    8    7
ATOM    101  H6  UNL A   1      34.952  27.248  24.021  1.00  0.00    +0.000 H 
ATOM      7  N1  UNL A   1      34.025  26.961  24.188  1.00  0.00    +0.000 N 
BRANCH    7    5
ATOM      5  C5  UNL A   1      33.217  26.889  23.090  1.00  0.00    +0.000 C 
ATOM      6  O1  UNL A   1      33.653  27.305  22.013  1.00  0.00    +0.000 O 
BRANCH    5    4
ATOM    100  H5  UNL A   1      31.317  26.513  22.276  1.00  0.00    +0.000 H 
ATOM     99  H4  UNL A   1      31.309  26.911  24.009  1.00  0.00    +0.000 H 
ATOM      4  C4  UNL A   1      31.793  26.369  23.224  1.00  0.00    +0.000 C 
BRANCH    4    3
ATOM    129  H34 UNL A   1      30.269  25.932  25.824  1.00  0.00    +0.000 H 
ATOM      2  C2  UNL A   1      32.249  23.851  22.805  1.00  0.00    +0.000 C 
ATOM      3  C3  UNL A   1      31.713  24.902  23.538  1.00  0.00    +0.000 C 
ATOM    132  H37 UNL A   1      31.035  21.136  25.722  1.00  0.00    +0.000 H 
ATOM    130  H35 UNL A   1      29.387  24.521  27.586  1.00  0.00    +0.000 H 
ATOM    131  H36 UNL A   1      29.796  22.146  27.549  1.00  0.00    +0.000 H 
ATOM     80  C57 UNL A   1      31.091  24.337  24.685  1.00  0.00    +0.000 C 
ATOM     81  C58 UNL A   1      30.407  24.910  25.781  1.00  0.00    +0.000 C 
ATOM     82  C59 UNL A   1      29.917  24.102  26.807  1.00  0.00    +0.000 C 
ATOM     83  C60 UNL A   1      30.144  22.737  26.777  1.00  0.00    +0.000 C 
ATOM     84  C61 UNL A   1      30.838  22.150  25.715  1.00  0.00    +0.000 C 
ATOM     85  C62 UNL A   1      31.266  22.948  24.634  1.00  0.00    +0.000 C 
ATOM     86  N7  UNL A   1      31.861  22.640  23.400  1.00  0.00    +0.000 N 
BRANCH    2    1
ATOM      1  C1  UNL A   1      33.067  23.913  21.551  1.00  0.00    +0.000 C 
ATOM     98  H3  UNL A   1      33.161  22.931  21.138  1.00  0.00    +0.000 H 
ATOM     97  H2  UNL A   1      32.587  24.554  20.844  1.00  0.00    +0.000 H 
ATOM     96  H1  UNL A   1      34.040  24.298  21.780  1.00  0.00    +0.000 H 
ENDBRANCH    2    1
BRANCH   86   87
ATOM     87  C63 UNL A   1      32.044  21.349  22.818  1.00  0.00    +0.000 C 
ATOM     88  O3  UNL A   1      31.568  21.122  21.712  1.00  0.00    +0.000 O 
BRANCH   87   89
ATOM    133  H38 UNL A   1      34.039  21.390  24.659  1.00  0.00    +0.000 H 
ATOM    134  H39 UNL A   1      35.307  19.481  25.486  1.00  0.00    +0.000 H 
ATOM    135  H40 UNL A   1      32.821  16.873  23.308  1.00  0.00    +0.000 H 
ATOM    136  H41 UNL A   1      31.584  18.779  22.439  1.00  0.00    +0.000 H 
ATOM     89  C64 UNL A   1      32.775  20.224  23.425  1.00  0.00    +0.000 C 
ATOM     90  C65 UNL A   1      33.807  20.435  24.344  1.00  0.00    +0.000 C 
ATOM     91  C66 UNL A   1      34.521  19.337  24.832  1.00  0.00    +0.000 C 
ATOM     92  C67 UNL A   1      34.170  18.045  24.434  1.00  0.00    +0.000 C 
ATOM     93 Cl1  UNL A   1      35.082  16.700  25.000  1.00  0.00    +0.000 Cl
ATOM     94  C68 UNL A   1      33.094  17.834  23.572  1.00  0.00    +0.000 C 
ATOM     95  C69 UNL A   1      32.388  18.925  23.069  1.00  0.00    +0.000 C 
ENDBRANCH   87   89
ENDBRANCH   86   87
ENDBRANCH    4    3
ENDBRANCH    5    4
ENDBRANCH    7    5
ENDBRANCH    8    7
ENDBRANCH    9    8
ENDBRANCH   10    9
ENDBRANCH   11   10
ENDBRANCH   12   11
ENDBRANCH   13   12
ENDBRANCH   14   13
ENDBRANCH   15   14
ENDBRANCH   17   15
ENDBRANCH   21   20
BRANCH   25   26
ATOM     33  C25 UNL A   1      44.739  34.189  27.320  1.00  0.00    +0.000 C 
ATOM     34  F4  UNL A   1      44.017  35.303  27.509  1.00  0.00    +0.000 F 
ATOM     35  C26 UNL A   1      44.227  32.963  27.742  1.00  0.00    +0.000 C 
ATOM     36  F5  UNL A   1      43.051  33.027  28.373  1.00  0.00    +0.000 F 
ATOM     26  C21 UNL A   1      44.950  31.757  27.614  1.00  0.00    +0.000 C 
ATOM     27  C22 UNL A   1      46.215  31.873  27.000  1.00  0.00    +0.000 C 
ATOM     28  F1  UNL A   1      46.999  30.796  26.838  1.00  0.00    +0.000 F 
ATOM     29  C23 UNL A   1      46.745  33.111  26.625  1.00  0.00    +0.000 C 
ATOM     30  F2  UNL A   1      48.002  33.185  26.165  1.00  0.00    +0.000 F 
ATOM     31  C24 UNL A   1      46.009  34.270  26.794  1.00  0.00    +0.000 C 
ATOM     32  F3  UNL A   1      46.540  35.463  26.496  1.00  0.00    +0.000 F 
ENDBRANCH   25   26
BRANCH   42   43
ATOM     43  C32 UNL A   1      42.430  29.714  33.653  1.00  0.00    +0.000 C 
ATOM     44  C33 UNL A   1      41.844  28.438  33.572  1.00  0.00    +0.000 C 
ATOM     45  F6  UNL A   1      41.413  27.952  32.400  1.00  0.00    +0.000 F 
ATOM     46  C34 UNL A   1      41.749  27.616  34.695  1.00  0.00    +0.000 C 
ATOM     47  F7  UNL A   1      41.183  26.404  34.597  1.00  0.00    +0.000 F 
ATOM     48  C35 UNL A   1      42.279  28.031  35.907  1.00  0.00    +0.000 C 
ATOM     49  F8  UNL A   1      42.235  27.221  36.974  1.00  0.00    +0.000 F 
ATOM     50  C36 UNL A   1      42.883  29.274  36.003  1.00  0.00    +0.000 C 
ATOM     51  F9  UNL A   1      43.441  29.659  37.159  1.00  0.00    +0.000 F 
ATOM     52  C37 UNL A   1      42.945  30.112  34.893  1.00  0.00    +0.000 C 
ATOM     53  F10 UNL A   1      43.562  31.297  35.015  1.00  0.00    +0.000 F 
ENDBRANCH   42   43
BRANCH   57   58
ATOM     65  C45 UNL A   1      35.801  33.642  30.000  1.00  0.00    +0.000 C 
ATOM     66  F14 UNL A   1      35.617  34.369  28.890  1.00  0.00    +0.000 F 
ATOM     67  C46 UNL A   1      36.766  32.633  30.014  1.00  0.00    +0.000 C 
ATOM     68  F15 UNL A   1      37.489  32.465  28.898  1.00  0.00    +0.000 F 
ATOM     58  C41 UNL A   1      37.050  31.891  31.177  1.00  0.00    +0.000 C 
ATOM     59  C42 UNL A   1      36.279  32.193  32.313  1.00  0.00    +0.000 C 
ATOM     60  F11 UNL A   1      36.512  31.561  33.473  1.00  0.00    +0.000 F 
ATOM     61  C43 UNL A   1      35.315  33.207  32.299  1.00  0.00    +0.000 C 
ATOM     62  F12 UNL A   1      34.650  33.515  33.423  1.00  0.00    +0.000 F 
ATOM     63  C44 UNL A   1      35.088  33.940  31.146  1.00  0.00    +0.000 C 
ATOM     64  F13 UNL A   1      34.216  34.959  31.152  1.00  0.00    +0.000 F 
ENDBRANCH   57   58
TORSDOF 19
ENDMDL
MODEL 4
REMARK VINA RESULT:     -11.3      1.989      3.751
ROOT
ATOM     21  C17 UNL A   1      40.462  27.967  29.207  1.00  0.00    +0.000 C 
ATOM     22  C18 UNL A   1      41.663  28.708  28.731  1.00  0.00    +0.000 C 
ATOM     23  N3  UNL A   1      42.756  28.944  29.382  1.00  0.00    +0.000 N 
ATOM     24  C19 UNL A   1      43.568  29.671  28.516  1.00  0.00    +0.000 C 
ATOM     25  C20 UNL A   1      44.587  30.443  28.984  1.00  0.00    +0.000 C 
ATOM     37  C27 UNL A   1      44.978  30.044  30.311  1.00  0.00    +0.000 C 
ATOM     38  C28 UNL A   1      45.548  28.913  30.860  1.00  0.00    +0.000 C 
ATOM     39  C29 UNL A   1      44.940  28.777  32.143  1.00  0.00    +0.000 C 
ATOM     40  C30 UNL A   1      44.079  29.859  32.324  1.00  0.00    +0.000 C 
ATOM     41  N4  UNL A   1      44.472  30.756  31.367  1.00  0.00    +0.000 N 
ATOM     42  C31 UNL A   1      42.945  30.070  33.192  1.00  0.00    +0.000 C 
ATOM     54  C38 UNL A   1      41.969  31.001  32.984  1.00  0.00    +0.000 C 
ATOM     55  N5  UNL A   1      40.721  30.861  33.571  1.00  0.00    +0.000 N 
ATOM     56  C39 UNL A   1      39.910  31.497  32.773  1.00  0.00    +0.000 C 
ATOM     57  C40 UNL A   1      38.546  31.015  32.442  1.00  0.00    +0.000 C 
ATOM     69  C47 UNL A   1      38.698  29.880  31.713  1.00  0.00    +0.000 C 
ATOM     70  C48 UNL A   1      37.769  28.804  31.442  1.00  0.00    +0.000 C 
ATOM     71  C49 UNL A   1      38.367  27.911  30.626  1.00  0.00    +0.000 C 
ATOM     72  C50 UNL A   1      39.663  28.433  30.190  1.00  0.00    +0.000 C 
ATOM     73  N6  UNL A   1      39.849  29.558  30.966  1.00  0.00    +0.000 N 
ATOM     74  C51 UNL A   1      40.534  32.439  31.857  1.00  0.00    +0.000 C 
ATOM     75  C52 UNL A   1      41.800  32.034  31.967  1.00  0.00    +0.000 C 
ATOM     76  C53 UNL A   1      42.942  29.609  27.221  1.00  0.00    +0.000 C 
ATOM     77  C54 UNL A   1      41.717  29.092  27.312  1.00  0.00    +0.000 C 
ATOM    117  H22 UNL A   1      46.261  28.299  30.436  1.00  0.00    +0.000 H 
ATOM    118  H23 UNL A   1      45.107  28.014  32.817  1.00  0.00    +0.000 H 
ATOM    119  H24 UNL A   1      44.404  31.737  31.427  1.00  0.00    +0.000 H 
ATOM    120  H25 UNL A   1      36.808  28.731  31.813  1.00  0.00    +0.000 H 
ATOM    121  H26 UNL A   1      37.971  26.999  30.349  1.00  0.00    +0.000 H 
ATOM    122  H27 UNL A   1      40.687  30.076  30.994  1.00  0.00    +0.000 H 
ATOM    123  H28 UNL A   1      40.120  33.197  31.292  1.00  0.00    +0.000 H 
ATOM    124  H29 UNL A   1      42.574  32.408  31.396  1.00  0.00    +0.000 H 
ATOM    125  H30 UNL A   1      43.383  29.922  26.342  1.00  0.00    +0.000 H 
ATOM    126  H31 UNL A   1      40.997  28.987  26.580  1.00  0.00    +0.000 H 
ENDROOT
BRANCH   21   20
ATOM     78  C55 UNL A   1      39.204  26.618  27.537  1.00  0.00    +0.000 C 
ATOM     79  C56 UNL A   1      38.971  25.389  26.934  1.00  0.00    +0.000 C 
ATOM     17  C13 UNL A   1      39.750  24.260  27.255  1.00  0.00    +0.000 C 
ATOM     18  C14 UNL A   1      40.852  24.428  28.090  1.00  0.00    +0.000 C 
ATOM     19  C15 UNL A   1      41.071  25.646  28.722  1.00  0.00    +0.000 C 
ATOM    115  H20 UNL A   1      41.509  23.646  28.241  1.00  0.00    +0.000 H 
ATOM    116  H21 UNL A   1      41.871  25.757  29.364  1.00  0.00    +0.000 H 
ATOM     20  C16 UNL A   1      40.209  26.722  28.489  1.00  0.00    +0.000 C 
ATOM    127  H32 UNL A   1      38.638  27.443  27.281  1.00  0.00    +0.000 H 
ATOM    128  H33 UNL A   1      38.213  25.302  26.240  1.00  0.00    +0.000 H 
BRANCH   17   15
ATOM     15  C12 UNL A   1      39.245  22.960  26.736  1.00  0.00    +0.000 C 
ATOM     16  O2  UNL A   1      39.842  21.928  27.051  1.00  0.00    +0.000 O 
BRANCH   15   14
ATOM    114  H19 UNL A   1      38.513  22.677  24.933  1.00  0.00    +0.000 H 
ATOM     14  N2  UNL A   1      38.208  22.814  25.859  1.00  0.00    +0.000 N 
BRANCH   14   13
ATOM    113  H18 UNL A   1      36.530  23.014  26.999  1.00  0.00    +0.000 H 
ATOM     13  C11 UNL A   1      36.764  22.813  25.975  1.00  0.00    +0.000 C 
ATOM    112  H17 UNL A   1      36.401  21.858  25.654  1.00  0.00    +0.000 H 
BRANCH   13   12
ATOM     12  C10 UNL A   1      36.082  23.895  25.136  1.00  0.00    +0.000 C 
ATOM    110  H15 UNL A   1      36.838  24.541  24.743  1.00  0.00    +0.000 H 
ATOM    111  H16 UNL A   1      35.531  23.391  24.371  1.00  0.00    +0.000 H 
BRANCH   12   11
ATOM     11  C9  UNL A   1      35.076  24.749  25.917  1.00  0.00    +0.000 C 
ATOM    108  H13 UNL A   1      34.344  24.094  26.340  1.00  0.00    +0.000 H 
ATOM    109  H14 UNL A   1      35.643  25.284  26.649  1.00  0.00    +0.000 H 
BRANCH   11   10
ATOM     10  C8  UNL A   1      34.343  25.807  25.085  1.00  0.00    +0.000 C 
ATOM    107  H12 UNL A   1      33.495  25.318  24.653  1.00  0.00    +0.000 H 
ATOM    106  H11 UNL A   1      35.024  26.189  24.355  1.00  0.00    +0.000 H 
BRANCH   10    9
ATOM      9  C7  UNL A   1      33.794  26.990  25.891  1.00  0.00    +0.000 C 
ATOM    105  H10 UNL A   1      33.603  27.784  25.201  1.00  0.00    +0.000 H 
ATOM    104  H9  UNL A   1      34.521  27.265  26.629  1.00  0.00    +0.000 H 
BRANCH    9    8
ATOM    102  H7  UNL A   1      32.278  25.631  26.523  1.00  0.00    +0.000 H 
ATOM    103  H8  UNL A   1      32.569  26.973  27.626  1.00  0.00    +0.000 H 
ATOM      8  C6  UNL A   1      32.476  26.679  26.601  1.00  0.00    +0.000 C 
BRANCH    8    7
ATOM    101  H6  UNL A   1      31.155  28.273  26.443  1.00  0.00    +0.000 H 
ATOM      7  N1  UNL A   1      31.373  27.413  26.015  1.00  0.00    +0.000 N 
BRANCH    7    5
ATOM      5  C5  UNL A   1      30.598  27.066  24.946  1.00  0.00    +0.000 C 
ATOM      6  O1  UNL A   1      30.403  27.907  24.066  1.00  0.00    +0.000 O 
BRANCH    5    4
ATOM    100  H5  UNL A   1      29.282  25.694  24.052  1.00  0.00    +0.000 H 
ATOM     99  H4  UNL A   1      29.427  25.530  25.817  1.00  0.00    +0.000 H 
ATOM      4  C4  UNL A   1      29.943  25.693  24.894  1.00  0.00    +0.000 C 
BRANCH    4    3
ATOM    129  H34 UNL A   1      31.371  26.012  22.222  1.00  0.00    +0.000 H 
ATOM      2  C2  UNL A   1      31.162  23.497  25.538  1.00  0.00    +0.000 C 
ATOM      3  C3  UNL A   1      30.917  24.567  24.687  1.00  0.00    +0.000 C 
ATOM    132  H37 UNL A   1      33.763  21.817  22.751  1.00  0.00    +0.000 H 
ATOM    130  H35 UNL A   1      32.915  25.268  20.509  1.00  0.00    +0.000 H 
ATOM    131  H36 UNL A   1      34.077  23.171  20.760  1.00  0.00    +0.000 H 
ATOM     80  C57 UNL A   1      31.739  24.387  23.541  1.00  0.00    +0.000 C 
ATOM     81  C58 UNL A   1      31.901  25.137  22.354  1.00  0.00    +0.000 C 
ATOM     82  C59 UNL A   1      32.773  24.699  21.358  1.00  0.00    +0.000 C 
ATOM     83  C60 UNL A   1      33.447  23.500  21.509  1.00  0.00    +0.000 C 
ATOM     84  C61 UNL A   1      33.285  22.729  22.664  1.00  0.00    +0.000 C 
ATOM     85  C62 UNL A   1      32.467  23.203  23.711  1.00  0.00    +0.000 C 
ATOM     86  N7  UNL A   1      32.212  22.730  25.009  1.00  0.00    +0.000 N 
BRANCH    2    1
ATOM      1  C1  UNL A   1      30.501  23.176  26.844  1.00  0.00    +0.000 C 
ATOM     98  H3  UNL A   1      30.220  22.144  26.856  1.00  0.00    +0.000 H 
ATOM     97  H2  UNL A   1      31.182  23.370  27.645  1.00  0.00    +0.000 H 
ATOM     96  H1  UNL A   1      29.629  23.785  26.960  1.00  0.00    +0.000 H 
ENDBRANCH    2    1
BRANCH   86   87
ATOM     87  C63 UNL A   1      32.882  21.675  25.701  1.00  0.00    +0.000 C 
ATOM     88  O3  UNL A   1      33.208  21.844  26.870  1.00  0.00    +0.000 O 
BRANCH   87   89
ATOM    133  H38 UNL A   1      35.306  20.463  25.540  1.00  0.00    +0.000 H 
ATOM    134  H39 UNL A   1      35.815  18.349  24.442  1.00  0.00    +0.000 H 
ATOM    135  H40 UNL A   1      31.719  17.744  23.683  1.00  0.00    +0.000 H 
ATOM    136  H41 UNL A   1      31.209  19.878  24.733  1.00  0.00    +0.000 H 
ATOM     89  C64 UNL A   1      33.230  20.359  25.140  1.00  0.00    +0.000 C 
ATOM     90  C65 UNL A   1      34.551  19.904  25.112  1.00  0.00    +0.000 C 
ATOM     91  C66 UNL A   1      34.840  18.681  24.498  1.00  0.00    +0.000 C 
ATOM     92  C67 UNL A   1      33.806  17.911  23.962  1.00  0.00    +0.000 C 
ATOM     93 Cl1  UNL A   1      34.170  16.430  23.165  1.00  0.00    +0.000 Cl
ATOM     94  C68 UNL A   1      32.480  18.335  24.055  1.00  0.00    +0.000 C 
ATOM     95  C69 UNL A   1      32.188  19.560  24.651  1.00  0.00    +0.000 C 
ENDBRANCH   87   89
ENDBRANCH   86   87
ENDBRANCH    4    3
ENDBRANCH    5    4
ENDBRANCH    7    5
ENDBRANCH    8    7
ENDBRANCH    9    8
ENDBRANCH   10    9
ENDBRANCH   11   10
ENDBRANCH   12   11
ENDBRANCH   13   12
ENDBRANCH   14   13
ENDBRANCH   15   14
ENDBRANCH   17   15
ENDBRANCH   21   20
BRANCH   25   26
ATOM     33  C25 UNL A   1      46.319  33.123  26.838  1.00  0.00    +0.000 C 
ATOM     34  F4  UNL A   1      47.433  33.243  26.102  1.00  0.00    +0.000 F 
ATOM     35  C26 UNL A   1      46.143  31.993  27.635  1.00  0.00    +0.000 C 
ATOM     36  F5  UNL A   1      47.109  31.074  27.535  1.00  0.00    +0.000 F 
ATOM     26  C21 UNL A   1      44.977  31.781  28.402  1.00  0.00    +0.000 C 
ATOM     27  C22 UNL A   1      44.013  32.809  28.333  1.00  0.00    +0.000 C 
ATOM     28  F1  UNL A   1      42.857  32.712  29.008  1.00  0.00    +0.000 F 
ATOM     29  C23 UNL A   1      44.171  33.917  27.494  1.00  0.00    +0.000 C 
ATOM     30  F2  UNL A   1      43.172  34.801  27.364  1.00  0.00    +0.000 F 
ATOM     31  C24 UNL A   1      45.320  34.068  26.740  1.00  0.00    +0.000 C 
ATOM     32  F3  UNL A   1      45.446  35.093  25.888  1.00  0.00    +0.000 F 
ENDBRANCH   25   26
BRANCH   42   43
ATOM     43  C32 UNL A   1      42.711  29.039  34.262  1.00  0.00    +0.000 C 
ATOM     44  C33 UNL A   1      41.934  27.882  34.075  1.00  0.00    +0.000 C 
ATOM     45  F6  UNL A   1      41.299  27.660  32.916  1.00  0.00    +0.000 F 
ATOM     46  C34 UNL A   1      41.851  26.901  35.064  1.00  0.00    +0.000 C 
ATOM     47  F7  UNL A   1      41.101  25.807  34.867  1.00  0.00    +0.000 F 
ATOM     48  C35 UNL A   1      42.577  27.035  36.237  1.00  0.00    +0.000 C 
ATOM     49  F8  UNL A   1      42.539  26.070  37.166  1.00  0.00    +0.000 F 
ATOM     50  C36 UNL A   1      43.369  28.155  36.432  1.00  0.00    +0.000 C 
ATOM     51  F9  UNL A   1      44.112  28.265  37.541  1.00  0.00    +0.000 F 
ATOM     52  C37 UNL A   1      43.424  29.152  35.462  1.00  0.00    +0.000 C 
ATOM     53  F10 UNL A   1      44.223  30.210  35.671  1.00  0.00    +0.000 F 
ENDBRANCH   42   43
BRANCH   57   58
ATOM     65  C45 UNL A   1      36.009  33.685  31.534  1.00  0.00    +0.000 C 
ATOM     66  F14 UNL A   1      35.643  34.371  30.442  1.00  0.00    +0.000 F 
ATOM     67  C46 UNL A   1      36.886  32.606  31.412  1.00  0.00    +0.000 C 
ATOM     68  F15 UNL A   1      37.345  32.330  30.183  1.00  0.00    +0.000 F 
ATOM     58  C41 UNL A   1      37.359  31.901  32.535  1.00  0.00    +0.000 C 
ATOM     59  C42 UNL A   1      36.867  32.316  33.785  1.00  0.00    +0.000 C 
ATOM     60  F11 UNL A   1      37.296  31.724  34.910  1.00  0.00    +0.000 F 
ATOM     61  C43 UNL A   1      35.990  33.400  33.907  1.00  0.00    +0.000 C 
ATOM     62  F12 UNL A   1      35.598  33.811  35.122  1.00  0.00    +0.000 F 
ATOM     63  C44 UNL A   1      35.574  34.092  32.782  1.00  0.00    +0.000 C 
ATOM     64  F13 UNL A   1      34.791  35.175  32.903  1.00  0.00    +0.000 F 
ENDBRANCH   57   58
TORSDOF 19
ENDMDL
MODEL 5
REMARK VINA RESULT:     -10.7     18.583     23.387
ROOT
ATOM     21  C17 UNL A   1      26.406  33.105  46.249  1.00  0.00    +0.000 C 
ATOM     22  C18 UNL A   1      27.044  32.060  47.096  1.00  0.00    +0.000 C 
ATOM     23  N3  UNL A   1      27.655  32.221  48.224  1.00  0.00    +0.000 N 
ATOM     24  C19 UNL A   1      28.077  30.953  48.616  1.00  0.00    +0.000 C 
ATOM     25  C20 UNL A   1      29.094  30.790  49.507  1.00  0.00    +0.000 C 
ATOM     37  C27 UNL A   1      29.306  31.986  50.280  1.00  0.00    +0.000 C 
ATOM     38  C28 UNL A   1      28.569  32.687  51.212  1.00  0.00    +0.000 C 
ATOM     39  C29 UNL A   1      28.876  34.059  50.972  1.00  0.00    +0.000 C 
ATOM     40  C30 UNL A   1      29.822  34.112  49.949  1.00  0.00    +0.000 C 
ATOM     41  N4  UNL A   1      30.309  32.833  49.884  1.00  0.00    +0.000 N 
ATOM     42  C31 UNL A   1      30.213  35.157  49.034  1.00  0.00    +0.000 C 
ATOM     54  C38 UNL A   1      30.853  34.952  47.846  1.00  0.00    +0.000 C 
ATOM     55  N5  UNL A   1      30.800  35.903  46.839  1.00  0.00    +0.000 N 
ATOM     56  C39 UNL A   1      30.958  35.224  45.738  1.00  0.00    +0.000 C 
ATOM     57  C40 UNL A   1      30.215  35.516  44.486  1.00  0.00    +0.000 C 
ATOM     69  C47 UNL A   1      28.913  35.212  44.725  1.00  0.00    +0.000 C 
ATOM     70  C48 UNL A   1      27.709  35.627  44.037  1.00  0.00    +0.000 C 
ATOM     71  C49 UNL A   1      26.650  35.025  44.619  1.00  0.00    +0.000 C 
ATOM     72  C50 UNL A   1      27.117  34.062  45.617  1.00  0.00    +0.000 C 
ATOM     73  N6  UNL A   1      28.471  34.306  45.710  1.00  0.00    +0.000 N 
ATOM     74  C51 UNL A   1      31.531  33.897  45.890  1.00  0.00    +0.000 C 
ATOM     75  C52 UNL A   1      31.367  33.745  47.206  1.00  0.00    +0.000 C 
ATOM     76  C53 UNL A   1      27.428  30.017  47.736  1.00  0.00    +0.000 C 
ATOM     77  C54 UNL A   1      26.837  30.651  46.723  1.00  0.00    +0.000 C 
ATOM    117  H22 UNL A   1      27.933  32.304  51.929  1.00  0.00    +0.000 H 
ATOM    118  H23 UNL A   1      28.470  34.869  51.467  1.00  0.00    +0.000 H 
ATOM    119  H24 UNL A   1      31.215  32.570  49.604  1.00  0.00    +0.000 H 
ATOM    120  H25 UNL A   1      27.667  36.275  43.235  1.00  0.00    +0.000 H 
ATOM    121  H26 UNL A   1      25.661  35.215  44.394  1.00  0.00    +0.000 H 
ATOM    122  H27 UNL A   1      29.060  33.896  46.386  1.00  0.00    +0.000 H 
ATOM    123  H28 UNL A   1      31.943  33.261  45.189  1.00  0.00    +0.000 H 
ATOM    124  H29 UNL A   1      31.580  32.873  47.713  1.00  0.00    +0.000 H 
ATOM    125  H30 UNL A   1      27.420  28.994  47.873  1.00  0.00    +0.000 H 
ATOM    126  H31 UNL A   1      26.360  30.259  45.897  1.00  0.00    +0.000 H 
ENDROOT
BRANCH   21   20
ATOM     78  C55 UNL A   1      24.111  33.234  47.203  1.00  0.00    +0.000 C 
ATOM     79  C56 UNL A   1      22.746  33.031  47.047  1.00  0.00    +0.000 C 
ATOM     17  C13 UNL A   1      22.209  32.590  45.821  1.00  0.00    +0.000 C 
ATOM     18  C14 UNL A   1      23.057  32.492  44.721  1.00  0.00    +0.000 C 
ATOM     19  C15 UNL A   1      24.427  32.662  44.877  1.00  0.00    +0.000 C 
ATOM    115  H20 UNL A   1      22.667  32.292  43.786  1.00  0.00    +0.000 H 
ATOM    116  H21 UNL A   1      25.055  32.557  44.065  1.00  0.00    +0.000 H 
ATOM     20  C16 UNL A   1      24.957  32.974  46.133  1.00  0.00    +0.000 C 
ATOM    127  H32 UNL A   1      24.492  33.574  48.100  1.00  0.00    +0.000 H 
ATOM    128  H33 UNL A   1      22.115  33.204  47.844  1.00  0.00    +0.000 H 
BRANCH   17   15
ATOM     15  C12 UNL A   1      20.781  32.172  45.857  1.00  0.00    +0.000 C 
ATOM     16  O2  UNL A   1      20.104  32.470  46.843  1.00  0.00    +0.000 O 
BRANCH   15   14
ATOM    114  H19 UNL A   1      19.958  30.496  45.238  1.00  0.00    +0.000 H 
ATOM     14  N2  UNL A   1      20.164  31.402  44.911  1.00  0.00    +0.000 N 
BRANCH   14   13
ATOM    113  H18 UNL A   1      20.222  30.860  42.948  1.00  0.00    +0.000 H 
ATOM     13  C11 UNL A   1      19.742  31.609  43.541  1.00  0.00    +0.000 C 
ATOM    112  H17 UNL A   1      20.019  32.600  43.249  1.00  0.00    +0.000 H 
BRANCH   13   12
ATOM     12  C10 UNL A   1      18.235  31.449  43.335  1.00  0.00    +0.000 C 
ATOM    110  H15 UNL A   1      17.786  32.419  43.367  1.00  0.00    +0.000 H 
ATOM    111  H16 UNL A   1      18.102  30.964  42.390  1.00  0.00    +0.000 H 
BRANCH   12   11
ATOM     11  C9  UNL A   1      17.550  30.567  44.385  1.00  0.00    +0.000 C 
ATOM    108  H13 UNL A   1      18.268  29.860  44.743  1.00  0.00    +0.000 H 
ATOM    109  H14 UNL A   1      17.190  31.229  45.143  1.00  0.00    +0.000 H 
BRANCH   11   10
ATOM     10  C8  UNL A   1      16.329  29.789  43.881  1.00  0.00    +0.000 C 
ATOM    107  H12 UNL A   1      16.012  30.274  42.982  1.00  0.00    +0.000 H 
ATOM    106  H11 UNL A   1      15.586  29.799  44.650  1.00  0.00    +0.000 H 
BRANCH   10    9
ATOM      9  C7  UNL A   1      16.609  28.328  43.507  1.00  0.00    +0.000 C 
ATOM    105  H10 UNL A   1      17.306  27.945  44.221  1.00  0.00    +0.000 H 
ATOM    104  H9  UNL A   1      16.998  28.301  42.510  1.00  0.00    +0.000 H 
BRANCH    9    8
ATOM    102  H7  UNL A   1      15.360  26.910  44.494  1.00  0.00    +0.000 H 
ATOM    103  H8  UNL A   1      14.501  28.067  43.483  1.00  0.00    +0.000 H 
ATOM      8  C6  UNL A   1      15.365  27.441  43.567  1.00  0.00    +0.000 C 
BRANCH    8    7
ATOM    101  H6  UNL A   1      15.553  25.555  42.718  1.00  0.00    +0.000 H 
ATOM      7  N1  UNL A   1      15.343  26.486  42.477  1.00  0.00    +0.000 N 
BRANCH    7    5
ATOM      5  C5  UNL A   1      15.069  26.712  41.158  1.00  0.00    +0.000 C 
ATOM      6  O1  UNL A   1      15.837  27.432  40.515  1.00  0.00    +0.000 O 
BRANCH    5    4
ATOM    100  H5  UNL A   1      13.708  26.579  39.563  1.00  0.00    +0.000 H 
ATOM     99  H4  UNL A   1      12.978  26.371  41.171  1.00  0.00    +0.000 H 
ATOM      4  C4  UNL A   1      13.806  26.139  40.533  1.00  0.00    +0.000 C 
BRANCH    4    3
ATOM    129  H34 UNL A   1      15.211  25.464  37.917  1.00  0.00    +0.000 H 
ATOM      2  C2  UNL A   1      13.331  23.671  41.174  1.00  0.00    +0.000 C 
ATOM      3  C3  UNL A   1      13.851  24.649  40.337  1.00  0.00    +0.000 C 
ATOM    132  H37 UNL A   1      14.380  20.707  38.441  1.00  0.00    +0.000 H 
ATOM    130  H35 UNL A   1      15.997  23.900  36.241  1.00  0.00    +0.000 H 
ATOM    131  H36 UNL A   1      15.555  21.543  36.489  1.00  0.00    +0.000 H 
ATOM     80  C57 UNL A   1      14.415  23.982  39.215  1.00  0.00    +0.000 C 
ATOM     81  C58 UNL A   1      15.061  24.452  38.049  1.00  0.00    +0.000 C 
ATOM     82  C59 UNL A   1      15.495  23.555  37.074  1.00  0.00    +0.000 C 
ATOM     83  C60 UNL A   1      15.249  22.202  37.223  1.00  0.00    +0.000 C 
ATOM     84  C61 UNL A   1      14.592  21.714  38.357  1.00  0.00    +0.000 C 
ATOM     85  C62 UNL A   1      14.221  22.606  39.386  1.00  0.00    +0.000 C 
ATOM     86  N7  UNL A   1      13.675  22.409  40.665  1.00  0.00    +0.000 N 
BRANCH    2    1
ATOM      1  C1  UNL A   1      12.567  23.849  42.451  1.00  0.00    +0.000 C 
ATOM     98  H3  UNL A   1      13.252  24.016  43.256  1.00  0.00    +0.000 H 
ATOM     97  H2  UNL A   1      11.912  24.689  42.361  1.00  0.00    +0.000 H 
ATOM     96  H1  UNL A   1      11.994  22.967  42.649  1.00  0.00    +0.000 H 
ENDBRANCH    2    1
BRANCH   86   87
ATOM     87  C63 UNL A   1      13.497  21.173  41.358  1.00  0.00    +0.000 C 
ATOM     88  O3  UNL A   1      14.247  20.899  42.288  1.00  0.00    +0.000 O 
BRANCH   87   89
ATOM    133  H38 UNL A   1      13.357  19.418  39.291  1.00  0.00    +0.000 H 
ATOM    134  H39 UNL A   1      11.530  17.884  38.796  1.00  0.00    +0.000 H 
ATOM    135  H40 UNL A   1       9.614  18.992  42.377  1.00  0.00    +0.000 H 
ATOM    136  H41 UNL A   1      11.410  20.562  42.851  1.00  0.00    +0.000 H 
ATOM     89  C64 UNL A   1      12.471  20.159  41.065  1.00  0.00    +0.000 C 
ATOM     90  C65 UNL A   1      12.544  19.354  39.925  1.00  0.00    +0.000 C 
ATOM     91  C66 UNL A   1      11.504  18.460  39.651  1.00  0.00    +0.000 C 
ATOM     92  C67 UNL A   1      10.431  18.350  40.538  1.00  0.00    +0.000 C 
ATOM     93 Cl1  UNL A   1       9.130  17.284  40.174  1.00  0.00    +0.000 Cl
ATOM     94  C68 UNL A   1      10.396  19.104  41.711  1.00  0.00    +0.000 C 
ATOM     95  C69 UNL A   1      11.422  20.007  41.981  1.00  0.00    +0.000 C 
ENDBRANCH   87   89
ENDBRANCH   86   87
ENDBRANCH    4    3
ENDBRANCH    5    4
ENDBRANCH    7    5
ENDBRANCH    8    7
ENDBRANCH    9    8
ENDBRANCH   10    9
ENDBRANCH   11   10
ENDBRANCH   12   11
ENDBRANCH   13   12
ENDBRANCH   14   13
ENDBRANCH   15   14
ENDBRANCH   17   15
ENDBRANCH   21   20
BRANCH   25   26
ATOM     33  C25 UNL A   1      30.927  27.455  50.052  1.00  0.00    +0.000 C 
ATOM     34  F4  UNL A   1      30.916  26.446  50.934  1.00  0.00    +0.000 F 
ATOM     35  C26 UNL A   1      30.199  28.612  50.326  1.00  0.00    +0.000 C 
ATOM     36  F5  UNL A   1      29.484  28.576  51.456  1.00  0.00    +0.000 F 
ATOM     26  C21 UNL A   1      30.130  29.694  49.423  1.00  0.00    +0.000 C 
ATOM     27  C22 UNL A   1      30.875  29.540  48.236  1.00  0.00    +0.000 C 
ATOM     28  F1  UNL A   1      30.874  30.498  47.296  1.00  0.00    +0.000 F 
ATOM     29  C23 UNL A   1      31.563  28.359  47.942  1.00  0.00    +0.000 C 
ATOM     30  F2  UNL A   1      32.150  28.210  46.746  1.00  0.00    +0.000 F 
ATOM     31  C24 UNL A   1      31.580  27.313  48.847  1.00  0.00    +0.000 C 
ATOM     32  F3  UNL A   1      32.183  26.157  48.541  1.00  0.00    +0.000 F 
ENDBRANCH   25   26
BRANCH   42   43
ATOM     43  C32 UNL A   1      29.669  36.533  49.306  1.00  0.00    +0.000 C 
ATOM     44  C33 UNL A   1      28.396  36.966  48.895  1.00  0.00    +0.000 C 
ATOM     45  F6  UNL A   1      27.600  36.168  48.170  1.00  0.00    +0.000 F 
ATOM     46  C34 UNL A   1      27.899  38.211  49.280  1.00  0.00    +0.000 C 
ATOM     47  F7  UNL A   1      26.683  38.606  48.873  1.00  0.00    +0.000 F 
ATOM     48  C35 UNL A   1      28.641  39.026  50.119  1.00  0.00    +0.000 C 
ATOM     49  F8  UNL A   1      28.143  40.200  50.531  1.00  0.00    +0.000 F 
ATOM     50  C36 UNL A   1      29.888  38.609  50.556  1.00  0.00    +0.000 C 
ATOM     51  F9  UNL A   1      30.588  39.371  51.408  1.00  0.00    +0.000 F 
ATOM     52  C37 UNL A   1      30.403  37.384  50.143  1.00  0.00    +0.000 C 
ATOM     53  F10 UNL A   1      31.601  36.999  50.609  1.00  0.00    +0.000 F 
ENDBRANCH   42   43
BRANCH   57   58
ATOM     65  C45 UNL A   1      31.381  37.044  41.216  1.00  0.00    +0.000 C 
ATOM     66  F14 UNL A   1      31.440  38.262  40.660  1.00  0.00    +0.000 F 
ATOM     67  C46 UNL A   1      31.053  36.916  42.567  1.00  0.00    +0.000 C 
ATOM     68  F15 UNL A   1      30.781  38.044  43.238  1.00  0.00    +0.000 F 
ATOM     58  C41 UNL A   1      30.906  35.657  43.181  1.00  0.00    +0.000 C 
ATOM     59  C42 UNL A   1      31.148  34.535  42.369  1.00  0.00    +0.000 C 
ATOM     60  F11 UNL A   1      30.991  33.298  42.863  1.00  0.00    +0.000 F 
ATOM     61  C43 UNL A   1      31.474  34.665  41.014  1.00  0.00    +0.000 C 
ATOM     62  F12 UNL A   1      31.628  33.570  40.255  1.00  0.00    +0.000 F 
ATOM     63  C44 UNL A   1      31.575  35.919  40.436  1.00  0.00    +0.000 C 
ATOM     64  F13 UNL A   1      31.817  36.043  39.123  1.00  0.00    +0.000 F 
ENDBRANCH   57   58
TORSDOF 19
ENDMDL
MODEL 6
REMARK VINA RESULT:     -10.6     34.793     41.409
ROOT
ATOM     21  C17 UNL A   1       8.330  30.387   0.685  1.00  0.00    +0.000 C 
ATOM     22  C18 UNL A   1       7.578  31.171  -0.333  1.00  0.00    +0.000 C 
ATOM     23  N3  UNL A   1       7.550  30.985  -1.613  1.00  0.00    +0.000 N 
ATOM     24  C19 UNL A   1       6.714  31.972  -2.126  1.00  0.00    +0.000 C 
ATOM     25  C20 UNL A   1       6.783  32.348  -3.433  1.00  0.00    +0.000 C 
ATOM     37  C27 UNL A   1       7.421  31.336  -4.233  1.00  0.00    +0.000 C 
ATOM     38  C28 UNL A   1       7.112  30.041  -4.596  1.00  0.00    +0.000 C 
ATOM     39  C29 UNL A   1       8.363  29.357  -4.631  1.00  0.00    +0.000 C 
ATOM     40  C30 UNL A   1       9.365  30.284  -4.344  1.00  0.00    +0.000 C 
ATOM     41  N4  UNL A   1       8.752  31.496  -4.523  1.00  0.00    +0.000 N 
ATOM     42  C31 UNL A   1      10.718  30.141  -3.865  1.00  0.00    +0.000 C 
ATOM     54  C38 UNL A   1      11.436  31.130  -3.258  1.00  0.00    +0.000 C 
ATOM     55  N5  UNL A   1      12.515  30.823  -2.443  1.00  0.00    +0.000 N 
ATOM     56  C39 UNL A   1      12.591  31.823  -1.610  1.00  0.00    +0.000 C 
ATOM     57  C40 UNL A   1      12.921  31.661  -0.171  1.00  0.00    +0.000 C 
ATOM     69  C47 UNL A   1      11.878  31.003   0.398  1.00  0.00    +0.000 C 
ATOM     70  C48 UNL A   1      11.799  30.260   1.637  1.00  0.00    +0.000 C 
ATOM     71  C49 UNL A   1      10.532  29.822   1.798  1.00  0.00    +0.000 C 
ATOM     72  C50 UNL A   1       9.679  30.388   0.752  1.00  0.00    +0.000 C 
ATOM     73  N6  UNL A   1      10.566  30.990  -0.115  1.00  0.00    +0.000 N 
ATOM     74  C51 UNL A   1      11.899  33.036  -2.012  1.00  0.00    +0.000 C 
ATOM     75  C52 UNL A   1      11.137  32.532  -2.984  1.00  0.00    +0.000 C 
ATOM     76  C53 UNL A   1       6.063  32.582  -0.996  1.00  0.00    +0.000 C 
ATOM     77  C54 UNL A   1       6.620  32.179   0.146  1.00  0.00    +0.000 C 
ATOM    117  H22 UNL A   1       6.178  29.651  -4.798  1.00  0.00    +0.000 H 
ATOM    118  H23 UNL A   1       8.501  28.354  -4.833  1.00  0.00    +0.000 H 
ATOM    119  H24 UNL A   1       9.188  32.331  -4.807  1.00  0.00    +0.000 H 
ATOM    120  H25 UNL A   1      12.581  30.093   2.290  1.00  0.00    +0.000 H 
ATOM    121  H26 UNL A   1      10.214  29.185   2.545  1.00  0.00    +0.000 H 
ATOM    122  H27 UNL A   1      10.312  31.366  -0.990  1.00  0.00    +0.000 H 
ATOM    123  H28 UNL A   1      11.976  34.001  -1.653  1.00  0.00    +0.000 H 
ATOM    124  H29 UNL A   1      10.416  33.073  -3.487  1.00  0.00    +0.000 H 
ATOM    125  H30 UNL A   1       5.271  33.242  -1.063  1.00  0.00    +0.000 H 
ATOM    126  H31 UNL A   1       6.428  32.491   1.111  1.00  0.00    +0.000 H 
ENDROOT
BRANCH   21   20
ATOM     78  C55 UNL A   1       7.320  30.070   2.937  1.00  0.00    +0.000 C 
ATOM     79  C56 UNL A   1       6.549  29.298   3.795  1.00  0.00    +0.000 C 
ATOM     17  C13 UNL A   1       5.911  28.124   3.347  1.00  0.00    +0.000 C 
ATOM     18  C14 UNL A   1       5.955  27.821   1.988  1.00  0.00    +0.000 C 
ATOM     19  C15 UNL A   1       6.752  28.570   1.130  1.00  0.00    +0.000 C 
ATOM    115  H20 UNL A   1       5.395  27.038   1.616  1.00  0.00    +0.000 H 
ATOM    116  H21 UNL A   1       6.806  28.322   0.131  1.00  0.00    +0.000 H 
ATOM     20  C16 UNL A   1       7.481  29.658   1.621  1.00  0.00    +0.000 C 
ATOM    127  H32 UNL A   1       7.768  30.937   3.272  1.00  0.00    +0.000 H 
ATOM    128  H33 UNL A   1       6.442  29.589   4.779  1.00  0.00    +0.000 H 
BRANCH   17   15
ATOM     15  C12 UNL A   1       5.329  27.261   4.410  1.00  0.00    +0.000 C 
ATOM     16  O2  UNL A   1       4.185  27.499   4.803  1.00  0.00    +0.000 O 
BRANCH   15   14
ATOM    114  H19 UNL A   1       6.151  26.464   6.009  1.00  0.00    +0.000 H 
ATOM     14  N2  UNL A   1       5.993  26.258   5.059  1.00  0.00    +0.000 N 
BRANCH   14   13
ATOM    113  H18 UNL A   1       7.098  25.109   3.789  1.00  0.00    +0.000 H 
ATOM     13  C11 UNL A   1       6.517  24.963   4.676  1.00  0.00    +0.000 C 
ATOM    112  H17 UNL A   1       5.693  24.300   4.518  1.00  0.00    +0.000 H 
BRANCH   13   12
ATOM     12  C10 UNL A   1       7.444  24.343   5.723  1.00  0.00    +0.000 C 
ATOM    110  H15 UNL A   1       6.945  23.503   6.157  1.00  0.00    +0.000 H 
ATOM    111  H16 UNL A   1       8.345  24.071   5.215  1.00  0.00    +0.000 H 
BRANCH   12   11
ATOM     11  C9  UNL A   1       7.843  25.302   6.850  1.00  0.00    +0.000 C 
ATOM    108  H13 UNL A   1       8.351  26.136   6.412  1.00  0.00    +0.000 H 
ATOM    109  H14 UNL A   1       6.936  25.570   7.350  1.00  0.00    +0.000 H 
BRANCH   11   10
ATOM     10  C8  UNL A   1       8.759  24.697   7.920  1.00  0.00    +0.000 C 
ATOM    107  H12 UNL A   1       9.332  23.937   7.432  1.00  0.00    +0.000 H 
ATOM    106  H11 UNL A   1       8.145  24.319   8.710  1.00  0.00    +0.000 H 
BRANCH   10    9
ATOM      9  C7  UNL A   1       9.770  25.677   8.528  1.00  0.00    +0.000 C 
ATOM    105  H10 UNL A   1       9.608  25.685   9.585  1.00  0.00    +0.000 H 
ATOM    104  H9  UNL A   1       9.614  26.641   8.090  1.00  0.00    +0.000 H 
BRANCH    9    8
ATOM    102  H7  UNL A   1      11.647  25.896   7.541  1.00  0.00    +0.000 H 
ATOM    103  H8  UNL A   1      11.755  25.371   9.218  1.00  0.00    +0.000 H 
ATOM      8  C6  UNL A   1      11.224  25.267   8.295  1.00  0.00    +0.000 C 
BRANCH    8    7
ATOM    101  H6  UNL A   1      10.622  23.281   8.203  1.00  0.00    +0.000 H 
ATOM      7  N1  UNL A   1      11.322  23.886   7.866  1.00  0.00    +0.000 N 
BRANCH    7    5
ATOM      5  C5  UNL A   1      12.260  23.316   7.054  1.00  0.00    +0.000 C 
ATOM      6  O1  UNL A   1      12.568  22.138   7.249  1.00  0.00    +0.000 O 
BRANCH    5    4
ATOM    100  H5  UNL A   1      13.907  23.709   5.810  1.00  0.00    +0.000 H 
ATOM     99  H4  UNL A   1      13.020  25.158   6.334  1.00  0.00    +0.000 H 
ATOM      4  C4  UNL A   1      12.948  24.150   5.982  1.00  0.00    +0.000 C 
BRANCH    4    3
ATOM    129  H34 UNL A   1      11.094  26.561   5.813  1.00  0.00    +0.000 H 
ATOM      2  C2  UNL A   1      12.325  23.224   3.642  1.00  0.00    +0.000 C 
ATOM      3  C3  UNL A   1      12.224  24.158   4.665  1.00  0.00    +0.000 C 
ATOM    132  H37 UNL A   1       9.339  25.184   1.498  1.00  0.00    +0.000 H 
ATOM    130  H35 UNL A   1       9.419  27.909   4.694  1.00  0.00    +0.000 H 
ATOM    131  H36 UNL A   1       8.527  27.206   2.568  1.00  0.00    +0.000 H 
ATOM     80  C57 UNL A   1      11.267  25.125   4.255  1.00  0.00    +0.000 C 
ATOM     81  C58 UNL A   1      10.748  26.282   4.882  1.00  0.00    +0.000 C 
ATOM     82  C59 UNL A   1       9.769  27.046   4.249  1.00  0.00    +0.000 C 
ATOM     83  C60 UNL A   1       9.266  26.647   3.023  1.00  0.00    +0.000 C 
ATOM     84  C61 UNL A   1       9.747  25.494   2.394  1.00  0.00    +0.000 C 
ATOM     85  C62 UNL A   1      10.794  24.759   2.989  1.00  0.00    +0.000 C 
ATOM     86  N7  UNL A   1      11.553  23.660   2.554  1.00  0.00    +0.000 N 
BRANCH    2    1
ATOM      1  C1  UNL A   1      13.139  21.967   3.606  1.00  0.00    +0.000 C 
ATOM     98  H3  UNL A   1      14.172  22.215   3.483  1.00  0.00    +0.000 H 
ATOM     97  H2  UNL A   1      13.007  21.430   4.521  1.00  0.00    +0.000 H 
ATOM     96  H1  UNL A   1      12.819  21.359   2.785  1.00  0.00    +0.000 H 
ENDBRANCH    2    1
BRANCH   86   87
ATOM     87  C63 UNL A   1      11.572  23.074   1.252  1.00  0.00    +0.000 C 
ATOM     88  O3  UNL A   1      10.717  22.246   0.959  1.00  0.00    +0.000 O 
BRANCH   87   89
ATOM    133  H38 UNL A   1      12.256  21.585  -0.913  1.00  0.00    +0.000 H 
ATOM    134  H39 UNL A   1      13.997  22.086  -2.542  1.00  0.00    +0.000 H 
ATOM    135  H40 UNL A   1      14.657  25.816  -0.707  1.00  0.00    +0.000 H 
ATOM    136  H41 UNL A   1      12.956  25.300   0.953  1.00  0.00    +0.000 H 
ATOM     89  C64 UNL A   1      12.542  23.372   0.185  1.00  0.00    +0.000 C 
ATOM     90  C65 UNL A   1      12.793  22.465  -0.848  1.00  0.00    +0.000 C 
ATOM     91  C66 UNL A   1      13.779  22.762  -1.794  1.00  0.00    +0.000 C 
ATOM     92  C67 UNL A   1      14.468  23.975  -1.723  1.00  0.00    +0.000 C 
ATOM     93 Cl1  UNL A   1      15.714  24.315  -2.859  1.00  0.00    +0.000 Cl
ATOM     94  C68 UNL A   1      14.165  24.909  -0.732  1.00  0.00    +0.000 C 
ATOM     95  C69 UNL A   1      13.194  24.611   0.222  1.00  0.00    +0.000 C 
ENDBRANCH   87   89
ENDBRANCH   86   87
ENDBRANCH    4    3
ENDBRANCH    5    4
ENDBRANCH    7    5
ENDBRANCH    8    7
ENDBRANCH    9    8
ENDBRANCH   10    9
ENDBRANCH   11   10
ENDBRANCH   12   11
ENDBRANCH   13   12
ENDBRANCH   14   13
ENDBRANCH   15   14
ENDBRANCH   17   15
ENDBRANCH   21   20
BRANCH   25   26
ATOM     33  C25 UNL A   1       7.556  35.984  -4.415  1.00  0.00    +0.000 C 
ATOM     34  F4  UNL A   1       8.508  36.898  -4.180  1.00  0.00    +0.000 F 
ATOM     35  C26 UNL A   1       7.559  34.791  -3.693  1.00  0.00    +0.000 C 
ATOM     36  F5  UNL A   1       8.585  34.642  -2.850  1.00  0.00    +0.000 F 
ATOM     26  C21 UNL A   1       6.613  33.768  -3.919  1.00  0.00    +0.000 C 
ATOM     27  C22 UNL A   1       5.643  34.047  -4.904  1.00  0.00    +0.000 C 
ATOM     28  F1  UNL A   1       4.702  33.143  -5.215  1.00  0.00    +0.000 F 
ATOM     29  C23 UNL A   1       5.674  35.223  -5.661  1.00  0.00    +0.000 C 
ATOM     30  F2  UNL A   1       4.810  35.386  -6.672  1.00  0.00    +0.000 F 
ATOM     31  C24 UNL A   1       6.637  36.186  -5.421  1.00  0.00    +0.000 C 
ATOM     32  F3  UNL A   1       6.709  37.282  -6.187  1.00  0.00    +0.000 F 
ENDBRANCH   25   26
BRANCH   42   43
ATOM     43  C32 UNL A   1      11.279  28.746  -3.828  1.00  0.00    +0.000 C 
ATOM     44  C33 UNL A   1      10.941  27.794  -2.850  1.00  0.00    +0.000 C 
ATOM     45  F6  UNL A   1      10.118  28.108  -1.840  1.00  0.00    +0.000 F 
ATOM     46  C34 UNL A   1      11.400  26.479  -2.935  1.00  0.00    +0.000 C 
ATOM     47  F7  UNL A   1      11.069  25.587  -1.989  1.00  0.00    +0.000 F 
ATOM     48  C35 UNL A   1      12.165  26.079  -4.019  1.00  0.00    +0.000 C 
ATOM     49  F8  UNL A   1      12.563  24.804  -4.129  1.00  0.00    +0.000 F 
ATOM     50  C36 UNL A   1      12.489  26.995  -5.007  1.00  0.00    +0.000 C 
ATOM     51  F9  UNL A   1      13.185  26.601  -6.083  1.00  0.00    +0.000 F 
ATOM     52  C37 UNL A   1      12.064  28.316  -4.905  1.00  0.00    +0.000 C 
ATOM     53  F10 UNL A   1      12.372  29.170  -5.894  1.00  0.00    +0.000 F 
ENDBRANCH   42   43
BRANCH   57   58
ATOM     65  C45 UNL A   1      16.246  32.634   1.374  1.00  0.00    +0.000 C 
ATOM     66  F14 UNL A   1      17.503  32.169   1.389  1.00  0.00    +0.000 F 
ATOM     67  C46 UNL A   1      15.315  32.081   0.493  1.00  0.00    +0.000 C 
ATOM     68  F15 UNL A   1      15.734  31.073  -0.285  1.00  0.00    +0.000 F 
ATOM     58  C41 UNL A   1      13.965  32.483   0.489  1.00  0.00    +0.000 C 
ATOM     59  C42 UNL A   1      13.615  33.502   1.393  1.00  0.00    +0.000 C 
ATOM     60  F11 UNL A   1      12.342  33.916   1.482  1.00  0.00    +0.000 F 
ATOM     61  C43 UNL A   1      14.549  34.053   2.278  1.00  0.00    +0.000 C 
ATOM     62  F12 UNL A   1      14.161  34.972   3.174  1.00  0.00    +0.000 F 
ATOM     63  C44 UNL A   1      15.860  33.607   2.277  1.00  0.00    +0.000 C 
ATOM     64  F13 UNL A   1      16.738  34.082   3.172  1.00  0.00    +0.000 F 
ENDBRANCH   57   58
TORSDOF 19
ENDMDL
MODEL 7
REMARK VINA RESULT:     -10.5     34.581     41.083
ROOT
ATOM     21  C17 UNL A   1       8.742  30.198   0.692  1.00  0.00    +0.000 C 
ATOM     22  C18 UNL A   1       7.937  31.012  -0.260  1.00  0.00    +0.000 C 
ATOM     23  N3  UNL A   1       7.878  30.894  -1.547  1.00  0.00    +0.000 N 
ATOM     24  C19 UNL A   1       6.997  31.880  -1.982  1.00  0.00    +0.000 C 
ATOM     25  C20 UNL A   1       7.016  32.329  -3.267  1.00  0.00    +0.000 C 
ATOM     37  C27 UNL A   1       7.662  31.384  -4.139  1.00  0.00    +0.000 C 
ATOM     38  C28 UNL A   1       7.384  30.101  -4.564  1.00  0.00    +0.000 C 
ATOM     39  C29 UNL A   1       8.654  29.462  -4.672  1.00  0.00    +0.000 C 
ATOM     40  C30 UNL A   1       9.634  30.404  -4.361  1.00  0.00    +0.000 C 
ATOM     41  N4  UNL A   1       8.978  31.603  -4.455  1.00  0.00    +0.000 N 
ATOM     42  C31 UNL A   1      11.004  30.281  -3.927  1.00  0.00    +0.000 C 
ATOM     54  C38 UNL A   1      11.708  31.258  -3.285  1.00  0.00    +0.000 C 
ATOM     55  N5  UNL A   1      12.819  30.943  -2.519  1.00  0.00    +0.000 N 
ATOM     56  C39 UNL A   1      12.888  31.898  -1.633  1.00  0.00    +0.000 C 
ATOM     57  C40 UNL A   1      13.264  31.669  -0.215  1.00  0.00    +0.000 C 
ATOM     69  C47 UNL A   1      12.259  30.946   0.344  1.00  0.00    +0.000 C 
ATOM     70  C48 UNL A   1      12.239  30.135   1.542  1.00  0.00    +0.000 C 
ATOM     71  C49 UNL A   1      10.992  29.647   1.712  1.00  0.00    +0.000 C 
ATOM     72  C50 UNL A   1      10.091  30.240   0.723  1.00  0.00    +0.000 C 
ATOM     73  N6  UNL A   1      10.934  30.918  -0.133  1.00  0.00    +0.000 N 
ATOM     74  C51 UNL A   1      12.146  33.108  -1.949  1.00  0.00    +0.000 C 
ATOM     75  C52 UNL A   1      11.373  32.633  -2.927  1.00  0.00    +0.000 C 
ATOM     76  C53 UNL A   1       6.359  32.406  -0.803  1.00  0.00    +0.000 C 
ATOM     77  C54 UNL A   1       6.961  31.960   0.300  1.00  0.00    +0.000 C 
ATOM    117  H22 UNL A   1       6.457  29.692  -4.763  1.00  0.00    +0.000 H 
ATOM    118  H23 UNL A   1       8.819  28.477  -4.932  1.00  0.00    +0.000 H 
ATOM    119  H24 UNL A   1       9.380  32.467  -4.704  1.00  0.00    +0.000 H 
ATOM    120  H25 UNL A   1      13.044  29.958   2.163  1.00  0.00    +0.000 H 
ATOM    121  H26 UNL A   1      10.715  28.960   2.431  1.00  0.00    +0.000 H 
ATOM    122  H27 UNL A   1      10.643  31.332  -0.978  1.00  0.00    +0.000 H 
ATOM    123  H28 UNL A   1      12.203  34.053  -1.539  1.00  0.00    +0.000 H 
ATOM    124  H29 UNL A   1      10.621  33.176  -3.379  1.00  0.00    +0.000 H 
ATOM    125  H30 UNL A   1       5.546  33.041  -0.811  1.00  0.00    +0.000 H 
ATOM    126  H31 UNL A   1       6.787  32.212   1.285  1.00  0.00    +0.000 H 
ENDROOT
BRANCH   21   20
ATOM     78  C55 UNL A   1       7.477  28.132   1.258  1.00  0.00    +0.000 C 
ATOM     79  C56 UNL A   1       6.669  27.440   2.150  1.00  0.00    +0.000 C 
ATOM     17  C13 UNL A   1       6.338  27.983   3.408  1.00  0.00    +0.000 C 
ATOM     18  C14 UNL A   1       6.949  29.172   3.799  1.00  0.00    +0.000 C 
ATOM     19  C15 UNL A   1       7.731  29.886   2.900  1.00  0.00    +0.000 C 
ATOM    115  H20 UNL A   1       6.820  29.525   4.761  1.00  0.00    +0.000 H 
ATOM    116  H21 UNL A   1       8.156  30.781   3.184  1.00  0.00    +0.000 H 
ATOM     20  C16 UNL A   1       7.943  29.391   1.609  1.00  0.00    +0.000 C 
ATOM    127  H32 UNL A   1       7.727  27.717   0.346  1.00  0.00    +0.000 H 
ATOM    128  H33 UNL A   1       6.303  26.512   1.887  1.00  0.00    +0.000 H 
BRANCH   17   15
ATOM     15  C12 UNL A   1       5.274  27.265   4.160  1.00  0.00    +0.000 C 
ATOM     16  O2  UNL A   1       4.419  27.929   4.750  1.00  0.00    +0.000 O 
BRANCH   15   14
ATOM    114  H19 UNL A   1       4.784  25.457   3.561  1.00  0.00    +0.000 H 
ATOM     14  N2  UNL A   1       5.206  25.910   4.326  1.00  0.00    +0.000 N 
BRANCH   14   13
ATOM    113  H18 UNL A   1       5.230  24.024   5.098  1.00  0.00    +0.000 H 
ATOM     13  C11 UNL A   1       5.612  24.987   5.366  1.00  0.00    +0.000 C 
ATOM    112  H17 UNL A   1       5.221  25.336   6.298  1.00  0.00    +0.000 H 
BRANCH   13   12
ATOM     12  C10 UNL A   1       7.130  24.846   5.501  1.00  0.00    +0.000 C 
ATOM    110  H15 UNL A   1       7.561  25.824   5.476  1.00  0.00    +0.000 H 
ATOM    111  H16 UNL A   1       7.311  24.338   6.424  1.00  0.00    +0.000 H 
BRANCH   12   11
ATOM     11  C9  UNL A   1       7.780  24.004   4.397  1.00  0.00    +0.000 C 
ATOM    108  H13 UNL A   1       7.240  24.174   3.489  1.00  0.00    +0.000 H 
ATOM    109  H14 UNL A   1       8.802  24.314   4.349  1.00  0.00    +0.000 H 
BRANCH   11   10
ATOM     10  C8  UNL A   1       7.801  22.495   4.662  1.00  0.00    +0.000 C 
ATOM    107  H12 UNL A   1       7.548  22.022   3.736  1.00  0.00    +0.000 H 
ATOM    106  H11 UNL A   1       7.104  22.284   5.445  1.00  0.00    +0.000 H 
BRANCH   10    9
ATOM      9  C7  UNL A   1       9.167  21.934   5.074  1.00  0.00    +0.000 C 
ATOM    105  H10 UNL A   1       9.034  21.428   6.006  1.00  0.00    +0.000 H 
ATOM    104  H9  UNL A   1       9.858  22.749   5.154  1.00  0.00    +0.000 H 
BRANCH    9    8
ATOM    102  H7  UNL A   1      10.107  20.075   4.619  1.00  0.00    +0.000 H 
ATOM    103  H8  UNL A   1       8.939  20.622   3.420  1.00  0.00    +0.000 H 
ATOM      8  C6  UNL A   1       9.728  20.917   4.080  1.00  0.00    +0.000 C 
BRANCH    8    7
ATOM    101  H6  UNL A   1      10.516  22.009   2.499  1.00  0.00    +0.000 H 
ATOM      7  N1  UNL A   1      10.798  21.488   3.286  1.00  0.00    +0.000 N 
BRANCH    7    5
ATOM      5  C5  UNL A   1      12.145  21.397   3.489  1.00  0.00    +0.000 C 
ATOM      6  O1  UNL A   1      12.662  20.278   3.497  1.00  0.00    +0.000 O 
BRANCH    5    4
ATOM    100  H5  UNL A   1      13.118  23.136   2.824  1.00  0.00    +0.000 H 
ATOM     99  H4  UNL A   1      13.878  22.362   4.233  1.00  0.00    +0.000 H 
ATOM      4  C4  UNL A   1      12.960  22.652   3.765  1.00  0.00    +0.000 C 
BRANCH    4    3
ATOM    129  H34 UNL A   1      11.401  24.663   2.091  1.00  0.00    +0.000 H 
ATOM      2  C2  UNL A   1      12.301  23.699   6.044  1.00  0.00    +0.000 C 
ATOM      3  C3  UNL A   1      12.264  23.641   4.657  1.00  0.00    +0.000 C 
ATOM    132  H37 UNL A   1      10.055  27.207   6.004  1.00  0.00    +0.000 H 
ATOM    130  H35 UNL A   1      10.007  26.630   1.843  1.00  0.00    +0.000 H 
ATOM    131  H36 UNL A   1       9.367  27.908   3.784  1.00  0.00    +0.000 H 
ATOM     80  C57 UNL A   1      11.464  24.730   4.215  1.00  0.00    +0.000 C 
ATOM     81  C58 UNL A   1      11.091  25.181   2.928  1.00  0.00    +0.000 C 
ATOM     82  C59 UNL A   1      10.306  26.325   2.782  1.00  0.00    +0.000 C 
ATOM     83  C60 UNL A   1       9.931  27.050   3.899  1.00  0.00    +0.000 C 
ATOM     84  C61 UNL A   1      10.307  26.637   5.181  1.00  0.00    +0.000 C 
ATOM     85  C62 UNL A   1      11.032  25.438   5.343  1.00  0.00    +0.000 C 
ATOM     86  N7  UNL A   1      11.436  24.716   6.478  1.00  0.00    +0.000 N 
BRANCH    2    1
ATOM      1  C1  UNL A   1      13.065  22.825   6.992  1.00  0.00    +0.000 C 
ATOM     98  H3  UNL A   1      13.779  23.417   7.524  1.00  0.00    +0.000 H 
ATOM     97  H2  UNL A   1      12.387  22.373   7.684  1.00  0.00    +0.000 H 
ATOM     96  H1  UNL A   1      13.574  22.062   6.440  1.00  0.00    +0.000 H 
ENDBRANCH    2    1
BRANCH   86   87
ATOM     87  C63 UNL A   1      11.052  24.937   7.836  1.00  0.00    +0.000 C 
ATOM     88  O3  UNL A   1      11.903  25.285   8.646  1.00  0.00    +0.000 O 
BRANCH   87   89
ATOM    133  H38 UNL A   1       9.435  26.816   8.943  1.00  0.00    +0.000 H 
ATOM    134  H39 UNL A   1       7.259  26.448   9.976  1.00  0.00    +0.000 H 
ATOM    135  H40 UNL A   1       7.376  22.405   8.810  1.00  0.00    +0.000 H 
ATOM    136  H41 UNL A   1       9.571  22.754   7.822  1.00  0.00    +0.000 H 
ATOM     89  C64 UNL A   1       9.693  24.791   8.383  1.00  0.00    +0.000 C 
ATOM     90  C65 UNL A   1       9.014  25.873   8.949  1.00  0.00    +0.000 C 
ATOM     91  C66 UNL A   1       7.757  25.665   9.525  1.00  0.00    +0.000 C 
ATOM     92  C67 UNL A   1       7.177  24.395   9.489  1.00  0.00    +0.000 C 
ATOM     93 Cl1  UNL A   1       5.652  24.132  10.241  1.00  0.00    +0.000 Cl
ATOM     94  C68 UNL A   1       7.827  23.333   8.860  1.00  0.00    +0.000 C 
ATOM     95  C69 UNL A   1       9.087  23.531   8.298  1.00  0.00    +0.000 C 
ENDBRANCH   87   89
ENDBRANCH   86   87
ENDBRANCH    4    3
ENDBRANCH    5    4
ENDBRANCH    7    5
ENDBRANCH    8    7
ENDBRANCH    9    8
ENDBRANCH   10    9
ENDBRANCH   11   10
ENDBRANCH   12   11
ENDBRANCH   13   12
ENDBRANCH   14   13
ENDBRANCH   15   14
ENDBRANCH   17   15
ENDBRANCH   21   20
BRANCH   25   26
ATOM     33  C25 UNL A   1       7.663  36.004  -4.192  1.00  0.00    +0.000 C 
ATOM     34  F4  UNL A   1       8.639  36.911  -4.045  1.00  0.00    +0.000 F 
ATOM     35  C26 UNL A   1       7.757  34.783  -3.526  1.00  0.00    +0.000 C 
ATOM     36  F5  UNL A   1       8.883  34.603  -2.829  1.00  0.00    +0.000 F 
ATOM     26  C21 UNL A   1       6.788  33.767  -3.669  1.00  0.00    +0.000 C 
ATOM     27  C22 UNL A   1       5.699  34.083  -4.508  1.00  0.00    +0.000 C 
ATOM     28  F1  UNL A   1       4.723  33.189  -4.732  1.00  0.00    +0.000 F 
ATOM     29  C23 UNL A   1       5.634  35.289  -5.214  1.00  0.00    +0.000 C 
ATOM     30  F2  UNL A   1       4.647  35.490  -6.097  1.00  0.00    +0.000 F 
ATOM     31  C24 UNL A   1       6.621  36.244  -5.062  1.00  0.00    +0.000 C 
ATOM     32  F3  UNL A   1       6.596  37.371  -5.785  1.00  0.00    +0.000 F 
ENDBRANCH   25   26
BRANCH   42   43
ATOM     43  C32 UNL A   1      11.611  28.905  -3.982  1.00  0.00    +0.000 C 
ATOM     44  C33 UNL A   1      11.470  27.948  -2.962  1.00  0.00    +0.000 C 
ATOM     45  F6  UNL A   1      10.815  28.241  -1.830  1.00  0.00    +0.000 F 
ATOM     46  C34 UNL A   1      11.953  26.648  -3.120  1.00  0.00    +0.000 C 
ATOM     47  F7  UNL A   1      11.812  25.752  -2.133  1.00  0.00    +0.000 F 
ATOM     48  C35 UNL A   1      12.540  26.267  -4.316  1.00  0.00    +0.000 C 
ATOM     49  F8  UNL A   1      12.957  25.005  -4.489  1.00  0.00    +0.000 F 
ATOM     50  C36 UNL A   1      12.667  27.187  -5.344  1.00  0.00    +0.000 C 
ATOM     51  F9  UNL A   1      13.188  26.810  -6.520  1.00  0.00    +0.000 F 
ATOM     52  C37 UNL A   1      12.220  28.495  -5.175  1.00  0.00    +0.000 C 
ATOM     53  F10 UNL A   1      12.332  29.352  -6.201  1.00  0.00    +0.000 F 
ENDBRANCH   42   43
BRANCH   57   58
ATOM     65  C45 UNL A   1      16.554  32.620   1.416  1.00  0.00    +0.000 C 
ATOM     66  F14 UNL A   1      17.801  32.135   1.481  1.00  0.00    +0.000 F 
ATOM     67  C46 UNL A   1      15.642  32.064   0.517  1.00  0.00    +0.000 C 
ATOM     68  F15 UNL A   1      16.069  31.034  -0.226  1.00  0.00    +0.000 F 
ATOM     58  C41 UNL A   1      14.300  32.488   0.461  1.00  0.00    +0.000 C 
ATOM     59  C42 UNL A   1      13.938  33.530   1.333  1.00  0.00    +0.000 C 
ATOM     60  F11 UNL A   1      12.670  33.967   1.373  1.00  0.00    +0.000 F 
ATOM     61  C43 UNL A   1      14.853  34.085   2.235  1.00  0.00    +0.000 C 
ATOM     62  F12 UNL A   1      14.452  35.028   3.100  1.00  0.00    +0.000 F 
ATOM     63  C44 UNL A   1      16.156  33.618   2.286  1.00  0.00    +0.000 C 
ATOM     64  F13 UNL A   1      17.013  34.098   3.199  1.00  0.00    +0.000 F 
ENDBRANCH   57   58
TORSDOF 19
ENDMDL
MODEL 8
REMARK VINA RESULT:     -10.3     35.853     42.219
ROOT
ATOM     21  C17 UNL A   1       1.889  12.091  42.774  1.00  0.00    +0.000 C 
ATOM     22  C18 UNL A   1       1.126  13.292  42.338  1.00  0.00    +0.000 C 
ATOM     23  N3  UNL A   1       1.511  14.221  41.524  1.00  0.00    +0.000 N 
ATOM     24  C19 UNL A   1       0.452  15.122  41.442  1.00  0.00    +0.000 C 
ATOM     25  C20 UNL A   1       0.646  16.406  41.032  1.00  0.00    +0.000 C 
ATOM     37  C27 UNL A   1       1.876  16.538  40.296  1.00  0.00    +0.000 C 
ATOM     38  C28 UNL A   1       2.348  16.056  39.092  1.00  0.00    +0.000 C 
ATOM     39  C29 UNL A   1       3.738  15.817  39.307  1.00  0.00    +0.000 C 
ATOM     40  C30 UNL A   1       4.044  16.218  40.607  1.00  0.00    +0.000 C 
ATOM     41  N4  UNL A   1       2.978  16.998  40.970  1.00  0.00    +0.000 N 
ATOM     42  C31 UNL A   1       5.124  15.884  41.503  1.00  0.00    +0.000 C 
ATOM     54  C38 UNL A   1       5.084  16.032  42.859  1.00  0.00    +0.000 C 
ATOM     55  N5  UNL A   1       5.933  15.303  43.677  1.00  0.00    +0.000 N 
ATOM     56  C39 UNL A   1       5.297  15.208  44.811  1.00  0.00    +0.000 C 
ATOM     57  C40 UNL A   1       5.297  13.981  45.646  1.00  0.00    +0.000 C 
ATOM     69  C47 UNL A   1       4.613  13.035  44.951  1.00  0.00    +0.000 C 
ATOM     70  C48 UNL A   1       4.608  11.594  45.080  1.00  0.00    +0.000 C 
ATOM     71  C49 UNL A   1       3.729  11.084  44.191  1.00  0.00    +0.000 C 
ATOM     72  C50 UNL A   1       2.996  12.172  43.542  1.00  0.00    +0.000 C 
ATOM     73  N6  UNL A   1       3.652  13.312  43.958  1.00  0.00    +0.000 N 
ATOM     74  C51 UNL A   1       4.220  16.163  45.012  1.00  0.00    +0.000 C 
ATOM     75  C52 UNL A   1       4.073  16.586  43.755  1.00  0.00    +0.000 C 
ATOM     76  C53 UNL A   1      -0.671  14.490  42.083  1.00  0.00    +0.000 C 
ATOM     77  C54 UNL A   1      -0.289  13.387  42.727  1.00  0.00    +0.000 C 
ATOM    117  H22 UNL A   1       1.813  15.902  38.223  1.00  0.00    +0.000 H 
ATOM    118  H23 UNL A   1       4.399  15.418  38.622  1.00  0.00    +0.000 H 
ATOM    119  H24 UNL A   1       2.999  17.753  41.601  1.00  0.00    +0.000 H 
ATOM    120  H25 UNL A   1       5.181  11.047  45.741  1.00  0.00    +0.000 H 
ATOM    121  H26 UNL A   1       3.594  10.079  43.998  1.00  0.00    +0.000 H 
ATOM    122  H27 UNL A   1       3.470  14.213  43.602  1.00  0.00    +0.000 H 
ATOM    123  H28 UNL A   1       3.718  16.434  45.873  1.00  0.00    +0.000 H 
ATOM    124  H29 UNL A   1       3.329  17.233  43.451  1.00  0.00    +0.000 H 
ATOM    125  H30 UNL A   1      -1.640  14.843  42.047  1.00  0.00    +0.000 H 
ATOM    126  H31 UNL A   1      -0.841  12.763  43.337  1.00  0.00    +0.000 H 
ENDROOT
BRANCH   21   20
ATOM     78  C55 UNL A   1       0.429  10.107  43.128  1.00  0.00    +0.000 C 
ATOM     79  C56 UNL A   1      -0.038   8.879  42.677  1.00  0.00    +0.000 C 
ATOM     17  C13 UNL A   1       0.349   8.368  41.422  1.00  0.00    +0.000 C 
ATOM     18  C14 UNL A   1       1.102   9.179  40.577  1.00  0.00    +0.000 C 
ATOM     19  C15 UNL A   1       1.600  10.393  41.034  1.00  0.00    +0.000 C 
ATOM    115  H20 UNL A   1       1.292   8.877  39.609  1.00  0.00    +0.000 H 
ATOM    116  H21 UNL A   1       2.184  10.976  40.415  1.00  0.00    +0.000 H 
ATOM     20  C16 UNL A   1       1.311  10.826  42.332  1.00  0.00    +0.000 C 
ATOM    127  H32 UNL A   1       0.126  10.480  44.041  1.00  0.00    +0.000 H 
ATOM    128  H33 UNL A   1      -0.677   8.332  43.273  1.00  0.00    +0.000 H 
BRANCH   17   15
ATOM     15  C12 UNL A   1      -0.013   6.947  41.167  1.00  0.00    +0.000 C 
ATOM     16  O2  UNL A   1       0.803   6.069  41.456  1.00  0.00    +0.000 O 
BRANCH   15   14
ATOM    114  H19 UNL A   1      -1.938   6.542  41.154  1.00  0.00    +0.000 H 
ATOM     14  N2  UNL A   1      -1.159   6.527  40.552  1.00  0.00    +0.000 N 
BRANCH   14   13
ATOM    113  H18 UNL A   1      -2.310   5.379  39.321  1.00  0.00    +0.000 H 
ATOM     13  C11 UNL A   1      -1.494   6.065  39.221  1.00  0.00    +0.000 C 
ATOM    112  H17 UNL A   1      -0.626   5.606  38.795  1.00  0.00    +0.000 H 
BRANCH   13   12
ATOM     12  C10 UNL A   1      -1.959   7.181  38.284  1.00  0.00    +0.000 C 
ATOM    110  H15 UNL A   1      -2.500   6.737  37.475  1.00  0.00    +0.000 H 
ATOM    111  H16 UNL A   1      -2.562   7.844  38.869  1.00  0.00    +0.000 H 
BRANCH   12   11
ATOM     11  C9  UNL A   1      -0.819   8.021  37.698  1.00  0.00    +0.000 C 
ATOM    108  H13 UNL A   1      -1.226   8.959  37.383  1.00  0.00    +0.000 H 
ATOM    109  H14 UNL A   1      -0.087   8.114  38.473  1.00  0.00    +0.000 H 
BRANCH   11   10
ATOM     10  C8  UNL A   1      -0.098   7.390  36.502  1.00  0.00    +0.000 C 
ATOM    107  H12 UNL A   1       0.187   6.404  36.806  1.00  0.00    +0.000 H 
ATOM    106  H11 UNL A   1       0.736   8.010  36.249  1.00  0.00    +0.000 H 
BRANCH   10    9
ATOM      9  C7  UNL A   1      -0.964   7.221  35.248  1.00  0.00    +0.000 C 
ATOM    105  H10 UNL A   1      -1.872   6.744  35.551  1.00  0.00    +0.000 H 
ATOM    104  H9  UNL A   1      -0.420   6.634  34.536  1.00  0.00    +0.000 H 
BRANCH    9    8
ATOM    102  H7  UNL A   1      -1.021   9.352  35.220  1.00  0.00    +0.000 H 
ATOM    103  H8  UNL A   1      -0.870   8.599  33.635  1.00  0.00    +0.000 H 
ATOM      8  C6  UNL A   1      -1.344   8.549  34.593  1.00  0.00    +0.000 C 
BRANCH    8    7
ATOM    101  H6  UNL A   1      -3.105   8.422  33.498  1.00  0.00    +0.000 H 
ATOM      7  N1  UNL A   1      -2.777   8.651  34.398  1.00  0.00    +0.000 N 
BRANCH    7    5
ATOM      5  C5  UNL A   1      -3.730   9.024  35.301  1.00  0.00    +0.000 C 
ATOM      6  O1  UNL A   1      -4.453   8.151  35.786  1.00  0.00    +0.000 O 
BRANCH    5    4
ATOM    100  H5  UNL A   1      -4.856  10.576  36.161  1.00  0.00    +0.000 H 
ATOM     99  H4  UNL A   1      -3.924  11.054  34.724  1.00  0.00    +0.000 H 
ATOM      4  C4  UNL A   1      -3.926  10.496  35.638  1.00  0.00    +0.000 C 
BRANCH    4    3
ATOM    129  H34 UNL A   1      -4.516   9.769  38.536  1.00  0.00    +0.000 H 
ATOM      2  C2  UNL A   1      -1.761  11.818  36.175  1.00  0.00    +0.000 C 
ATOM      3  C3  UNL A   1      -2.863  11.056  36.540  1.00  0.00    +0.000 C 
ATOM    132  H37 UNL A   1      -0.724  12.322  40.178  1.00  0.00    +0.000 H 
ATOM    130  H35 UNL A   1      -4.040   9.849  40.911  1.00  0.00    +0.000 H 
ATOM    131  H36 UNL A   1      -2.176  11.143  41.725  1.00  0.00    +0.000 H 
ATOM     80  C57 UNL A   1      -2.831  10.927  37.956  1.00  0.00    +0.000 C 
ATOM     81  C58 UNL A   1      -3.691  10.285  38.877  1.00  0.00    +0.000 C 
ATOM     82  C59 UNL A   1      -3.430  10.349  40.245  1.00  0.00    +0.000 C 
ATOM     83  C60 UNL A   1      -2.353  11.083  40.709  1.00  0.00    +0.000 C 
ATOM     84  C61 UNL A   1      -1.502  11.745  39.819  1.00  0.00    +0.000 C 
ATOM     85  C62 UNL A   1      -1.711  11.621  38.430  1.00  0.00    +0.000 C 
ATOM     86  N7  UNL A   1      -0.975  12.053  37.314  1.00  0.00    +0.000 N 
BRANCH    2    1
ATOM      1  C1  UNL A   1      -1.376  12.302  34.810  1.00  0.00    +0.000 C 
ATOM     98  H3  UNL A   1      -2.245  12.345  34.188  1.00  0.00    +0.000 H 
ATOM     97  H2  UNL A   1      -0.943  13.277  34.887  1.00  0.00    +0.000 H 
ATOM     96  H1  UNL A   1      -0.663  11.628  34.382  1.00  0.00    +0.000 H 
ENDBRANCH    2    1
BRANCH   86   87
ATOM     87  C63 UNL A   1       0.336  12.618  37.299  1.00  0.00    +0.000 C 
ATOM     88  O3  UNL A   1       0.461  13.827  37.142  1.00  0.00    +0.000 O 
BRANCH   87   89
ATOM    133  H38 UNL A   1       1.021  10.165  36.359  1.00  0.00    +0.000 H 
ATOM    134  H39 UNL A   1       3.078   8.943  36.820  1.00  0.00    +0.000 H 
ATOM    135  H40 UNL A   1       4.602  12.271  38.899  1.00  0.00    +0.000 H 
ATOM    136  H41 UNL A   1       2.530  13.477  38.486  1.00  0.00    +0.000 H 
ATOM     89  C64 UNL A   1       1.598  11.877  37.462  1.00  0.00    +0.000 C 
ATOM     90  C65 UNL A   1       1.766  10.595  36.930  1.00  0.00    +0.000 C 
ATOM     91  C66 UNL A   1       2.955   9.902  37.179  1.00  0.00    +0.000 C 
ATOM     92  C67 UNL A   1       3.974  10.511  37.914  1.00  0.00    +0.000 C 
ATOM     93 Cl1  UNL A   1       5.415   9.638  38.260  1.00  0.00    +0.000 Cl
ATOM     94  C68 UNL A   1       3.830  11.817  38.383  1.00  0.00    +0.000 C 
ATOM     95  C69 UNL A   1       2.642  12.507  38.152  1.00  0.00    +0.000 C 
ENDBRANCH   87   89
ENDBRANCH   86   87
ENDBRANCH    4    3
ENDBRANCH    5    4
ENDBRANCH    7    5
ENDBRANCH    8    7
ENDBRANCH    9    8
ENDBRANCH   10    9
ENDBRANCH   11   10
ENDBRANCH   12   11
ENDBRANCH   13   12
ENDBRANCH   14   13
ENDBRANCH   15   14
ENDBRANCH   17   15
ENDBRANCH   21   20
BRANCH   25   26
ATOM     33  C25 UNL A   1      -2.098  18.987  41.800  1.00  0.00    +0.000 C 
ATOM     34  F4  UNL A   1      -3.249  19.408  41.256  1.00  0.00    +0.000 F 
ATOM     35  C26 UNL A   1      -1.279  18.117  41.080  1.00  0.00    +0.000 C 
ATOM     36  F5  UNL A   1      -1.770  17.723  39.901  1.00  0.00    +0.000 F 
ATOM     26  C21 UNL A   1      -0.077  17.600  41.608  1.00  0.00    +0.000 C 
ATOM     27  C22 UNL A   1       0.259  18.050  42.902  1.00  0.00    +0.000 C 
ATOM     28  F1  UNL A   1       1.372  17.615  43.512  1.00  0.00    +0.000 F 
ATOM     29  C23 UNL A   1      -0.589  18.882  43.639  1.00  0.00    +0.000 C 
ATOM     30  F2  UNL A   1      -0.290  19.178  44.912  1.00  0.00    +0.000 F 
ATOM     31  C24 UNL A   1      -1.772  19.342  43.090  1.00  0.00    +0.000 C 
ATOM     32  F3  UNL A   1      -2.616  20.086  43.816  1.00  0.00    +0.000 F 
ENDBRANCH   25   26
BRANCH   42   43
ATOM     43  C32 UNL A   1       6.272  15.108  40.919  1.00  0.00    +0.000 C 
ATOM     44  C33 UNL A   1       6.287  13.707  40.797  1.00  0.00    +0.000 C 
ATOM     45  F6  UNL A   1       5.271  12.966  41.260  1.00  0.00    +0.000 F 
ATOM     46  C34 UNL A   1       7.327  13.051  40.138  1.00  0.00    +0.000 C 
ATOM     47  F7  UNL A   1       7.324  11.714  40.036  1.00  0.00    +0.000 F 
ATOM     48  C35 UNL A   1       8.346  13.783  39.548  1.00  0.00    +0.000 C 
ATOM     49  F8  UNL A   1       9.318  13.157  38.870  1.00  0.00    +0.000 F 
ATOM     50  C36 UNL A   1       8.338  15.166  39.635  1.00  0.00    +0.000 C 
ATOM     51  F9  UNL A   1       9.293  15.880  39.023  1.00  0.00    +0.000 F 
ATOM     52  C37 UNL A   1       7.322  15.820  40.324  1.00  0.00    +0.000 C 
ATOM     53  F10 UNL A   1       7.330  17.161  40.364  1.00  0.00    +0.000 F 
ENDBRANCH   42   43
BRANCH   57   58
ATOM     65  C45 UNL A   1       4.753  14.094  49.398  1.00  0.00    +0.000 C 
ATOM     66  F14 UNL A   1       3.751  13.867  50.259  1.00  0.00    +0.000 F 
ATOM     67  C46 UNL A   1       4.605  13.738  48.056  1.00  0.00    +0.000 C 
ATOM     68  F15 UNL A   1       3.431  13.204  47.692  1.00  0.00    +0.000 F 
ATOM     58  C41 UNL A   1       5.597  14.023  47.098  1.00  0.00    +0.000 C 
ATOM     59  C42 UNL A   1       6.764  14.647  47.574  1.00  0.00    +0.000 C 
ATOM     60  F11 UNL A   1       7.742  14.989  46.722  1.00  0.00    +0.000 F 
ATOM     61  C43 UNL A   1       6.909  15.005  48.919  1.00  0.00    +0.000 C 
ATOM     62  F12 UNL A   1       8.006  15.664  49.322  1.00  0.00    +0.000 F 
ATOM     63  C44 UNL A   1       5.897  14.742  49.826  1.00  0.00    +0.000 C 
ATOM     64  F13 UNL A   1       6.004  15.149  51.100  1.00  0.00    +0.000 F 
ENDBRANCH   57   58
TORSDOF 19
ENDMDL
MODEL 9
REMARK VINA RESULT:     -10.3     35.956     41.887
ROOT
ATOM     21  C17 UNL A   1       8.507  30.486   0.752  1.00  0.00    +0.000 C 
ATOM     22  C18 UNL A   1       7.755  31.225  -0.299  1.00  0.00    +0.000 C 
ATOM     23  N3  UNL A   1       7.796  31.041  -1.578  1.00  0.00    +0.000 N 
ATOM     24  C19 UNL A   1       6.924  31.977  -2.129  1.00  0.00    +0.000 C 
ATOM     25  C20 UNL A   1       7.029  32.360  -3.431  1.00  0.00    +0.000 C 
ATOM     37  C27 UNL A   1       7.764  31.392  -4.202  1.00  0.00    +0.000 C 
ATOM     38  C28 UNL A   1       7.553  30.081  -4.579  1.00  0.00    +0.000 C 
ATOM     39  C29 UNL A   1       8.844  29.476  -4.558  1.00  0.00    +0.000 C 
ATOM     40  C30 UNL A   1       9.773  30.463  -4.225  1.00  0.00    +0.000 C 
ATOM     41  N4  UNL A   1       9.094  31.635  -4.431  1.00  0.00    +0.000 N 
ATOM     42  C31 UNL A   1      11.109  30.403  -3.685  1.00  0.00    +0.000 C 
ATOM     54  C38 UNL A   1      11.736  31.432  -3.045  1.00  0.00    +0.000 C 
ATOM     55  N5  UNL A   1      12.794  31.191  -2.183  1.00  0.00    +0.000 N 
ATOM     56  C39 UNL A   1      12.770  32.190  -1.346  1.00  0.00    +0.000 C 
ATOM     57  C40 UNL A   1      13.044  32.045   0.106  1.00  0.00    +0.000 C 
ATOM     69  C47 UNL A   1      12.019  31.322   0.626  1.00  0.00    +0.000 C 
ATOM     70  C48 UNL A   1      11.930  30.572   1.861  1.00  0.00    +0.000 C 
ATOM     71  C49 UNL A   1      10.687  30.055   1.963  1.00  0.00    +0.000 C 
ATOM     72  C50 UNL A   1       9.848  30.570   0.880  1.00  0.00    +0.000 C 
ATOM     73  N6  UNL A   1      10.735  31.229   0.054  1.00  0.00    +0.000 N 
ATOM     74  C51 UNL A   1      12.023  33.360  -1.779  1.00  0.00    +0.000 C 
ATOM     75  C52 UNL A   1      11.338  32.813  -2.785  1.00  0.00    +0.000 C 
ATOM     76  C53 UNL A   1       6.186  32.541  -1.030  1.00  0.00    +0.000 C 
ATOM     77  C54 UNL A   1       6.714  32.170   0.136  1.00  0.00    +0.000 C 
ATOM    117  H22 UNL A   1       6.655  29.635  -4.824  1.00  0.00    +0.000 H 
ATOM    118  H23 UNL A   1       9.054  28.485  -4.753  1.00  0.00    +0.000 H 
ATOM    119  H24 UNL A   1       9.490  32.496  -4.694  1.00  0.00    +0.000 H 
ATOM    120  H25 UNL A   1      12.690  30.451   2.548  1.00  0.00    +0.000 H 
ATOM    121  H26 UNL A   1      10.375  29.397   2.695  1.00  0.00    +0.000 H 
ATOM    122  H27 UNL A   1      10.497  31.591  -0.831  1.00  0.00    +0.000 H 
ATOM    123  H28 UNL A   1      12.023  34.326  -1.417  1.00  0.00    +0.000 H 
ATOM    124  H29 UNL A   1      10.609  33.310  -3.320  1.00  0.00    +0.000 H 
ATOM    125  H30 UNL A   1       5.359  33.151  -1.132  1.00  0.00    +0.000 H 
ATOM    126  H31 UNL A   1       6.460  32.466   1.091  1.00  0.00    +0.000 H 
ENDROOT
BRANCH   21   20
ATOM     78  C55 UNL A   1       7.452  30.077   2.968  1.00  0.00    +0.000 C 
ATOM     79  C56 UNL A   1       6.689  29.255   3.788  1.00  0.00    +0.000 C 
ATOM     17  C13 UNL A   1       6.110  28.069   3.296  1.00  0.00    +0.000 C 
ATOM     18  C14 UNL A   1       6.201  27.800   1.933  1.00  0.00    +0.000 C 
ATOM     19  C15 UNL A   1       6.990  28.599   1.114  1.00  0.00    +0.000 C 
ATOM    115  H20 UNL A   1       5.683  27.005   1.528  1.00  0.00    +0.000 H 
ATOM    116  H21 UNL A   1       7.080  28.377   0.110  1.00  0.00    +0.000 H 
ATOM     20  C16 UNL A   1       7.663  29.702   1.648  1.00  0.00    +0.000 C 
ATOM    127  H32 UNL A   1       7.856  30.953   3.334  1.00  0.00    +0.000 H 
ATOM    128  H33 UNL A   1       6.545  29.519   4.775  1.00  0.00    +0.000 H 
BRANCH   17   15
ATOM     15  C12 UNL A   1       5.535  27.159   4.323  1.00  0.00    +0.000 C 
ATOM     16  O2  UNL A   1       4.324  27.214   4.549  1.00  0.00    +0.000 O 
BRANCH   15   14
ATOM    114  H19 UNL A   1       6.331  26.626   6.042  1.00  0.00    +0.000 H 
ATOM     14  N2  UNL A   1       6.257  26.308   5.113  1.00  0.00    +0.000 N 
BRANCH   14   13
ATOM    113  H18 UNL A   1       7.718  25.227   4.190  1.00  0.00    +0.000 H 
ATOM     13  C11 UNL A   1       6.939  25.048   4.900  1.00  0.00    +0.000 C 
ATOM    112  H17 UNL A   1       6.224  24.333   4.549  1.00  0.00    +0.000 H 
BRANCH   13   12
ATOM     12  C10 UNL A   1       7.601  24.490   6.161  1.00  0.00    +0.000 C 
ATOM    110  H15 UNL A   1       7.096  24.896   7.013  1.00  0.00    +0.000 H 
ATOM    111  H16 UNL A   1       7.522  23.424   6.105  1.00  0.00    +0.000 H 
BRANCH   12   11
ATOM     11  C9  UNL A   1       9.093  24.818   6.282  1.00  0.00    +0.000 C 
ATOM    108  H13 UNL A   1       9.198  25.883   6.293  1.00  0.00    +0.000 H 
ATOM    109  H14 UNL A   1       9.430  24.348   7.181  1.00  0.00    +0.000 H 
BRANCH   11   10
ATOM     10  C8  UNL A   1       9.971  24.266   5.154  1.00  0.00    +0.000 C 
ATOM    107  H12 UNL A   1       9.304  23.959   4.375  1.00  0.00    +0.000 H 
ATOM    106  H11 UNL A   1      10.555  23.462   5.549  1.00  0.00    +0.000 H 
BRANCH   10    9
ATOM      9  C7  UNL A   1      10.927  25.287   4.526  1.00  0.00    +0.000 C 
ATOM    105  H10 UNL A   1      11.125  24.964   3.527  1.00  0.00    +0.000 H 
ATOM    104  H9  UNL A   1      11.818  25.328   5.120  1.00  0.00    +0.000 H 
BRANCH    9    8
ATOM    102  H7  UNL A   1       9.706  26.861   5.288  1.00  0.00    +0.000 H 
ATOM    103  H8  UNL A   1      11.144  27.397   4.423  1.00  0.00    +0.000 H 
ATOM      8  C6  UNL A   1      10.337  26.695   4.440  1.00  0.00    +0.000 C 
BRANCH    8    7
ATOM    101  H6  UNL A   1       8.755  27.434   3.316  1.00  0.00    +0.000 H 
ATOM      7  N1  UNL A   1       9.556  26.868   3.231  1.00  0.00    +0.000 N 
BRANCH    7    5
ATOM      5  C5  UNL A   1       9.790  26.348   1.991  1.00  0.00    +0.000 C 
ATOM      6  O1  UNL A   1      10.769  26.753   1.360  1.00  0.00    +0.000 O 
BRANCH    5    4
ATOM    100  H5  UNL A   1       7.967  25.898   1.049  1.00  0.00    +0.000 H 
ATOM     99  H4  UNL A   1       8.561  24.629   2.144  1.00  0.00    +0.000 H 
ATOM      4  C4  UNL A   1       8.817  25.344   1.390  1.00  0.00    +0.000 C 
BRANCH    4    3
ATOM    129  H34 UNL A   1       8.136  26.830  -1.180  1.00  0.00    +0.000 H 
ATOM      2  C2  UNL A   1      10.071  23.410   0.204  1.00  0.00    +0.000 C 
ATOM      3  C3  UNL A   1       9.367  24.606   0.202  1.00  0.00    +0.000 C 
ATOM    132  H37 UNL A   1      10.116  23.376  -3.962  1.00  0.00    +0.000 H 
ATOM    130  H35 UNL A   1       8.134  27.062  -3.592  1.00  0.00    +0.000 H 
ATOM    131  H36 UNL A   1       9.089  25.330  -4.971  1.00  0.00    +0.000 H 
ATOM     80  C57 UNL A   1       9.219  25.002  -1.156  1.00  0.00    +0.000 C 
ATOM     81  C58 UNL A   1       8.586  26.110  -1.765  1.00  0.00    +0.000 C 
ATOM     82  C59 UNL A   1       8.566  26.234  -3.153  1.00  0.00    +0.000 C 
ATOM     83  C60 UNL A   1       9.124  25.244  -3.942  1.00  0.00    +0.000 C 
ATOM     84  C61 UNL A   1       9.736  24.127  -3.364  1.00  0.00    +0.000 C 
ATOM     85  C62 UNL A   1       9.832  24.034  -1.960  1.00  0.00    +0.000 C 
ATOM     86  N7  UNL A   1      10.479  23.122  -1.109  1.00  0.00    +0.000 N 
BRANCH    2    1
ATOM      1  C1  UNL A   1      10.425  22.540   1.371  1.00  0.00    +0.000 C 
ATOM     98  H3  UNL A   1      10.477  21.520   1.053  1.00  0.00    +0.000 H 
ATOM     97  H2  UNL A   1      11.374  22.840   1.764  1.00  0.00    +0.000 H 
ATOM     96  H1  UNL A   1       9.676  22.640   2.129  1.00  0.00    +0.000 H 
ENDBRANCH    2    1
BRANCH   86   87
ATOM     87  C63 UNL A   1      11.397  22.090  -1.471  1.00  0.00    +0.000 C 
ATOM     88  O3  UNL A   1      11.065  20.920  -1.321  1.00  0.00    +0.000 O 
BRANCH   87   89
ATOM    133  H38 UNL A   1      12.372  21.381  -3.903  1.00  0.00    +0.000 H 
ATOM    134  H39 UNL A   1      14.670  21.604  -4.681  1.00  0.00    +0.000 H 
ATOM    135  H40 UNL A   1      15.681  23.643  -1.140  1.00  0.00    +0.000 H 
ATOM    136  H41 UNL A   1      13.401  23.378  -0.336  1.00  0.00    +0.000 H 
ATOM     89  C64 UNL A   1      12.745  22.290  -2.029  1.00  0.00    +0.000 C 
ATOM     90  C65 UNL A   1      13.084  21.826  -3.303  1.00  0.00    +0.000 C 
ATOM     91  C66 UNL A   1      14.399  21.972  -3.755  1.00  0.00    +0.000 C 
ATOM     92  C67 UNL A   1      15.343  22.616  -2.953  1.00  0.00    +0.000 C 
ATOM     93 Cl1  UNL A   1      16.971  22.751  -3.493  1.00  0.00    +0.000 Cl
ATOM     94  C68 UNL A   1      14.984  23.141  -1.712  1.00  0.00    +0.000 C 
ATOM     95  C69 UNL A   1      13.679  22.984  -1.248  1.00  0.00    +0.000 C 
ENDBRANCH   87   89
ENDBRANCH   86   87
ENDBRANCH    4    3
ENDBRANCH    5    4
ENDBRANCH    7    5
ENDBRANCH    8    7
ENDBRANCH    9    8
ENDBRANCH   10    9
ENDBRANCH   11   10
ENDBRANCH   12   11
ENDBRANCH   13   12
ENDBRANCH   14   13
ENDBRANCH   15   14
ENDBRANCH   17   15
ENDBRANCH   21   20
BRANCH   25   26
ATOM     33  C25 UNL A   1       7.626  36.031  -4.404  1.00  0.00    +0.000 C 
ATOM     34  F4  UNL A   1       8.522  36.996  -4.150  1.00  0.00    +0.000 F 
ATOM     35  C26 UNL A   1       7.677  34.841  -3.679  1.00  0.00    +0.000 C 
ATOM     36  F5  UNL A   1       8.691  34.749  -2.813  1.00  0.00    +0.000 F 
ATOM     26  C21 UNL A   1       6.794  33.768  -3.924  1.00  0.00    +0.000 C 
ATOM     27  C22 UNL A   1       5.832  33.994  -4.932  1.00  0.00    +0.000 C 
ATOM     28  F1  UNL A   1       4.948  33.039  -5.261  1.00  0.00    +0.000 F 
ATOM     29  C23 UNL A   1       5.816  35.168  -5.689  1.00  0.00    +0.000 C 
ATOM     30  F2  UNL A   1       4.968  35.284  -6.720  1.00  0.00    +0.000 F 
ATOM     31  C24 UNL A   1       6.720  36.183  -5.431  1.00  0.00    +0.000 C 
ATOM     32  F3  UNL A   1       6.749  37.280  -6.197  1.00  0.00    +0.000 F 
ENDBRANCH   25   26
BRANCH   42   43
ATOM     43  C32 UNL A   1      11.754  29.045  -3.623  1.00  0.00    +0.000 C 
ATOM     44  C33 UNL A   1      11.691  28.201  -2.500  1.00  0.00    +0.000 C 
ATOM     45  F6  UNL A   1      11.081  28.599  -1.374  1.00  0.00    +0.000 F 
ATOM     46  C34 UNL A   1      12.205  26.905  -2.542  1.00  0.00    +0.000 C 
ATOM     47  F7  UNL A   1      12.138  26.118  -1.458  1.00  0.00    +0.000 F 
ATOM     48  C35 UNL A   1      12.747  26.411  -3.717  1.00  0.00    +0.000 C 
ATOM     49  F8  UNL A   1      13.194  25.149  -3.775  1.00  0.00    +0.000 F 
ATOM     50  C36 UNL A   1      12.797  27.217  -4.844  1.00  0.00    +0.000 C 
ATOM     51  F9  UNL A   1      13.274  26.728  -5.997  1.00  0.00    +0.000 F 
ATOM     52  C37 UNL A   1      12.319  28.523  -4.793  1.00  0.00    +0.000 C 
ATOM     53  F10 UNL A   1      12.356  29.266  -5.910  1.00  0.00    +0.000 F 
ENDBRANCH   42   43
BRANCH   57   58
ATOM     65  C45 UNL A   1      16.235  33.224   1.782  1.00  0.00    +0.000 C 
ATOM     66  F14 UNL A   1      17.520  32.847   1.838  1.00  0.00    +0.000 F 
ATOM     67  C46 UNL A   1      15.377  32.621   0.862  1.00  0.00    +0.000 C 
ATOM     68  F15 UNL A   1      15.893  31.656   0.088  1.00  0.00    +0.000 F 
ATOM     58  C41 UNL A   1      14.003  32.928   0.813  1.00  0.00    +0.000 C 
ATOM     59  C42 UNL A   1      13.551  33.907   1.715  1.00  0.00    +0.000 C 
ATOM     60  F11 UNL A   1      12.250  34.231   1.763  1.00  0.00    +0.000 F 
ATOM     61  C43 UNL A   1      14.413  34.509   2.640  1.00  0.00    +0.000 C 
ATOM     62  F12 UNL A   1      13.930  35.386   3.532  1.00  0.00    +0.000 F 
ATOM     63  C44 UNL A   1      15.751  34.156   2.682  1.00  0.00    +0.000 C 
ATOM     64  F13 UNL A   1      16.561  34.678   3.614  1.00  0.00    +0.000 F 
ENDBRANCH   57   58
TORSDOF 19
ENDMDL
MODEL 10
REMARK VINA RESULT:     -10.2     35.163     41.462
ROOT
ATOM     21  C17 UNL A   1       8.258  30.458   0.678  1.00  0.00    +0.000 C 
ATOM     22  C18 UNL A   1       7.523  31.235  -0.358  1.00  0.00    +0.000 C 
ATOM     23  N3  UNL A   1       7.504  31.031  -1.635  1.00  0.00    +0.000 N 
ATOM     24  C19 UNL A   1       6.683  32.020  -2.170  1.00  0.00    +0.000 C 
ATOM     25  C20 UNL A   1       6.767  32.376  -3.481  1.00  0.00    +0.000 C 
ATOM     37  C27 UNL A   1       7.401  31.346  -4.262  1.00  0.00    +0.000 C 
ATOM     38  C28 UNL A   1       7.081  30.049  -4.608  1.00  0.00    +0.000 C 
ATOM     39  C29 UNL A   1       8.325  29.352  -4.623  1.00  0.00    +0.000 C 
ATOM     40  C30 UNL A   1       9.334  30.272  -4.341  1.00  0.00    +0.000 C 
ATOM     41  N4  UNL A   1       8.736  31.488  -4.541  1.00  0.00    +0.000 N 
ATOM     42  C31 UNL A   1      10.682  30.122  -3.848  1.00  0.00    +0.000 C 
ATOM     54  C38 UNL A   1      11.405  31.111  -3.248  1.00  0.00    +0.000 C 
ATOM     55  N5  UNL A   1      12.474  30.805  -2.420  1.00  0.00    +0.000 N 
ATOM     56  C39 UNL A   1      12.554  31.815  -1.600  1.00  0.00    +0.000 C 
ATOM     57  C40 UNL A   1      12.869  31.671  -0.156  1.00  0.00    +0.000 C 
ATOM     69  C47 UNL A   1      11.815  31.032   0.413  1.00  0.00    +0.000 C 
ATOM     70  C48 UNL A   1      11.717  30.308   1.662  1.00  0.00    +0.000 C 
ATOM     71  C49 UNL A   1      10.444  29.885   1.817  1.00  0.00    +0.000 C 
ATOM     72  C50 UNL A   1       9.606  30.445   0.756  1.00  0.00    +0.000 C 
ATOM     73  N6  UNL A   1      10.507  31.025  -0.112  1.00  0.00    +0.000 N 
ATOM     74  C51 UNL A   1      11.878  33.030  -2.026  1.00  0.00    +0.000 C 
ATOM     75  C52 UNL A   1      11.119  32.521  -2.997  1.00  0.00    +0.000 C 
ATOM     76  C53 UNL A   1       6.029  32.653  -1.055  1.00  0.00    +0.000 C 
ATOM     77  C54 UNL A   1       6.571  32.260   0.098  1.00  0.00    +0.000 C 
ATOM    117  H22 UNL A   1       6.145  29.666  -4.813  1.00  0.00    +0.000 H 
ATOM    118  H23 UNL A   1       8.455  28.345  -4.809  1.00  0.00    +0.000 H 
ATOM    119  H24 UNL A   1       9.183  32.314  -4.833  1.00  0.00    +0.000 H 
ATOM    120  H25 UNL A   1      12.491  30.142   2.323  1.00  0.00    +0.000 H 
ATOM    121  H26 UNL A   1      10.112  29.263   2.571  1.00  0.00    +0.000 H 
ATOM    122  H27 UNL A   1      10.264  31.392  -0.994  1.00  0.00    +0.000 H 
ATOM    123  H28 UNL A   1      11.962  33.999  -1.679  1.00  0.00    +0.000 H 
ATOM    124  H29 UNL A   1      10.408  33.062  -3.514  1.00  0.00    +0.000 H 
ATOM    125  H30 UNL A   1       5.245  33.319  -1.137  1.00  0.00    +0.000 H 
ATOM    126  H31 UNL A   1       6.375  32.587   1.057  1.00  0.00    +0.000 H 
ENDROOT
BRANCH   21   20
ATOM     78  C55 UNL A   1       7.260  30.157   2.937  1.00  0.00    +0.000 C 
ATOM     79  C56 UNL A   1       6.471  29.405   3.797  1.00  0.00    +0.000 C 
ATOM     17  C13 UNL A   1       5.787  28.259   3.346  1.00  0.00    +0.000 C 
ATOM     18  C14 UNL A   1       5.807  27.967   1.984  1.00  0.00    +0.000 C 
ATOM     19  C15 UNL A   1       6.621  28.694   1.124  1.00  0.00    +0.000 C 
ATOM    115  H20 UNL A   1       5.216  27.207   1.612  1.00  0.00    +0.000 H 
ATOM    116  H21 UNL A   1       6.656  28.453   0.122  1.00  0.00    +0.000 H 
ATOM     20  C16 UNL A   1       7.393  29.751   1.616  1.00  0.00    +0.000 C 
ATOM    127  H32 UNL A   1       7.742  31.005   3.274  1.00  0.00    +0.000 H 
ATOM    128  H33 UNL A   1       6.384  29.691   4.784  1.00  0.00    +0.000 H 
BRANCH   17   15
ATOM     15  C12 UNL A   1       5.186  27.407   4.408  1.00  0.00    +0.000 C 
ATOM     16  O2  UNL A   1       4.296  27.887   5.114  1.00  0.00    +0.000 O 
BRANCH   15   14
ATOM    114  H19 UNL A   1       5.451  25.502   3.998  1.00  0.00    +0.000 H 
ATOM     14  N2  UNL A   1       5.597  26.144   4.729  1.00  0.00    +0.000 N 
BRANCH   14   13
ATOM    113  H18 UNL A   1       7.079  26.093   6.127  1.00  0.00    +0.000 H 
ATOM     13  C11 UNL A   1       6.199  25.531   5.895  1.00  0.00    +0.000 C 
ATOM    112  H17 UNL A   1       6.416  24.509   5.665  1.00  0.00    +0.000 H 
BRANCH   13   12
ATOM     12  C10 UNL A   1       5.304  25.567   7.136  1.00  0.00    +0.000 C 
ATOM    110  H15 UNL A   1       5.127  26.590   7.392  1.00  0.00    +0.000 H 
ATOM    111  H16 UNL A   1       4.406  25.043   6.884  1.00  0.00    +0.000 H 
BRANCH   12   11
ATOM     11  C9  UNL A   1       5.901  24.860   8.357  1.00  0.00    +0.000 C 
ATOM    108  H13 UNL A   1       5.225  24.087   8.657  1.00  0.00    +0.000 H 
ATOM    109  H14 UNL A   1       6.858  24.493   8.052  1.00  0.00    +0.000 H 
BRANCH   11   10
ATOM     10  C8  UNL A   1       6.155  25.764   9.569  1.00  0.00    +0.000 C 
ATOM    107  H12 UNL A   1       5.324  25.626  10.228  1.00  0.00    +0.000 H 
ATOM    106  H11 UNL A   1       6.253  26.770   9.219  1.00  0.00    +0.000 H 
BRANCH   10    9
ATOM      9  C7  UNL A   1       7.411  25.416  10.377  1.00  0.00    +0.000 C 
ATOM    105  H10 UNL A   1       7.752  24.461  10.039  1.00  0.00    +0.000 H 
ATOM    104  H9  UNL A   1       7.154  25.407  11.417  1.00  0.00    +0.000 H 
BRANCH    9    8
ATOM    102  H7  UNL A   1       8.269  27.123   9.430  1.00  0.00    +0.000 H 
ATOM    103  H8  UNL A   1       8.759  26.888  11.105  1.00  0.00    +0.000 H 
ATOM      8  C6  UNL A   1       8.557  26.407  10.170  1.00  0.00    +0.000 C 
BRANCH    8    7
ATOM    101  H6  UNL A   1      10.279  25.278  10.435  1.00  0.00    +0.000 H 
ATOM      7  N1  UNL A   1       9.764  25.736   9.732  1.00  0.00    +0.000 N 
BRANCH    7    5
ATOM      5  C5  UNL A   1      10.279  25.657   8.470  1.00  0.00    +0.000 C 
ATOM      6  O1  UNL A   1      11.441  26.025   8.286  1.00  0.00    +0.000 O 
BRANCH    5    4
ATOM    100  H5  UNL A   1       8.651  25.935   7.171  1.00  0.00    +0.000 H 
ATOM     99  H4  UNL A   1       8.984  24.236   7.578  1.00  0.00    +0.000 H 
ATOM      4  C4  UNL A   1       9.402  25.186   7.318  1.00  0.00    +0.000 C 
BRANCH    4    3
ATOM    129  H34 UNL A   1      11.180  22.714   7.386  1.00  0.00    +0.000 H 
ATOM      2  C2  UNL A   1      10.082  25.884   4.915  1.00  0.00    +0.000 C 
ATOM      3  C3  UNL A   1      10.140  25.041   6.017  1.00  0.00    +0.000 C 
ATOM    132  H37 UNL A   1      13.029  23.653   2.994  1.00  0.00    +0.000 H 
ATOM    130  H35 UNL A   1      12.823  21.222   6.414  1.00  0.00    +0.000 H 
ATOM    131  H36 UNL A   1      13.762  21.708   4.248  1.00  0.00    +0.000 H 
ATOM     80  C57 UNL A   1      11.071  24.012   5.707  1.00  0.00    +0.000 C 
ATOM     81  C58 UNL A   1      11.545  22.900   6.440  1.00  0.00    +0.000 C 
ATOM     82  C59 UNL A   1      12.507  22.053   5.890  1.00  0.00    +0.000 C 
ATOM     83  C60 UNL A   1      13.036  22.328   4.642  1.00  0.00    +0.000 C 
ATOM     84  C61 UNL A   1      12.600  23.435   3.907  1.00  0.00    +0.000 C 
ATOM     85  C62 UNL A   1      11.570  24.251   4.421  1.00  0.00    +0.000 C 
ATOM     86  N7  UNL A   1      10.852  25.331   3.880  1.00  0.00    +0.000 N 
BRANCH    2    1
ATOM      1  C1  UNL A   1       9.308  27.158   4.758  1.00  0.00    +0.000 C 
ATOM     98  H3  UNL A   1       9.906  27.876   4.236  1.00  0.00    +0.000 H 
ATOM     97  H2  UNL A   1       8.415  26.966   4.203  1.00  0.00    +0.000 H 
ATOM     96  H1  UNL A   1       9.053  27.541   5.724  1.00  0.00    +0.000 H 
ENDBRANCH    2    1
BRANCH   86   87
ATOM     87  C63 UNL A   1      10.867  25.801   2.532  1.00  0.00    +0.000 C 
ATOM     88  O3  UNL A   1      11.680  26.660   2.210  1.00  0.00    +0.000 O 
BRANCH   87   89
ATOM    133  H38 UNL A   1       9.000  27.193   1.137  1.00  0.00    +0.000 H 
ATOM    134  H39 UNL A   1       7.460  26.310  -0.531  1.00  0.00    +0.000 H 
ATOM    135  H40 UNL A   1       9.346  22.554  -0.299  1.00  0.00    +0.000 H 
ATOM    136  H41 UNL A   1      10.853  23.416   1.404  1.00  0.00    +0.000 H 
ATOM     89  C64 UNL A   1       9.981  25.343   1.448  1.00  0.00    +0.000 C 
ATOM     90  C65 UNL A   1       9.047  26.200   0.859  1.00  0.00    +0.000 C 
ATOM     91  C66 UNL A   1       8.176  25.696  -0.112  1.00  0.00    +0.000 C 
ATOM     92  C67 UNL A   1       8.277  24.362  -0.513  1.00  0.00    +0.000 C 
ATOM     93 Cl1  UNL A   1       7.173  23.734  -1.672  1.00  0.00    +0.000 Cl
ATOM     94  C68 UNL A   1       9.258  23.530   0.027  1.00  0.00    +0.000 C 
ATOM     95  C69 UNL A   1      10.118  24.021   1.006  1.00  0.00    +0.000 C 
ENDBRANCH   87   89
ENDBRANCH   86   87
ENDBRANCH    4    3
ENDBRANCH    5    4
ENDBRANCH    7    5
ENDBRANCH    8    7
ENDBRANCH    9    8
ENDBRANCH   10    9
ENDBRANCH   11   10
ENDBRANCH   12   11
ENDBRANCH   13   12
ENDBRANCH   14   13
ENDBRANCH   15   14
ENDBRANCH   17   15
ENDBRANCH   21   20
BRANCH   25   26
ATOM     33  C25 UNL A   1       7.577  36.003  -4.465  1.00  0.00    +0.000 C 
ATOM     34  F4  UNL A   1       8.516  36.921  -4.198  1.00  0.00    +0.000 F 
ATOM     35  C26 UNL A   1       7.550  34.818  -3.732  1.00  0.00    +0.000 C 
ATOM     36  F5  UNL A   1       8.538  34.680  -2.842  1.00  0.00    +0.000 F 
ATOM     26  C21 UNL A   1       6.617  33.790  -3.989  1.00  0.00    +0.000 C 
ATOM     27  C22 UNL A   1       5.691  34.058  -5.019  1.00  0.00    +0.000 C 
ATOM     28  F1  UNL A   1       4.766  33.148  -5.362  1.00  0.00    +0.000 F 
ATOM     29  C23 UNL A   1       5.753  35.226  -5.785  1.00  0.00    +0.000 C 
ATOM     30  F2  UNL A   1       4.934  35.377  -6.835  1.00  0.00    +0.000 F 
ATOM     31  C24 UNL A   1       6.703  36.193  -5.513  1.00  0.00    +0.000 C 
ATOM     32  F3  UNL A   1       6.806  37.282  -6.286  1.00  0.00    +0.000 F 
ENDBRANCH   25   26
BRANCH   42   43
ATOM     43  C32 UNL A   1      11.228  28.722  -3.786  1.00  0.00    +0.000 C 
ATOM     44  C33 UNL A   1      12.131  28.193  -4.725  1.00  0.00    +0.000 C 
ATOM     45  F6  UNL A   1      12.520  28.914  -5.786  1.00  0.00    +0.000 F 
ATOM     46  C34 UNL A   1      12.696  26.930  -4.550  1.00  0.00    +0.000 C 
ATOM     47  F7  UNL A   1      13.553  26.443  -5.460  1.00  0.00    +0.000 F 
ATOM     48  C35 UNL A   1      12.409  26.191  -3.413  1.00  0.00    +0.000 C 
ATOM     49  F8  UNL A   1      12.991  25.000  -3.218  1.00  0.00    +0.000 F 
ATOM     50  C36 UNL A   1      11.540  26.704  -2.462  1.00  0.00    +0.000 C 
ATOM     51  F9  UNL A   1      11.298  26.016  -1.338  1.00  0.00    +0.000 F 
ATOM     52  C37 UNL A   1      10.946  27.947  -2.653  1.00  0.00    +0.000 C 
ATOM     53  F10 UNL A   1      10.132  28.425  -1.699  1.00  0.00    +0.000 F 
ENDBRANCH   42   43
BRANCH   57   58
ATOM     65  C45 UNL A   1      16.197  32.636   1.388  1.00  0.00    +0.000 C 
ATOM     66  F14 UNL A   1      17.452  32.165   1.406  1.00  0.00    +0.000 F 
ATOM     67  C46 UNL A   1      15.264  32.083   0.508  1.00  0.00    +0.000 C 
ATOM     68  F15 UNL A   1      15.680  31.070  -0.265  1.00  0.00    +0.000 F 
ATOM     58  C41 UNL A   1      13.916  32.491   0.501  1.00  0.00    +0.000 C 
ATOM     59  C42 UNL A   1      13.570  33.515   1.400  1.00  0.00    +0.000 C 
ATOM     60  F11 UNL A   1      12.299  33.936   1.486  1.00  0.00    +0.000 F 
ATOM     61  C43 UNL A   1      14.506  34.066   2.283  1.00  0.00    +0.000 C 
ATOM     62  F12 UNL A   1      14.121  34.991   3.175  1.00  0.00    +0.000 F 
ATOM     63  C44 UNL A   1      15.815  33.615   2.286  1.00  0.00    +0.000 C 
ATOM     64  F13 UNL A   1      16.694  34.090   3.180  1.00  0.00    +0.000 F 
ENDBRANCH   57   58
TORSDOF 19
ENDMDL
