MODEL 1
REMARK VINA RESULT:      -8.7      0.000      0.000
ROOT
ATOM    132  H27 UNL A   1      47.746  55.015  15.775  1.00  0.00    +0.000 H 
ATOM    133  H28 UNL A   1      48.902  54.210  18.039  1.00  0.00    +0.000 H 
ATOM    134  H29 UNL A   1      50.292  51.976  14.868  1.00  0.00    +0.000 H 
ATOM    135  H30 UNL A   1      48.728  48.317  21.603  1.00  0.00    +0.000 H 
ATOM    136  H31 UNL A   1      47.152  47.615  19.761  1.00  0.00    +0.000 H 
ATOM    137  H32 UNL A   1      48.266  51.547  19.004  1.00  0.00    +0.000 H 
ATOM    138  H33 UNL A   1      49.602  53.989  21.218  1.00  0.00    +0.000 H 
ATOM    139  H34 UNL A   1      50.921  54.730  19.107  1.00  0.00    +0.000 H 
ATOM    140  H35 UNL A   1      45.319  53.594  15.809  1.00  0.00    +0.000 H 
ATOM    141  H36 UNL A   1      45.483  52.591  18.186  1.00  0.00    +0.000 H 
ATOM     27  C20 UNL A   1      46.288  49.707  17.904  1.00  0.00    +0.000 C 
ATOM     28  C21 UNL A   1      46.412  50.891  16.999  1.00  0.00    +0.000 C 
ATOM     29  N4  UNL A   1      46.704  50.693  15.741  1.00  0.00    +0.000 N 
ATOM     30  C22 UNL A   1      46.547  51.900  15.104  1.00  0.00    +0.000 C 
ATOM     31  C23 UNL A   1      47.610  52.282  14.338  1.00  0.00    +0.000 C 
ATOM     43  C30 UNL A   1      48.521  53.099  15.093  1.00  0.00    +0.000 C 
ATOM     44  C31 UNL A   1      48.312  54.168  15.943  1.00  0.00    +0.000 C 
ATOM     45  C32 UNL A   1      49.055  53.830  17.092  1.00  0.00    +0.000 C 
ATOM     46  C33 UNL A   1      50.024  52.899  16.743  1.00  0.00    +0.000 C 
ATOM     47  N5  UNL A   1      49.730  52.541  15.448  1.00  0.00    +0.000 N 
ATOM     48  C34 UNL A   1      51.036  52.179  17.467  1.00  0.00    +0.000 C 
ATOM     60  C41 UNL A   1      51.274  52.582  18.738  1.00  0.00    +0.000 C 
ATOM     61  N6  UNL A   1      51.309  51.594  19.668  1.00  0.00    +0.000 N 
ATOM     62  C42 UNL A   1      50.410  51.986  20.519  1.00  0.00    +0.000 C 
ATOM     63  C43 UNL A   1      49.772  51.045  21.443  1.00  0.00    +0.000 C 
ATOM     75  C50 UNL A   1      48.849  50.324  20.676  1.00  0.00    +0.000 C 
ATOM     76  C51 UNL A   1      48.415  48.938  20.840  1.00  0.00    +0.000 C 
ATOM     77  C52 UNL A   1      47.543  48.565  19.855  1.00  0.00    +0.000 C 
ATOM     78  C53 UNL A   1      47.226  49.676  18.943  1.00  0.00    +0.000 C 
ATOM     79  N7  UNL A   1      48.135  50.681  19.453  1.00  0.00    +0.000 N 
ATOM     80  C54 UNL A   1      50.135  53.417  20.545  1.00  0.00    +0.000 C 
ATOM     81  C55 UNL A   1      50.785  53.760  19.432  1.00  0.00    +0.000 C 
ATOM     82  C56 UNL A   1      45.799  52.715  16.058  1.00  0.00    +0.000 C 
ATOM     83  C57 UNL A   1      45.807  52.192  17.291  1.00  0.00    +0.000 C 
ENDROOT
BRANCH   27   26
ATOM    130  H25 UNL A   1      44.687  45.433  16.841  1.00  0.00    +0.000 H 
ATOM    131  H26 UNL A   1      46.369  47.156  16.931  1.00  0.00    +0.000 H 
ATOM    142  H37 UNL A   1      43.436  50.131  17.184  1.00  0.00    +0.000 H 
ATOM    143  H38 UNL A   1      41.744  48.398  16.783  1.00  0.00    +0.000 H 
ATOM     84  C58 UNL A   1      43.742  49.151  17.085  1.00  0.00    +0.000 C 
ATOM     85  C59 UNL A   1      42.732  48.116  16.869  1.00  0.00    +0.000 C 
ATOM     23  C16 UNL A   1      43.056  46.750  16.775  1.00  0.00    +0.000 C 
ATOM     24  C17 UNL A   1      44.397  46.424  16.861  1.00  0.00    +0.000 C 
ATOM     25  C18 UNL A   1      45.380  47.447  16.980  1.00  0.00    +0.000 C 
ATOM     26  C19 UNL A   1      45.117  48.858  17.161  1.00  0.00    +0.000 C 
BRANCH   23   21
ATOM     21  C15 UNL A   1      42.055  45.620  16.756  1.00  0.00    +0.000 C 
ATOM     22  O4  UNL A   1      41.192  45.581  15.882  1.00  0.00    +0.000 O 
BRANCH   21   20
ATOM    129  H24 UNL A   1      42.793  44.052  17.819  1.00  0.00    +0.000 H 
ATOM     20  N3  UNL A   1      42.032  44.676  17.770  1.00  0.00    +0.000 N 
BRANCH   20   19
ATOM     19  C14 UNL A   1      40.995  44.525  18.760  1.00  0.00    +0.000 C 
ATOM    127  H22 UNL A   1      40.769  45.495  19.151  1.00  0.00    +0.000 H 
ATOM    128  H23 UNL A   1      40.175  44.058  18.256  1.00  0.00    +0.000 H 
BRANCH   19   18
ATOM     18  C13 UNL A   1      41.336  43.607  19.946  1.00  0.00    +0.000 C 
ATOM    125  H20 UNL A   1      41.188  44.172  20.841  1.00  0.00    +0.000 H 
ATOM    126  H21 UNL A   1      40.693  42.759  19.825  1.00  0.00    +0.000 H 
BRANCH   18   17
ATOM     17  C12 UNL A   1      42.754  43.014  20.005  1.00  0.00    +0.000 C 
ATOM    123  H18 UNL A   1      42.690  42.074  20.512  1.00  0.00    +0.000 H 
ATOM    124  H19 UNL A   1      43.074  42.953  18.986  1.00  0.00    +0.000 H 
BRANCH   17   16
ATOM    121  H16 UNL A   1      43.339  44.695  21.157  1.00  0.00    +0.000 H 
ATOM    122  H17 UNL A   1      44.286  43.190  21.417  1.00  0.00    +0.000 H 
ATOM     16  C11 UNL A   1      43.825  43.851  20.713  1.00  0.00    +0.000 C 
BRANCH   16   15
ATOM    119  H14 UNL A   1      44.549  44.693  18.901  1.00  0.00    +0.000 H 
ATOM     15  C10 UNL A   1      44.966  44.375  19.833  1.00  0.00    +0.000 C 
ATOM    120  H15 UNL A   1      45.429  45.168  20.382  1.00  0.00    +0.000 H 
BRANCH   15   14
ATOM    118  H13 UNL A   1      46.937  43.887  19.208  1.00  0.00    +0.000 H 
ATOM    117  H12 UNL A   1      45.726  42.686  18.776  1.00  0.00    +0.000 H 
ATOM     14  C9  UNL A   1      46.066  43.358  19.536  1.00  0.00    +0.000 C 
BRANCH   14   13
ATOM    116  H11 UNL A   1      45.849  41.810  20.908  1.00  0.00    +0.000 H 
ATOM     13  N2  UNL A   1      46.408  42.599  20.719  1.00  0.00    +0.000 N 
BRANCH   13   11
ATOM     11  C8  UNL A   1      47.420  42.852  21.604  1.00  0.00    +0.000 C 
ATOM     12  O3  UNL A   1      48.507  42.320  21.366  1.00  0.00    +0.000 O 
BRANCH   11    8
ATOM    112  H7  UNL A   1      47.939  43.507  23.544  1.00  0.00    +0.000 H 
ATOM      8  C6  UNL A   1      47.247  43.827  22.793  1.00  0.00    +0.000 C 
BRANCH    8    7
ATOM    111  H6  UNL A   1      45.339  43.017  23.068  1.00  0.00    +0.000 H 
ATOM      7  N1  UNL A   1      45.903  43.759  23.385  1.00  0.00    +0.000 N 
BRANCH    7    5
ATOM      5  C5  UNL A   1      45.330  44.579  24.309  1.00  0.00    +0.000 C 
ATOM      6  O1  UNL A   1      44.417  45.315  23.925  1.00  0.00    +0.000 O 
BRANCH    5    4
ATOM      4  C4  UNL A   1      45.849  44.639  25.735  1.00  0.00    +0.000 C 
ATOM    109  H4  UNL A   1      46.919  44.604  25.705  1.00  0.00    +0.000 H 
ATOM    110  H5  UNL A   1      45.481  45.548  26.162  1.00  0.00    +0.000 H 
BRANCH    4    3
ATOM      2  C2  UNL A   1      45.067  43.552  27.964  1.00  0.00    +0.000 C 
ATOM      3  C3  UNL A   1      45.364  43.521  26.605  1.00  0.00    +0.000 C 
ATOM     98  N8  UNL A   1      44.609  42.288  28.336  1.00  0.00    +0.000 N 
ATOM    144  H39 UNL A   1      45.361  41.825  25.226  1.00  0.00    +0.000 H 
ATOM     86  C60 UNL A   1      45.164  42.186  26.172  1.00  0.00    +0.000 C 
ATOM     87  C61 UNL A   1      44.662  41.445  27.226  1.00  0.00    +0.000 C 
BRANCH    2    1
ATOM      1  C1  UNL A   1      45.310  44.675  28.922  1.00  0.00    +0.000 C 
ATOM    106  H1  UNL A   1      46.362  44.780  29.090  1.00  0.00    +0.000 H 
ATOM    107  H2  UNL A   1      44.820  44.465  29.850  1.00  0.00    +0.000 H 
ATOM    108  H3  UNL A   1      44.921  45.583  28.512  1.00  0.00    +0.000 H 
ENDBRANCH    2    1
BRANCH   87   88
ATOM     97  C68 UNL A   1      45.013  38.988  27.361  1.00  0.00    +0.000 C 
ATOM    145  H40 UNL A   1      42.154  40.609  26.706  1.00  0.00    +0.000 H 
ATOM    146  H41 UNL A   1      41.314  38.332  26.610  1.00  0.00    +0.000 H 
ATOM    150  H45 UNL A   1      45.179  36.883  27.448  1.00  0.00    +0.000 H 
ATOM    151  H46 UNL A   1      46.013  39.161  27.549  1.00  0.00    +0.000 H 
ATOM     88  C62 UNL A   1      44.146  40.071  27.169  1.00  0.00    +0.000 C 
ATOM     89  C63 UNL A   1      42.795  39.819  26.878  1.00  0.00    +0.000 C 
ATOM     90  C64 UNL A   1      42.309  38.510  26.818  1.00  0.00    +0.000 C 
ATOM     91  C65 UNL A   1      43.183  37.445  27.044  1.00  0.00    +0.000 C 
ATOM     96  C67 UNL A   1      44.536  37.677  27.302  1.00  0.00    +0.000 C 
BRANCH   91   92
ATOM     92  S1  UNL A   1      42.569  35.782  26.929  1.00  0.00    +0.000 S 
ATOM     94  O5  UNL A   1      41.244  35.772  27.494  1.00  0.00    +0.000 O 
ATOM     95  O6  UNL A   1      42.805  35.321  25.563  1.00  0.00    +0.000 O 
BRANCH   92   93
ATOM    149  H44 UNL A   1      44.092  34.053  27.426  1.00  0.00    +0.000 H 
ATOM    147  H42 UNL A   1      43.072  34.431  28.794  1.00  0.00    +0.000 H 
ATOM    148  H43 UNL A   1      44.403  35.484  28.379  1.00  0.00    +0.000 H 
ATOM     93  C66 UNL A   1      43.641  34.844  27.987  1.00  0.00    +0.000 C 
ENDBRANCH   92   93
ENDBRANCH   91   92
ENDBRANCH   87   88
BRANCH   98   99
ATOM     99  C69 UNL A   1      44.197  41.895  29.638  1.00  0.00    +0.000 C 
ATOM    100  C70 UNL A   1      45.156  41.465  30.566  1.00  0.00    +0.000 C 
ATOM    101  C71 UNL A   1      44.755  41.038  31.833  1.00  0.00    +0.000 C 
ATOM    102  C72 UNL A   1      43.401  41.025  32.164  1.00  0.00    +0.000 C 
ATOM    103  C73 UNL A   1      42.458  41.442  31.229  1.00  0.00    +0.000 C 
ATOM    104  F16 UNL A   1      41.157  41.407  31.546  1.00  0.00    +0.000 F 
ATOM    105  C74 UNL A   1      42.840  41.880  29.966  1.00  0.00    +0.000 C 
ATOM    152  H47 UNL A   1      46.157  41.465  30.313  1.00  0.00    +0.000 H 
ATOM    153  H48 UNL A   1      45.459  40.732  32.522  1.00  0.00    +0.000 H 
ATOM    154  H49 UNL A   1      43.099  40.708  33.099  1.00  0.00    +0.000 H 
ATOM    155  H50 UNL A   1      42.131  42.188  29.282  1.00  0.00    +0.000 H 
ENDBRANCH   98   99
ENDBRANCH    4    3
ENDBRANCH    5    4
ENDBRANCH    7    5
ENDBRANCH    8    7
BRANCH    8    9
ATOM      9  C7  UNL A   1      47.606  45.268  22.407  1.00  0.00    +0.000 C 
ATOM    114  H9  UNL A   1      48.065  45.234  21.441  1.00  0.00    +0.000 H 
ATOM    113  H8  UNL A   1      46.709  45.853  22.403  1.00  0.00    +0.000 H 
BRANCH    9   10
ATOM     10  O2  UNL A   1      48.536  45.873  23.297  1.00  0.00    +0.000 O 
ATOM    115  H10 UNL A   1      49.138  45.195  23.643  1.00  0.00    +0.000 H 
ENDBRANCH    9   10
ENDBRANCH    8    9
ENDBRANCH   11    8
ENDBRANCH   13   11
ENDBRANCH   14   13
ENDBRANCH   15   14
ENDBRANCH   16   15
ENDBRANCH   17   16
ENDBRANCH   18   17
ENDBRANCH   19   18
ENDBRANCH   20   19
ENDBRANCH   21   20
ENDBRANCH   23   21
ENDBRANCH   27   26
BRANCH   31   32
ATOM     33  C25 UNL A   1      47.738  51.441  11.995  1.00  0.00    +0.000 C 
ATOM     34  F1  UNL A   1      47.226  52.612  11.586  1.00  0.00    +0.000 F 
ATOM     35  C26 UNL A   1      47.972  50.438  11.053  1.00  0.00    +0.000 C 
ATOM     36  F2  UNL A   1      47.712  50.666   9.758  1.00  0.00    +0.000 F 
ATOM     37  C27 UNL A   1      48.474  49.207  11.448  1.00  0.00    +0.000 C 
ATOM     38  F3  UNL A   1      48.663  48.233  10.547  1.00  0.00    +0.000 F 
ATOM     39  C28 UNL A   1      48.814  48.998  12.772  1.00  0.00    +0.000 C 
ATOM     40  F4  UNL A   1      49.321  47.819  13.163  1.00  0.00    +0.000 F 
ATOM     41  C29 UNL A   1      48.648  50.020  13.699  1.00  0.00    +0.000 C 
ATOM     42  F5  UNL A   1      49.125  49.818  14.938  1.00  0.00    +0.000 F 
ATOM     32  C24 UNL A   1      48.041  51.243  13.345  1.00  0.00    +0.000 C 
ENDBRANCH   31   32
BRANCH   48   49
ATOM     49  C35 UNL A   1      51.756  50.930  17.000  1.00  0.00    +0.000 C 
ATOM     50  C36 UNL A   1      51.340  49.590  17.188  1.00  0.00    +0.000 C 
ATOM     51  F6  UNL A   1      50.115  49.288  17.640  1.00  0.00    +0.000 F 
ATOM     52  C37 UNL A   1      52.178  48.512  16.888  1.00  0.00    +0.000 C 
ATOM     53  F7  UNL A   1      51.779  47.257  17.145  1.00  0.00    +0.000 F 
ATOM     54  C38 UNL A   1      53.421  48.733  16.326  1.00  0.00    +0.000 C 
ATOM     55  F8  UNL A   1      54.222  47.701  16.026  1.00  0.00    +0.000 F 
ATOM     56  C39 UNL A   1      53.824  50.029  16.059  1.00  0.00    +0.000 C 
ATOM     57  F9  UNL A   1      55.004  50.255  15.465  1.00  0.00    +0.000 F 
ATOM     58  C40 UNL A   1      53.012  51.107  16.404  1.00  0.00    +0.000 C 
ATOM     59  F10 UNL A   1      53.457  52.345  16.143  1.00  0.00    +0.000 F 
ENDBRANCH   48   49
BRANCH   63   64
ATOM     65  C45 UNL A   1      49.985  51.946  23.893  1.00  0.00    +0.000 C 
ATOM     66  F11 UNL A   1      49.137  52.957  23.657  1.00  0.00    +0.000 F 
ATOM     67  C46 UNL A   1      50.242  51.710  25.257  1.00  0.00    +0.000 C 
ATOM     68  F12 UNL A   1      49.613  52.433  26.200  1.00  0.00    +0.000 F 
ATOM     69  C47 UNL A   1      51.076  50.685  25.629  1.00  0.00    +0.000 C 
ATOM     70  F13 UNL A   1      51.268  50.403  26.928  1.00  0.00    +0.000 F 
ATOM     71  C48 UNL A   1      51.679  49.932  24.633  1.00  0.00    +0.000 C 
ATOM     72  F14 UNL A   1      52.491  48.927  24.999  1.00  0.00    +0.000 F 
ATOM     73  C49 UNL A   1      51.397  50.147  23.256  1.00  0.00    +0.000 C 
ATOM     74  F15 UNL A   1      51.944  49.305  22.371  1.00  0.00    +0.000 F 
ATOM     64  C44 UNL A   1      50.502  51.133  22.818  1.00  0.00    +0.000 C 
ENDBRANCH   63   64
TORSDOF 26
ENDMDL
MODEL 2
REMARK VINA RESULT:      -8.7     17.555     22.991
ROOT
ATOM    132  H27 UNL A   1      44.635  31.944  28.250  1.00  0.00    +0.000 H 
ATOM    133  H28 UNL A   1      42.321  32.813  29.247  1.00  0.00    +0.000 H 
ATOM    134  H29 UNL A   1      44.057  30.124  31.841  1.00  0.00    +0.000 H 
ATOM    135  H30 UNL A   1      36.332  29.725  30.683  1.00  0.00    +0.000 H 
ATOM    136  H31 UNL A   1      37.525  27.690  29.786  1.00  0.00    +0.000 H 
ATOM    137  H32 UNL A   1      40.152  30.898  29.486  1.00  0.00    +0.000 H 
ATOM    138  H33 UNL A   1      39.471  34.388  29.468  1.00  0.00    +0.000 H 
ATOM    139  H34 UNL A   1      41.732  34.520  30.740  1.00  0.00    +0.000 H 
ATOM    140  H35 UNL A   1      43.804  29.872  26.539  1.00  0.00    +0.000 H 
ATOM    141  H36 UNL A   1      41.250  30.243  26.681  1.00  0.00    +0.000 H 
ATOM     27  C20 UNL A   1      40.126  28.145  28.520  1.00  0.00    +0.000 C 
ATOM     28  C21 UNL A   1      41.498  28.713  28.343  1.00  0.00    +0.000 C 
ATOM     29  N4  UNL A   1      42.512  28.089  28.882  1.00  0.00    +0.000 N 
ATOM     30  C22 UNL A   1      43.648  28.689  28.396  1.00  0.00    +0.000 C 
ATOM     31  C23 UNL A   1      44.550  29.058  29.352  1.00  0.00    +0.000 C 
ATOM     43  C30 UNL A   1      44.330  30.416  29.769  1.00  0.00    +0.000 C 
ATOM     44  C31 UNL A   1      44.101  31.575  29.053  1.00  0.00    +0.000 C 
ATOM     45  C32 UNL A   1      42.967  32.133  29.676  1.00  0.00    +0.000 C 
ATOM     46  C33 UNL A   1      42.861  31.618  30.961  1.00  0.00    +0.000 C 
ATOM     47  N5  UNL A   1      43.802  30.617  31.027  1.00  0.00    +0.000 N 
ATOM     48  C34 UNL A   1      41.924  31.783  32.038  1.00  0.00    +0.000 C 
ATOM     60  C41 UNL A   1      41.022  32.786  31.909  1.00  0.00    +0.000 C 
ATOM     61  N6  UNL A   1      39.731  32.448  32.155  1.00  0.00    +0.000 N 
ATOM     62  C42 UNL A   1      39.140  32.797  31.053  1.00  0.00    +0.000 C 
ATOM     63  C43 UNL A   1      37.848  32.226  30.667  1.00  0.00    +0.000 C 
ATOM     75  C50 UNL A   1      38.124  30.934  30.205  1.00  0.00    +0.000 C 
ATOM     76  C51 UNL A   1      37.286  29.739  30.289  1.00  0.00    +0.000 C 
ATOM     77  C52 UNL A   1      37.924  28.642  29.781  1.00  0.00    +0.000 C 
ATOM     78  C53 UNL A   1      39.247  28.974  29.227  1.00  0.00    +0.000 C 
ATOM     79  N7  UNL A   1      39.332  30.367  29.613  1.00  0.00    +0.000 N 
ATOM     80  C54 UNL A   1      39.803  33.835  30.273  1.00  0.00    +0.000 C 
ATOM     81  C55 UNL A   1      40.970  33.848  30.919  1.00  0.00    +0.000 C 
ATOM     82  C56 UNL A   1      43.181  29.481  27.262  1.00  0.00    +0.000 C 
ATOM     83  C57 UNL A   1      41.850  29.641  27.266  1.00  0.00    +0.000 C 
ENDROOT
BRANCH   27   26
ATOM    130  H25 UNL A   1      41.751  25.682  24.880  1.00  0.00    +0.000 H 
ATOM    131  H26 UNL A   1      40.460  27.441  25.903  1.00  0.00    +0.000 H 
ATOM    142  H37 UNL A   1      40.327  25.357  29.530  1.00  0.00    +0.000 H 
ATOM    143  H38 UNL A   1      41.371  23.449  28.391  1.00  0.00    +0.000 H 
ATOM     84  C58 UNL A   1      40.586  25.453  28.536  1.00  0.00    +0.000 C 
ATOM     85  C59 UNL A   1      41.229  24.325  27.864  1.00  0.00    +0.000 C 
ATOM     23  C16 UNL A   1      41.662  24.386  26.526  1.00  0.00    +0.000 C 
ATOM     24  C17 UNL A   1      41.417  25.567  25.851  1.00  0.00    +0.000 C 
ATOM     25  C18 UNL A   1      40.709  26.627  26.486  1.00  0.00    +0.000 C 
ATOM     26  C19 UNL A   1      40.307  26.664  27.874  1.00  0.00    +0.000 C 
BRANCH   23   21
ATOM     21  C15 UNL A   1      42.506  23.341  25.838  1.00  0.00    +0.000 C 
ATOM     22  O4  UNL A   1      42.043  22.223  25.625  1.00  0.00    +0.000 O 
BRANCH   21   20
ATOM    129  H24 UNL A   1      44.024  23.979  24.647  1.00  0.00    +0.000 H 
ATOM     20  N3  UNL A   1      43.834  23.592  25.532  1.00  0.00    +0.000 N 
BRANCH   20   19
ATOM     19  C14 UNL A   1      44.962  23.336  26.392  1.00  0.00    +0.000 C 
ATOM    127  H22 UNL A   1      44.614  22.772  27.233  1.00  0.00    +0.000 H 
ATOM    128  H23 UNL A   1      45.679  22.819  25.789  1.00  0.00    +0.000 H 
BRANCH   19   18
ATOM     18  C13 UNL A   1      45.686  24.582  26.927  1.00  0.00    +0.000 C 
ATOM    125  H20 UNL A   1      45.823  24.446  27.979  1.00  0.00    +0.000 H 
ATOM    126  H21 UNL A   1      46.586  24.642  26.349  1.00  0.00    +0.000 H 
BRANCH   18   17
ATOM     17  C12 UNL A   1      45.004  25.946  26.725  1.00  0.00    +0.000 C 
ATOM    123  H18 UNL A   1      44.038  25.764  26.301  1.00  0.00    +0.000 H 
ATOM    124  H19 UNL A   1      44.990  26.398  27.695  1.00  0.00    +0.000 H 
BRANCH   17   16
ATOM    121  H16 UNL A   1      45.168  27.030  24.910  1.00  0.00    +0.000 H 
ATOM    122  H17 UNL A   1      45.770  27.862  26.385  1.00  0.00    +0.000 H 
ATOM     16  C11 UNL A   1      45.724  26.954  25.822  1.00  0.00    +0.000 C 
BRANCH   16   15
ATOM    119  H14 UNL A   1      47.395  25.641  25.828  1.00  0.00    +0.000 H 
ATOM     15  C10 UNL A   1      47.175  26.620  25.459  1.00  0.00    +0.000 C 
ATOM    120  H15 UNL A   1      47.244  26.696  24.394  1.00  0.00    +0.000 H 
BRANCH   15   14
ATOM    118  H13 UNL A   1      48.259  27.451  27.087  1.00  0.00    +0.000 H 
ATOM    117  H12 UNL A   1      47.932  28.587  25.785  1.00  0.00    +0.000 H 
ATOM     14  C9  UNL A   1      48.216  27.584  26.026  1.00  0.00    +0.000 C 
BRANCH   14   13
ATOM    116  H11 UNL A   1      49.764  27.813  24.658  1.00  0.00    +0.000 H 
ATOM     13  N2  UNL A   1      49.527  27.320  25.476  1.00  0.00    +0.000 N 
BRANCH   13   11
ATOM     11  C8  UNL A   1      50.474  26.463  25.964  1.00  0.00    +0.000 C 
ATOM     12  O3  UNL A   1      50.957  25.659  25.162  1.00  0.00    +0.000 O 
BRANCH   11    8
ATOM    112  H7  UNL A   1      50.470  27.368  27.873  1.00  0.00    +0.000 H 
ATOM      8  C6  UNL A   1      50.987  26.548  27.422  1.00  0.00    +0.000 C 
BRANCH    8    7
ATOM    111  H6  UNL A   1      52.990  26.364  26.850  1.00  0.00    +0.000 H 
ATOM      7  N1  UNL A   1      52.424  26.847  27.495  1.00  0.00    +0.000 N 
BRANCH    7    5
ATOM      5  C5  UNL A   1      53.082  27.700  28.330  1.00  0.00    +0.000 C 
ATOM      6  O1  UNL A   1      53.671  27.206  29.294  1.00  0.00    +0.000 O 
BRANCH    5    4
ATOM      4  C4  UNL A   1      53.023  29.203  28.121  1.00  0.00    +0.000 C 
ATOM    109  H4  UNL A   1      53.774  29.657  28.734  1.00  0.00    +0.000 H 
ATOM    110  H5  UNL A   1      53.184  29.379  27.078  1.00  0.00    +0.000 H 
BRANCH    4    3
ATOM      2  C2  UNL A   1      51.158  30.038  29.729  1.00  0.00    +0.000 C 
ATOM      3  C3  UNL A   1      51.699  29.812  28.468  1.00  0.00    +0.000 C 
ATOM     98  N8  UNL A   1      49.923  30.666  29.564  1.00  0.00    +0.000 N 
ATOM    144  H39 UNL A   1      50.806  30.137  26.499  1.00  0.00    +0.000 H 
ATOM     86  C60 UNL A   1      50.729  30.233  27.524  1.00  0.00    +0.000 C 
ATOM     87  C61 UNL A   1      49.661  30.793  28.199  1.00  0.00    +0.000 C 
BRANCH    2    1
ATOM      1  C1  UNL A   1      51.701  29.583  31.047  1.00  0.00    +0.000 C 
ATOM    106  H1  UNL A   1      52.292  30.365  31.478  1.00  0.00    +0.000 H 
ATOM    107  H2  UNL A   1      52.310  28.715  30.902  1.00  0.00    +0.000 H 
ATOM    108  H3  UNL A   1      50.892  29.345  31.703  1.00  0.00    +0.000 H 
ENDBRANCH    2    1
BRANCH   87   88
ATOM     97  C68 UNL A   1      48.562  32.910  27.503  1.00  0.00    +0.000 C 
ATOM    145  H40 UNL A   1      47.329  29.801  27.285  1.00  0.00    +0.000 H 
ATOM    146  H41 UNL A   1      45.457  31.007  26.315  1.00  0.00    +0.000 H 
ATOM    150  H45 UNL A   1      47.519  34.637  26.872  1.00  0.00    +0.000 H 
ATOM    151  H46 UNL A   1      49.390  33.427  27.835  1.00  0.00    +0.000 H 
ATOM     88  C62 UNL A   1      48.526  31.514  27.609  1.00  0.00    +0.000 C 
ATOM     89  C63 UNL A   1      47.377  30.828  27.185  1.00  0.00    +0.000 C 
ATOM     90  C64 UNL A   1      46.295  31.518  26.629  1.00  0.00    +0.000 C 
ATOM     91  C65 UNL A   1      46.363  32.907  26.504  1.00  0.00    +0.000 C 
ATOM     96  C67 UNL A   1      47.485  33.608  26.951  1.00  0.00    +0.000 C 
BRANCH   91   92
ATOM     92  S1  UNL A   1      44.972  33.784  25.833  1.00  0.00    +0.000 S 
ATOM     94  O5  UNL A   1      45.469  34.657  24.801  1.00  0.00    +0.000 O 
ATOM     95  O6  UNL A   1      43.932  32.799  25.545  1.00  0.00    +0.000 O 
BRANCH   92   93
ATOM    149  H44 UNL A   1      44.634  35.803  27.002  1.00  0.00    +0.000 H 
ATOM    147  H42 UNL A   1      44.848  34.452  28.089  1.00  0.00    +0.000 H 
ATOM    148  H43 UNL A   1      43.325  34.676  27.263  1.00  0.00    +0.000 H 
ATOM     93  C66 UNL A   1      44.387  34.778  27.180  1.00  0.00    +0.000 C 
ENDBRANCH   92   93
ENDBRANCH   91   92
ENDBRANCH   87   88
BRANCH   98   99
ATOM     99  C69 UNL A   1      49.043  31.072  30.603  1.00  0.00    +0.000 C 
ATOM    100  C70 UNL A   1      49.197  32.340  31.183  1.00  0.00    +0.000 C 
ATOM    101  C71 UNL A   1      48.363  32.730  32.232  1.00  0.00    +0.000 C 
ATOM    102  C72 UNL A   1      47.392  31.852  32.710  1.00  0.00    +0.000 C 
ATOM    103  C73 UNL A   1      47.258  30.591  32.134  1.00  0.00    +0.000 C 
ATOM    104  F16 UNL A   1      46.337  29.744  32.612  1.00  0.00    +0.000 F 
ATOM    105  C74 UNL A   1      48.073  30.189  31.082  1.00  0.00    +0.000 C 
ATOM    152  H47 UNL A   1      49.925  32.983  30.834  1.00  0.00    +0.000 H 
ATOM    153  H48 UNL A   1      48.466  33.666  32.653  1.00  0.00    +0.000 H 
ATOM    154  H49 UNL A   1      46.774  32.135  33.487  1.00  0.00    +0.000 H 
ATOM    155  H50 UNL A   1      47.963  29.252  30.662  1.00  0.00    +0.000 H 
ENDBRANCH   98   99
ENDBRANCH    4    3
ENDBRANCH    5    4
ENDBRANCH    7    5
ENDBRANCH    8    7
BRANCH    8    9
ATOM      9  C7  UNL A   1      50.648  25.281  28.221  1.00  0.00    +0.000 C 
ATOM    114  H9  UNL A   1      49.661  24.981  27.937  1.00  0.00    +0.000 H 
ATOM    113  H8  UNL A   1      51.376  24.531  27.994  1.00  0.00    +0.000 H 
BRANCH    9   10
ATOM     10  O2  UNL A   1      50.638  25.492  29.628  1.00  0.00    +0.000 O 
ATOM    115  H10 UNL A   1      49.736  25.706  29.915  1.00  0.00    +0.000 H 
ENDBRANCH    9   10
ENDBRANCH    8    9
ENDBRANCH   11    8
ENDBRANCH   13   11
ENDBRANCH   14   13
ENDBRANCH   15   14
ENDBRANCH   16   15
ENDBRANCH   17   16
ENDBRANCH   18   17
ENDBRANCH   19   18
ENDBRANCH   20   19
ENDBRANCH   21   20
ENDBRANCH   23   21
ENDBRANCH   27   26
BRANCH   31   32
ATOM     33  C25 UNL A   1      46.119  27.251  30.050  1.00  0.00    +0.000 C 
ATOM     34  F1  UNL A   1      46.977  27.686  29.115  1.00  0.00    +0.000 F 
ATOM     35  C26 UNL A   1      46.440  26.109  30.786  1.00  0.00    +0.000 C 
ATOM     36  F2  UNL A   1      47.606  25.484  30.571  1.00  0.00    +0.000 F 
ATOM     37  C27 UNL A   1      45.560  25.618  31.740  1.00  0.00    +0.000 C 
ATOM     38  F3  UNL A   1      45.855  24.500  32.419  1.00  0.00    +0.000 F 
ATOM     39  C28 UNL A   1      44.393  26.306  32.015  1.00  0.00    +0.000 C 
ATOM     40  F4  UNL A   1      43.545  25.853  32.951  1.00  0.00    +0.000 F 
ATOM     41  C29 UNL A   1      44.105  27.482  31.333  1.00  0.00    +0.000 C 
ATOM     42  F5  UNL A   1      43.036  28.188  31.735  1.00  0.00    +0.000 F 
ATOM     32  C24 UNL A   1      44.929  27.945  30.285  1.00  0.00    +0.000 C 
ENDBRANCH   31   32
BRANCH   48   49
ATOM     49  C35 UNL A   1      41.754  30.863  33.229  1.00  0.00    +0.000 C 
ATOM     50  C36 UNL A   1      42.230  31.080  34.544  1.00  0.00    +0.000 C 
ATOM     51  F6  UNL A   1      42.724  32.265  34.930  1.00  0.00    +0.000 F 
ATOM     52  C37 UNL A   1      42.188  30.076  35.516  1.00  0.00    +0.000 C 
ATOM     53  F7  UNL A   1      42.713  30.293  36.732  1.00  0.00    +0.000 F 
ATOM     54  C38 UNL A   1      41.605  28.856  35.230  1.00  0.00    +0.000 C 
ATOM     55  F8  UNL A   1      41.552  27.895  36.164  1.00  0.00    +0.000 F 
ATOM     56  C39 UNL A   1      41.062  28.641  33.977  1.00  0.00    +0.000 C 
ATOM     57  F9  UNL A   1      40.447  27.482  33.703  1.00  0.00    +0.000 F 
ATOM     58  C40 UNL A   1      41.150  29.621  32.991  1.00  0.00    +0.000 C 
ATOM     59  F10 UNL A   1      40.625  29.356  31.785  1.00  0.00    +0.000 F 
ENDBRANCH   48   49
BRANCH   63   64
ATOM     65  C45 UNL A   1      35.941  33.932  30.103  1.00  0.00    +0.000 C 
ATOM     66  F11 UNL A   1      36.387  34.105  28.851  1.00  0.00    +0.000 F 
ATOM     67  C46 UNL A   1      34.640  34.419  30.329  1.00  0.00    +0.000 C 
ATOM     68  F12 UNL A   1      33.930  34.950  29.318  1.00  0.00    +0.000 F 
ATOM     69  C47 UNL A   1      34.062  34.280  31.566  1.00  0.00    +0.000 C 
ATOM     70  F13 UNL A   1      32.794  34.671  31.771  1.00  0.00    +0.000 F 
ATOM     71  C48 UNL A   1      34.806  33.692  32.578  1.00  0.00    +0.000 C 
ATOM     72  F14 UNL A   1      34.238  33.552  33.786  1.00  0.00    +0.000 F 
ATOM     73  C49 UNL A   1      36.108  33.171  32.344  1.00  0.00    +0.000 C 
ATOM     74  F15 UNL A   1      36.710  32.529  33.354  1.00  0.00    +0.000 F 
ATOM     64  C44 UNL A   1      36.724  33.223  31.087  1.00  0.00    +0.000 C 
ENDBRANCH   63   64
TORSDOF 26
ENDMDL
MODEL 3
REMARK VINA RESULT:      -8.6     19.759     24.271
ROOT
ATOM    132  H27 UNL A   1      44.767  31.807  27.841  1.00  0.00    +0.000 H 
ATOM    133  H28 UNL A   1      42.442  32.752  28.739  1.00  0.00    +0.000 H 
ATOM    134  H29 UNL A   1      44.109  30.217  31.526  1.00  0.00    +0.000 H 
ATOM    135  H30 UNL A   1      36.403  29.800  30.251  1.00  0.00    +0.000 H 
ATOM    136  H31 UNL A   1      37.596  27.706  29.505  1.00  0.00    +0.000 H 
ATOM    137  H32 UNL A   1      40.254  30.870  29.055  1.00  0.00    +0.000 H 
ATOM    138  H33 UNL A   1      39.602  34.358  28.808  1.00  0.00    +0.000 H 
ATOM    139  H34 UNL A   1      41.840  34.553  30.111  1.00  0.00    +0.000 H 
ATOM    140  H35 UNL A   1      43.951  29.637  26.246  1.00  0.00    +0.000 H 
ATOM    141  H36 UNL A   1      41.398  30.034  26.318  1.00  0.00    +0.000 H 
ATOM     27  C20 UNL A   1      40.223  28.063  28.262  1.00  0.00    +0.000 C 
ATOM     28  C21 UNL A   1      41.603  28.609  28.076  1.00  0.00    +0.000 C 
ATOM     29  N4  UNL A   1      42.602  28.013  28.671  1.00  0.00    +0.000 N 
ATOM     30  C22 UNL A   1      43.751  28.574  28.171  1.00  0.00    +0.000 C 
ATOM     31  C23 UNL A   1      44.638  28.995  29.118  1.00  0.00    +0.000 C 
ATOM     43  C30 UNL A   1      44.422  30.379  29.446  1.00  0.00    +0.000 C 
ATOM     44  C31 UNL A   1      44.215  31.492  28.654  1.00  0.00    +0.000 C 
ATOM     45  C32 UNL A   1      43.075  32.095  29.221  1.00  0.00    +0.000 C 
ATOM     46  C33 UNL A   1      42.941  31.662  30.533  1.00  0.00    +0.000 C 
ATOM     47  N5  UNL A   1      43.873  30.661  30.679  1.00  0.00    +0.000 N 
ATOM     48  C34 UNL A   1      41.986  31.901  31.580  1.00  0.00    +0.000 C 
ATOM     60  C41 UNL A   1      41.095  32.900  31.372  1.00  0.00    +0.000 C 
ATOM     61  N6  UNL A   1      39.797  32.587  31.615  1.00  0.00    +0.000 N 
ATOM     62  C42 UNL A   1      39.229  32.870  30.482  1.00  0.00    +0.000 C 
ATOM     63  C43 UNL A   1      37.939  32.286  30.108  1.00  0.00    +0.000 C 
ATOM     75  C50 UNL A   1      38.213  30.965  29.733  1.00  0.00    +0.000 C 
ATOM     76  C51 UNL A   1      37.364  29.783  29.875  1.00  0.00    +0.000 C 
ATOM     77  C52 UNL A   1      38.003  28.652  29.449  1.00  0.00    +0.000 C 
ATOM     78  C53 UNL A   1      39.338  28.940  28.900  1.00  0.00    +0.000 C 
ATOM     79  N7  UNL A   1      39.428  30.354  29.200  1.00  0.00    +0.000 N 
ATOM     80  C54 UNL A   1      39.914  33.853  29.651  1.00  0.00    +0.000 C 
ATOM     81  C55 UNL A   1      41.069  33.898  30.317  1.00  0.00    +0.000 C 
ATOM     82  C56 UNL A   1      43.311  29.297  26.980  1.00  0.00    +0.000 C 
ATOM     83  C57 UNL A   1      41.982  29.466  26.950  1.00  0.00    +0.000 C 
ENDROOT
BRANCH   27   26
ATOM    130  H25 UNL A   1      41.913  25.365  24.824  1.00  0.00    +0.000 H 
ATOM    131  H26 UNL A   1      40.617  27.196  25.702  1.00  0.00    +0.000 H 
ATOM    142  H37 UNL A   1      40.368  25.340  29.446  1.00  0.00    +0.000 H 
ATOM    143  H38 UNL A   1      41.419  23.356  28.454  1.00  0.00    +0.000 H 
ATOM     84  C58 UNL A   1      40.653  25.372  28.455  1.00  0.00    +0.000 C 
ATOM     85  C59 UNL A   1      41.300  24.199  27.870  1.00  0.00    +0.000 C 
ATOM     23  C16 UNL A   1      41.768  24.174  26.543  1.00  0.00    +0.000 C 
ATOM     24  C17 UNL A   1      41.553  25.313  25.790  1.00  0.00    +0.000 C 
ATOM     25  C18 UNL A   1      40.842  26.417  26.341  1.00  0.00    +0.000 C 
ATOM     26  C19 UNL A   1      40.405  26.544  27.713  1.00  0.00    +0.000 C 
BRANCH   23   21
ATOM     21  C15 UNL A   1      42.617  23.080  25.943  1.00  0.00    +0.000 C 
ATOM     22  O4  UNL A   1      42.100  22.017  25.607  1.00  0.00    +0.000 O 
BRANCH   21   20
ATOM    129  H24 UNL A   1      44.357  23.548  25.002  1.00  0.00    +0.000 H 
ATOM     20  N3  UNL A   1      43.994  23.219  25.856  1.00  0.00    +0.000 N 
BRANCH   20   19
ATOM     19  C14 UNL A   1      44.940  22.925  26.902  1.00  0.00    +0.000 C 
ATOM    127  H22 UNL A   1      44.452  22.300  27.621  1.00  0.00    +0.000 H 
ATOM    128  H23 UNL A   1      45.775  22.461  26.420  1.00  0.00    +0.000 H 
BRANCH   19   18
ATOM     18  C13 UNL A   1      45.510  24.144  27.646  1.00  0.00    +0.000 C 
ATOM    125  H20 UNL A   1      45.144  24.106  28.650  1.00  0.00    +0.000 H 
ATOM    126  H21 UNL A   1      46.571  24.055  27.539  1.00  0.00    +0.000 H 
BRANCH   18   17
ATOM     17  C12 UNL A   1      45.179  25.539  27.088  1.00  0.00    +0.000 C 
ATOM    123  H18 UNL A   1      44.281  25.451  26.512  1.00  0.00    +0.000 H 
ATOM    124  H19 UNL A   1      45.101  26.172  27.946  1.00  0.00    +0.000 H 
BRANCH   17   16
ATOM    121  H16 UNL A   1      45.838  26.262  25.207  1.00  0.00    +0.000 H 
ATOM    122  H17 UNL A   1      46.444  27.145  26.650  1.00  0.00    +0.000 H 
ATOM     16  C11 UNL A   1      46.238  26.198  26.197  1.00  0.00    +0.000 C 
BRANCH   16   15
ATOM    119  H14 UNL A   1      47.565  24.640  26.772  1.00  0.00    +0.000 H 
ATOM     15  C10 UNL A   1      47.591  25.481  26.112  1.00  0.00    +0.000 C 
ATOM    120  H15 UNL A   1      47.722  25.209  25.085  1.00  0.00    +0.000 H 
BRANCH   15   14
ATOM    118  H13 UNL A   1      48.479  27.359  26.556  1.00  0.00    +0.000 H 
ATOM    117  H12 UNL A   1      49.550  26.232  25.733  1.00  0.00    +0.000 H 
ATOM     14  C9  UNL A   1      48.797  26.340  26.486  1.00  0.00    +0.000 C 
BRANCH   14   13
ATOM    116  H11 UNL A   1      49.100  25.042  28.082  1.00  0.00    +0.000 H 
ATOM     13  N2  UNL A   1      49.346  25.941  27.763  1.00  0.00    +0.000 N 
BRANCH   13   11
ATOM     11  C8  UNL A   1      50.166  26.671  28.578  1.00  0.00    +0.000 C 
ATOM     12  O3  UNL A   1      49.871  27.858  28.738  1.00  0.00    +0.000 O 
BRANCH   11    8
ATOM    112  H7  UNL A   1      51.204  24.971  29.283  1.00  0.00    +0.000 H 
ATOM      8  C6  UNL A   1      51.353  26.030  29.337  1.00  0.00    +0.000 C 
BRANCH    8    7
ATOM    111  H6  UNL A   1      51.232  27.349  30.955  1.00  0.00    +0.000 H 
ATOM      7  N1  UNL A   1      51.371  26.393  30.760  1.00  0.00    +0.000 N 
BRANCH    7    5
ATOM      5  C5  UNL A   1      51.554  25.594  31.849  1.00  0.00    +0.000 C 
ATOM      6  O1  UNL A   1      52.185  26.066  32.798  1.00  0.00    +0.000 O 
BRANCH    5    4
ATOM      4  C4  UNL A   1      51.067  24.156  31.857  1.00  0.00    +0.000 C 
ATOM    109  H4  UNL A   1      50.485  23.992  30.973  1.00  0.00    +0.000 H 
ATOM    110  H5  UNL A   1      51.936  23.533  31.896  1.00  0.00    +0.000 H 
BRANCH    4    3
ATOM      2  C2  UNL A   1      50.247  22.640  33.805  1.00  0.00    +0.000 C 
ATOM      3  C3  UNL A   1      50.226  23.806  33.046  1.00  0.00    +0.000 C 
ATOM     98  N8  UNL A   1      49.321  22.778  34.838  1.00  0.00    +0.000 N 
ATOM    144  H39 UNL A   1      48.896  25.534  33.201  1.00  0.00    +0.000 H 
ATOM     86  C60 UNL A   1      49.202  24.626  33.584  1.00  0.00    +0.000 C 
ATOM     87  C61 UNL A   1      48.679  24.011  34.706  1.00  0.00    +0.000 C 
BRANCH    2    1
ATOM      1  C1  UNL A   1      51.009  21.384  33.520  1.00  0.00    +0.000 C 
ATOM    106  H1  UNL A   1      50.350  20.543  33.587  1.00  0.00    +0.000 H 
ATOM    107  H2  UNL A   1      51.798  21.276  34.235  1.00  0.00    +0.000 H 
ATOM    108  H3  UNL A   1      51.425  21.435  32.536  1.00  0.00    +0.000 H 
ENDBRANCH    2    1
BRANCH   87   88
ATOM     97  C68 UNL A   1      48.201  25.347  36.745  1.00  0.00    +0.000 C 
ATOM    145  H40 UNL A   1      45.996  23.777  34.770  1.00  0.00    +0.000 H 
ATOM    146  H41 UNL A   1      44.438  24.736  36.368  1.00  0.00    +0.000 H 
ATOM    150  H45 UNL A   1      47.663  26.457  38.462  1.00  0.00    +0.000 H 
ATOM    151  H46 UNL A   1      49.215  25.502  36.859  1.00  0.00    +0.000 H 
ATOM     88  C62 UNL A   1      47.731  24.590  35.666  1.00  0.00    +0.000 C 
ATOM     89  C63 UNL A   1      46.351  24.359  35.546  1.00  0.00    +0.000 C 
ATOM     90  C64 UNL A   1      45.451  24.905  36.466  1.00  0.00    +0.000 C 
ATOM     91  C65 UNL A   1      45.938  25.684  37.518  1.00  0.00    +0.000 C 
ATOM     96  C67 UNL A   1      47.310  25.897  37.671  1.00  0.00    +0.000 C 
BRANCH   91   92
ATOM     92  S1  UNL A   1      44.795  26.346  38.705  1.00  0.00    +0.000 S 
ATOM     94  O5  UNL A   1      43.516  26.464  38.053  1.00  0.00    +0.000 O 
ATOM     95  O6  UNL A   1      44.941  25.568  39.934  1.00  0.00    +0.000 O 
BRANCH   92   93
ATOM    149  H44 UNL A   1      45.885  27.984  40.004  1.00  0.00    +0.000 H 
ATOM    147  H42 UNL A   1      44.595  28.669  39.044  1.00  0.00    +0.000 H 
ATOM    148  H43 UNL A   1      46.117  28.253  38.293  1.00  0.00    +0.000 H 
ATOM     93  C66 UNL A   1      45.409  27.975  39.046  1.00  0.00    +0.000 C 
ENDBRANCH   92   93
ENDBRANCH   91   92
ENDBRANCH   87   88
BRANCH   98   99
ATOM     99  C69 UNL A   1      49.032  21.814  35.841  1.00  0.00    +0.000 C 
ATOM    100  C70 UNL A   1      49.921  21.643  36.912  1.00  0.00    +0.000 C 
ATOM    101  C71 UNL A   1      49.665  20.669  37.879  1.00  0.00    +0.000 C 
ATOM    102  C72 UNL A   1      48.536  19.859  37.766  1.00  0.00    +0.000 C 
ATOM    103  C73 UNL A   1      47.669  20.030  36.691  1.00  0.00    +0.000 C 
ATOM    104  F16 UNL A   1      46.597  19.235  36.577  1.00  0.00    +0.000 F 
ATOM    105  C74 UNL A   1      47.902  21.002  35.724  1.00  0.00    +0.000 C 
ATOM    152  H47 UNL A   1      50.761  22.237  36.986  1.00  0.00    +0.000 H 
ATOM    153  H48 UNL A   1      50.311  20.549  38.674  1.00  0.00    +0.000 H 
ATOM    154  H49 UNL A   1      48.344  19.137  38.477  1.00  0.00    +0.000 H 
ATOM    155  H50 UNL A   1      47.251  21.120  34.932  1.00  0.00    +0.000 H 
ENDBRANCH   98   99
ENDBRANCH    4    3
ENDBRANCH    5    4
ENDBRANCH    7    5
ENDBRANCH    8    7
BRANCH    8    9
ATOM      9  C7  UNL A   1      52.698  26.350  28.670  1.00  0.00    +0.000 C 
ATOM    114  H9  UNL A   1      53.046  27.274  29.083  1.00  0.00    +0.000 H 
ATOM    113  H8  UNL A   1      53.374  25.545  28.864  1.00  0.00    +0.000 H 
BRANCH    9   10
ATOM     10  O2  UNL A   1      52.597  26.528  27.262  1.00  0.00    +0.000 O 
ATOM    115  H10 UNL A   1      53.438  26.284  26.845  1.00  0.00    +0.000 H 
ENDBRANCH    9   10
ENDBRANCH    8    9
ENDBRANCH   11    8
ENDBRANCH   13   11
ENDBRANCH   14   13
ENDBRANCH   15   14
ENDBRANCH   16   15
ENDBRANCH   17   16
ENDBRANCH   18   17
ENDBRANCH   19   18
ENDBRANCH   20   19
ENDBRANCH   21   20
ENDBRANCH   23   21
ENDBRANCH   27   26
BRANCH   31   32
ATOM     33  C25 UNL A   1      46.206  27.262  29.987  1.00  0.00    +0.000 C 
ATOM     34  F1  UNL A   1      47.101  27.667  29.074  1.00  0.00    +0.000 F 
ATOM     35  C26 UNL A   1      46.512  26.167  30.796  1.00  0.00    +0.000 C 
ATOM     36  F2  UNL A   1      47.699  25.557  30.672  1.00  0.00    +0.000 F 
ATOM     37  C27 UNL A   1      45.594  25.705  31.729  1.00  0.00    +0.000 C 
ATOM     38  F3  UNL A   1      45.876  24.630  32.479  1.00  0.00    +0.000 F 
ATOM     39  C28 UNL A   1      44.401  26.380  31.910  1.00  0.00    +0.000 C 
ATOM     40  F4  UNL A   1      43.516  25.957  32.825  1.00  0.00    +0.000 F 
ATOM     41  C29 UNL A   1      44.125  27.513  31.154  1.00  0.00    +0.000 C 
ATOM     42  F5  UNL A   1      43.023  28.215  31.465  1.00  0.00    +0.000 F 
ATOM     32  C24 UNL A   1      44.991  27.940  30.126  1.00  0.00    +0.000 C 
ENDBRANCH   31   32
BRANCH   48   49
ATOM     49  C35 UNL A   1      41.787  31.057  32.822  1.00  0.00    +0.000 C 
ATOM     50  C36 UNL A   1      42.279  31.331  34.121  1.00  0.00    +0.000 C 
ATOM     51  F6  UNL A   1      42.820  32.516  34.437  1.00  0.00    +0.000 F 
ATOM     52  C37 UNL A   1      42.203  30.387  35.150  1.00  0.00    +0.000 C 
ATOM     53  F7  UNL A   1      42.742  30.653  36.350  1.00  0.00    +0.000 F 
ATOM     54  C38 UNL A   1      41.572  29.176  34.936  1.00  0.00    +0.000 C 
ATOM     55  F8  UNL A   1      41.486  28.274  35.924  1.00  0.00    +0.000 F 
ATOM     56  C39 UNL A   1      41.013  28.911  33.700  1.00  0.00    +0.000 C 
ATOM     57  F9  UNL A   1      40.353  27.763  33.494  1.00  0.00    +0.000 F 
ATOM     58  C40 UNL A   1      41.134  29.828  32.658  1.00  0.00    +0.000 C 
ATOM     59  F10 UNL A   1      40.593  29.516  31.471  1.00  0.00    +0.000 F 
ENDBRANCH   48   49
BRANCH   63   64
ATOM     65  C45 UNL A   1      35.959  33.855  29.416  1.00  0.00    +0.000 C 
ATOM     66  F11 UNL A   1      36.327  33.847  28.127  1.00  0.00    +0.000 F 
ATOM     67  C46 UNL A   1      34.661  34.348  29.646  1.00  0.00    +0.000 C 
ATOM     68  F12 UNL A   1      33.880  34.709  28.614  1.00  0.00    +0.000 F 
ATOM     69  C47 UNL A   1      34.159  34.384  30.924  1.00  0.00    +0.000 C 
ATOM     70  F13 UNL A   1      32.896  34.780  31.146  1.00  0.00    +0.000 F 
ATOM     71  C48 UNL A   1      34.977  33.967  31.964  1.00  0.00    +0.000 C 
ATOM     72  F14 UNL A   1      34.483  34.000  33.212  1.00  0.00    +0.000 F 
ATOM     73  C49 UNL A   1      36.276  33.440  31.731  1.00  0.00    +0.000 C 
ATOM     74  F15 UNL A   1      36.952  32.965  32.785  1.00  0.00    +0.000 F 
ATOM     64  C44 UNL A   1      36.816  33.314  30.444  1.00  0.00    +0.000 C 
ENDBRANCH   63   64
TORSDOF 26
ENDMDL
MODEL 4
REMARK VINA RESULT:      -8.6      2.333      4.648
ROOT
ATOM    132  H27 UNL A   1      47.740  55.024  15.803  1.00  0.00    +0.000 H 
ATOM    133  H28 UNL A   1      48.884  54.214  18.071  1.00  0.00    +0.000 H 
ATOM    134  H29 UNL A   1      50.313  52.008  14.898  1.00  0.00    +0.000 H 
ATOM    135  H30 UNL A   1      48.722  48.299  21.599  1.00  0.00    +0.000 H 
ATOM    136  H31 UNL A   1      47.165  47.597  19.741  1.00  0.00    +0.000 H 
ATOM    137  H32 UNL A   1      48.258  51.541  19.016  1.00  0.00    +0.000 H 
ATOM    138  H33 UNL A   1      49.561  53.979  21.254  1.00  0.00    +0.000 H 
ATOM    139  H34 UNL A   1      50.891  54.741  19.158  1.00  0.00    +0.000 H 
ATOM    140  H35 UNL A   1      45.321  53.587  15.810  1.00  0.00    +0.000 H 
ATOM    141  H36 UNL A   1      45.474  52.571  18.182  1.00  0.00    +0.000 H 
ATOM     27  C20 UNL A   1      46.301  49.694  17.889  1.00  0.00    +0.000 C 
ATOM     28  C21 UNL A   1      46.424  50.884  16.992  1.00  0.00    +0.000 C 
ATOM     29  N4  UNL A   1      46.727  50.696  15.735  1.00  0.00    +0.000 N 
ATOM     30  C22 UNL A   1      46.567  51.906  15.105  1.00  0.00    +0.000 C 
ATOM     31  C23 UNL A   1      47.632  52.299  14.349  1.00  0.00    +0.000 C 
ATOM     43  C30 UNL A   1      48.532  53.118  15.116  1.00  0.00    +0.000 C 
ATOM     44  C31 UNL A   1      48.310  54.180  15.971  1.00  0.00    +0.000 C 
ATOM     45  C32 UNL A   1      49.046  53.840  17.123  1.00  0.00    +0.000 C 
ATOM     46  C33 UNL A   1      50.024  52.918  16.776  1.00  0.00    +0.000 C 
ATOM     47  N5  UNL A   1      49.743  52.565  15.477  1.00  0.00    +0.000 N 
ATOM     48  C34 UNL A   1      51.035  52.200  17.504  1.00  0.00    +0.000 C 
ATOM     60  C41 UNL A   1      51.261  52.597  18.779  1.00  0.00    +0.000 C 
ATOM     61  N6  UNL A   1      51.295  51.604  19.704  1.00  0.00    +0.000 N 
ATOM     62  C42 UNL A   1      50.387  51.985  20.550  1.00  0.00    +0.000 C 
ATOM     63  C43 UNL A   1      49.749  51.034  21.463  1.00  0.00    +0.000 C 
ATOM     75  C50 UNL A   1      48.836  50.312  20.685  1.00  0.00    +0.000 C 
ATOM     76  C51 UNL A   1      48.411  48.922  20.837  1.00  0.00    +0.000 C 
ATOM     77  C52 UNL A   1      47.549  48.549  19.843  1.00  0.00    +0.000 C 
ATOM     78  C53 UNL A   1      47.231  49.663  18.935  1.00  0.00    +0.000 C 
ATOM     79  N7  UNL A   1      48.130  50.671  19.459  1.00  0.00    +0.000 N 
ATOM     80  C54 UNL A   1      50.103  53.414  20.582  1.00  0.00    +0.000 C 
ATOM     81  C55 UNL A   1      50.759  53.768  19.475  1.00  0.00    +0.000 C 
ATOM     82  C56 UNL A   1      45.806  52.710  16.057  1.00  0.00    +0.000 C 
ATOM     83  C57 UNL A   1      45.808  52.180  17.288  1.00  0.00    +0.000 C 
ENDROOT
BRANCH   27   26
ATOM    130  H25 UNL A   1      44.794  45.421  16.696  1.00  0.00    +0.000 H 
ATOM    131  H26 UNL A   1      46.432  47.182  16.825  1.00  0.00    +0.000 H 
ATOM    142  H37 UNL A   1      43.429  50.070  17.223  1.00  0.00    +0.000 H 
ATOM    143  H38 UNL A   1      41.775  48.309  16.783  1.00  0.00    +0.000 H 
ATOM     84  C58 UNL A   1      43.758  49.102  17.085  1.00  0.00    +0.000 C 
ATOM     85  C59 UNL A   1      42.772  48.049  16.846  1.00  0.00    +0.000 C 
ATOM     23  C16 UNL A   1      43.129  46.696  16.699  1.00  0.00    +0.000 C 
ATOM     24  C17 UNL A   1      44.479  46.403  16.756  1.00  0.00    +0.000 C 
ATOM     25  C18 UNL A   1      45.438  47.446  16.898  1.00  0.00    +0.000 C 
ATOM     26  C19 UNL A   1      45.142  48.842  17.133  1.00  0.00    +0.000 C 
BRANCH   23   21
ATOM     21  C15 UNL A   1      42.157  45.542  16.653  1.00  0.00    +0.000 C 
ATOM     22  O4  UNL A   1      41.203  45.575  15.879  1.00  0.00    +0.000 O 
BRANCH   21   20
ATOM    129  H24 UNL A   1      42.492  43.604  17.168  1.00  0.00    +0.000 H 
ATOM     20  N3  UNL A   1      42.267  44.486  17.544  1.00  0.00    +0.000 N 
BRANCH   20   19
ATOM     19  C14 UNL A   1      42.083  44.563  18.972  1.00  0.00    +0.000 C 
ATOM    127  H22 UNL A   1      42.759  45.300  19.352  1.00  0.00    +0.000 H 
ATOM    128  H23 UNL A   1      41.051  44.803  19.121  1.00  0.00    +0.000 H 
BRANCH   19   18
ATOM     18  C13 UNL A   1      42.325  43.256  19.745  1.00  0.00    +0.000 C 
ATOM    125  H20 UNL A   1      41.413  42.699  19.725  1.00  0.00    +0.000 H 
ATOM    126  H21 UNL A   1      43.156  42.797  19.249  1.00  0.00    +0.000 H 
BRANCH   18   17
ATOM     17  C12 UNL A   1      42.764  43.368  21.215  1.00  0.00    +0.000 C 
ATOM    123  H18 UNL A   1      43.527  42.635  21.380  1.00  0.00    +0.000 H 
ATOM    124  H19 UNL A   1      43.083  44.382  21.335  1.00  0.00    +0.000 H 
BRANCH   17   16
ATOM    121  H16 UNL A   1      41.132  44.072  22.370  1.00  0.00    +0.000 H 
ATOM    122  H17 UNL A   1      41.099  42.328  21.936  1.00  0.00    +0.000 H 
ATOM     16  C11 UNL A   1      41.681  43.158  22.279  1.00  0.00    +0.000 C 
BRANCH   16   15
ATOM    119  H14 UNL A   1      43.243  42.744  23.660  1.00  0.00    +0.000 H 
ATOM     15  C10 UNL A   1      42.173  42.765  23.677  1.00  0.00    +0.000 C 
ATOM    120  H15 UNL A   1      41.775  43.493  24.352  1.00  0.00    +0.000 H 
BRANCH   15   14
ATOM    118  H13 UNL A   1      42.042  40.651  23.505  1.00  0.00    +0.000 H 
ATOM    117  H12 UNL A   1      40.611  41.409  24.193  1.00  0.00    +0.000 H 
ATOM     14  C9  UNL A   1      41.681  41.407  24.172  1.00  0.00    +0.000 C 
BRANCH   14   13
ATOM    116  H11 UNL A   1      43.139  41.281  25.649  1.00  0.00    +0.000 H 
ATOM     13  N2  UNL A   1      42.178  41.123  25.500  1.00  0.00    +0.000 N 
BRANCH   13   11
ATOM     11  C8  UNL A   1      41.466  40.661  26.571  1.00  0.00    +0.000 C 
ATOM     12  O3  UNL A   1      40.294  41.038  26.659  1.00  0.00    +0.000 O 
BRANCH   11    8
ATOM    112  H7  UNL A   1      41.335  38.863  27.674  1.00  0.00    +0.000 H 
ATOM      8  C6  UNL A   1      42.060  39.645  27.577  1.00  0.00    +0.000 C 
BRANCH    8    7
ATOM    111  H6  UNL A   1      41.433  40.367  29.436  1.00  0.00    +0.000 H 
ATOM      7  N1  UNL A   1      42.255  40.224  28.913  1.00  0.00    +0.000 N 
BRANCH    7    5
ATOM      5  C5  UNL A   1      43.413  40.591  29.529  1.00  0.00    +0.000 C 
ATOM      6  O1  UNL A   1      43.939  39.767  30.281  1.00  0.00    +0.000 O 
BRANCH    5    4
ATOM      4  C4  UNL A   1      43.987  41.986  29.356  1.00  0.00    +0.000 C 
ATOM    109  H4  UNL A   1      43.177  42.663  29.176  1.00  0.00    +0.000 H 
ATOM    110  H5  UNL A   1      44.521  42.216  30.255  1.00  0.00    +0.000 H 
BRANCH    4    3
ATOM      2  C2  UNL A   1      46.254  41.595  28.144  1.00  0.00    +0.000 C 
ATOM      3  C3  UNL A   1      44.962  42.105  28.226  1.00  0.00    +0.000 C 
ATOM     98  N8  UNL A   1      46.769  41.917  26.888  1.00  0.00    +0.000 N 
ATOM    144  H39 UNL A   1      43.883  43.373  26.810  1.00  0.00    +0.000 H 
ATOM     86  C60 UNL A   1      44.729  42.824  27.027  1.00  0.00    +0.000 C 
ATOM     87  C61 UNL A   1      45.822  42.671  26.194  1.00  0.00    +0.000 C 
BRANCH    2    1
ATOM      1  C1  UNL A   1      47.041  40.934  29.232  1.00  0.00    +0.000 C 
ATOM    106  H1  UNL A   1      47.073  39.878  29.059  1.00  0.00    +0.000 H 
ATOM    107  H2  UNL A   1      46.576  41.126  30.177  1.00  0.00    +0.000 H 
ATOM    108  H3  UNL A   1      48.036  41.325  29.240  1.00  0.00    +0.000 H 
ENDBRANCH    2    1
BRANCH   87   88
ATOM     97  C68 UNL A   1      45.821  42.149  23.765  1.00  0.00    +0.000 C 
ATOM    145  H40 UNL A   1      46.283  45.137  25.211  1.00  0.00    +0.000 H 
ATOM    146  H41 UNL A   1      46.458  45.824  22.888  1.00  0.00    +0.000 H 
ATOM    150  H45 UNL A   1      45.845  41.837  21.674  1.00  0.00    +0.000 H 
ATOM    151  H46 UNL A   1      45.665  41.156  23.997  1.00  0.00    +0.000 H 
ATOM     88  C62 UNL A   1      45.926  43.095  24.792  1.00  0.00    +0.000 C 
ATOM     89  C63 UNL A   1      46.175  44.437  24.460  1.00  0.00    +0.000 C 
ATOM     90  C64 UNL A   1      46.281  44.836  23.124  1.00  0.00    +0.000 C 
ATOM     91  C65 UNL A   1      46.143  43.882  22.113  1.00  0.00    +0.000 C 
ATOM     96  C67 UNL A   1      45.927  42.538  22.427  1.00  0.00    +0.000 C 
BRANCH   91   92
ATOM     92  S1  UNL A   1      46.315  44.387  20.419  1.00  0.00    +0.000 S 
ATOM     94  O5  UNL A   1      46.181  43.208  19.602  1.00  0.00    +0.000 O 
ATOM     95  O6  UNL A   1      45.444  45.542  20.216  1.00  0.00    +0.000 O 
BRANCH   92   93
ATOM    149  H44 UNL A   1      48.285  45.390  21.239  1.00  0.00    +0.000 H 
ATOM    147  H42 UNL A   1      48.050  45.716  19.539  1.00  0.00    +0.000 H 
ATOM    148  H43 UNL A   1      48.632  44.153  20.055  1.00  0.00    +0.000 H 
ATOM     93  C66 UNL A   1      47.986  44.969  20.302  1.00  0.00    +0.000 C 
ENDBRANCH   92   93
ENDBRANCH   91   92
ENDBRANCH   87   88
BRANCH   98   99
ATOM     99  C69 UNL A   1      48.059  41.580  26.399  1.00  0.00    +0.000 C 
ATOM    100  C70 UNL A   1      49.078  42.544  26.413  1.00  0.00    +0.000 C 
ATOM    101  C71 UNL A   1      50.336  42.233  25.896  1.00  0.00    +0.000 C 
ATOM    102  C72 UNL A   1      50.570  40.971  25.352  1.00  0.00    +0.000 C 
ATOM    103  C73 UNL A   1      49.547  40.027  25.332  1.00  0.00    +0.000 C 
ATOM    104  F16 UNL A   1      49.772  38.824  24.788  1.00  0.00    +0.000 F 
ATOM    105  C74 UNL A   1      48.290  40.316  25.851  1.00  0.00    +0.000 C 
ATOM    152  H47 UNL A   1      48.897  43.480  26.807  1.00  0.00    +0.000 H 
ATOM    153  H48 UNL A   1      51.090  42.936  25.916  1.00  0.00    +0.000 H 
ATOM    154  H49 UNL A   1      51.498  40.737  24.966  1.00  0.00    +0.000 H 
ATOM    155  H50 UNL A   1      47.540  39.607  25.832  1.00  0.00    +0.000 H 
ENDBRANCH   98   99
ENDBRANCH    4    3
ENDBRANCH    5    4
ENDBRANCH    7    5
ENDBRANCH    8    7
BRANCH    8    9
ATOM      9  C7  UNL A   1      43.360  39.018  27.054  1.00  0.00    +0.000 C 
ATOM    114  H9  UNL A   1      43.651  39.568  26.184  1.00  0.00    +0.000 H 
ATOM    113  H8  UNL A   1      44.098  39.071  27.827  1.00  0.00    +0.000 H 
BRANCH    9   10
ATOM     10  O2  UNL A   1      43.210  37.658  26.664  1.00  0.00    +0.000 O 
ATOM    115  H10 UNL A   1      43.415  37.082  27.417  1.00  0.00    +0.000 H 
ENDBRANCH    9   10
ENDBRANCH    8    9
ENDBRANCH   11    8
ENDBRANCH   13   11
ENDBRANCH   14   13
ENDBRANCH   15   14
ENDBRANCH   16   15
ENDBRANCH   17   16
ENDBRANCH   18   17
ENDBRANCH   19   18
ENDBRANCH   20   19
ENDBRANCH   21   20
ENDBRANCH   23   21
ENDBRANCH   27   26
BRANCH   31   32
ATOM     33  C25 UNL A   1      47.734  51.444  12.010  1.00  0.00    +0.000 C 
ATOM     34  F1  UNL A   1      47.167  52.590  11.605  1.00  0.00    +0.000 F 
ATOM     35  C26 UNL A   1      47.983  50.443  11.069  1.00  0.00    +0.000 C 
ATOM     36  F2  UNL A   1      47.681  50.649   9.780  1.00  0.00    +0.000 F 
ATOM     37  C27 UNL A   1      48.541  49.235  11.462  1.00  0.00    +0.000 C 
ATOM     38  F3  UNL A   1      48.745  48.261  10.563  1.00  0.00    +0.000 F 
ATOM     39  C28 UNL A   1      48.923  49.050  12.777  1.00  0.00    +0.000 C 
ATOM     40  F4  UNL A   1      49.485  47.895  13.165  1.00  0.00    +0.000 F 
ATOM     41  C29 UNL A   1      48.741  50.073  13.701  1.00  0.00    +0.000 C 
ATOM     42  F5  UNL A   1      49.257  49.901  14.929  1.00  0.00    +0.000 F 
ATOM     32  C24 UNL A   1      48.079  51.269  13.353  1.00  0.00    +0.000 C 
ENDBRANCH   31   32
BRANCH   48   49
ATOM     49  C35 UNL A   1      51.767  50.959  17.035  1.00  0.00    +0.000 C 
ATOM     50  C36 UNL A   1      51.354  49.616  17.203  1.00  0.00    +0.000 C 
ATOM     51  F6  UNL A   1      50.124  49.304  17.635  1.00  0.00    +0.000 F 
ATOM     52  C37 UNL A   1      52.200  48.544  16.905  1.00  0.00    +0.000 C 
ATOM     53  F7  UNL A   1      51.803  47.285  17.144  1.00  0.00    +0.000 F 
ATOM     54  C38 UNL A   1      53.451  48.776  16.363  1.00  0.00    +0.000 C 
ATOM     55  F8  UNL A   1      54.260  47.750  16.065  1.00  0.00    +0.000 F 
ATOM     56  C39 UNL A   1      53.852  50.076  16.115  1.00  0.00    +0.000 C 
ATOM     57  F9  UNL A   1      55.040  50.313  15.541  1.00  0.00    +0.000 F 
ATOM     58  C40 UNL A   1      53.031  51.147  16.459  1.00  0.00    +0.000 C 
ATOM     59  F10 UNL A   1      53.474  52.390  16.217  1.00  0.00    +0.000 F 
ENDBRANCH   48   49
BRANCH   63   64
ATOM     65  C45 UNL A   1      51.761  50.517  23.058  1.00  0.00    +0.000 C 
ATOM     66  F11 UNL A   1      52.211  49.533  22.267  1.00  0.00    +0.000 F 
ATOM     67  C46 UNL A   1      52.683  50.948  24.030  1.00  0.00    +0.000 C 
ATOM     68  F12 UNL A   1      53.919  50.419  24.074  1.00  0.00    +0.000 F 
ATOM     69  C47 UNL A   1      52.349  51.968  24.887  1.00  0.00    +0.000 C 
ATOM     70  F13 UNL A   1      53.248  52.437  25.766  1.00  0.00    +0.000 F 
ATOM     71  C48 UNL A   1      51.080  52.519  24.791  1.00  0.00    +0.000 C 
ATOM     72  F14 UNL A   1      50.757  53.519  25.626  1.00  0.00    +0.000 F 
ATOM     73  C49 UNL A   1      50.159  52.108  23.789  1.00  0.00    +0.000 C 
ATOM     74  F15 UNL A   1      48.996  52.767  23.707  1.00  0.00    +0.000 F 
ATOM     64  C44 UNL A   1      50.467  51.119  22.844  1.00  0.00    +0.000 C 
ENDBRANCH   63   64
TORSDOF 26
ENDMDL
MODEL 5
REMARK VINA RESULT:      -8.4     59.958     65.834
ROOT
ATOM    132  H27 UNL A   1      25.119  -7.276  32.357  1.00  0.00    +0.000 H 
ATOM    133  H28 UNL A   1      26.965  -7.949  30.554  1.00  0.00    +0.000 H 
ATOM    134  H29 UNL A   1      23.768 -10.539  30.340  1.00  0.00    +0.000 H 
ATOM    135  H30 UNL A   1      30.992 -13.479  29.747  1.00  0.00    +0.000 H 
ATOM    136  H31 UNL A   1      29.836 -14.241  31.857  1.00  0.00    +0.000 H 
ATOM    137  H32 UNL A   1      28.356 -10.470  30.926  1.00  0.00    +0.000 H 
ATOM    138  H33 UNL A   1      29.758  -7.931  28.868  1.00  0.00    +0.000 H 
ATOM    139  H34 UNL A   1      27.271  -7.466  28.283  1.00  0.00    +0.000 H 
ATOM    140  H35 UNL A   1      26.076  -8.531  34.685  1.00  0.00    +0.000 H 
ATOM    141  H36 UNL A   1      28.367  -9.328  33.790  1.00  0.00    +0.000 H 
ATOM     27  C20 UNL A   1      28.145 -12.271  33.211  1.00  0.00    +0.000 C 
ATOM     28  C21 UNL A   1      27.129 -11.182  33.351  1.00  0.00    +0.000 C 
ATOM     29  N4  UNL A   1      25.871 -11.509  33.489  1.00  0.00    +0.000 N 
ATOM     30  C22 UNL A   1      25.196 -10.355  33.806  1.00  0.00    +0.000 C 
ATOM     31  C23 UNL A   1      24.095 -10.111  33.038  1.00  0.00    +0.000 C 
ATOM     43  C30 UNL A   1      24.429  -9.290  31.906  1.00  0.00    +0.000 C 
ATOM     44  C31 UNL A   1      25.185  -8.139  31.794  1.00  0.00    +0.000 C 
ATOM     45  C32 UNL A   1      26.064  -8.421  30.730  1.00  0.00    +0.000 C 
ATOM     46  C33 UNL A   1      25.523  -9.438  29.956  1.00  0.00    +0.000 C 
ATOM     47  N5  UNL A   1      24.435  -9.890  30.665  1.00  0.00    +0.000 N 
ATOM     48  C34 UNL A   1      25.956 -10.154  28.787  1.00  0.00    +0.000 C 
ATOM     60  C41 UNL A   1      27.035  -9.656  28.136  1.00  0.00    +0.000 C 
ATOM     61  N6  UNL A   1      28.003 -10.558  27.832  1.00  0.00    +0.000 N 
ATOM     62  C42 UNL A   1      29.051 -10.036  28.394  1.00  0.00    +0.000 C 
ATOM     63  C43 UNL A   1      30.223 -10.849  28.726  1.00  0.00    +0.000 C 
ATOM     75  C50 UNL A   1      29.871 -11.575  29.871  1.00  0.00    +0.000 C 
ATOM     76  C51 UNL A   1      30.309 -12.911  30.271  1.00  0.00    +0.000 C 
ATOM     77  C52 UNL A   1      29.699 -13.313  31.427  1.00  0.00    +0.000 C 
ATOM     78  C53 UNL A   1      28.826 -12.269  31.988  1.00  0.00    +0.000 C 
ATOM     79  N7  UNL A   1      28.911 -11.283  30.931  1.00  0.00    +0.000 N 
ATOM     80  C54 UNL A   1      29.014  -8.593  28.600  1.00  0.00    +0.000 C 
ATOM     81  C55 UNL A   1      27.721  -8.393  28.336  1.00  0.00    +0.000 C 
ATOM     82  C56 UNL A   1      26.248  -9.413  34.178  1.00  0.00    +0.000 C 
ATOM     83  C57 UNL A   1      27.462  -9.824  33.786  1.00  0.00    +0.000 C 
ENDROOT
BRANCH   27   26
ATOM    130  H25 UNL A   1      30.103 -15.048  36.438  1.00  0.00    +0.000 H 
ATOM    131  H26 UNL A   1      29.539 -14.408  34.184  1.00  0.00    +0.000 H 
ATOM    142  H37 UNL A   1      26.312 -12.117  35.546  1.00  0.00    +0.000 H 
ATOM    143  H38 UNL A   1      26.710 -13.021  37.794  1.00  0.00    +0.000 H 
ATOM     84  C58 UNL A   1      27.106 -12.760  35.690  1.00  0.00    +0.000 C 
ATOM     85  C59 UNL A   1      27.357 -13.280  37.033  1.00  0.00    +0.000 C 
ATOM     23  C16 UNL A   1      28.447 -14.120  37.329  1.00  0.00    +0.000 C 
ATOM     24  C17 UNL A   1      29.264 -14.469  36.270  1.00  0.00    +0.000 C 
ATOM     25  C18 UNL A   1      28.959 -14.031  34.950  1.00  0.00    +0.000 C 
ATOM     26  C19 UNL A   1      27.908 -13.107  34.585  1.00  0.00    +0.000 C 
BRANCH   23   21
ATOM     21  C15 UNL A   1      28.878 -14.526  38.717  1.00  0.00    +0.000 C 
ATOM     22  O4  UNL A   1      29.693 -13.840  39.331  1.00  0.00    +0.000 O 
BRANCH   21   20
ATOM    129  H24 UNL A   1      29.134 -16.336  39.605  1.00  0.00    +0.000 H 
ATOM     20  N3  UNL A   1      28.443 -15.718  39.274  1.00  0.00    +0.000 N 
BRANCH   20   19
ATOM     19  C14 UNL A   1      27.070 -16.134  39.413  1.00  0.00    +0.000 C 
ATOM    127  H22 UNL A   1      26.827 -16.129  40.455  1.00  0.00    +0.000 H 
ATOM    128  H23 UNL A   1      26.495 -15.445  38.830  1.00  0.00    +0.000 H 
BRANCH   19   18
ATOM     18  C13 UNL A   1      26.739 -17.530  38.859  1.00  0.00    +0.000 C 
ATOM    125  H20 UNL A   1      26.999 -17.533  37.822  1.00  0.00    +0.000 H 
ATOM    126  H21 UNL A   1      27.295 -18.205  39.476  1.00  0.00    +0.000 H 
BRANCH   18   17
ATOM     17  C12 UNL A   1      25.283 -18.014  38.969  1.00  0.00    +0.000 C 
ATOM    123  H18 UNL A   1      25.282 -19.072  38.813  1.00  0.00    +0.000 H 
ATOM    124  H19 UNL A   1      24.957 -17.703  39.939  1.00  0.00    +0.000 H 
BRANCH   17   16
ATOM    121  H16 UNL A   1      24.711 -16.512  37.585  1.00  0.00    +0.000 H 
ATOM    122  H17 UNL A   1      24.078 -18.164  37.266  1.00  0.00    +0.000 H 
ATOM     16  C11 UNL A   1      24.274 -17.401  37.991  1.00  0.00    +0.000 C 
BRANCH   16   15
ATOM    119  H14 UNL A   1      22.850 -15.961  38.636  1.00  0.00    +0.000 H 
ATOM     15  C10 UNL A   1      22.907 -17.027  38.575  1.00  0.00    +0.000 C 
ATOM    120  H15 UNL A   1      22.174 -17.454  37.923  1.00  0.00    +0.000 H 
BRANCH   15   14
ATOM    118  H13 UNL A   1      23.511 -18.081  40.318  1.00  0.00    +0.000 H 
ATOM    117  H12 UNL A   1      21.815 -18.291  39.901  1.00  0.00    +0.000 H 
ATOM     14  C9  UNL A   1      22.626 -17.595  39.965  1.00  0.00    +0.000 C 
BRANCH   14   13
ATOM    116  H11 UNL A   1      22.669 -16.612  41.797  1.00  0.00    +0.000 H 
ATOM     13  N2  UNL A   1      22.275 -16.547  40.897  1.00  0.00    +0.000 N 
BRANCH   13   11
ATOM     11  C8  UNL A   1      21.457 -15.475  40.670  1.00  0.00    +0.000 C 
ATOM     12  O3  UNL A   1      20.246 -15.707  40.610  1.00  0.00    +0.000 O 
BRANCH   11    8
ATOM    112  H7  UNL A   1      21.209 -13.391  40.914  1.00  0.00    +0.000 H 
ATOM      8  C6  UNL A   1      22.001 -14.029  40.582  1.00  0.00    +0.000 C 
BRANCH    8    7
ATOM    111  H6  UNL A   1      23.263 -13.787  38.933  1.00  0.00    +0.000 H 
ATOM      7  N1  UNL A   1      22.329 -13.633  39.206  1.00  0.00    +0.000 N 
BRANCH    7    5
ATOM      5  C5  UNL A   1      21.522 -13.084  38.255  1.00  0.00    +0.000 C 
ATOM      6  O1  UNL A   1      20.329 -12.948  38.535  1.00  0.00    +0.000 O 
BRANCH    5    4
ATOM      4  C4  UNL A   1      22.059 -12.731  36.879  1.00  0.00    +0.000 C 
ATOM    109  H4  UNL A   1      21.271 -12.276  36.316  1.00  0.00    +0.000 H 
ATOM    110  H5  UNL A   1      22.889 -12.072  37.029  1.00  0.00    +0.000 H 
BRANCH    4    3
ATOM      2  C2  UNL A   1      21.857 -14.997  35.620  1.00  0.00    +0.000 C 
ATOM      3  C3  UNL A   1      22.572 -13.908  36.108  1.00  0.00    +0.000 C 
ATOM     98  N8  UNL A   1      22.743 -15.822  34.926  1.00  0.00    +0.000 N 
ATOM    144  H39 UNL A   1      24.724 -13.528  36.053  1.00  0.00    +0.000 H 
ATOM     86  C60 UNL A   1      23.932 -14.128  35.774  1.00  0.00    +0.000 C 
ATOM     87  C61 UNL A   1      24.026 -15.280  35.016  1.00  0.00    +0.000 C 
BRANCH    2    1
ATOM      1  C1  UNL A   1      20.424 -15.336  35.884  1.00  0.00    +0.000 C 
ATOM    106  H1  UNL A   1      20.127 -16.148  35.253  1.00  0.00    +0.000 H 
ATOM    107  H2  UNL A   1      19.812 -14.483  35.679  1.00  0.00    +0.000 H 
ATOM    108  H3  UNL A   1      20.308 -15.619  36.909  1.00  0.00    +0.000 H 
ENDBRANCH    2    1
BRANCH   87   88
ATOM     97  C68 UNL A   1      26.109 -16.634  34.966  1.00  0.00    +0.000 C 
ATOM    145  H40 UNL A   1      24.864 -14.714  32.518  1.00  0.00    +0.000 H 
ATOM    146  H41 UNL A   1      26.838 -15.539  31.368  1.00  0.00    +0.000 H 
ATOM    150  H45 UNL A   1      27.902 -17.742  34.797  1.00  0.00    +0.000 H 
ATOM    151  H46 UNL A   1      25.924 -16.920  35.941  1.00  0.00    +0.000 H 
ATOM     88  C62 UNL A   1      25.216 -15.777  34.313  1.00  0.00    +0.000 C 
ATOM     89  C63 UNL A   1      25.501 -15.369  32.999  1.00  0.00    +0.000 C 
ATOM     90  C64 UNL A   1      26.638 -15.838  32.335  1.00  0.00    +0.000 C 
ATOM     91  C65 UNL A   1      27.500 -16.717  32.994  1.00  0.00    +0.000 C 
ATOM     96  C67 UNL A   1      27.249 -17.107  34.311  1.00  0.00    +0.000 C 
BRANCH   91   92
ATOM     92  S1  UNL A   1      28.963 -17.281  32.160  1.00  0.00    +0.000 S 
ATOM     94  O5  UNL A   1      30.084 -16.585  32.736  1.00  0.00    +0.000 O 
ATOM     95  O6  UNL A   1      28.918 -18.741  32.137  1.00  0.00    +0.000 O 
BRANCH   92   93
ATOM    149  H44 UNL A   1      28.113 -15.875  30.470  1.00  0.00    +0.000 H 
ATOM    147  H42 UNL A   1      28.320 -17.515  29.905  1.00  0.00    +0.000 H 
ATOM    148  H43 UNL A   1      29.708 -16.469  30.076  1.00  0.00    +0.000 H 
ATOM     93  C66 UNL A   1      28.755 -16.730  30.486  1.00  0.00    +0.000 C 
ENDBRANCH   92   93
ENDBRANCH   91   92
ENDBRANCH   87   88
BRANCH   98   99
ATOM     99  C69 UNL A   1      22.418 -17.040  34.271  1.00  0.00    +0.000 C 
ATOM    100  C70 UNL A   1      22.025 -17.018  32.925  1.00  0.00    +0.000 C 
ATOM    101  C71 UNL A   1      21.664 -18.205  32.287  1.00  0.00    +0.000 C 
ATOM    102  C72 UNL A   1      21.680 -19.406  32.995  1.00  0.00    +0.000 C 
ATOM    103  C73 UNL A   1      22.059 -19.412  34.335  1.00  0.00    +0.000 C 
ATOM    104  F16 UNL A   1      22.051 -20.566  35.015  1.00  0.00    +0.000 F 
ATOM    105  C74 UNL A   1      22.431 -18.241  34.984  1.00  0.00    +0.000 C 
ATOM    152  H47 UNL A   1      22.004 -16.125  32.408  1.00  0.00    +0.000 H 
ATOM    153  H48 UNL A   1      21.386 -18.194  31.294  1.00  0.00    +0.000 H 
ATOM    154  H49 UNL A   1      21.412 -20.286  32.528  1.00  0.00    +0.000 H 
ATOM    155  H50 UNL A   1      22.712 -18.259  35.978  1.00  0.00    +0.000 H 
ENDBRANCH   98   99
ENDBRANCH    4    3
ENDBRANCH    5    4
ENDBRANCH    7    5
ENDBRANCH    8    7
BRANCH    8    9
ATOM      9  C7  UNL A   1      23.200 -13.813  41.517  1.00  0.00    +0.000 C 
ATOM    114  H9  UNL A   1      23.186 -12.788  41.822  1.00  0.00    +0.000 H 
ATOM    113  H8  UNL A   1      23.107 -14.480  42.348  1.00  0.00    +0.000 H 
BRANCH    9   10
ATOM     10  O2  UNL A   1      24.453 -14.049  40.885  1.00  0.00    +0.000 O 
ATOM    115  H10 UNL A   1      24.423 -13.713  39.975  1.00  0.00    +0.000 H 
ENDBRANCH    9   10
ENDBRANCH    8    9
ENDBRANCH   11    8
ENDBRANCH   13   11
ENDBRANCH   14   13
ENDBRANCH   15   14
ENDBRANCH   16   15
ENDBRANCH   17   16
ENDBRANCH   18   17
ENDBRANCH   19   18
ENDBRANCH   20   19
ENDBRANCH   21   20
ENDBRANCH   23   21
ENDBRANCH   27   26
BRANCH   31   32
ATOM     33  C25 UNL A   1      23.441 -12.359  32.181  1.00  0.00    +0.000 C 
ATOM     34  F1  UNL A   1      24.651 -12.452  31.609  1.00  0.00    +0.000 F 
ATOM     35  C26 UNL A   1      22.512 -13.379  31.970  1.00  0.00    +0.000 C 
ATOM     36  F2  UNL A   1      22.848 -14.443  31.227  1.00  0.00    +0.000 F 
ATOM     37  C27 UNL A   1      21.243 -13.298  32.524  1.00  0.00    +0.000 C 
ATOM     38  F3  UNL A   1      20.340 -14.261  32.289  1.00  0.00    +0.000 F 
ATOM     39  C28 UNL A   1      20.922 -12.238  33.351  1.00  0.00    +0.000 C 
ATOM     40  F4  UNL A   1      19.705 -12.160  33.911  1.00  0.00    +0.000 F 
ATOM     41  C29 UNL A   1      21.870 -11.258  33.620  1.00  0.00    +0.000 C 
ATOM     42  F5  UNL A   1      21.561 -10.330  34.540  1.00  0.00    +0.000 F 
ATOM     32  C24 UNL A   1      23.130 -11.260  32.985  1.00  0.00    +0.000 C 
ENDBRANCH   31   32
BRANCH   48   49
ATOM     49  C35 UNL A   1      25.417 -11.482  28.297  1.00  0.00    +0.000 C 
ATOM     50  C36 UNL A   1      25.864 -12.771  28.674  1.00  0.00    +0.000 C 
ATOM     51  F6  UNL A   1      26.712 -12.954  29.696  1.00  0.00    +0.000 F 
ATOM     52  C37 UNL A   1      25.428 -13.923  28.013  1.00  0.00    +0.000 C 
ATOM     53  F7  UNL A   1      25.927 -15.123  28.348  1.00  0.00    +0.000 F 
ATOM     54  C38 UNL A   1      24.479 -13.832  27.011  1.00  0.00    +0.000 C 
ATOM     55  F8  UNL A   1      24.049 -14.936  26.384  1.00  0.00    +0.000 F 
ATOM     56  C39 UNL A   1      23.965 -12.593  26.674  1.00  0.00    +0.000 C 
ATOM     57  F9  UNL A   1      23.007 -12.496  25.741  1.00  0.00    +0.000 F 
ATOM     58  C40 UNL A   1      24.438 -11.439  27.295  1.00  0.00    +0.000 C 
ATOM     59  F10 UNL A   1      23.922 -10.260  26.918  1.00  0.00    +0.000 F 
ENDBRANCH   48   49
BRANCH   63   64
ATOM     65  C45 UNL A   1      32.406  -9.800  27.729  1.00  0.00    +0.000 C 
ATOM     66  F11 UNL A   1      32.396  -8.793  28.614  1.00  0.00    +0.000 F 
ATOM     67  C46 UNL A   1      33.623  -9.954  27.039  1.00  0.00    +0.000 C 
ATOM     68  F12 UNL A   1      34.672  -9.164  27.329  1.00  0.00    +0.000 F 
ATOM     69  C47 UNL A   1      33.767 -10.966  26.122  1.00  0.00    +0.000 C 
ATOM     70  F13 UNL A   1      34.947 -11.169  25.514  1.00  0.00    +0.000 F 
ATOM     71  C48 UNL A   1      32.678 -11.788  25.873  1.00  0.00    +0.000 C 
ATOM     72  F14 UNL A   1      32.822 -12.780  24.980  1.00  0.00    +0.000 F 
ATOM     73  C49 UNL A   1      31.459 -11.655  26.592  1.00  0.00    +0.000 C 
ATOM     74  F15 UNL A   1      30.499 -12.559  26.359  1.00  0.00    +0.000 F 
ATOM     64  C44 UNL A   1      31.275 -10.685  27.587  1.00  0.00    +0.000 C 
ENDBRANCH   63   64
TORSDOF 26
ENDMDL
MODEL 6
REMARK VINA RESULT:      -8.2     32.966     38.568
ROOT
ATOM    132  H27 UNL A   1      10.353  54.015   9.670  1.00  0.00    +0.000 H 
ATOM    133  H28 UNL A   1      10.593  52.233  11.637  1.00  0.00    +0.000 H 
ATOM    134  H29 UNL A   1      14.176  52.625   9.640  1.00  0.00    +0.000 H 
ATOM    135  H30 UNL A   1      11.857  45.461  11.757  1.00  0.00    +0.000 H 
ATOM    136  H31 UNL A   1      11.884  45.740   9.249  1.00  0.00    +0.000 H 
ATOM    137  H32 UNL A   1      11.045  49.462  10.898  1.00  0.00    +0.000 H 
ATOM    138  H33 UNL A   1       9.790  50.279  14.124  1.00  0.00    +0.000 H 
ATOM    139  H34 UNL A   1      11.332  52.351  13.857  1.00  0.00    +0.000 H 
ATOM    140  H35 UNL A   1       9.277  52.460   7.587  1.00  0.00    +0.000 H 
ATOM    141  H36 UNL A   1       8.838  50.282   8.908  1.00  0.00    +0.000 H 
ATOM     27  C20 UNL A   1      11.022  48.336   8.207  1.00  0.00    +0.000 C 
ATOM     28  C21 UNL A   1      10.918  49.826   8.115  1.00  0.00    +0.000 C 
ATOM     29  N4  UNL A   1      11.799  50.475   7.401  1.00  0.00    +0.000 N 
ATOM     30  C22 UNL A   1      11.356  51.772   7.313  1.00  0.00    +0.000 C 
ATOM     31  C23 UNL A   1      12.288  52.715   7.640  1.00  0.00    +0.000 C 
ATOM     43  C30 UNL A   1      12.202  53.061   9.033  1.00  0.00    +0.000 C 
ATOM     44  C31 UNL A   1      11.124  53.351   9.846  1.00  0.00    +0.000 C 
ATOM     45  C32 UNL A   1      11.325  52.528  10.972  1.00  0.00    +0.000 C 
ATOM     46  C33 UNL A   1      12.667  52.179  11.040  1.00  0.00    +0.000 C 
ATOM     47  N5  UNL A   1      13.215  52.622   9.860  1.00  0.00    +0.000 N 
ATOM     48  C34 UNL A   1      13.450  51.358  11.923  1.00  0.00    +0.000 C 
ATOM     60  C41 UNL A   1      12.849  50.954  13.068  1.00  0.00    +0.000 C 
ATOM     61  N6  UNL A   1      12.958  49.631  13.351  1.00  0.00    +0.000 N 
ATOM     62  C42 UNL A   1      11.716  49.271  13.467  1.00  0.00    +0.000 C 
ATOM     63  C43 UNL A   1      11.310  47.872  13.321  1.00  0.00    +0.000 C 
ATOM     75  C50 UNL A   1      11.343  47.606  11.947  1.00  0.00    +0.000 C 
ATOM     76  C51 UNL A   1      11.655  46.349  11.270  1.00  0.00    +0.000 C 
ATOM     77  C52 UNL A   1      11.647  46.495   9.911  1.00  0.00    +0.000 C 
ATOM     78  C53 UNL A   1      11.259  47.854   9.499  1.00  0.00    +0.000 C 
ATOM     79  N7  UNL A   1      11.187  48.493  10.797  1.00  0.00    +0.000 N 
ATOM     80  C54 UNL A   1      10.775  50.327  13.821  1.00  0.00    +0.000 C 
ATOM     81  C55 UNL A   1      11.579  51.375  13.633  1.00  0.00    +0.000 C 
ATOM     82  C56 UNL A   1       9.964  51.709   7.750  1.00  0.00    +0.000 C 
ATOM     83  C57 UNL A   1       9.681  50.563   8.383  1.00  0.00    +0.000 C 
ENDROOT
BRANCH   27   26
ATOM    130  H25 UNL A   1       9.262  49.425   4.003  1.00  0.00    +0.000 H 
ATOM    131  H26 UNL A   1       9.110  48.979   6.365  1.00  0.00    +0.000 H 
ATOM    142  H37 UNL A   1      12.686  46.806   6.277  1.00  0.00    +0.000 H 
ATOM    143  H38 UNL A   1      12.665  47.007   3.830  1.00  0.00    +0.000 H 
ATOM     84  C58 UNL A   1      11.927  47.342   5.829  1.00  0.00    +0.000 C 
ATOM     85  C59 UNL A   1      11.927  47.482   4.373  1.00  0.00    +0.000 C 
ATOM     23  C16 UNL A   1      10.960  48.238   3.685  1.00  0.00    +0.000 C 
ATOM     24  C17 UNL A   1       9.972  48.824   4.452  1.00  0.00    +0.000 C 
ATOM     25  C18 UNL A   1       9.928  48.608   5.859  1.00  0.00    +0.000 C 
ATOM     26  C19 UNL A   1      10.927  47.913   6.640  1.00  0.00    +0.000 C 
BRANCH   23   21
ATOM     21  C15 UNL A   1      11.017  48.587   2.217  1.00  0.00    +0.000 C 
ATOM     22  O4  UNL A   1       9.998  48.525   1.533  1.00  0.00    +0.000 O 
BRANCH   21   20
ATOM    129  H24 UNL A   1      12.550  48.247   0.927  1.00  0.00    +0.000 H 
ATOM     20  N3  UNL A   1      12.225  48.883   1.605  1.00  0.00    +0.000 N 
BRANCH   20   19
ATOM     19  C14 UNL A   1      13.047  50.036   1.871  1.00  0.00    +0.000 C 
ATOM    127  H22 UNL A   1      13.179  50.566   0.950  1.00  0.00    +0.000 H 
ATOM    128  H23 UNL A   1      12.531  50.596   2.623  1.00  0.00    +0.000 H 
BRANCH   19   18
ATOM     18  C13 UNL A   1      14.440  49.741   2.450  1.00  0.00    +0.000 C 
ATOM    125  H20 UNL A   1      14.670  50.522   3.143  1.00  0.00    +0.000 H 
ATOM    126  H21 UNL A   1      14.356  48.761   2.873  1.00  0.00    +0.000 H 
BRANCH   18   17
ATOM     17  C12 UNL A   1      15.616  49.639   1.464  1.00  0.00    +0.000 C 
ATOM    123  H18 UNL A   1      15.708  48.612   1.178  1.00  0.00    +0.000 H 
ATOM    124  H19 UNL A   1      15.369  50.307   0.666  1.00  0.00    +0.000 H 
BRANCH   17   16
ATOM    121  H16 UNL A   1      16.994  51.175   1.950  1.00  0.00    +0.000 H 
ATOM    122  H17 UNL A   1      17.089  49.683   2.947  1.00  0.00    +0.000 H 
ATOM     16  C11 UNL A   1      16.986  50.105   1.969  1.00  0.00    +0.000 C 
BRANCH   16   15
ATOM    119  H14 UNL A   1      18.308  50.230   0.310  1.00  0.00    +0.000 H 
ATOM     15  C10 UNL A   1      18.202  49.612   1.177  1.00  0.00    +0.000 C 
ATOM    120  H15 UNL A   1      19.038  49.671   1.843  1.00  0.00    +0.000 H 
BRANCH   15   14
ATOM    118  H13 UNL A   1      17.153  47.778   0.962  1.00  0.00    +0.000 H 
ATOM    117  H12 UNL A   1      18.885  47.593   1.209  1.00  0.00    +0.000 H 
ATOM     14  C9  UNL A   1      18.122  48.158   0.716  1.00  0.00    +0.000 C 
BRANCH   14   13
ATOM    116  H11 UNL A   1      18.521  48.889  -1.189  1.00  0.00    +0.000 H 
ATOM     13  N2  UNL A   1      18.307  48.053  -0.714  1.00  0.00    +0.000 N 
BRANCH   13   11
ATOM     11  C8  UNL A   1      18.218  46.925  -1.481  1.00  0.00    +0.000 C 
ATOM     12  O3  UNL A   1      18.919  45.968  -1.139  1.00  0.00    +0.000 O 
BRANCH   11    8
ATOM    112  H7  UNL A   1      17.137  45.766  -2.878  1.00  0.00    +0.000 H 
ATOM      8  C6  UNL A   1      17.227  46.810  -2.664  1.00  0.00    +0.000 C 
BRANCH    8    7
ATOM    111  H6  UNL A   1      18.138  46.860  -4.545  1.00  0.00    +0.000 H 
ATOM      7  N1  UNL A   1      17.727  47.461  -3.882  1.00  0.00    +0.000 N 
BRANCH    7    5
ATOM      5  C5  UNL A   1      17.702  48.781  -4.224  1.00  0.00    +0.000 C 
ATOM      6  O1  UNL A   1      16.818  49.146  -5.003  1.00  0.00    +0.000 O 
BRANCH    5    4
ATOM      4  C4  UNL A   1      18.767  49.741  -3.725  1.00  0.00    +0.000 C 
ATOM    109  H4  UNL A   1      19.379  49.225  -3.014  1.00  0.00    +0.000 H 
ATOM    110  H5  UNL A   1      19.319  50.065  -4.583  1.00  0.00    +0.000 H 
BRANCH    4    3
ATOM      2  C2  UNL A   1      18.504  52.301  -3.356  1.00  0.00    +0.000 C 
ATOM      3  C3  UNL A   1      18.217  50.970  -3.070  1.00  0.00    +0.000 C 
ATOM     98  N8  UNL A   1      17.723  53.102  -2.521  1.00  0.00    +0.000 N 
ATOM    144  H39 UNL A   1      16.955  50.134  -1.493  1.00  0.00    +0.000 H 
ATOM     86  C60 UNL A   1      17.310  50.972  -1.980  1.00  0.00    +0.000 C 
ATOM     87  C61 UNL A   1      16.980  52.278  -1.675  1.00  0.00    +0.000 C 
BRANCH    2    1
ATOM      1  C1  UNL A   1      19.553  52.826  -4.285  1.00  0.00    +0.000 C 
ATOM    106  H1  UNL A   1      20.447  52.249  -4.177  1.00  0.00    +0.000 H 
ATOM    107  H2  UNL A   1      19.758  53.850  -4.049  1.00  0.00    +0.000 H 
ATOM    108  H3  UNL A   1      19.203  52.757  -5.293  1.00  0.00    +0.000 H 
ENDBRANCH    2    1
BRANCH   87   88
ATOM     97  C68 UNL A   1      14.589  52.613  -1.084  1.00  0.00    +0.000 C 
ATOM    145  H40 UNL A   1      17.278  53.432   0.742  1.00  0.00    +0.000 H 
ATOM    146  H41 UNL A   1      15.551  54.176   2.279  1.00  0.00    +0.000 H 
ATOM    150  H45 UNL A   1      12.597  52.954  -0.465  1.00  0.00    +0.000 H 
ATOM    151  H46 UNL A   1      14.327  52.206  -1.995  1.00  0.00    +0.000 H 
ATOM     88  C62 UNL A   1      15.941  52.728  -0.738  1.00  0.00    +0.000 C 
ATOM     89  C63 UNL A   1      16.283  53.316   0.490  1.00  0.00    +0.000 C 
ATOM     90  C64 UNL A   1      15.292  53.750   1.376  1.00  0.00    +0.000 C 
ATOM     91  C65 UNL A   1      13.949  53.598   1.026  1.00  0.00    +0.000 C 
ATOM     96  C67 UNL A   1      13.592  53.044  -0.206  1.00  0.00    +0.000 C 
BRANCH   91   92
ATOM     92  S1  UNL A   1      12.694  54.184   2.138  1.00  0.00    +0.000 S 
ATOM     94  O5  UNL A   1      12.337  53.088   3.002  1.00  0.00    +0.000 O 
ATOM     95  O6  UNL A   1      13.158  55.454   2.691  1.00  0.00    +0.000 O 
BRANCH   92   93
ATOM    149  H44 UNL A   1      11.657  55.038   0.201  1.00  0.00    +0.000 H 
ATOM    147  H42 UNL A   1      10.630  55.190   1.607  1.00  0.00    +0.000 H 
ATOM    148  H43 UNL A   1      10.815  53.639   0.824  1.00  0.00    +0.000 H 
ATOM     93  C66 UNL A   1      11.312  54.549   1.088  1.00  0.00    +0.000 C 
ENDBRANCH   92   93
ENDBRANCH   91   92
ENDBRANCH   87   88
BRANCH   98   99
ATOM     99  C69 UNL A   1      17.711  54.522  -2.492  1.00  0.00    +0.000 C 
ATOM    100  C70 UNL A   1      16.848  55.224  -3.346  1.00  0.00    +0.000 C 
ATOM    101  C71 UNL A   1      16.860  56.619  -3.353  1.00  0.00    +0.000 C 
ATOM    102  C72 UNL A   1      17.742  57.310  -2.523  1.00  0.00    +0.000 C 
ATOM    103  C73 UNL A   1      18.603  56.601  -1.690  1.00  0.00    +0.000 C 
ATOM    104  F16 UNL A   1      19.463  57.270  -0.911  1.00  0.00    +0.000 F 
ATOM    105  C74 UNL A   1      18.599  55.211  -1.662  1.00  0.00    +0.000 C 
ATOM    152  H47 UNL A   1      16.204  54.709  -3.967  1.00  0.00    +0.000 H 
ATOM    153  H48 UNL A   1      16.218  57.139  -3.971  1.00  0.00    +0.000 H 
ATOM    154  H49 UNL A   1      17.756  58.341  -2.526  1.00  0.00    +0.000 H 
ATOM    155  H50 UNL A   1      19.241  54.697  -1.039  1.00  0.00    +0.000 H 
ENDBRANCH   98   99
ENDBRANCH    4    3
ENDBRANCH    5    4
ENDBRANCH    7    5
ENDBRANCH    8    7
BRANCH    8    9
ATOM      9  C7  UNL A   1      15.833  47.336  -2.292  1.00  0.00    +0.000 C 
ATOM    114  H9  UNL A   1      15.957  48.024  -1.483  1.00  0.00    +0.000 H 
ATOM    113  H8  UNL A   1      15.405  47.805  -3.154  1.00  0.00    +0.000 H 
BRANCH    9   10
ATOM     10  O2  UNL A   1      14.949  46.314  -1.847  1.00  0.00    +0.000 O 
ATOM    115  H10 UNL A   1      14.151  46.719  -1.471  1.00  0.00    +0.000 H 
ENDBRANCH    9   10
ENDBRANCH    8    9
ENDBRANCH   11    8
ENDBRANCH   13   11
ENDBRANCH   14   13
ENDBRANCH   15   14
ENDBRANCH   16   15
ENDBRANCH   17   16
ENDBRANCH   18   17
ENDBRANCH   19   18
ENDBRANCH   20   19
ENDBRANCH   21   20
ENDBRANCH   23   21
ENDBRANCH   27   26
BRANCH   31   32
ATOM     33  C25 UNL A   1      13.978  53.609   6.040  1.00  0.00    +0.000 C 
ATOM     34  F1  UNL A   1      13.304  54.769   6.034  1.00  0.00    +0.000 F 
ATOM     35  C26 UNL A   1      15.083  53.463   5.200  1.00  0.00    +0.000 C 
ATOM     36  F2  UNL A   1      15.470  54.485   4.424  1.00  0.00    +0.000 F 
ATOM     37  C27 UNL A   1      15.783  52.266   5.162  1.00  0.00    +0.000 C 
ATOM     38  F3  UNL A   1      16.821  52.115   4.327  1.00  0.00    +0.000 F 
ATOM     39  C28 UNL A   1      15.430  51.238   6.017  1.00  0.00    +0.000 C 
ATOM     40  F4  UNL A   1      16.113  50.083   6.006  1.00  0.00    +0.000 F 
ATOM     41  C29 UNL A   1      14.374  51.407   6.905  1.00  0.00    +0.000 C 
ATOM     42  F5  UNL A   1      14.163  50.438   7.811  1.00  0.00    +0.000 F 
ATOM     32  C24 UNL A   1      13.579  52.572   6.889  1.00  0.00    +0.000 C 
ENDBRANCH   31   32
BRANCH   48   49
ATOM     49  C35 UNL A   1      14.823  50.787  11.635  1.00  0.00    +0.000 C 
ATOM     50  C36 UNL A   1      16.063  51.274  12.115  1.00  0.00    +0.000 C 
ATOM     51  F6  UNL A   1      16.131  52.205  13.076  1.00  0.00    +0.000 F 
ATOM     52  C37 UNL A   1      17.281  50.790  11.629  1.00  0.00    +0.000 C 
ATOM     53  F7  UNL A   1      18.436  51.323  12.054  1.00  0.00    +0.000 F 
ATOM     54  C38 UNL A   1      17.300  49.759  10.707  1.00  0.00    +0.000 C 
ATOM     55  F8  UNL A   1      18.466  49.284  10.248  1.00  0.00    +0.000 F 
ATOM     56  C39 UNL A   1      16.106  49.211  10.277  1.00  0.00    +0.000 C 
ATOM     57  F9  UNL A   1      16.112  48.177   9.424  1.00  0.00    +0.000 F 
ATOM     58  C40 UNL A   1      14.891  49.727  10.721  1.00  0.00    +0.000 C 
ATOM     59  F10 UNL A   1      13.760  49.174  10.258  1.00  0.00    +0.000 F 
ENDBRANCH   48   49
BRANCH   63   64
ATOM     65  C45 UNL A   1       9.894  46.996  15.343  1.00  0.00    +0.000 C 
ATOM     66  F11 UNL A   1       8.796  47.645  14.931  1.00  0.00    +0.000 F 
ATOM     67  C46 UNL A   1       9.655  46.018  16.326  1.00  0.00    +0.000 C 
ATOM     68  F12 UNL A   1       8.400  45.759  16.735  1.00  0.00    +0.000 F 
ATOM     69  C47 UNL A   1      10.696  45.267  16.813  1.00  0.00    +0.000 C 
ATOM     70  F13 UNL A   1      10.468  44.280  17.694  1.00  0.00    +0.000 F 
ATOM     71  C48 UNL A   1      11.974  45.531  16.342  1.00  0.00    +0.000 C 
ATOM     72  F14 UNL A   1      12.991  44.793  16.816  1.00  0.00    +0.000 F 
ATOM     73  C49 UNL A   1      12.214  46.496  15.327  1.00  0.00    +0.000 C 
ATOM     74  F15 UNL A   1      13.464  46.610  14.861  1.00  0.00    +0.000 F 
ATOM     64  C44 UNL A   1      11.183  47.245  14.743  1.00  0.00    +0.000 C 
ENDBRANCH   63   64
TORSDOF 26
ENDMDL
MODEL 7
REMARK VINA RESULT:      -8.2     59.496     64.017
ROOT
ATOM    132  H27 UNL A   1       7.336   9.227  36.512  1.00  0.00    +0.000 H 
ATOM    133  H28 UNL A   1       4.992  10.473  36.761  1.00  0.00    +0.000 H 
ATOM    134  H29 UNL A   1       5.686   8.096  40.054  1.00  0.00    +0.000 H 
ATOM    135  H30 UNL A   1      -1.530   8.272  37.040  1.00  0.00    +0.000 H 
ATOM    136  H31 UNL A   1      -0.448   6.009  36.763  1.00  0.00    +0.000 H 
ATOM    137  H32 UNL A   1       2.588   8.847  36.702  1.00  0.00    +0.000 H 
ATOM    138  H33 UNL A   1       2.414  12.336  36.034  1.00  0.00    +0.000 H 
ATOM    139  H34 UNL A   1       4.308  12.455  37.807  1.00  0.00    +0.000 H 
ATOM    140  H35 UNL A   1       6.656   6.990  34.947  1.00  0.00    +0.000 H 
ATOM    141  H36 UNL A   1       4.216   7.629  34.385  1.00  0.00    +0.000 H 
ATOM     27  C20 UNL A   1       2.415   5.989  36.148  1.00  0.00    +0.000 C 
ATOM     28  C21 UNL A   1       3.854   6.381  36.249  1.00  0.00    +0.000 C 
ATOM     29  N4  UNL A   1       4.617   5.759  37.108  1.00  0.00    +0.000 N 
ATOM     30  C22 UNL A   1       5.907   6.155  36.849  1.00  0.00    +0.000 C 
ATOM     31  C23 UNL A   1       6.600   6.587  37.942  1.00  0.00    +0.000 C 
ATOM     43  C30 UNL A   1       6.476   8.011  38.100  1.00  0.00    +0.000 C 
ATOM     44  C31 UNL A   1       6.582   9.051  37.196  1.00  0.00    +0.000 C 
ATOM     45  C32 UNL A   1       5.421   9.814  37.429  1.00  0.00    +0.000 C 
ATOM     46  C33 UNL A   1       4.946   9.533  38.703  1.00  0.00    +0.000 C 
ATOM     47  N5  UNL A   1       5.699   8.470  39.142  1.00  0.00    +0.000 N 
ATOM     48  C34 UNL A   1       3.813   9.967  39.474  1.00  0.00    +0.000 C 
ATOM     60  C41 UNL A   1       3.113  11.018  38.984  1.00  0.00    +0.000 C 
ATOM     61  N6  UNL A   1       1.766  10.855  38.939  1.00  0.00    +0.000 N 
ATOM     62  C42 UNL A   1       1.505  11.071  37.685  1.00  0.00    +0.000 C 
ATOM     63  C43 UNL A   1       0.274  10.575  37.066  1.00  0.00    +0.000 C 
ATOM     75  C50 UNL A   1       0.472   9.202  36.871  1.00  0.00    +0.000 C 
ATOM     76  C51 UNL A   1      -0.517   8.126  36.903  1.00  0.00    +0.000 C 
ATOM     77  C52 UNL A   1       0.067   6.903  36.729  1.00  0.00    +0.000 C 
ATOM     78  C53 UNL A   1       1.515   7.006  36.489  1.00  0.00    +0.000 C 
ATOM     79  N7  UNL A   1       1.697   8.429  36.689  1.00  0.00    +0.000 N 
ATOM     80  C54 UNL A   1       2.468  11.894  36.964  1.00  0.00    +0.000 C 
ATOM     81  C55 UNL A   1       3.441  11.900  37.878  1.00  0.00    +0.000 C 
ATOM     82  C56 UNL A   1       5.833   6.789  35.535  1.00  0.00    +0.000 C 
ATOM     83  C57 UNL A   1       4.573   7.077  35.180  1.00  0.00    +0.000 C 
ENDROOT
BRANCH   27   26
ATOM    130  H25 UNL A   1       2.026   1.599  37.741  1.00  0.00    +0.000 H 
ATOM    131  H26 UNL A   1       2.844   3.864  37.810  1.00  0.00    +0.000 H 
ATOM    142  H37 UNL A   1       2.197   4.318  33.700  1.00  0.00    +0.000 H 
ATOM    143  H38 UNL A   1       1.660   1.925  33.592  1.00  0.00    +0.000 H 
ATOM     84  C58 UNL A   1       2.202   3.767  34.572  1.00  0.00    +0.000 C 
ATOM     85  C59 UNL A   1       1.859   2.347  34.511  1.00  0.00    +0.000 C 
ATOM     23  C16 UNL A   1       1.791   1.535  35.658  1.00  0.00    +0.000 C 
ATOM     24  C17 UNL A   1       2.101   2.138  36.863  1.00  0.00    +0.000 C 
ATOM     25  C18 UNL A   1       2.522   3.498  36.901  1.00  0.00    +0.000 C 
ATOM     26  C19 UNL A   1       2.539   4.410  35.779  1.00  0.00    +0.000 C 
BRANCH   23   21
ATOM     21  C15 UNL A   1       1.252   0.125  35.692  1.00  0.00    +0.000 C 
ATOM     22  O4  UNL A   1       0.039  -0.068  35.667  1.00  0.00    +0.000 O 
BRANCH   21   20
ATOM    129  H24 UNL A   1       2.480  -1.355  35.033  1.00  0.00    +0.000 H 
ATOM     20  N3  UNL A   1       2.105  -0.956  35.852  1.00  0.00    +0.000 N 
BRANCH   20   19
ATOM     19  C14 UNL A   1       2.492  -1.548  37.108  1.00  0.00    +0.000 C 
ATOM    127  H22 UNL A   1       1.876  -1.126  37.875  1.00  0.00    +0.000 H 
ATOM    128  H23 UNL A   1       2.369  -2.604  36.984  1.00  0.00    +0.000 H 
BRANCH   19   18
ATOM     18  C13 UNL A   1       3.960  -1.342  37.515  1.00  0.00    +0.000 C 
ATOM    125  H20 UNL A   1       4.371  -2.306  37.727  1.00  0.00    +0.000 H 
ATOM    126  H21 UNL A   1       4.402  -0.826  36.688  1.00  0.00    +0.000 H 
BRANCH   18   17
ATOM     17  C12 UNL A   1       4.244  -0.443  38.730  1.00  0.00    +0.000 C 
ATOM    123  H18 UNL A   1       4.252   0.570  38.387  1.00  0.00    +0.000 H 
ATOM    124  H19 UNL A   1       3.473  -0.673  39.434  1.00  0.00    +0.000 H 
BRANCH   17   16
ATOM    121  H16 UNL A   1       6.223  -1.201  38.817  1.00  0.00    +0.000 H 
ATOM    122  H17 UNL A   1       5.901   0.280  39.782  1.00  0.00    +0.000 H 
ATOM     16  C11 UNL A   1       5.558  -0.688  39.481  1.00  0.00    +0.000 C 
BRANCH   16   15
ATOM    119  H14 UNL A   1       4.445  -1.838  40.880  1.00  0.00    +0.000 H 
ATOM     15  C10 UNL A   1       5.458  -1.510  40.771  1.00  0.00    +0.000 C 
ATOM    120  H15 UNL A   1       6.155  -2.315  40.670  1.00  0.00    +0.000 H 
BRANCH   15   14
ATOM    118  H13 UNL A   1       6.303   0.169  41.761  1.00  0.00    +0.000 H 
ATOM    117  H12 UNL A   1       6.538  -1.358  42.603  1.00  0.00    +0.000 H 
ATOM     14  C9  UNL A   1       5.851  -0.759  42.042  1.00  0.00    +0.000 C 
BRANCH   14   13
ATOM    116  H11 UNL A   1       4.382  -1.208  43.443  1.00  0.00    +0.000 H 
ATOM     13  N2  UNL A   1       4.693  -0.477  42.861  1.00  0.00    +0.000 N 
BRANCH   13   11
ATOM     11  C8  UNL A   1       3.982   0.690  42.919  1.00  0.00    +0.000 C 
ATOM     12  O3  UNL A   1       3.423   1.047  41.878  1.00  0.00    +0.000 O 
BRANCH   11    8
ATOM    112  H7  UNL A   1       3.673   2.504  43.956  1.00  0.00    +0.000 H 
ATOM      8  C6  UNL A   1       3.804   1.480  44.237  1.00  0.00    +0.000 C 
BRANCH    8    7
ATOM    111  H6  UNL A   1       5.283   0.508  45.351  1.00  0.00    +0.000 H 
ATOM      7  N1  UNL A   1       4.994   1.415  45.097  1.00  0.00    +0.000 N 
BRANCH    7    5
ATOM      5  C5  UNL A   1       5.754   2.433  45.590  1.00  0.00    +0.000 C 
ATOM      6  O1  UNL A   1       5.262   3.125  46.484  1.00  0.00    +0.000 O 
BRANCH    5    4
ATOM      4  C4  UNL A   1       7.119   2.748  45.004  1.00  0.00    +0.000 C 
ATOM    109  H4  UNL A   1       7.024   2.805  43.940  1.00  0.00    +0.000 H 
ATOM    110  H5  UNL A   1       7.438   3.673  45.438  1.00  0.00    +0.000 H 
BRANCH    4    3
ATOM      2  C2  UNL A   1       9.427   1.576  44.758  1.00  0.00    +0.000 C 
ATOM      3  C3  UNL A   1       8.169   1.730  45.330  1.00  0.00    +0.000 C 
ATOM     98  N8  UNL A   1      10.073   0.523  45.407  1.00  0.00    +0.000 N 
ATOM    144  H39 UNL A   1       7.170   0.494  46.831  1.00  0.00    +0.000 H 
ATOM     86  C60 UNL A   1       8.022   0.690  46.282  1.00  0.00    +0.000 C 
ATOM     87  C61 UNL A   1       9.205  -0.020  46.356  1.00  0.00    +0.000 C 
BRANCH    2    1
ATOM      1  C1  UNL A   1       9.980   2.296  43.568  1.00  0.00    +0.000 C 
ATOM    106  H1  UNL A   1       9.196   2.841  43.084  1.00  0.00    +0.000 H 
ATOM    107  H2  UNL A   1      10.396   1.586  42.883  1.00  0.00    +0.000 H 
ATOM    108  H3  UNL A   1      10.743   2.974  43.885  1.00  0.00    +0.000 H 
ENDBRANCH    2    1
BRANCH   87   88
ATOM     97  C68 UNL A   1       9.416  -2.411  46.999  1.00  0.00    +0.000 C 
ATOM    145  H40 UNL A   1      10.047   0.278  48.898  1.00  0.00    +0.000 H 
ATOM    146  H41 UNL A   1      10.609  -1.449  50.510  1.00  0.00    +0.000 H 
ATOM    150  H45 UNL A   1       9.636  -4.403  47.670  1.00  0.00    +0.000 H 
ATOM    151  H46 UNL A   1       9.081  -2.674  46.059  1.00  0.00    +0.000 H 
ATOM     88  C62 UNL A   1       9.550  -1.058  47.336  1.00  0.00    +0.000 C 
ATOM     89  C63 UNL A   1       9.973  -0.717  48.630  1.00  0.00    +0.000 C 
ATOM     90  C64 UNL A   1      10.293  -1.707  49.563  1.00  0.00    +0.000 C 
ATOM     91  C65 UNL A   1      10.183  -3.051  49.198  1.00  0.00    +0.000 C 
ATOM     96  C67 UNL A   1       9.733  -3.408  47.925  1.00  0.00    +0.000 C 
BRANCH   91   92
ATOM     92  S1  UNL A   1      10.555  -4.306  50.398  1.00  0.00    +0.000 S 
ATOM     94  O5  UNL A   1      11.716  -5.019  49.930  1.00  0.00    +0.000 O 
ATOM     95  O6  UNL A   1      10.545  -3.671  51.713  1.00  0.00    +0.000 O 
BRANCH   92   93
ATOM    149  H44 UNL A   1       8.487  -5.078  49.571  1.00  0.00    +0.000 H 
ATOM    147  H42 UNL A   1       8.656  -5.386  51.283  1.00  0.00    +0.000 H 
ATOM    148  H43 UNL A   1       9.493  -6.393  50.127  1.00  0.00    +0.000 H 
ATOM     93  C66 UNL A   1       9.159  -5.399  50.338  1.00  0.00    +0.000 C 
ENDBRANCH   92   93
ENDBRANCH   91   92
ENDBRANCH   87   88
BRANCH   98   99
ATOM     99  C69 UNL A   1      11.380   0.041  45.129  1.00  0.00    +0.000 C 
ATOM    100  C70 UNL A   1      12.479   0.590  45.806  1.00  0.00    +0.000 C 
ATOM    101  C71 UNL A   1      13.769   0.151  45.509  1.00  0.00    +0.000 C 
ATOM    102  C72 UNL A   1      13.962  -0.821  44.527  1.00  0.00    +0.000 C 
ATOM    103  C73 UNL A   1      12.865  -1.348  43.853  1.00  0.00    +0.000 C 
ATOM    104  F16 UNL A   1      13.059  -2.266  42.896  1.00  0.00    +0.000 F 
ATOM    105  C74 UNL A   1      11.571  -0.930  44.143  1.00  0.00    +0.000 C 
ATOM    152  H47 UNL A   1      12.332   1.317  46.524  1.00  0.00    +0.000 H 
ATOM    153  H48 UNL A   1      14.578   0.544  46.013  1.00  0.00    +0.000 H 
ATOM    154  H49 UNL A   1      14.915  -1.148  44.302  1.00  0.00    +0.000 H 
ATOM    155  H50 UNL A   1      10.765  -1.330  43.637  1.00  0.00    +0.000 H 
ENDBRANCH   98   99
ENDBRANCH    4    3
ENDBRANCH    5    4
ENDBRANCH    7    5
ENDBRANCH    8    7
BRANCH    8    9
ATOM      9  C7  UNL A   1       2.549   1.038  45.003  1.00  0.00    +0.000 C 
ATOM    114  H9  UNL A   1       2.529   1.583  45.923  1.00  0.00    +0.000 H 
ATOM    113  H8  UNL A   1       1.691   1.245  44.397  1.00  0.00    +0.000 H 
BRANCH    9   10
ATOM     10  O2  UNL A   1       2.550  -0.346  45.330  1.00  0.00    +0.000 O 
ATOM    115  H10 UNL A   1       1.831  -0.530  45.956  1.00  0.00    +0.000 H 
ENDBRANCH    9   10
ENDBRANCH    8    9
ENDBRANCH   11    8
ENDBRANCH   13   11
ENDBRANCH   14   13
ENDBRANCH   15   14
ENDBRANCH   16   15
ENDBRANCH   17   16
ENDBRANCH   18   17
ENDBRANCH   19   18
ENDBRANCH   20   19
ENDBRANCH   21   20
ENDBRANCH   23   21
ENDBRANCH   27   26
BRANCH   31   32
ATOM     33  C25 UNL A   1       7.796   5.003  39.451  1.00  0.00    +0.000 C 
ATOM     34  F1  UNL A   1       8.951   5.411  38.903  1.00  0.00    +0.000 F 
ATOM     35  C26 UNL A   1       7.820   3.976  40.395  1.00  0.00    +0.000 C 
ATOM     36  F2  UNL A   1       8.990   3.434  40.760  1.00  0.00    +0.000 F 
ATOM     37  C27 UNL A   1       6.640   3.512  40.959  1.00  0.00    +0.000 C 
ATOM     38  F3  UNL A   1       6.663   2.500  41.838  1.00  0.00    +0.000 F 
ATOM     39  C28 UNL A   1       5.442   4.122  40.639  1.00  0.00    +0.000 C 
ATOM     40  F4  UNL A   1       4.296   3.698  41.194  1.00  0.00    +0.000 F 
ATOM     41  C29 UNL A   1       5.424   5.193  39.752  1.00  0.00    +0.000 C 
ATOM     42  F5  UNL A   1       4.260   5.842  39.585  1.00  0.00    +0.000 F 
ATOM     32  C24 UNL A   1       6.593   5.613  39.084  1.00  0.00    +0.000 C 
ENDBRANCH   31   32
BRANCH   48   49
ATOM     49  C35 UNL A   1       3.244   9.279  40.697  1.00  0.00    +0.000 C 
ATOM     50  C36 UNL A   1       2.438   8.115  40.719  1.00  0.00    +0.000 C 
ATOM     51  F6  UNL A   1       2.259   7.360  39.626  1.00  0.00    +0.000 F 
ATOM     52  C37 UNL A   1       1.807   7.680  41.888  1.00  0.00    +0.000 C 
ATOM     53  F7  UNL A   1       0.993   6.614  41.858  1.00  0.00    +0.000 F 
ATOM     54  C38 UNL A   1       2.019   8.346  43.081  1.00  0.00    +0.000 C 
ATOM     55  F8  UNL A   1       1.425   7.924  44.207  1.00  0.00    +0.000 F 
ATOM     56  C39 UNL A   1       2.863   9.441  43.107  1.00  0.00    +0.000 C 
ATOM     57  F9  UNL A   1       3.118  10.063  44.266  1.00  0.00    +0.000 F 
ATOM     58  C40 UNL A   1       3.451   9.907  41.933  1.00  0.00    +0.000 C 
ATOM     59  F10 UNL A   1       4.246  10.985  42.007  1.00  0.00    +0.000 F 
ENDBRANCH   48   49
BRANCH   63   64
ATOM     65  C45 UNL A   1      -1.338  12.212  35.809  1.00  0.00    +0.000 C 
ATOM     66  F11 UNL A   1      -0.725  12.008  34.635  1.00  0.00    +0.000 F 
ATOM     67  C46 UNL A   1      -2.592  12.843  35.707  1.00  0.00    +0.000 C 
ATOM     68  F12 UNL A   1      -3.106  13.139  34.500  1.00  0.00    +0.000 F 
ATOM     69  C47 UNL A   1      -3.331  13.087  36.839  1.00  0.00    +0.000 C 
ATOM     70  F13 UNL A   1      -4.560  13.618  36.746  1.00  0.00    +0.000 F 
ATOM     71  C48 UNL A   1      -2.789  12.734  38.066  1.00  0.00    +0.000 C 
ATOM     72  F14 UNL A   1      -3.515  12.969  39.171  1.00  0.00    +0.000 F 
ATOM     73  C49 UNL A   1      -1.538  12.069  38.170  1.00  0.00    +0.000 C 
ATOM     74  F15 UNL A   1      -1.143  11.674  39.387  1.00  0.00    +0.000 F 
ATOM     64  C44 UNL A   1      -0.770  11.733  37.046  1.00  0.00    +0.000 C 
ENDBRANCH   63   64
TORSDOF 26
ENDMDL
MODEL 8
REMARK VINA RESULT:      -8.1     56.521     64.818
ROOT
ATOM    132  H27 UNL A   1      29.130 -11.919  35.415  1.00  0.00    +0.000 H 
ATOM    133  H28 UNL A   1      26.588 -11.409  36.036  1.00  0.00    +0.000 H 
ATOM    134  H29 UNL A   1      26.874 -15.048  34.124  1.00  0.00    +0.000 H 
ATOM    135  H30 UNL A   1      20.924 -10.322  32.267  1.00  0.00    +0.000 H 
ATOM    136  H31 UNL A   1      22.528 -10.618  30.342  1.00  0.00    +0.000 H 
ATOM    137  H32 UNL A   1      24.731 -10.958  33.851  1.00  0.00    +0.000 H 
ATOM    138  H33 UNL A   1      23.954  -9.824  37.131  1.00  0.00    +0.000 H 
ATOM    139  H34 UNL A   1      25.208 -11.986  37.839  1.00  0.00    +0.000 H 
ATOM    140  H35 UNL A   1      29.437 -10.534  32.985  1.00  0.00    +0.000 H 
ATOM    141  H36 UNL A   1      27.167  -9.300  32.945  1.00  0.00    +0.000 H 
ATOM     27  C20 UNL A   1      25.375 -10.750  31.013  1.00  0.00    +0.000 C 
ATOM     28  C21 UNL A   1      26.602 -11.158  31.765  1.00  0.00    +0.000 C 
ATOM     29  N4  UNL A   1      27.221 -12.253  31.413  1.00  0.00    +0.000 N 
ATOM     30  C22 UNL A   1      28.406 -12.278  32.107  1.00  0.00    +0.000 C 
ATOM     31  C23 UNL A   1      28.653 -13.445  32.769  1.00  0.00    +0.000 C 
ATOM     43  C30 UNL A   1      28.169 -13.382  34.122  1.00  0.00    +0.000 C 
ATOM     44  C31 UNL A   1      28.278 -12.408  35.095  1.00  0.00    +0.000 C 
ATOM     45  C32 UNL A   1      26.955 -12.242  35.551  1.00  0.00    +0.000 C 
ATOM     46  C33 UNL A   1      26.226 -13.381  35.238  1.00  0.00    +0.000 C 
ATOM     47  N5  UNL A   1      27.052 -14.129  34.432  1.00  0.00    +0.000 N 
ATOM     48  C34 UNL A   1      24.856 -13.781  35.416  1.00  0.00    +0.000 C 
ATOM     60  C41 UNL A   1      24.097 -12.999  36.222  1.00  0.00    +0.000 C 
ATOM     61  N6  UNL A   1      22.889 -12.639  35.718  1.00  0.00    +0.000 N 
ATOM     62  C42 UNL A   1      22.940 -11.343  35.782  1.00  0.00    +0.000 C 
ATOM     63  C43 UNL A   1      22.075 -10.504  34.950  1.00  0.00    +0.000 C 
ATOM     75  C50 UNL A   1      22.627 -10.543  33.664  1.00  0.00    +0.000 C 
ATOM     76  C51 UNL A   1      21.941 -10.463  32.376  1.00  0.00    +0.000 C 
ATOM     77  C52 UNL A   1      22.814 -10.601  31.333  1.00  0.00    +0.000 C 
ATOM     78  C53 UNL A   1      24.209 -10.720  31.787  1.00  0.00    +0.000 C 
ATOM     79  N7  UNL A   1      23.998 -10.775  33.219  1.00  0.00    +0.000 N 
ATOM     80  C54 UNL A   1      23.849 -10.788  36.776  1.00  0.00    +0.000 C 
ATOM     81  C55 UNL A   1      24.505 -11.907  37.087  1.00  0.00    +0.000 C 
ATOM     82  C56 UNL A   1      28.552 -10.917  32.618  1.00  0.00    +0.000 C 
ATOM     83  C57 UNL A   1      27.408 -10.223  32.553  1.00  0.00    +0.000 C 
ENDROOT
BRANCH   27   26
ATOM    130  H25 UNL A   1      24.579  -9.153  26.680  1.00  0.00    +0.000 H 
ATOM    131  H26 UNL A   1      24.011 -10.376  28.677  1.00  0.00    +0.000 H 
ATOM    142  H37 UNL A   1      28.049 -10.731  29.716  1.00  0.00    +0.000 H 
ATOM    143  H38 UNL A   1      28.623  -9.759  27.537  1.00  0.00    +0.000 H 
ATOM     84  C58 UNL A   1      27.287 -10.438  29.087  1.00  0.00    +0.000 C 
ATOM     85  C59 UNL A   1      27.629  -9.837  27.799  1.00  0.00    +0.000 C 
ATOM     23  C16 UNL A   1      26.653  -9.362  26.902  1.00  0.00    +0.000 C 
ATOM     24  C17 UNL A   1      25.334  -9.522  27.281  1.00  0.00    +0.000 C 
ATOM     25  C18 UNL A   1      25.009 -10.189  28.496  1.00  0.00    +0.000 C 
ATOM     26  C19 UNL A   1      25.954 -10.630  29.499  1.00  0.00    +0.000 C 
BRANCH   23   21
ATOM     21  C15 UNL A   1      26.938  -8.556  25.658  1.00  0.00    +0.000 C 
ATOM     22  O4  UNL A   1      27.320  -7.392  25.756  1.00  0.00    +0.000 O 
BRANCH   21   20
ATOM    129  H24 UNL A   1      26.735  -8.458  23.637  1.00  0.00    +0.000 H 
ATOM     20  N3  UNL A   1      26.679  -9.078  24.400  1.00  0.00    +0.000 N 
BRANCH   20   19
ATOM     19  C14 UNL A   1      26.335 -10.447  24.109  1.00  0.00    +0.000 C 
ATOM    127  H22 UNL A   1      26.883 -10.747  23.239  1.00  0.00    +0.000 H 
ATOM    128  H23 UNL A   1      26.581 -11.005  24.989  1.00  0.00    +0.000 H 
BRANCH   19   18
ATOM     18  C13 UNL A   1      24.845 -10.718  23.844  1.00  0.00    +0.000 C 
ATOM    125  H20 UNL A   1      24.302  -9.852  24.158  1.00  0.00    +0.000 H 
ATOM    126  H21 UNL A   1      24.792 -10.940  22.798  1.00  0.00    +0.000 H 
BRANCH   18   17
ATOM     17  C12 UNL A   1      24.208 -11.936  24.533  1.00  0.00    +0.000 C 
ATOM    123  H18 UNL A   1      23.762 -12.541  23.771  1.00  0.00    +0.000 H 
ATOM    124  H19 UNL A   1      25.007 -12.405  25.068  1.00  0.00    +0.000 H 
BRANCH   17   16
ATOM    121  H16 UNL A   1      23.574 -11.043  26.349  1.00  0.00    +0.000 H 
ATOM    122  H17 UNL A   1      22.331 -11.179  25.059  1.00  0.00    +0.000 H 
ATOM     16  C11 UNL A   1      23.132 -11.651  25.587  1.00  0.00    +0.000 C 
BRANCH   16   15
ATOM    119  H14 UNL A   1      21.544 -12.601  26.633  1.00  0.00    +0.000 H 
ATOM     15  C10 UNL A   1      22.511 -12.876  26.268  1.00  0.00    +0.000 C 
ATOM    120  H15 UNL A   1      22.479 -13.648  25.527  1.00  0.00    +0.000 H 
BRANCH   15   14
ATOM    118  H13 UNL A   1      22.748 -14.220  27.897  1.00  0.00    +0.000 H 
ATOM    117  H12 UNL A   1      23.508 -12.652  28.139  1.00  0.00    +0.000 H 
ATOM     14  C9  UNL A   1      23.316 -13.438  27.438  1.00  0.00    +0.000 C 
BRANCH   14   13
ATOM    116  H11 UNL A   1      25.350 -13.379  27.012  1.00  0.00    +0.000 H 
ATOM     13  N2  UNL A   1      24.576 -13.987  26.989  1.00  0.00    +0.000 N 
BRANCH   13   11
ATOM     11  C8  UNL A   1      24.814 -15.256  26.538  1.00  0.00    +0.000 C 
ATOM     12  O3  UNL A   1      24.003 -15.715  25.729  1.00  0.00    +0.000 O 
BRANCH   11    8
ATOM    112  H7  UNL A   1      26.323 -15.736  27.936  1.00  0.00    +0.000 H 
ATOM      8  C6  UNL A   1      26.080 -16.049  26.943  1.00  0.00    +0.000 C 
BRANCH    8    7
ATOM    111  H6  UNL A   1      27.082 -15.814  25.123  1.00  0.00    +0.000 H 
ATOM      7  N1  UNL A   1      27.236 -15.735  26.093  1.00  0.00    +0.000 N 
BRANCH    7    5
ATOM      5  C5  UNL A   1      28.491 -15.348  26.458  1.00  0.00    +0.000 C 
ATOM      6  O1  UNL A   1      29.431 -16.053  26.085  1.00  0.00    +0.000 O 
BRANCH    5    4
ATOM      4  C4  UNL A   1      28.710 -14.142  27.355  1.00  0.00    +0.000 C 
ATOM    109  H4  UNL A   1      27.758 -13.701  27.565  1.00  0.00    +0.000 H 
ATOM    110  H5  UNL A   1      29.202 -14.496  28.237  1.00  0.00    +0.000 H 
BRANCH    4    3
ATOM      2  C2  UNL A   1      30.981 -12.996  26.813  1.00  0.00    +0.000 C 
ATOM      3  C3  UNL A   1      29.594 -13.093  26.754  1.00  0.00    +0.000 C 
ATOM     98  N8  UNL A   1      31.369 -11.880  26.073  1.00  0.00    +0.000 N 
ATOM    144  H39 UNL A   1      28.146 -11.710  25.877  1.00  0.00    +0.000 H 
ATOM     86  C60 UNL A   1      29.135 -11.960  26.037  1.00  0.00    +0.000 C 
ATOM     87  C61 UNL A   1      30.227 -11.242  25.587  1.00  0.00    +0.000 C 
BRANCH    2    1
ATOM      1  C1  UNL A   1      31.917 -13.835  27.625  1.00  0.00    +0.000 C 
ATOM    106  H1  UNL A   1      31.875 -14.849  27.284  1.00  0.00    +0.000 H 
ATOM    107  H2  UNL A   1      31.632 -13.793  28.655  1.00  0.00    +0.000 H 
ATOM    108  H3  UNL A   1      32.914 -13.464  27.516  1.00  0.00    +0.000 H 
ENDBRANCH    2    1
BRANCH   87   88
ATOM     97  C68 UNL A   1      30.437  -8.809  25.131  1.00  0.00    +0.000 C 
ATOM    145  H40 UNL A   1      29.732 -11.243  22.938  1.00  0.00    +0.000 H 
ATOM    146  H41 UNL A   1      29.704  -9.354  21.411  1.00  0.00    +0.000 H 
ATOM    150  H45 UNL A   1      30.587  -6.765  24.613  1.00  0.00    +0.000 H 
ATOM    151  H46 UNL A   1      30.620  -8.656  26.135  1.00  0.00    +0.000 H 
ATOM     88  C62 UNL A   1      30.211 -10.106  24.656  1.00  0.00    +0.000 C 
ATOM     89  C63 UNL A   1      29.928 -10.293  23.293  1.00  0.00    +0.000 C 
ATOM     90  C64 UNL A   1      29.907  -9.209  22.411  1.00  0.00    +0.000 C 
ATOM     91  C65 UNL A   1      30.165  -7.926  22.899  1.00  0.00    +0.000 C 
ATOM     96  C67 UNL A   1      30.417  -7.718  24.258  1.00  0.00    +0.000 C 
BRANCH   91   92
ATOM     92  S1  UNL A   1      30.101  -6.546  21.783  1.00  0.00    +0.000 S 
ATOM     94  O5  UNL A   1      30.229  -7.067  20.446  1.00  0.00    +0.000 O 
ATOM     95  O6  UNL A   1      28.951  -5.729  22.162  1.00  0.00    +0.000 O 
BRANCH   92   93
ATOM    149  H44 UNL A   1      32.303  -6.252  22.571  1.00  0.00    +0.000 H 
ATOM    147  H42 UNL A   1      31.312  -4.847  22.877  1.00  0.00    +0.000 H 
ATOM    148  H43 UNL A   1      31.927  -5.147  21.271  1.00  0.00    +0.000 H 
ATOM     93  C66 UNL A   1      31.556  -5.605  22.163  1.00  0.00    +0.000 C 
ENDBRANCH   92   93
ENDBRANCH   91   92
ENDBRANCH   87   88
BRANCH   98   99
ATOM     99  C69 UNL A   1      32.701 -11.426  25.876  1.00  0.00    +0.000 C 
ATOM    100  C70 UNL A   1      33.472 -11.971  24.839  1.00  0.00    +0.000 C 
ATOM    101  C71 UNL A   1      34.794 -11.560  24.665  1.00  0.00    +0.000 C 
ATOM    102  C72 UNL A   1      35.349 -10.621  25.534  1.00  0.00    +0.000 C 
ATOM    103  C73 UNL A   1      34.577 -10.096  26.567  1.00  0.00    +0.000 C 
ATOM    104  F16 UNL A   1      35.122  -9.210  27.411  1.00  0.00    +0.000 F 
ATOM    105  C74 UNL A   1      33.255 -10.487  26.749  1.00  0.00    +0.000 C 
ATOM    152  H47 UNL A   1      33.061 -12.675  24.206  1.00  0.00    +0.000 H 
ATOM    153  H48 UNL A   1      35.360 -11.951  23.897  1.00  0.00    +0.000 H 
ATOM    154  H49 UNL A   1      36.326 -10.315  25.411  1.00  0.00    +0.000 H 
ATOM    155  H50 UNL A   1      32.693 -10.089  27.518  1.00  0.00    +0.000 H 
ENDBRANCH   98   99
ENDBRANCH    4    3
ENDBRANCH    5    4
ENDBRANCH    7    5
ENDBRANCH    8    7
BRANCH    8    9
ATOM      9  C7  UNL A   1      25.818 -17.562  26.978  1.00  0.00    +0.000 C 
ATOM    114  H9  UNL A   1      26.029 -17.898  27.972  1.00  0.00    +0.000 H 
ATOM    113  H8  UNL A   1      24.799 -17.737  26.704  1.00  0.00    +0.000 H 
BRANCH    9   10
ATOM     10  O2  UNL A   1      26.657 -18.297  26.095  1.00  0.00    +0.000 O 
ATOM    115  H10 UNL A   1      26.721 -19.215  26.401  1.00  0.00    +0.000 H 
ENDBRANCH    9   10
ENDBRANCH    8    9
ENDBRANCH   11    8
ENDBRANCH   13   11
ENDBRANCH   14   13
ENDBRANCH   15   14
ENDBRANCH   16   15
ENDBRANCH   17   16
ENDBRANCH   18   17
ENDBRANCH   19   18
ENDBRANCH   20   19
ENDBRANCH   21   20
ENDBRANCH   23   21
ENDBRANCH   27   26
BRANCH   31   32
ATOM     33  C25 UNL A   1      29.729 -15.197  31.360  1.00  0.00    +0.000 C 
ATOM     34  F1  UNL A   1      30.923 -14.727  31.752  1.00  0.00    +0.000 F 
ATOM     35  C26 UNL A   1      29.683 -16.228  30.420  1.00  0.00    +0.000 C 
ATOM     36  F2  UNL A   1      30.823 -16.750  29.947  1.00  0.00    +0.000 F 
ATOM     37  C27 UNL A   1      28.463 -16.716  29.973  1.00  0.00    +0.000 C 
ATOM     38  F3  UNL A   1      28.421 -17.681  29.043  1.00  0.00    +0.000 F 
ATOM     39  C28 UNL A   1      27.289 -16.230  30.516  1.00  0.00    +0.000 C 
ATOM     40  F4  UNL A   1      26.104 -16.709  30.109  1.00  0.00    +0.000 F 
ATOM     41  C29 UNL A   1      27.336 -15.253  31.504  1.00  0.00    +0.000 C 
ATOM     42  F5  UNL A   1      26.181 -14.918  32.102  1.00  0.00    +0.000 F 
ATOM     32  C24 UNL A   1      28.555 -14.664  31.899  1.00  0.00    +0.000 C 
ENDBRANCH   31   32
BRANCH   48   49
ATOM     49  C35 UNL A   1      24.146 -14.900  34.684  1.00  0.00    +0.000 C 
ATOM     50  C36 UNL A   1      23.446 -14.802  33.458  1.00  0.00    +0.000 C 
ATOM     51  F6  UNL A   1      23.516 -13.706  32.690  1.00  0.00    +0.000 F 
ATOM     52  C37 UNL A   1      22.663 -15.853  32.972  1.00  0.00    +0.000 C 
ATOM     53  F7  UNL A   1      21.955 -15.701  31.842  1.00  0.00    +0.000 F 
ATOM     54  C38 UNL A   1      22.614 -17.055  33.653  1.00  0.00    +0.000 C 
ATOM     55  F8  UNL A   1      21.874 -18.070  33.184  1.00  0.00    +0.000 F 
ATOM     56  C39 UNL A   1      23.349 -17.208  34.815  1.00  0.00    +0.000 C 
ATOM     57  F9  UNL A   1      23.352 -18.384  35.457  1.00  0.00    +0.000 F 
ATOM     58  C40 UNL A   1      24.088 -16.144  35.328  1.00  0.00    +0.000 C 
ATOM     59  F10 UNL A   1      24.768 -16.335  36.468  1.00  0.00    +0.000 F 
ENDBRANCH   48   49
BRANCH   63   64
ATOM     65  C45 UNL A   1      20.800  -8.800  36.477  1.00  0.00    +0.000 C 
ATOM     66  F11 UNL A   1      21.923  -8.127  36.764  1.00  0.00    +0.000 F 
ATOM     67  C46 UNL A   1      19.614  -8.120  36.814  1.00  0.00    +0.000 C 
ATOM     68  F12 UNL A   1      19.667  -6.877  37.322  1.00  0.00    +0.000 F 
ATOM     69  C47 UNL A   1      18.396  -8.695  36.548  1.00  0.00    +0.000 C 
ATOM     70  F13 UNL A   1      17.260  -8.024  36.795  1.00  0.00    +0.000 F 
ATOM     71  C48 UNL A   1      18.375  -9.964  35.987  1.00  0.00    +0.000 C 
ATOM     72  F14 UNL A   1      17.184 -10.523  35.724  1.00  0.00    +0.000 F 
ATOM     73  C49 UNL A   1      19.571 -10.638  35.617  1.00  0.00    +0.000 C 
ATOM     74  F15 UNL A   1      19.451 -11.814  34.987  1.00  0.00    +0.000 F 
ATOM     64  C44 UNL A   1      20.840 -10.074  35.801  1.00  0.00    +0.000 C 
ENDBRANCH   63   64
TORSDOF 26
ENDMDL
MODEL 9
REMARK VINA RESULT:      -8.0     38.215     46.117
ROOT
ATOM    132  H27 UNL A   1      24.521  20.666  56.268  1.00  0.00    +0.000 H 
ATOM    133  H28 UNL A   1      27.138  20.177  56.391  1.00  0.00    +0.000 H 
ATOM    134  H29 UNL A   1      26.016  22.656  59.485  1.00  0.00    +0.000 H 
ATOM    135  H30 UNL A   1      32.727  24.154  55.758  1.00  0.00    +0.000 H 
ATOM    136  H31 UNL A   1      31.011  25.964  55.372  1.00  0.00    +0.000 H 
ATOM    137  H32 UNL A   1      28.948  22.397  55.916  1.00  0.00    +0.000 H 
ATOM    138  H33 UNL A   1      30.091  19.046  55.585  1.00  0.00    +0.000 H 
ATOM    139  H34 UNL A   1      28.449  18.619  57.551  1.00  0.00    +0.000 H 
ATOM    140  H35 UNL A   1      24.398  22.787  54.425  1.00  0.00    +0.000 H 
ATOM    141  H36 UNL A   1      26.871  22.801  53.674  1.00  0.00    +0.000 H 
ATOM     27  C20 UNL A   1      28.233  25.094  55.065  1.00  0.00    +0.000 C 
ATOM     28  C21 UNL A   1      26.983  24.325  55.356  1.00  0.00    +0.000 C 
ATOM     29  N4  UNL A   1      26.135  24.808  56.224  1.00  0.00    +0.000 N 
ATOM     30  C22 UNL A   1      25.004  24.033  56.144  1.00  0.00    +0.000 C 
ATOM     31  C23 UNL A   1      24.549  23.564  57.342  1.00  0.00    +0.000 C 
ATOM     43  C30 UNL A   1      25.097  22.265  57.627  1.00  0.00    +0.000 C 
ATOM     44  C31 UNL A   1      25.236  21.133  56.848  1.00  0.00    +0.000 C 
ATOM     45  C32 UNL A   1      26.584  20.766  57.031  1.00  0.00    +0.000 C 
ATOM     46  C33 UNL A   1      27.046  21.329  58.213  1.00  0.00    +0.000 C 
ATOM     47  N5  UNL A   1      26.047  22.181  58.622  1.00  0.00    +0.000 N 
ATOM     48  C34 UNL A   1      28.310  21.335  58.900  1.00  0.00    +0.000 C 
ATOM     60  C41 UNL A   1      29.251  20.472  58.446  1.00  0.00    +0.000 C 
ATOM     61  N6  UNL A   1      30.483  21.004  58.242  1.00  0.00    +0.000 N 
ATOM     62  C42 UNL A   1      30.705  20.714  56.996  1.00  0.00    +0.000 C 
ATOM     63  C43 UNL A   1      31.687  21.457  56.204  1.00  0.00    +0.000 C 
ATOM     75  C50 UNL A   1      31.081  22.681  55.895  1.00  0.00    +0.000 C 
ATOM     76  C51 UNL A   1      31.710  23.988  55.715  1.00  0.00    +0.000 C 
ATOM     77  C52 UNL A   1      30.781  24.964  55.482  1.00  0.00    +0.000 C 
ATOM     78  C53 UNL A   1      29.413  24.425  55.408  1.00  0.00    +0.000 C 
ATOM     79  N7  UNL A   1      29.673  23.046  55.767  1.00  0.00    +0.000 N 
ATOM     80  C54 UNL A   1      29.977  19.568  56.467  1.00  0.00    +0.000 C 
ATOM     81  C55 UNL A   1      29.117  19.402  57.474  1.00  0.00    +0.000 C 
ATOM     82  C56 UNL A   1      25.166  23.286  54.899  1.00  0.00    +0.000 C 
ATOM     83  C57 UNL A   1      26.425  23.324  54.443  1.00  0.00    +0.000 C 
ENDROOT
BRANCH   27   26
ATOM    130  H25 UNL A   1      28.820  29.741  54.951  1.00  0.00    +0.000 H 
ATOM    131  H26 UNL A   1      28.665  27.603  56.051  1.00  0.00    +0.000 H 
ATOM    142  H37 UNL A   1      26.465  26.021  52.863  1.00  0.00    +0.000 H 
ATOM    143  H38 UNL A   1      26.368  28.278  51.901  1.00  0.00    +0.000 H 
ATOM     84  C58 UNL A   1      26.949  26.790  53.350  1.00  0.00    +0.000 C 
ATOM     85  C59 UNL A   1      26.912  28.129  52.765  1.00  0.00    +0.000 C 
ATOM     23  C16 UNL A   1      27.587  29.224  53.336  1.00  0.00    +0.000 C 
ATOM     24  C17 UNL A   1      28.272  28.984  54.513  1.00  0.00    +0.000 C 
ATOM     25  C18 UNL A   1      28.228  27.698  55.122  1.00  0.00    +0.000 C 
ATOM     26  C19 UNL A   1      27.623  26.512  54.555  1.00  0.00    +0.000 C 
BRANCH   23   21
ATOM     21  C15 UNL A   1      27.756  30.575  52.684  1.00  0.00    +0.000 C 
ATOM     22  O4  UNL A   1      27.132  31.544  53.110  1.00  0.00    +0.000 O 
BRANCH   21   20
ATOM    129  H24 UNL A   1      28.054  30.819  50.687  1.00  0.00    +0.000 H 
ATOM     20  N3  UNL A   1      28.531  30.719  51.543  1.00  0.00    +0.000 N 
BRANCH   20   19
ATOM     19  C14 UNL A   1      29.972  30.737  51.498  1.00  0.00    +0.000 C 
ATOM    127  H22 UNL A   1      30.267  31.272  50.619  1.00  0.00    +0.000 H 
ATOM    128  H23 UNL A   1      30.288  31.197  52.411  1.00  0.00    +0.000 H 
BRANCH   19   18
ATOM     18  C13 UNL A   1      30.654  29.360  51.464  1.00  0.00    +0.000 C 
ATOM    125  H20 UNL A   1      31.653  29.506  51.113  1.00  0.00    +0.000 H 
ATOM    126  H21 UNL A   1      30.567  28.990  52.465  1.00  0.00    +0.000 H 
BRANCH   18   17
ATOM     17  C12 UNL A   1      30.013  28.268  50.590  1.00  0.00    +0.000 C 
ATOM    123  H18 UNL A   1      29.740  27.458  51.234  1.00  0.00    +0.000 H 
ATOM    124  H19 UNL A   1      29.193  28.748  50.100  1.00  0.00    +0.000 H 
BRANCH   17   16
ATOM    121  H16 UNL A   1      31.882  28.014  49.622  1.00  0.00    +0.000 H 
ATOM    122  H17 UNL A   1      30.740  26.631  49.510  1.00  0.00    +0.000 H 
ATOM     16  C11 UNL A   1      30.875  27.692  49.461  1.00  0.00    +0.000 C 
BRANCH   16   15
ATOM    119  H14 UNL A   1      30.419  29.159  47.991  1.00  0.00    +0.000 H 
ATOM     15  C10 UNL A   1      30.477  28.091  48.035  1.00  0.00    +0.000 C 
ATOM    120  H15 UNL A   1      31.224  27.681  47.388  1.00  0.00    +0.000 H 
BRANCH   15   14
ATOM    118  H13 UNL A   1      28.695  26.983  48.367  1.00  0.00    +0.000 H 
ATOM    117  H12 UNL A   1      29.312  26.880  46.723  1.00  0.00    +0.000 H 
ATOM     14  C9  UNL A   1      29.140  27.525  47.560  1.00  0.00    +0.000 C 
BRANCH   14   13
ATOM    116  H11 UNL A   1      28.104  28.701  46.194  1.00  0.00    +0.000 H 
ATOM     13  N2  UNL A   1      28.237  28.582  47.162  1.00  0.00    +0.000 N 
BRANCH   13   11
ATOM     11  C8  UNL A   1      27.547  29.435  47.979  1.00  0.00    +0.000 C 
ATOM     12  O3  UNL A   1      27.055  28.945  48.999  1.00  0.00    +0.000 O 
BRANCH   11    8
ATOM    112  H7  UNL A   1      26.882  31.373  48.493  1.00  0.00    +0.000 H 
ATOM      8  C6  UNL A   1      27.460  30.954  47.696  1.00  0.00    +0.000 C 
BRANCH    8    7
ATOM    111  H6  UNL A   1      27.261  31.071  45.618  1.00  0.00    +0.000 H 
ATOM      7  N1  UNL A   1      26.755  31.253  46.443  1.00  0.00    +0.000 N 
BRANCH    7    5
ATOM      5  C5  UNL A   1      25.497  31.746  46.262  1.00  0.00    +0.000 C 
ATOM      6  O1  UNL A   1      25.382  32.765  45.575  1.00  0.00    +0.000 O 
BRANCH    5    4
ATOM      4  C4  UNL A   1      24.299  31.111  46.945  1.00  0.00    +0.000 C 
ATOM    109  H4  UNL A   1      24.230  30.092  46.624  1.00  0.00    +0.000 H 
ATOM    110  H5  UNL A   1      24.459  31.199  47.999  1.00  0.00    +0.000 H 
BRANCH    4    3
ATOM      2  C2  UNL A   1      22.539  33.018  47.108  1.00  0.00    +0.000 C 
ATOM      3  C3  UNL A   1      22.998  31.790  46.644  1.00  0.00    +0.000 C 
ATOM     98  N8  UNL A   1      21.294  33.263  46.528  1.00  0.00    +0.000 N 
ATOM    144  H39 UNL A   1      21.978  30.312  45.398  1.00  0.00    +0.000 H 
ATOM     86  C60 UNL A   1      21.967  31.246  45.837  1.00  0.00    +0.000 C 
ATOM     87  C61 UNL A   1      20.944  32.169  45.736  1.00  0.00    +0.000 C 
BRANCH    2    1
ATOM      1  C1  UNL A   1      23.169  33.891  48.148  1.00  0.00    +0.000 C 
ATOM    106  H1  UNL A   1      24.105  33.468  48.450  1.00  0.00    +0.000 H 
ATOM    107  H2  UNL A   1      22.520  33.960  48.996  1.00  0.00    +0.000 H 
ATOM    108  H3  UNL A   1      23.332  34.867  47.744  1.00  0.00    +0.000 H 
ENDBRANCH    2    1
BRANCH   87   88
ATOM     97  C68 UNL A   1      19.609  33.015  43.819  1.00  0.00    +0.000 C 
ATOM    145  H40 UNL A   1      18.871  30.451  45.846  1.00  0.00    +0.000 H 
ATOM    146  H41 UNL A   1      16.933  30.334  44.387  1.00  0.00    +0.000 H 
ATOM    150  H45 UNL A   1      18.382  33.639  42.214  1.00  0.00    +0.000 H 
ATOM    151  H46 UNL A   1      20.320  33.748  43.672  1.00  0.00    +0.000 H 
ATOM     88  C62 UNL A   1      19.770  32.089  44.856  1.00  0.00    +0.000 C 
ATOM     89  C63 UNL A   1      18.776  31.120  45.065  1.00  0.00    +0.000 C 
ATOM     90  C64 UNL A   1      17.657  31.052  44.231  1.00  0.00    +0.000 C 
ATOM     91  C65 UNL A   1      17.529  31.965  43.182  1.00  0.00    +0.000 C 
ATOM     96  C67 UNL A   1      18.493  32.955  42.980  1.00  0.00    +0.000 C 
BRANCH   91   92
ATOM     92  S1  UNL A   1      16.088  31.898  42.147  1.00  0.00    +0.000 S 
ATOM     94  O5  UNL A   1      15.326  33.096  42.390  1.00  0.00    +0.000 O 
ATOM     95  O6  UNL A   1      16.533  31.553  40.799  1.00  0.00    +0.000 O 
BRANCH   92   93
ATOM    149  H44 UNL A   1      15.603  29.604  42.393  1.00  0.00    +0.000 H 
ATOM    147  H42 UNL A   1      14.154  30.581  42.432  1.00  0.00    +0.000 H 
ATOM    148  H43 UNL A   1      15.198  30.510  43.831  1.00  0.00    +0.000 H 
ATOM     93  C66 UNL A   1      15.170  30.510  42.761  1.00  0.00    +0.000 C 
ENDBRANCH   92   93
ENDBRANCH   91   92
ENDBRANCH   87   88
BRANCH   98   99
ATOM     99  C69 UNL A   1      20.482  34.410  46.737  1.00  0.00    +0.000 C 
ATOM    100  C70 UNL A   1      20.684  35.552  45.948  1.00  0.00    +0.000 C 
ATOM    101  C71 UNL A   1      19.918  36.697  46.175  1.00  0.00    +0.000 C 
ATOM    102  C72 UNL A   1      18.968  36.706  47.195  1.00  0.00    +0.000 C 
ATOM    103  C73 UNL A   1      18.786  35.569  47.979  1.00  0.00    +0.000 C 
ATOM    104  F16 UNL A   1      17.887  35.591  48.971  1.00  0.00    +0.000 F 
ATOM    105  C74 UNL A   1      19.533  34.417  47.761  1.00  0.00    +0.000 C 
ATOM    152  H47 UNL A   1      21.396  35.546  45.202  1.00  0.00    +0.000 H 
ATOM    153  H48 UNL A   1      20.056  37.535  45.590  1.00  0.00    +0.000 H 
ATOM    154  H49 UNL A   1      18.400  37.550  47.368  1.00  0.00    +0.000 H 
ATOM    155  H50 UNL A   1      19.388  33.580  48.348  1.00  0.00    +0.000 H 
ENDBRANCH   98   99
ENDBRANCH    4    3
ENDBRANCH    5    4
ENDBRANCH    7    5
ENDBRANCH    8    7
BRANCH    8    9
ATOM      9  C7  UNL A   1      28.844  31.619  47.721  1.00  0.00    +0.000 C 
ATOM    114  H9  UNL A   1      29.547  30.879  48.042  1.00  0.00    +0.000 H 
ATOM    113  H8  UNL A   1      29.065  31.980  46.738  1.00  0.00    +0.000 H 
BRANCH    9   10
ATOM     10  O2  UNL A   1      28.928  32.707  48.633  1.00  0.00    +0.000 O 
ATOM    115  H10 UNL A   1      28.449  32.483  49.447  1.00  0.00    +0.000 H 
ENDBRANCH    9   10
ENDBRANCH    8    9
ENDBRANCH   11    8
ENDBRANCH   13   11
ENDBRANCH   14   13
ENDBRANCH   15   14
ENDBRANCH   16   15
ENDBRANCH   17   16
ENDBRANCH   18   17
ENDBRANCH   19   18
ENDBRANCH   20   19
ENDBRANCH   21   20
ENDBRANCH   23   21
ENDBRANCH   27   26
BRANCH   31   32
ATOM     33  C25 UNL A   1      25.468  25.109  59.069  1.00  0.00    +0.000 C 
ATOM     34  F1  UNL A   1      26.701  24.731  58.698  1.00  0.00    +0.000 F 
ATOM     35  C26 UNL A   1      25.324  25.985  60.146  1.00  0.00    +0.000 C 
ATOM     36  F2  UNL A   1      26.411  26.457  60.772  1.00  0.00    +0.000 F 
ATOM     37  C27 UNL A   1      24.061  26.371  60.573  1.00  0.00    +0.000 C 
ATOM     38  F3  UNL A   1      23.924  27.183  61.630  1.00  0.00    +0.000 F 
ATOM     39  C28 UNL A   1      22.943  25.945  59.880  1.00  0.00    +0.000 C 
ATOM     40  F4  UNL A   1      21.718  26.329  60.269  1.00  0.00    +0.000 F 
ATOM     41  C29 UNL A   1      23.089  25.129  58.764  1.00  0.00    +0.000 C 
ATOM     42  F5  UNL A   1      21.989  24.861  58.042  1.00  0.00    +0.000 F 
ATOM     32  C24 UNL A   1      24.352  24.636  58.374  1.00  0.00    +0.000 C 
ENDBRANCH   31   32
BRANCH   48   49
ATOM     49  C35 UNL A   1      28.738  22.305  59.982  1.00  0.00    +0.000 C 
ATOM     50  C36 UNL A   1      29.398  23.543  59.798  1.00  0.00    +0.000 C 
ATOM     51  F6  UNL A   1      29.536  24.098  58.586  1.00  0.00    +0.000 F 
ATOM     52  C37 UNL A   1      29.921  24.264  60.876  1.00  0.00    +0.000 C 
ATOM     53  F7  UNL A   1      30.604  25.399  60.660  1.00  0.00    +0.000 F 
ATOM     54  C38 UNL A   1      29.737  23.812  62.169  1.00  0.00    +0.000 C 
ATOM     55  F8  UNL A   1      30.225  24.507  63.206  1.00  0.00    +0.000 F 
ATOM     56  C39 UNL A   1      29.028  22.644  62.385  1.00  0.00    +0.000 C 
ATOM     57  F9  UNL A   1      28.796  22.222  63.636  1.00  0.00    +0.000 F 
ATOM     58  C40 UNL A   1      28.552  21.898  61.310  1.00  0.00    +0.000 C 
ATOM     59  F10 UNL A   1      27.888  20.762  61.571  1.00  0.00    +0.000 F 
ENDBRANCH   48   49
BRANCH   63   64
ATOM     65  C45 UNL A   1      33.656  20.269  54.951  1.00  0.00    +0.000 C 
ATOM     66  F11 UNL A   1      32.965  20.205  53.804  1.00  0.00    +0.000 F 
ATOM     67  C46 UNL A   1      35.034  20.019  54.813  1.00  0.00    +0.000 C 
ATOM     68  F12 UNL A   1      35.565  19.800  53.597  1.00  0.00    +0.000 F 
ATOM     69  C47 UNL A   1      35.855  20.079  55.912  1.00  0.00    +0.000 C 
ATOM     70  F13 UNL A   1      37.181  19.918  55.779  1.00  0.00    +0.000 F 
ATOM     71  C48 UNL A   1      35.282  20.346  57.147  1.00  0.00    +0.000 C 
ATOM     72  F14 UNL A   1      36.086  20.408  58.220  1.00  0.00    +0.000 F 
ATOM     73  C49 UNL A   1      33.896  20.629  57.284  1.00  0.00    +0.000 C 
ATOM     74  F15 UNL A   1      33.451  20.977  58.498  1.00  0.00    +0.000 F 
ATOM     64  C44 UNL A   1      33.021  20.650  56.189  1.00  0.00    +0.000 C 
ENDBRANCH   63   64
TORSDOF 26
ENDMDL
MODEL 10
REMARK VINA RESULT:      -8.0     38.146     46.034
ROOT
ATOM    132  H27 UNL A   1      24.456  21.141  56.016  1.00  0.00    +0.000 H 
ATOM    133  H28 UNL A   1      27.091  20.746  56.112  1.00  0.00    +0.000 H 
ATOM    134  H29 UNL A   1      25.880  22.998  59.342  1.00  0.00    +0.000 H 
ATOM    135  H30 UNL A   1      32.523  24.965  55.712  1.00  0.00    +0.000 H 
ATOM    136  H31 UNL A   1      30.738  26.726  55.430  1.00  0.00    +0.000 H 
ATOM    137  H32 UNL A   1      28.813  23.058  55.767  1.00  0.00    +0.000 H 
ATOM    138  H33 UNL A   1      30.083  19.777  55.243  1.00  0.00    +0.000 H 
ATOM    139  H34 UNL A   1      28.462  19.176  57.181  1.00  0.00    +0.000 H 
ATOM    140  H35 UNL A   1      24.249  23.359  54.297  1.00  0.00    +0.000 H 
ATOM    141  H36 UNL A   1      26.719  23.510  53.550  1.00  0.00    +0.000 H 
ATOM     27  C20 UNL A   1      27.994  25.770  55.071  1.00  0.00    +0.000 C 
ATOM     28  C21 UNL A   1      26.776  24.938  55.317  1.00  0.00    +0.000 C 
ATOM     29  N4  UNL A   1      25.911  25.338  56.211  1.00  0.00    +0.000 N 
ATOM     30  C22 UNL A   1      24.810  24.526  56.085  1.00  0.00    +0.000 C 
ATOM     31  C23 UNL A   1      24.376  23.972  57.254  1.00  0.00    +0.000 C 
ATOM     43  C30 UNL A   1      24.973  22.681  57.464  1.00  0.00    +0.000 C 
ATOM     44  C31 UNL A   1      25.155  21.602  56.621  1.00  0.00    +0.000 C 
ATOM     45  C32 UNL A   1      26.516  21.277  56.784  1.00  0.00    +0.000 C 
ATOM     46  C33 UNL A   1      26.958  21.788  57.997  1.00  0.00    +0.000 C 
ATOM     47  N5  UNL A   1      25.928  22.576  58.453  1.00  0.00    +0.000 N 
ATOM     48  C34 UNL A   1      28.221  21.802  58.684  1.00  0.00    +0.000 C 
ATOM     60  C41 UNL A   1      29.194  21.004  58.181  1.00  0.00    +0.000 C 
ATOM     61  N6  UNL A   1      30.404  21.593  58.010  1.00  0.00    +0.000 N 
ATOM     62  C42 UNL A   1      30.635  21.384  56.749  1.00  0.00    +0.000 C 
ATOM     63  C43 UNL A   1      31.587  22.209  56.002  1.00  0.00    +0.000 C 
ATOM     75  C50 UNL A   1      30.934  23.424  55.764  1.00  0.00    +0.000 C 
ATOM     76  C51 UNL A   1      31.512  24.763  55.659  1.00  0.00    +0.000 C 
ATOM     77  C52 UNL A   1      30.546  25.714  55.483  1.00  0.00    +0.000 C 
ATOM     78  C53 UNL A   1      29.200  25.128  55.376  1.00  0.00    +0.000 C 
ATOM     79  N7  UNL A   1      29.513  23.742  55.656  1.00  0.00    +0.000 N 
ATOM     80  C54 UNL A   1      29.951  20.243  56.154  1.00  0.00    +0.000 C 
ATOM     81  C55 UNL A   1      29.100  19.987  57.149  1.00  0.00    +0.000 C 
ATOM     82  C56 UNL A   1      24.999  23.859  54.800  1.00  0.00    +0.000 C 
ATOM     83  C57 UNL A   1      26.255  23.971  54.348  1.00  0.00    +0.000 C 
ENDROOT
BRANCH   27   26
ATOM    130  H25 UNL A   1      28.122  30.422  55.619  1.00  0.00    +0.000 H 
ATOM    131  H26 UNL A   1      28.017  28.149  56.412  1.00  0.00    +0.000 H 
ATOM    142  H37 UNL A   1      26.499  26.842  52.737  1.00  0.00    +0.000 H 
ATOM    143  H38 UNL A   1      26.324  29.193  52.053  1.00  0.00    +0.000 H 
ATOM     84  C58 UNL A   1      26.824  27.574  53.387  1.00  0.00    +0.000 C 
ATOM     85  C59 UNL A   1      26.741  28.973  52.971  1.00  0.00    +0.000 C 
ATOM     23  C16 UNL A   1      27.209  30.031  53.773  1.00  0.00    +0.000 C 
ATOM     24  C17 UNL A   1      27.726  29.689  55.008  1.00  0.00    +0.000 C 
ATOM     25  C18 UNL A   1      27.719  28.333  55.442  1.00  0.00    +0.000 C 
ATOM     26  C19 UNL A   1      27.331  27.191  54.644  1.00  0.00    +0.000 C 
BRANCH   23   21
ATOM     21  C15 UNL A   1      27.338  31.467  53.325  1.00  0.00    +0.000 C 
ATOM     22  O4  UNL A   1      26.517  32.302  53.697  1.00  0.00    +0.000 O 
BRANCH   21   20
ATOM    129  H24 UNL A   1      28.076  32.533  51.759  1.00  0.00    +0.000 H 
ATOM     20  N3  UNL A   1      28.317  31.841  52.417  1.00  0.00    +0.000 N 
BRANCH   20   19
ATOM     19  C14 UNL A   1      29.654  31.308  52.349  1.00  0.00    +0.000 C 
ATOM    127  H22 UNL A   1      30.316  32.109  52.093  1.00  0.00    +0.000 H 
ATOM    128  H23 UNL A   1      29.846  30.876  53.309  1.00  0.00    +0.000 H 
BRANCH   19   18
ATOM     18  C13 UNL A   1      29.869  30.176  51.330  1.00  0.00    +0.000 C 
ATOM    125  H20 UNL A   1      30.890  29.868  51.405  1.00  0.00    +0.000 H 
ATOM    126  H21 UNL A   1      29.144  29.434  51.593  1.00  0.00    +0.000 H 
BRANCH   18   17
ATOM     17  C12 UNL A   1      29.588  30.486  49.850  1.00  0.00    +0.000 C 
ATOM    123  H18 UNL A   1      29.671  31.545  49.721  1.00  0.00    +0.000 H 
ATOM    124  H19 UNL A   1      30.304  29.909  49.303  1.00  0.00    +0.000 H 
BRANCH   17   16
ATOM    121  H16 UNL A   1      27.666  29.627  50.106  1.00  0.00    +0.000 H 
ATOM    122  H17 UNL A   1      27.787  30.946  48.892  1.00  0.00    +0.000 H 
ATOM     16  C11 UNL A   1      28.223  30.058  49.300  1.00  0.00    +0.000 C 
BRANCH   16   15
ATOM    119  H14 UNL A   1      28.693  29.513  47.300  1.00  0.00    +0.000 H 
ATOM     15  C10 UNL A   1      28.245  29.044  48.151  1.00  0.00    +0.000 C 
ATOM    120  H15 UNL A   1      28.795  28.198  48.506  1.00  0.00    +0.000 H 
BRANCH   15   14
ATOM    118  H13 UNL A   1      26.245  28.482  48.599  1.00  0.00    +0.000 H 
ATOM    117  H12 UNL A   1      26.987  27.541  47.310  1.00  0.00    +0.000 H 
ATOM     14  C9  UNL A   1      26.873  28.518  47.733  1.00  0.00    +0.000 C 
BRANCH   14   13
ATOM    116  H11 UNL A   1      26.868  29.889  46.170  1.00  0.00    +0.000 H 
ATOM     13  N2  UNL A   1      26.256  29.386  46.755  1.00  0.00    +0.000 N 
BRANCH   13   11
ATOM     11  C8  UNL A   1      24.919  29.589  46.551  1.00  0.00    +0.000 C 
ATOM     12  O3  UNL A   1      24.185  28.608  46.691  1.00  0.00    +0.000 O 
BRANCH   11    8
ATOM    112  H7  UNL A   1      23.603  31.178  47.008  1.00  0.00    +0.000 H 
ATOM      8  C6  UNL A   1      24.336  30.991  46.251  1.00  0.00    +0.000 C 
BRANCH    8    7
ATOM    111  H6  UNL A   1      24.228  31.185  44.172  1.00  0.00    +0.000 H 
ATOM      7  N1  UNL A   1      23.647  31.048  44.955  1.00  0.00    +0.000 N 
BRANCH    7    5
ATOM      5  C5  UNL A   1      22.316  30.936  44.685  1.00  0.00    +0.000 C 
ATOM      6  O1  UNL A   1      21.752  29.896  45.035  1.00  0.00    +0.000 O 
BRANCH    5    4
ATOM      4  C4  UNL A   1      21.578  32.016  43.913  1.00  0.00    +0.000 C 
ATOM    109  H4  UNL A   1      22.211  32.353  43.119  1.00  0.00    +0.000 H 
ATOM    110  H5  UNL A   1      20.670  31.578  43.556  1.00  0.00    +0.000 H 
BRANCH    4    3
ATOM      2  C2  UNL A   1      19.936  33.539  45.234  1.00  0.00    +0.000 C 
ATOM      3  C3  UNL A   1      21.194  33.201  44.745  1.00  0.00    +0.000 C 
ATOM     98  N8  UNL A   1      20.065  34.702  45.994  1.00  0.00    +0.000 N 
ATOM    144  H39 UNL A   1      23.076  34.303  44.886  1.00  0.00    +0.000 H 
ATOM     86  C60 UNL A   1      22.080  34.231  45.148  1.00  0.00    +0.000 C 
ATOM     87  C61 UNL A   1      21.393  35.126  45.946  1.00  0.00    +0.000 C 
BRANCH    2    1
ATOM      1  C1  UNL A   1      18.629  32.883  44.915  1.00  0.00    +0.000 C 
ATOM    106  H1  UNL A   1      18.313  33.175  43.935  1.00  0.00    +0.000 H 
ATOM    107  H2  UNL A   1      17.894  33.184  45.632  1.00  0.00    +0.000 H 
ATOM    108  H3  UNL A   1      18.746  31.821  44.950  1.00  0.00    +0.000 H 
ENDBRANCH    2    1
BRANCH   87   88
ATOM     97  C68 UNL A   1      22.280  36.059  48.071  1.00  0.00    +0.000 C 
ATOM    145  H40 UNL A   1      21.910  37.645  45.142  1.00  0.00    +0.000 H 
ATOM    146  H41 UNL A   1      22.853  39.474  46.433  1.00  0.00    +0.000 H 
ATOM    150  H45 UNL A   1      23.051  36.972  49.815  1.00  0.00    +0.000 H 
ATOM    151  H46 UNL A   1      22.114  35.145  48.520  1.00  0.00    +0.000 H 
ATOM     88  C62 UNL A   1      21.966  36.236  46.719  1.00  0.00    +0.000 C 
ATOM     89  C63 UNL A   1      22.165  37.496  46.132  1.00  0.00    +0.000 C 
ATOM     90  C64 UNL A   1      22.704  38.553  46.872  1.00  0.00    +0.000 C 
ATOM     91  C65 UNL A   1      23.040  38.348  48.212  1.00  0.00    +0.000 C 
ATOM     96  C67 UNL A   1      22.818  37.110  48.819  1.00  0.00    +0.000 C 
BRANCH   91   92
ATOM     92  S1  UNL A   1      23.689  39.703  49.158  1.00  0.00    +0.000 S 
ATOM     94  O5  UNL A   1      22.731  40.008  50.189  1.00  0.00    +0.000 O 
ATOM     95  O6  UNL A   1      25.074  39.378  49.493  1.00  0.00    +0.000 O 
BRANCH   92   93
ATOM    149  H44 UNL A   1      22.936  40.957  47.309  1.00  0.00    +0.000 H 
ATOM    147  H42 UNL A   1      24.671  41.050  47.492  1.00  0.00    +0.000 H 
ATOM    148  H43 UNL A   1      23.631  41.978  48.545  1.00  0.00    +0.000 H 
ATOM     93  C66 UNL A   1      23.736  41.056  48.012  1.00  0.00    +0.000 C 
ENDBRANCH   92   93
ENDBRANCH   91   92
ENDBRANCH   87   88
BRANCH   98   99
ATOM     99  C69 UNL A   1      19.017  35.382  46.671  1.00  0.00    +0.000 C 
ATOM    100  C70 UNL A   1      18.809  35.143  48.038  1.00  0.00    +0.000 C 
ATOM    101  C71 UNL A   1      17.756  35.776  48.701  1.00  0.00    +0.000 C 
ATOM    102  C72 UNL A   1      16.906  36.629  47.999  1.00  0.00    +0.000 C 
ATOM    103  C73 UNL A   1      17.116  36.847  46.640  1.00  0.00    +0.000 C 
ATOM    104  F16 UNL A   1      16.283  37.651  45.966  1.00  0.00    +0.000 F 
ATOM    105  C74 UNL A   1      18.165  36.233  45.965  1.00  0.00    +0.000 C 
ATOM    152  H47 UNL A   1      19.433  34.502  48.551  1.00  0.00    +0.000 H 
ATOM    153  H48 UNL A   1      17.607  35.612  49.708  1.00  0.00    +0.000 H 
ATOM    154  H49 UNL A   1      16.125  37.097  48.484  1.00  0.00    +0.000 H 
ATOM    155  H50 UNL A   1      18.311  36.404  44.957  1.00  0.00    +0.000 H 
ENDBRANCH   98   99
ENDBRANCH    4    3
ENDBRANCH    5    4
ENDBRANCH    7    5
ENDBRANCH    8    7
BRANCH    8    9
ATOM      9  C7  UNL A   1      25.407  32.087  46.353  1.00  0.00    +0.000 C 
ATOM    114  H9  UNL A   1      26.257  31.658  46.839  1.00  0.00    +0.000 H 
ATOM    113  H8  UNL A   1      25.639  32.428  45.366  1.00  0.00    +0.000 H 
BRANCH    9   10
ATOM     10  O2  UNL A   1      24.993  33.204  47.132  1.00  0.00    +0.000 O 
ATOM    115  H10 UNL A   1      24.024  33.253  47.136  1.00  0.00    +0.000 H 
ENDBRANCH    9   10
ENDBRANCH    8    9
ENDBRANCH   11    8
ENDBRANCH   13   11
ENDBRANCH   14   13
ENDBRANCH   15   14
ENDBRANCH   16   15
ENDBRANCH   17   16
ENDBRANCH   18   17
ENDBRANCH   19   18
ENDBRANCH   20   19
ENDBRANCH   21   20
ENDBRANCH   23   21
ENDBRANCH   27   26
BRANCH   31   32
ATOM     33  C25 UNL A   1      22.839  25.443  58.554  1.00  0.00    +0.000 C 
ATOM     34  F1  UNL A   1      21.809  24.880  57.904  1.00  0.00    +0.000 F 
ATOM     35  C26 UNL A   1      22.588  26.488  59.444  1.00  0.00    +0.000 C 
ATOM     36  F2  UNL A   1      21.328  26.894  59.657  1.00  0.00    +0.000 F 
ATOM     37  C27 UNL A   1      23.634  27.111  60.110  1.00  0.00    +0.000 C 
ATOM     38  F3  UNL A   1      23.394  28.139  60.936  1.00  0.00    +0.000 F 
ATOM     39  C28 UNL A   1      24.925  26.643  59.948  1.00  0.00    +0.000 C 
ATOM     40  F4  UNL A   1      25.942  27.221  60.603  1.00  0.00    +0.000 F 
ATOM     41  C29 UNL A   1      25.168  25.556  59.116  1.00  0.00    +0.000 C 
ATOM     42  F5  UNL A   1      26.412  25.049  59.104  1.00  0.00    +0.000 F 
ATOM     32  C24 UNL A   1      24.139  24.974  58.346  1.00  0.00    +0.000 C 
ENDBRANCH   31   32
BRANCH   48   49
ATOM     49  C35 UNL A   1      28.614  22.724  59.820  1.00  0.00    +0.000 C 
ATOM     50  C36 UNL A   1      29.221  23.997  59.708  1.00  0.00    +0.000 C 
ATOM     51  F6  UNL A   1      29.330  24.627  58.530  1.00  0.00    +0.000 F 
ATOM     52  C37 UNL A   1      29.718  24.675  60.826  1.00  0.00    +0.000 C 
ATOM     53  F7  UNL A   1      30.353  25.848  60.675  1.00  0.00    +0.000 F 
ATOM     54  C38 UNL A   1      29.559  24.140  62.090  1.00  0.00    +0.000 C 
ATOM     55  F8  UNL A   1      30.023  24.793  63.165  1.00  0.00    +0.000 F 
ATOM     56  C39 UNL A   1      28.900  22.933  62.239  1.00  0.00    +0.000 C 
ATOM     57  F9  UNL A   1      28.692  22.429  63.463  1.00  0.00    +0.000 F 
ATOM     58  C40 UNL A   1      28.451  22.232  61.122  1.00  0.00    +0.000 C 
ATOM     59  F10 UNL A   1      27.836  21.056  61.317  1.00  0.00    +0.000 F 
ENDBRANCH   48   49
BRANCH   63   64
ATOM     65  C45 UNL A   1      33.688  21.136  57.140  1.00  0.00    +0.000 C 
ATOM     66  F11 UNL A   1      33.482  21.804  58.284  1.00  0.00    +0.000 F 
ATOM     67  C46 UNL A   1      34.601  20.070  57.247  1.00  0.00    +0.000 C 
ATOM     68  F12 UNL A   1      35.144  19.760  58.438  1.00  0.00    +0.000 F 
ATOM     69  C47 UNL A   1      34.879  19.293  56.150  1.00  0.00    +0.000 C 
ATOM     70  F13 UNL A   1      35.689  18.228  56.259  1.00  0.00    +0.000 F 
ATOM     71  C48 UNL A   1      34.272  19.616  54.945  1.00  0.00    +0.000 C 
ATOM     72  F14 UNL A   1      34.541  18.852  53.874  1.00  0.00    +0.000 F 
ATOM     73  C49 UNL A   1      33.326  20.671  54.842  1.00  0.00    +0.000 C 
ATOM     74  F15 UNL A   1      32.714  20.844  53.663  1.00  0.00    +0.000 F 
ATOM     64  C44 UNL A   1      32.951  21.455  55.941  1.00  0.00    +0.000 C 
ENDBRANCH   63   64
TORSDOF 26
ENDMDL
