MODEL 1
REMARK VINA RESULT:     -10.7      0.000      0.000
ROOT
ATOM     30  C25 UNL A   1      38.150  29.986  30.014  1.00  0.00    +0.000 C 
ATOM     31  C26 UNL A   1      38.429  30.488  31.403  1.00  0.00    +0.000 C 
ATOM     32  N4  UNL A   1      39.462  30.260  32.175  1.00  0.00    +0.000 N 
ATOM     33  C27 UNL A   1      39.242  30.999  33.329  1.00  0.00    +0.000 C 
ATOM     34  C28 UNL A   1      39.996  31.056  34.454  1.00  0.00    +0.000 C 
ATOM     46  C35 UNL A   1      41.215  30.317  34.650  1.00  0.00    +0.000 C 
ATOM     47  C36 UNL A   1      42.019  30.261  35.776  1.00  0.00    +0.000 C 
ATOM     48  C37 UNL A   1      43.116  29.441  35.489  1.00  0.00    +0.000 C 
ATOM     49  C38 UNL A   1      42.974  28.954  34.201  1.00  0.00    +0.000 C 
ATOM     50  N5  UNL A   1      41.806  29.502  33.697  1.00  0.00    +0.000 N 
ATOM     51  C39 UNL A   1      43.840  28.054  33.481  1.00  0.00    +0.000 C 
ATOM     63  C46 UNL A   1      43.624  27.611  32.218  1.00  0.00    +0.000 C 
ATOM     64  N6  UNL A   1      42.570  27.897  31.362  1.00  0.00    +0.000 N 
ATOM     65  C47 UNL A   1      42.817  27.241  30.254  1.00  0.00    +0.000 C 
ATOM     66  C48 UNL A   1      42.000  27.162  28.994  1.00  0.00    +0.000 C 
ATOM     78  C55 UNL A   1      40.826  27.819  28.929  1.00  0.00    +0.000 C 
ATOM     79  C56 UNL A   1      39.927  27.833  27.778  1.00  0.00    +0.000 C 
ATOM     80  C57 UNL A   1      38.880  28.627  28.051  1.00  0.00    +0.000 C 
ATOM     81  C58 UNL A   1      39.019  29.152  29.410  1.00  0.00    +0.000 C 
ATOM     82  N7  UNL A   1      40.198  28.611  29.858  1.00  0.00    +0.000 N 
ATOM     83  C59 UNL A   1      44.076  26.483  30.275  1.00  0.00    +0.000 C 
ATOM     84  C60 UNL A   1      44.509  26.713  31.507  1.00  0.00    +0.000 C 
ATOM     85  C61 UNL A   1      38.000  31.718  33.140  1.00  0.00    +0.000 C 
ATOM     86  C62 UNL A   1      37.426  31.388  31.992  1.00  0.00    +0.000 C 
ATOM    119  H28 UNL A   1      41.840  30.742  36.672  1.00  0.00    +0.000 H 
ATOM    120  H29 UNL A   1      43.899  29.236  36.131  1.00  0.00    +0.000 H 
ATOM    121  H30 UNL A   1      41.448  29.338  32.794  1.00  0.00    +0.000 H 
ATOM    122  H31 UNL A   1      40.072  27.314  26.898  1.00  0.00    +0.000 H 
ATOM    123  H32 UNL A   1      38.102  28.834  27.406  1.00  0.00    +0.000 H 
ATOM    124  H33 UNL A   1      40.559  28.775  30.758  1.00  0.00    +0.000 H 
ATOM    125  H34 UNL A   1      44.510  25.919  29.527  1.00  0.00    +0.000 H 
ATOM    126  H35 UNL A   1      45.368  26.303  31.908  1.00  0.00    +0.000 H 
ATOM    127  H36 UNL A   1      37.613  32.399  33.811  1.00  0.00    +0.000 H 
ATOM    128  H37 UNL A   1      36.514  31.684  31.612  1.00  0.00    +0.000 H 
ENDROOT
BRANCH   30   29
ATOM    129  H38 UNL A   1      35.991  28.576  29.290  1.00  0.00    +0.000 H 
ATOM    130  H39 UNL A   1      34.074  29.297  27.994  1.00  0.00    +0.000 H 
ATOM    117  H26 UNL A   1      35.595  33.219  27.913  1.00  0.00    +0.000 H 
ATOM    118  H27 UNL A   1      37.609  32.457  29.036  1.00  0.00    +0.000 H 
ATOM     87  C63 UNL A   1      35.919  29.557  28.979  1.00  0.00    +0.000 C 
ATOM     88  C64 UNL A   1      34.798  29.980  28.268  1.00  0.00    +0.000 C 
ATOM     26  C21 UNL A   1      34.652  31.327  27.928  1.00  0.00    +0.000 C 
ATOM     27  C22 UNL A   1      35.684  32.231  28.199  1.00  0.00    +0.000 C 
ATOM     28  C23 UNL A   1      36.837  31.795  28.856  1.00  0.00    +0.000 C 
ATOM     29  C24 UNL A   1      36.953  30.461  29.275  1.00  0.00    +0.000 C 
BRANCH   26   24
ATOM     25  O2  UNL A   1      33.047  32.959  27.429  1.00  0.00    +0.000 O 
ATOM     24  C20 UNL A   1      33.440  31.816  27.231  1.00  0.00    +0.000 C 
BRANCH   24   23
ATOM    116  H25 UNL A   1      33.014  31.083  25.416  1.00  0.00    +0.000 H 
ATOM     23  N3  UNL A   1      32.760  30.997  26.363  1.00  0.00    +0.000 N 
BRANCH   23   22
ATOM    114  H23 UNL A   1      31.627  29.905  27.701  1.00  0.00    +0.000 H 
ATOM    115  H24 UNL A   1      30.805  30.383  26.212  1.00  0.00    +0.000 H 
ATOM     22  C19 UNL A   1      31.716  30.022  26.641  1.00  0.00    +0.000 C 
BRANCH   22   21
ATOM    113  H22 UNL A   1      33.018  28.729  25.628  1.00  0.00    +0.000 H 
ATOM     21  C18 UNL A   1      32.025  28.662  26.020  1.00  0.00    +0.000 C 
ATOM    112  H21 UNL A   1      31.287  28.464  25.269  1.00  0.00    +0.000 H 
BRANCH   21   20
ATOM     20  C17 UNL A   1      32.029  27.488  27.004  1.00  0.00    +0.000 C 
ATOM    110  H19 UNL A   1      32.873  27.604  27.651  1.00  0.00    +0.000 H 
ATOM    111  H20 UNL A   1      31.086  27.528  27.509  1.00  0.00    +0.000 H 
BRANCH   20   19
ATOM     19  C16 UNL A   1      32.106  26.090  26.374  1.00  0.00    +0.000 C 
ATOM    108  H17 UNL A   1      31.720  25.387  27.082  1.00  0.00    +0.000 H 
ATOM    109  H18 UNL A   1      31.539  26.143  25.469  1.00  0.00    +0.000 H 
BRANCH   19   18
ATOM     18  C15 UNL A   1      33.510  25.631  25.967  1.00  0.00    +0.000 C 
ATOM    107  H16 UNL A   1      34.203  26.181  26.568  1.00  0.00    +0.000 H 
ATOM    106  H15 UNL A   1      33.635  25.815  24.920  1.00  0.00    +0.000 H 
BRANCH   18   17
ATOM     17  C14 UNL A   1      33.779  24.147  26.228  1.00  0.00    +0.000 C 
ATOM    105  H14 UNL A   1      33.150  23.834  27.036  1.00  0.00    +0.000 H 
ATOM    104  H13 UNL A   1      34.813  24.021  26.473  1.00  0.00    +0.000 H 
BRANCH   17   16
ATOM    103  H12 UNL A   1      32.954  22.514  25.279  1.00  0.00    +0.000 H 
ATOM     16  N2  UNL A   1      33.466  23.329  25.075  1.00  0.00    +0.000 N 
BRANCH   16   14
ATOM     14  C13 UNL A   1      33.761  23.497  23.756  1.00  0.00    +0.000 C 
ATOM     15  O1  UNL A   1      34.961  23.527  23.459  1.00  0.00    +0.000 O 
BRANCH   14   12
ATOM     99  H8  UNL A   1      32.028  22.836  22.775  1.00  0.00    +0.000 H 
ATOM     12  C11 UNL A   1      32.696  23.665  22.662  1.00  0.00    +0.000 C 
BRANCH   12   11
ATOM     97  H6  UNL A   1      28.764  25.801  23.991  1.00  0.00    +0.000 H 
ATOM     98  H7  UNL A   1      30.216  23.881  23.863  1.00  0.00    +0.000 H 
ATOM    131  H40 UNL A   1      33.145  26.228  21.997  1.00  0.00    +0.000 H 
ATOM    132  H41 UNL A   1      31.748  28.178  22.251  1.00  0.00    +0.000 H 
ATOM      8  C7  UNL A   1      30.111  27.170  23.121  1.00  0.00    +0.000 C 
ATOM      9  C8  UNL A   1      29.703  25.906  23.576  1.00  0.00    +0.000 C 
ATOM     10  C9  UNL A   1      30.536  24.785  23.482  1.00  0.00    +0.000 C 
ATOM     11  C10 UNL A   1      31.792  24.869  22.879  1.00  0.00    +0.000 C 
ATOM     89  C65 UNL A   1      32.214  26.130  22.433  1.00  0.00    +0.000 C 
ATOM     90  C66 UNL A   1      31.397  27.261  22.567  1.00  0.00    +0.000 C 
BRANCH    8    7
ATOM      3  C3  UNL A   1      28.832  30.746  23.461  1.00  0.00    +0.000 C 
ATOM      4  C4  UNL A   1      27.472  30.484  23.342  1.00  0.00    +0.000 C 
ATOM      5  N1  UNL A   1      26.946  29.252  23.164  1.00  0.00    +0.000 N 
ATOM    133  H42 UNL A   1      30.719  29.802  23.493  1.00  0.00    +0.000 H 
ATOM      7  C6  UNL A   1      29.215  28.343  23.216  1.00  0.00    +0.000 C 
ATOM      6  C5  UNL A   1      27.827  28.224  23.113  1.00  0.00    +0.000 C 
ATOM     91  C67 UNL A   1      29.702  29.648  23.400  1.00  0.00    +0.000 C 
ATOM     95  H4  UNL A   1      26.821  31.283  23.393  1.00  0.00    +0.000 H 
ATOM     96  H5  UNL A   1      27.441  27.275  22.988  1.00  0.00    +0.000 H 
BRANCH    3    2
ATOM      2  C2  UNL A   1      29.293  32.117  23.699  1.00  0.00    +0.000 C 
ATOM     94  H3  UNL A   1      29.927  32.281  24.496  1.00  0.00    +0.000 H 
BRANCH    2    1
ATOM      1  C1  UNL A   1      28.944  33.170  22.949  1.00  0.00    +0.000 C 
ATOM     92  H1  UNL A   1      28.145  33.098  22.299  1.00  0.00    +0.000 H 
ATOM     93  H2  UNL A   1      29.474  34.053  23.020  1.00  0.00    +0.000 H 
ENDBRANCH    2    1
ENDBRANCH    3    2
ENDBRANCH    8    7
ENDBRANCH   12   11
BRANCH   12   13
ATOM    101  H10 UNL A   1      33.454  22.424  21.093  1.00  0.00    +0.000 H 
ATOM    100  H9  UNL A   1      32.470  23.757  20.537  1.00  0.00    +0.000 H 
ATOM     13  C12 UNL A   1      33.219  23.458  21.239  1.00  0.00    +0.000 C 
ATOM    102  H11 UNL A   1      34.100  24.048  21.095  1.00  0.00    +0.000 H 
ENDBRANCH   12   13
ENDBRANCH   14   12
ENDBRANCH   16   14
ENDBRANCH   17   16
ENDBRANCH   18   17
ENDBRANCH   19   18
ENDBRANCH   20   19
ENDBRANCH   21   20
ENDBRANCH   22   21
ENDBRANCH   23   22
ENDBRANCH   24   23
ENDBRANCH   26   24
ENDBRANCH   30   29
BRANCH   34   35
ATOM     35  C29 UNL A   1      39.519  31.949  35.562  1.00  0.00    +0.000 C 
ATOM     36  C30 UNL A   1      38.588  31.504  36.512  1.00  0.00    +0.000 C 
ATOM     37  F1  UNL A   1      38.069  30.270  36.423  1.00  0.00    +0.000 F 
ATOM     38  C31 UNL A   1      38.156  32.341  37.538  1.00  0.00    +0.000 C 
ATOM     39  F2  UNL A   1      37.230  31.911  38.405  1.00  0.00    +0.000 F 
ATOM     40  C32 UNL A   1      38.670  33.624  37.653  1.00  0.00    +0.000 C 
ATOM     41  F3  UNL A   1      38.256  34.427  38.643  1.00  0.00    +0.000 F 
ATOM     42  C33 UNL A   1      39.608  34.076  36.738  1.00  0.00    +0.000 C 
ATOM     43  F4  UNL A   1      40.115  35.312  36.855  1.00  0.00    +0.000 F 
ATOM     44  C34 UNL A   1      40.021  33.252  35.694  1.00  0.00    +0.000 C 
ATOM     45  F5  UNL A   1      40.919  33.724  34.816  1.00  0.00    +0.000 F 
ENDBRANCH   34   35
BRANCH   51   52
ATOM     52  C40 UNL A   1      45.063  27.550  34.185  1.00  0.00    +0.000 C 
ATOM     53  C41 UNL A   1      46.281  28.243  34.128  1.00  0.00    +0.000 C 
ATOM     54  F6  UNL A   1      46.389  29.358  33.391  1.00  0.00    +0.000 F 
ATOM     55  C42 UNL A   1      47.405  27.770  34.802  1.00  0.00    +0.000 C 
ATOM     56  F7  UNL A   1      48.569  28.424  34.699  1.00  0.00    +0.000 F 
ATOM     57  C43 UNL A   1      47.324  26.616  35.566  1.00  0.00    +0.000 C 
ATOM     58  F8  UNL A   1      48.404  26.164  36.217  1.00  0.00    +0.000 F 
ATOM     59  C44 UNL A   1      46.124  25.923  35.649  1.00  0.00    +0.000 C 
ATOM     60  F9  UNL A   1      46.042  24.813  36.395  1.00  0.00    +0.000 F 
ATOM     61  C45 UNL A   1      45.007  26.379  34.956  1.00  0.00    +0.000 C 
ATOM     62  F10 UNL A   1      43.863  25.683  35.045  1.00  0.00    +0.000 F 
ENDBRANCH   51   52
BRANCH   66   67
ATOM     67  C49 UNL A   1      42.456  26.346  27.841  1.00  0.00    +0.000 C 
ATOM     68  C50 UNL A   1      42.013  25.026  27.678  1.00  0.00    +0.000 C 
ATOM     69  F11 UNL A   1      41.187  24.481  28.583  1.00  0.00    +0.000 F 
ATOM     70  C51 UNL A   1      42.447  24.248  26.607  1.00  0.00    +0.000 C 
ATOM     71  F12 UNL A   1      42.039  22.977  26.498  1.00  0.00    +0.000 F 
ATOM     72  C52 UNL A   1      43.310  24.784  25.664  1.00  0.00    +0.000 C 
ATOM     73  F13 UNL A   1      43.724  24.038  24.631  1.00  0.00    +0.000 F 
ATOM     74  C53 UNL A   1      43.750  26.093  25.797  1.00  0.00    +0.000 C 
ATOM     75  F14 UNL A   1      44.575  26.618  24.880  1.00  0.00    +0.000 F 
ATOM     76  C54 UNL A   1      43.336  26.863  26.881  1.00  0.00    +0.000 C 
ATOM     77  F15 UNL A   1      43.784  28.123  26.990  1.00  0.00    +0.000 F 
ENDBRANCH   66   67
TORSDOF 20
ENDMDL
MODEL 2
REMARK VINA RESULT:     -10.7      4.488     10.038
ROOT
ATOM     30  C25 UNL A   1      41.480  26.392  27.581  1.00  0.00    +0.000 C 
ATOM     31  C26 UNL A   1      42.894  26.689  27.167  1.00  0.00    +0.000 C 
ATOM     32  N4  UNL A   1      43.632  27.740  27.430  1.00  0.00    +0.000 N 
ATOM     33  C27 UNL A   1      44.868  27.486  26.852  1.00  0.00    +0.000 C 
ATOM     34  C28 UNL A   1      45.957  28.291  26.798  1.00  0.00    +0.000 C 
ATOM     46  C35 UNL A   1      46.015  29.616  27.358  1.00  0.00    +0.000 C 
ATOM     47  C36 UNL A   1      47.050  30.533  27.304  1.00  0.00    +0.000 C 
ATOM     48  C37 UNL A   1      46.665  31.671  28.021  1.00  0.00    +0.000 C 
ATOM     49  C38 UNL A   1      45.375  31.480  28.485  1.00  0.00    +0.000 C 
ATOM     50  N5  UNL A   1      44.989  30.214  28.075  1.00  0.00    +0.000 N 
ATOM     51  C39 UNL A   1      44.552  32.385  29.248  1.00  0.00    +0.000 C 
ATOM     63  C46 UNL A   1      43.285  32.128  29.657  1.00  0.00    +0.000 C 
ATOM     64  N6  UNL A   1      42.515  30.993  29.446  1.00  0.00    +0.000 N 
ATOM     65  C47 UNL A   1      41.370  31.219  30.044  1.00  0.00    +0.000 C 
ATOM     66  C48 UNL A   1      40.149  30.344  30.120  1.00  0.00    +0.000 C 
ATOM     78  C55 UNL A   1      40.153  29.152  29.492  1.00  0.00    +0.000 C 
ATOM     79  C56 UNL A   1      39.045  28.201  29.476  1.00  0.00    +0.000 C 
ATOM     80  C57 UNL A   1      39.420  27.106  28.796  1.00  0.00    +0.000 C 
ATOM     81  C58 UNL A   1      40.784  27.293  28.301  1.00  0.00    +0.000 C 
ATOM     82  N7  UNL A   1      41.135  28.540  28.754  1.00  0.00    +0.000 N 
ATOM     83  C59 UNL A   1      41.297  32.518  30.729  1.00  0.00    +0.000 C 
ATOM     84  C60 UNL A   1      42.476  33.046  30.430  1.00  0.00    +0.000 C 
ATOM     85  C61 UNL A   1      44.798  26.166  26.264  1.00  0.00    +0.000 C 
ATOM     86  C62 UNL A   1      43.580  25.657  26.375  1.00  0.00    +0.000 C 
ATOM    119  H28 UNL A   1      47.952  30.399  26.819  1.00  0.00    +0.000 H 
ATOM    120  H29 UNL A   1      47.245  32.511  28.176  1.00  0.00    +0.000 H 
ATOM    121  H30 UNL A   1      44.116  29.800  28.265  1.00  0.00    +0.000 H 
ATOM    122  H31 UNL A   1      38.122  28.348  29.914  1.00  0.00    +0.000 H 
ATOM    123  H32 UNL A   1      38.839  26.266  28.646  1.00  0.00    +0.000 H 
ATOM    124  H33 UNL A   1      42.007  28.956  28.568  1.00  0.00    +0.000 H 
ATOM    125  H34 UNL A   1      40.530  32.914  31.294  1.00  0.00    +0.000 H 
ATOM    126  H35 UNL A   1      42.777  33.992  30.712  1.00  0.00    +0.000 H 
ATOM    127  H36 UNL A   1      45.593  25.684  25.816  1.00  0.00    +0.000 H 
ATOM    128  H37 UNL A   1      43.209  24.768  26.004  1.00  0.00    +0.000 H 
ENDROOT
BRANCH   30   29
ATOM    129  H38 UNL A   1      39.483  25.877  25.872  1.00  0.00    +0.000 H 
ATOM    130  H39 UNL A   1      38.395  23.762  25.405  1.00  0.00    +0.000 H 
ATOM    117  H26 UNL A   1      41.104  21.798  27.955  1.00  0.00    +0.000 H 
ATOM    118  H27 UNL A   1      42.065  23.938  28.578  1.00  0.00    +0.000 H 
ATOM     87  C63 UNL A   1      39.814  25.015  26.333  1.00  0.00    +0.000 C 
ATOM     88  C64 UNL A   1      39.213  23.794  26.033  1.00  0.00    +0.000 C 
ATOM     26  C21 UNL A   1      39.719  22.612  26.581  1.00  0.00    +0.000 C 
ATOM     27  C22 UNL A   1      40.755  22.666  27.520  1.00  0.00    +0.000 C 
ATOM     28  C23 UNL A   1      41.316  23.897  27.868  1.00  0.00    +0.000 C 
ATOM     29  C24 UNL A   1      40.868  25.079  27.258  1.00  0.00    +0.000 C 
BRANCH   26   24
ATOM     25  O2  UNL A   1      39.859  20.301  26.226  1.00  0.00    +0.000 O 
ATOM     24  C20 UNL A   1      39.144  21.295  26.229  1.00  0.00    +0.000 C 
BRANCH   24   23
ATOM    116  H25 UNL A   1      37.194  21.180  26.676  1.00  0.00    +0.000 H 
ATOM     23  N3  UNL A   1      37.812  21.181  25.910  1.00  0.00    +0.000 N 
BRANCH   23   22
ATOM    114  H23 UNL A   1      37.726  21.660  23.903  1.00  0.00    +0.000 H 
ATOM    115  H24 UNL A   1      37.199  20.028  24.323  1.00  0.00    +0.000 H 
ATOM     22  C19 UNL A   1      37.184  21.061  24.603  1.00  0.00    +0.000 C 
BRANCH   22   21
ATOM    113  H22 UNL A   1      35.430  21.528  25.651  1.00  0.00    +0.000 H 
ATOM     21  C18 UNL A   1      35.729  21.523  24.624  1.00  0.00    +0.000 C 
ATOM    112  H21 UNL A   1      35.157  20.849  24.020  1.00  0.00    +0.000 H 
BRANCH   21   20
ATOM     20  C17 UNL A   1      35.495  22.944  24.100  1.00  0.00    +0.000 C 
ATOM    110  H19 UNL A   1      36.373  23.248  23.570  1.00  0.00    +0.000 H 
ATOM    111  H20 UNL A   1      34.617  22.889  23.490  1.00  0.00    +0.000 H 
BRANCH   20   19
ATOM     19  C16 UNL A   1      35.196  24.006  25.168  1.00  0.00    +0.000 C 
ATOM    108  H17 UNL A   1      34.568  23.561  25.909  1.00  0.00    +0.000 H 
ATOM    109  H18 UNL A   1      36.146  24.323  25.543  1.00  0.00    +0.000 H 
BRANCH   19   18
ATOM     18  C15 UNL A   1      34.500  25.272  24.655  1.00  0.00    +0.000 C 
ATOM    107  H16 UNL A   1      33.754  24.955  23.958  1.00  0.00    +0.000 H 
ATOM    106  H15 UNL A   1      35.239  25.906  24.209  1.00  0.00    +0.000 H 
BRANCH   18   17
ATOM     17  C14 UNL A   1      33.779  26.069  25.744  1.00  0.00    +0.000 C 
ATOM    105  H14 UNL A   1      34.466  26.788  26.140  1.00  0.00    +0.000 H 
ATOM    104  H13 UNL A   1      33.446  25.393  26.505  1.00  0.00    +0.000 H 
BRANCH   17   16
ATOM    103  H12 UNL A   1      32.585  27.731  25.492  1.00  0.00    +0.000 H 
ATOM     16  N2  UNL A   1      32.634  26.786  25.221  1.00  0.00    +0.000 N 
BRANCH   16   14
ATOM     14  C13 UNL A   1      31.614  26.374  24.418  1.00  0.00    +0.000 C 
ATOM     15  O1  UNL A   1      31.488  26.967  23.340  1.00  0.00    +0.000 O 
BRANCH   14   12
ATOM     99  H8  UNL A   1      29.815  25.338  24.113  1.00  0.00    +0.000 H 
ATOM     12  C11 UNL A   1      30.636  25.252  24.795  1.00  0.00    +0.000 C 
BRANCH   12   11
ATOM     97  H6  UNL A   1      32.202  21.814  22.054  1.00  0.00    +0.000 H 
ATOM     98  H7  UNL A   1      31.542  24.098  22.453  1.00  0.00    +0.000 H 
ATOM    131  H40 UNL A   1      31.016  23.230  26.520  1.00  0.00    +0.000 H 
ATOM    132  H41 UNL A   1      31.810  20.983  26.146  1.00  0.00    +0.000 H 
ATOM      8  C7  UNL A   1      32.056  21.176  24.059  1.00  0.00    +0.000 C 
ATOM      9  C8  UNL A   1      31.964  22.109  23.015  1.00  0.00    +0.000 C 
ATOM     10  C9  UNL A   1      31.559  23.430  23.240  1.00  0.00    +0.000 C 
ATOM     11  C10 UNL A   1      31.176  23.859  24.513  1.00  0.00    +0.000 C 
ATOM     89  C65 UNL A   1      31.276  22.938  25.565  1.00  0.00    +0.000 C 
ATOM     90  C66 UNL A   1      31.724  21.628  25.345  1.00  0.00    +0.000 C 
BRANCH    8    7
ATOM      3  C3  UNL A   1      33.399  17.640  24.541  1.00  0.00    +0.000 C 
ATOM      4  C4  UNL A   1      33.189  17.169  23.249  1.00  0.00    +0.000 C 
ATOM      5  N1  UNL A   1      32.653  17.902  22.248  1.00  0.00    +0.000 N 
ATOM    133  H42 UNL A   1      33.184  19.357  25.748  1.00  0.00    +0.000 H 
ATOM      7  C6  UNL A   1      32.473  19.781  23.804  1.00  0.00    +0.000 C 
ATOM      6  C5  UNL A   1      32.320  19.180  22.551  1.00  0.00    +0.000 C 
ATOM     91  C67 UNL A   1      33.036  18.968  24.803  1.00  0.00    +0.000 C 
ATOM     95  H4  UNL A   1      33.460  16.196  23.042  1.00  0.00    +0.000 H 
ATOM     96  H5  UNL A   1      31.919  19.757  21.795  1.00  0.00    +0.000 H 
BRANCH    3    2
ATOM      2  C2  UNL A   1      34.031  16.773  25.540  1.00  0.00    +0.000 C 
ATOM     94  H3  UNL A   1      33.691  16.830  26.512  1.00  0.00    +0.000 H 
BRANCH    2    1
ATOM      1  C1  UNL A   1      35.023  15.914  25.272  1.00  0.00    +0.000 C 
ATOM     92  H1  UNL A   1      35.564  16.008  24.398  1.00  0.00    +0.000 H 
ATOM     93  H2  UNL A   1      35.245  15.158  25.939  1.00  0.00    +0.000 H 
ENDBRANCH    2    1
ENDBRANCH    3    2
ENDBRANCH    8    7
ENDBRANCH   12   11
BRANCH   12   13
ATOM    101  H10 UNL A   1      30.660  25.793  26.865  1.00  0.00    +0.000 H 
ATOM    100  H9  UNL A   1      29.164  26.173  26.045  1.00  0.00    +0.000 H 
ATOM     13  C12 UNL A   1      29.945  25.450  26.147  1.00  0.00    +0.000 C 
ATOM    102  H11 UNL A   1      29.530  24.519  26.473  1.00  0.00    +0.000 H 
ENDBRANCH   12   13
ENDBRANCH   14   12
ENDBRANCH   16   14
ENDBRANCH   17   16
ENDBRANCH   18   17
ENDBRANCH   19   18
ENDBRANCH   20   19
ENDBRANCH   21   20
ENDBRANCH   22   21
ENDBRANCH   23   22
ENDBRANCH   24   23
ENDBRANCH   26   24
ENDBRANCH   30   29
BRANCH   34   35
ATOM     35  C29 UNL A   1      47.177  27.760  26.105  1.00  0.00    +0.000 C 
ATOM     36  C30 UNL A   1      47.308  27.810  24.709  1.00  0.00    +0.000 C 
ATOM     37  F1  UNL A   1      46.314  28.304  23.956  1.00  0.00    +0.000 F 
ATOM     38  C31 UNL A   1      48.446  27.316  24.078  1.00  0.00    +0.000 C 
ATOM     39  F2  UNL A   1      48.529  27.330  22.741  1.00  0.00    +0.000 F 
ATOM     40  C32 UNL A   1      49.489  26.794  24.830  1.00  0.00    +0.000 C 
ATOM     41  F3  UNL A   1      50.586  26.323  24.221  1.00  0.00    +0.000 F 
ATOM     42  C33 UNL A   1      49.390  26.755  26.212  1.00  0.00    +0.000 C 
ATOM     43  F4  UNL A   1      50.402  26.263  26.941  1.00  0.00    +0.000 F 
ATOM     44  C34 UNL A   1      48.241  27.222  26.845  1.00  0.00    +0.000 C 
ATOM     45  F5  UNL A   1      48.170  27.158  28.183  1.00  0.00    +0.000 F 
ENDBRANCH   34   35
BRANCH   51   52
ATOM     52  C40 UNL A   1      45.128  33.723  29.600  1.00  0.00    +0.000 C 
ATOM     53  C41 UNL A   1      45.866  33.918  30.776  1.00  0.00    +0.000 C 
ATOM     54  F6  UNL A   1      46.031  32.909  31.645  1.00  0.00    +0.000 F 
ATOM     55  C42 UNL A   1      46.410  35.163  31.081  1.00  0.00    +0.000 C 
ATOM     56  F7  UNL A   1      47.076  35.339  32.231  1.00  0.00    +0.000 F 
ATOM     57  C43 UNL A   1      46.250  36.226  30.205  1.00  0.00    +0.000 C 
ATOM     58  F8  UNL A   1      46.777  37.423  30.498  1.00  0.00    +0.000 F 
ATOM     59  C44 UNL A   1      45.535  36.052  29.029  1.00  0.00    +0.000 C 
ATOM     60  F9  UNL A   1      45.389  37.075  28.176  1.00  0.00    +0.000 F 
ATOM     61  C45 UNL A   1      44.970  34.815  28.734  1.00  0.00    +0.000 C 
ATOM     62  F10 UNL A   1      44.274  34.678  27.593  1.00  0.00    +0.000 F 
ENDBRANCH   51   52
BRANCH   66   67
ATOM     67  C49 UNL A   1      38.936  30.792  30.849  1.00  0.00    +0.000 C 
ATOM     68  C50 UNL A   1      38.806  30.573  32.227  1.00  0.00    +0.000 C 
ATOM     69  F11 UNL A   1      39.775  29.931  32.896  1.00  0.00    +0.000 F 
ATOM     70  C51 UNL A   1      37.665  30.978  32.916  1.00  0.00    +0.000 C 
ATOM     71  F12 UNL A   1      37.550  30.720  34.226  1.00  0.00    +0.000 F 
ATOM     72  C52 UNL A   1      36.645  31.634  32.245  1.00  0.00    +0.000 C 
ATOM     73  F13 UNL A   1      35.549  32.028  32.908  1.00  0.00    +0.000 F 
ATOM     74  C53 UNL A   1      36.757  31.875  30.884  1.00  0.00    +0.000 C 
ATOM     75  F14 UNL A   1      35.778  32.521  30.235  1.00  0.00    +0.000 F 
ATOM     76  C54 UNL A   1      37.887  31.449  30.189  1.00  0.00    +0.000 C 
ATOM     77  F15 UNL A   1      37.966  31.687  28.872  1.00  0.00    +0.000 F 
ENDBRANCH   66   67
TORSDOF 20
ENDMDL
MODEL 3
REMARK VINA RESULT:     -10.4      2.575      3.875
ROOT
ATOM     30  C25 UNL A   1      39.817  28.848  29.417  1.00  0.00    +0.000 C 
ATOM     31  C26 UNL A   1      40.641  29.747  30.295  1.00  0.00    +0.000 C 
ATOM     32  N4  UNL A   1      41.884  29.612  30.686  1.00  0.00    +0.000 N 
ATOM     33  C27 UNL A   1      42.167  30.741  31.443  1.00  0.00    +0.000 C 
ATOM     34  C28 UNL A   1      43.304  31.047  32.114  1.00  0.00    +0.000 C 
ATOM     46  C35 UNL A   1      44.470  30.204  32.159  1.00  0.00    +0.000 C 
ATOM     47  C36 UNL A   1      45.648  30.397  32.859  1.00  0.00    +0.000 C 
ATOM     48  C37 UNL A   1      46.509  29.333  32.569  1.00  0.00    +0.000 C 
ATOM     49  C38 UNL A   1      45.851  28.456  31.722  1.00  0.00    +0.000 C 
ATOM     50  N5  UNL A   1      44.603  29.005  31.475  1.00  0.00    +0.000 N 
ATOM     51  C39 UNL A   1      46.325  27.210  31.176  1.00  0.00    +0.000 C 
ATOM     63  C46 UNL A   1      45.611  26.397  30.358  1.00  0.00    +0.000 C 
ATOM     64  N6  UNL A   1      44.319  26.559  29.880  1.00  0.00    +0.000 N 
ATOM     65  C47 UNL A   1      44.082  25.517  29.120  1.00  0.00    +0.000 C 
ATOM     66  C48 UNL A   1      42.833  25.155  28.365  1.00  0.00    +0.000 C 
ATOM     78  C55 UNL A   1      41.757  25.961  28.449  1.00  0.00    +0.000 C 
ATOM     79  C56 UNL A   1      40.479  25.739  27.777  1.00  0.00    +0.000 C 
ATOM     80  C57 UNL A   1      39.659  26.766  28.049  1.00  0.00    +0.000 C 
ATOM     81  C58 UNL A   1      40.342  27.702  28.941  1.00  0.00    +0.000 C 
ATOM     82  N7  UNL A   1      41.579  27.138  29.133  1.00  0.00    +0.000 N 
ATOM     83  C59 UNL A   1      45.215  24.586  29.010  1.00  0.00    +0.000 C 
ATOM     84  C60 UNL A   1      46.107  25.151  29.812  1.00  0.00    +0.000 C 
ATOM     85  C61 UNL A   1      40.983  31.573  31.420  1.00  0.00    +0.000 C 
ATOM     86  C62 UNL A   1      39.990  30.974  30.778  1.00  0.00    +0.000 C 
ATOM    119  H28 UNL A   1      45.856  31.190  33.486  1.00  0.00    +0.000 H 
ATOM    120  H29 UNL A   1      47.471  29.220  32.926  1.00  0.00    +0.000 H 
ATOM    121  H30 UNL A   1      43.913  28.603  30.900  1.00  0.00    +0.000 H 
ATOM    122  H31 UNL A   1      40.245  24.924  27.190  1.00  0.00    +0.000 H 
ATOM    123  H32 UNL A   1      38.699  26.877  27.686  1.00  0.00    +0.000 H 
ATOM    124  H33 UNL A   1      42.271  27.538  29.706  1.00  0.00    +0.000 H 
ATOM    125  H34 UNL A   1      45.295  23.721  28.453  1.00  0.00    +0.000 H 
ATOM    126  H35 UNL A   1      47.035  24.752  30.022  1.00  0.00    +0.000 H 
ATOM    127  H36 UNL A   1      40.919  32.509  31.848  1.00  0.00    +0.000 H 
ATOM    128  H37 UNL A   1      39.015  31.287  30.650  1.00  0.00    +0.000 H 
ENDROOT
BRANCH   30   29
ATOM    129  H38 UNL A   1      39.028  29.888  27.078  1.00  0.00    +0.000 H 
ATOM    130  H39 UNL A   1      36.822  30.654  26.427  1.00  0.00    +0.000 H 
ATOM    117  H26 UNL A   1      35.271  29.339  30.109  1.00  0.00    +0.000 H 
ATOM    118  H27 UNL A   1      37.511  28.756  30.842  1.00  0.00    +0.000 H 
ATOM     87  C63 UNL A   1      38.236  29.791  27.732  1.00  0.00    +0.000 C 
ATOM     88  C64 UNL A   1      36.961  30.195  27.341  1.00  0.00    +0.000 C 
ATOM     26  C21 UNL A   1      35.868  29.979  28.186  1.00  0.00    +0.000 C 
ATOM     27  C22 UNL A   1      36.071  29.463  29.470  1.00  0.00    +0.000 C 
ATOM     28  C23 UNL A   1      37.359  29.116  29.886  1.00  0.00    +0.000 C 
ATOM     29  C24 UNL A   1      38.447  29.252  29.011  1.00  0.00    +0.000 C 
BRANCH   26   24
ATOM     25  O2  UNL A   1      34.043  31.441  28.051  1.00  0.00    +0.000 O 
ATOM     24  C20 UNL A   1      34.494  30.337  27.770  1.00  0.00    +0.000 C 
BRANCH   24   23
ATOM    116  H25 UNL A   1      32.786  29.708  26.931  1.00  0.00    +0.000 H 
ATOM     23  N3  UNL A   1      33.724  29.441  27.068  1.00  0.00    +0.000 N 
BRANCH   23   22
ATOM    114  H23 UNL A   1      34.583  28.321  25.560  1.00  0.00    +0.000 H 
ATOM    115  H24 UNL A   1      34.742  27.661  27.191  1.00  0.00    +0.000 H 
ATOM     22  C19 UNL A   1      34.094  28.155  26.498  1.00  0.00    +0.000 C 
BRANCH   22   21
ATOM    113  H22 UNL A   1      32.496  27.517  25.302  1.00  0.00    +0.000 H 
ATOM     21  C18 UNL A   1      32.879  27.260  26.267  1.00  0.00    +0.000 C 
ATOM    112  H21 UNL A   1      32.181  27.437  27.060  1.00  0.00    +0.000 H 
BRANCH   21   20
ATOM     20  C17 UNL A   1      33.181  25.759  26.226  1.00  0.00    +0.000 C 
ATOM    110  H19 UNL A   1      33.331  25.426  27.231  1.00  0.00    +0.000 H 
ATOM    111  H20 UNL A   1      32.341  25.306  25.740  1.00  0.00    +0.000 H 
BRANCH   20   19
ATOM     19  C16 UNL A   1      34.411  25.348  25.404  1.00  0.00    +0.000 C 
ATOM    108  H17 UNL A   1      34.178  25.491  24.369  1.00  0.00    +0.000 H 
ATOM    109  H18 UNL A   1      35.216  25.960  25.752  1.00  0.00    +0.000 H 
BRANCH   19   18
ATOM     18  C15 UNL A   1      34.870  23.898  25.590  1.00  0.00    +0.000 C 
ATOM    107  H16 UNL A   1      35.891  23.934  25.905  1.00  0.00    +0.000 H 
ATOM    106  H15 UNL A   1      34.743  23.382  24.662  1.00  0.00    +0.000 H 
BRANCH   18   17
ATOM     17  C14 UNL A   1      34.100  23.137  26.672  1.00  0.00    +0.000 C 
ATOM    105  H14 UNL A   1      33.362  23.796  27.079  1.00  0.00    +0.000 H 
ATOM    104  H13 UNL A   1      34.789  22.815  27.426  1.00  0.00    +0.000 H 
BRANCH   17   16
ATOM    103  H12 UNL A   1      32.919  21.452  26.802  1.00  0.00    +0.000 H 
ATOM     16  N2  UNL A   1      33.418  21.978  26.136  1.00  0.00    +0.000 N 
BRANCH   16   14
ATOM     14  C13 UNL A   1      33.348  21.492  24.865  1.00  0.00    +0.000 C 
ATOM     15  O1  UNL A   1      34.342  20.880  24.454  1.00  0.00    +0.000 O 
BRANCH   14   12
ATOM     99  H8  UNL A   1      31.296  21.284  24.482  1.00  0.00    +0.000 H 
ATOM     12  C11 UNL A   1      32.132  21.684  23.947  1.00  0.00    +0.000 C 
BRANCH   12   11
ATOM     97  H6  UNL A   1      29.609  25.528  24.754  1.00  0.00    +0.000 H 
ATOM     98  H7  UNL A   1      30.291  23.272  25.262  1.00  0.00    +0.000 H 
ATOM    131  H40 UNL A   1      33.150  23.453  22.202  1.00  0.00    +0.000 H 
ATOM    132  H41 UNL A   1      32.563  25.756  21.787  1.00  0.00    +0.000 H 
ATOM      8  C7  UNL A   1      31.011  25.853  23.212  1.00  0.00    +0.000 C 
ATOM      9  C8  UNL A   1      30.376  25.099  24.212  1.00  0.00    +0.000 C 
ATOM     10  C9  UNL A   1      30.755  23.781  24.493  1.00  0.00    +0.000 C 
ATOM     11  C10 UNL A   1      31.750  23.143  23.749  1.00  0.00    +0.000 C 
ATOM     89  C65 UNL A   1      32.399  23.892  22.758  1.00  0.00    +0.000 C 
ATOM     90  C66 UNL A   1      32.048  25.226  22.506  1.00  0.00    +0.000 C 
BRANCH    8    7
ATOM      3  C3  UNL A   1      28.939  29.043  22.951  1.00  0.00    +0.000 C 
ATOM      4  C4  UNL A   1      29.904  29.861  22.372  1.00  0.00    +0.000 C 
ATOM      5  N1  UNL A   1      31.157  29.460  22.063  1.00  0.00    +0.000 N 
ATOM    133  H42 UNL A   1      28.611  27.075  23.638  1.00  0.00    +0.000 H 
ATOM      7  C6  UNL A   1      30.592  27.240  22.918  1.00  0.00    +0.000 C 
ATOM      6  C5  UNL A   1      31.460  28.169  22.337  1.00  0.00    +0.000 C 
ATOM     91  C67 UNL A   1      29.303  27.716  23.216  1.00  0.00    +0.000 C 
ATOM     95  H4  UNL A   1      29.645  30.838  22.165  1.00  0.00    +0.000 H 
ATOM     96  H5  UNL A   1      32.410  27.844  22.098  1.00  0.00    +0.000 H 
BRANCH    3    2
ATOM      2  C2  UNL A   1      27.593  29.567  23.202  1.00  0.00    +0.000 C 
ATOM     94  H3  UNL A   1      26.802  28.906  23.158  1.00  0.00    +0.000 H 
BRANCH    2    1
ATOM      1  C1  UNL A   1      27.323  30.848  23.483  1.00  0.00    +0.000 C 
ATOM     92  H1  UNL A   1      26.877  31.096  24.380  1.00  0.00    +0.000 H 
ATOM     93  H2  UNL A   1      27.562  31.587  22.804  1.00  0.00    +0.000 H 
ENDBRANCH    2    1
ENDBRANCH    3    2
ENDBRANCH    8    7
ENDBRANCH   12   11
BRANCH   12   13
ATOM    101  H10 UNL A   1      32.506  19.834  22.939  1.00  0.00    +0.000 H 
ATOM    100  H9  UNL A   1      31.162  20.743  22.290  1.00  0.00    +0.000 H 
ATOM     13  C12 UNL A   1      32.151  20.813  22.689  1.00  0.00    +0.000 C 
ATOM    102  H11 UNL A   1      32.801  21.252  21.961  1.00  0.00    +0.000 H 
ENDBRANCH   12   13
ENDBRANCH   14   12
ENDBRANCH   16   14
ENDBRANCH   17   16
ENDBRANCH   18   17
ENDBRANCH   19   18
ENDBRANCH   20   19
ENDBRANCH   21   20
ENDBRANCH   22   21
ENDBRANCH   23   22
ENDBRANCH   24   23
ENDBRANCH   26   24
ENDBRANCH   30   29
BRANCH   34   35
ATOM     35  C29 UNL A   1      43.340  32.350  32.857  1.00  0.00    +0.000 C 
ATOM     36  C30 UNL A   1      43.794  33.530  32.249  1.00  0.00    +0.000 C 
ATOM     37  F1  UNL A   1      44.250  33.506  30.987  1.00  0.00    +0.000 F 
ATOM     38  C31 UNL A   1      43.820  34.733  32.948  1.00  0.00    +0.000 C 
ATOM     39  F2  UNL A   1      44.304  35.837  32.363  1.00  0.00    +0.000 F 
ATOM     40  C32 UNL A   1      43.361  34.788  34.256  1.00  0.00    +0.000 C 
ATOM     41  F3  UNL A   1      43.382  35.948  34.927  1.00  0.00    +0.000 F 
ATOM     42  C33 UNL A   1      42.886  33.639  34.870  1.00  0.00    +0.000 C 
ATOM     43  F4  UNL A   1      42.431  33.693  36.129  1.00  0.00    +0.000 F 
ATOM     44  C34 UNL A   1      42.885  32.427  34.182  1.00  0.00    +0.000 C 
ATOM     45  F5  UNL A   1      42.434  31.330  34.808  1.00  0.00    +0.000 F 
ENDBRANCH   34   35
BRANCH   51   52
ATOM     52  C40 UNL A   1      47.704  26.761  31.555  1.00  0.00    +0.000 C 
ATOM     53  C41 UNL A   1      47.919  25.865  32.613  1.00  0.00    +0.000 C 
ATOM     54  F6  UNL A   1      46.885  25.426  33.347  1.00  0.00    +0.000 F 
ATOM     55  C42 UNL A   1      49.205  25.443  32.942  1.00  0.00    +0.000 C 
ATOM     56  F7  UNL A   1      49.392  24.620  33.983  1.00  0.00    +0.000 F 
ATOM     57  C43 UNL A   1      50.293  25.885  32.204  1.00  0.00    +0.000 C 
ATOM     58  F8  UNL A   1      51.529  25.475  32.520  1.00  0.00    +0.000 F 
ATOM     59  C44 UNL A   1      50.101  26.760  31.145  1.00  0.00    +0.000 C 
ATOM     60  F9  UNL A   1      51.150  27.180  30.424  1.00  0.00    +0.000 F 
ATOM     61  C45 UNL A   1      48.820  27.202  30.829  1.00  0.00    +0.000 C 
ATOM     62  F10 UNL A   1      48.665  28.058  29.806  1.00  0.00    +0.000 F 
ENDBRANCH   51   52
BRANCH   66   67
ATOM     67  C49 UNL A   1      42.764  23.910  27.560  1.00  0.00    +0.000 C 
ATOM     68  C50 UNL A   1      43.103  23.917  26.200  1.00  0.00    +0.000 C 
ATOM     69  F11 UNL A   1      43.471  25.064  25.608  1.00  0.00    +0.000 F 
ATOM     70  C51 UNL A   1      43.028  22.757  25.433  1.00  0.00    +0.000 C 
ATOM     71  F12 UNL A   1      43.319  22.801  24.126  1.00  0.00    +0.000 F 
ATOM     72  C52 UNL A   1      42.639  21.562  26.018  1.00  0.00    +0.000 C 
ATOM     73  F13 UNL A   1      42.572  20.444  25.282  1.00  0.00    +0.000 F 
ATOM     74  C53 UNL A   1      42.313  21.527  27.366  1.00  0.00    +0.000 C 
ATOM     75  F14 UNL A   1      41.949  20.371  27.937  1.00  0.00    +0.000 F 
ATOM     76  C54 UNL A   1      42.364  22.693  28.128  1.00  0.00    +0.000 C 
ATOM     77  F15 UNL A   1      42.035  22.633  29.427  1.00  0.00    +0.000 F 
ENDBRANCH   66   67
TORSDOF 20
ENDMDL
MODEL 4
REMARK VINA RESULT:     -10.4     20.154     26.570
ROOT
ATOM     30  C25 UNL A   1      53.317  19.484  11.486  1.00  0.00    +0.000 C 
ATOM     31  C26 UNL A   1      53.106  20.200  12.791  1.00  0.00    +0.000 C 
ATOM     32  N4  UNL A   1      53.953  20.410  13.768  1.00  0.00    +0.000 N 
ATOM     33  C27 UNL A   1      53.263  21.159  14.711  1.00  0.00    +0.000 C 
ATOM     34  C28 UNL A   1      53.685  21.584  15.927  1.00  0.00    +0.000 C 
ATOM     46  C35 UNL A   1      54.988  21.312  16.473  1.00  0.00    +0.000 C 
ATOM     47  C36 UNL A   1      55.490  21.647  17.719  1.00  0.00    +0.000 C 
ATOM     48  C37 UNL A   1      56.816  21.206  17.790  1.00  0.00    +0.000 C 
ATOM     49  C38 UNL A   1      57.127  20.560  16.605  1.00  0.00    +0.000 C 
ATOM     50  N5  UNL A   1      55.997  20.636  15.805  1.00  0.00    +0.000 N 
ATOM     51  C39 UNL A   1      58.361  19.920  16.229  1.00  0.00    +0.000 C 
ATOM     63  C46 UNL A   1      58.584  19.293  15.047  1.00  0.00    +0.000 C 
ATOM     64  N6  UNL A   1      57.721  19.122  13.975  1.00  0.00    +0.000 N 
ATOM     65  C47 UNL A   1      58.401  18.465  13.067  1.00  0.00    +0.000 C 
ATOM     66  C48 UNL A   1      57.958  17.983  11.712  1.00  0.00    +0.000 C 
ATOM     78  C55 UNL A   1      56.690  18.208  11.316  1.00  0.00    +0.000 C 
ATOM     79  C56 UNL A   1      56.119  17.799  10.035  1.00  0.00    +0.000 C 
ATOM     80  C57 UNL A   1      54.850  18.231   9.965  1.00  0.00    +0.000 C 
ATOM     81  C58 UNL A   1      54.509  18.920  11.211  1.00  0.00    +0.000 C 
ATOM     82  N7  UNL A   1      55.658  18.848  11.957  1.00  0.00    +0.000 N 
ATOM     83  C59 UNL A   1      59.787  18.168  13.453  1.00  0.00    +0.000 C 
ATOM     84  C60 UNL A   1      59.836  18.662  14.683  1.00  0.00    +0.000 C 
ATOM     85  C61 UNL A   1      51.943  21.406  14.172  1.00  0.00    +0.000 C 
ATOM     86  C62 UNL A   1      51.774  20.781  13.016  1.00  0.00    +0.000 C 
ATOM    119  H28 UNL A   1      54.974  22.139  18.466  1.00  0.00    +0.000 H 
ATOM    120  H29 UNL A   1      57.454  21.341  18.591  1.00  0.00    +0.000 H 
ATOM    121  H30 UNL A   1      55.924  20.264  14.896  1.00  0.00    +0.000 H 
ATOM    122  H31 UNL A   1      56.611  17.263   9.304  1.00  0.00    +0.000 H 
ATOM    123  H32 UNL A   1      54.216  18.100   9.162  1.00  0.00    +0.000 H 
ATOM    124  H33 UNL A   1      55.736  19.220  12.865  1.00  0.00    +0.000 H 
ATOM    125  H34 UNL A   1      60.529  17.699  12.910  1.00  0.00    +0.000 H 
ATOM    126  H35 UNL A   1      60.660  18.604  15.301  1.00  0.00    +0.000 H 
ATOM    127  H36 UNL A   1      51.227  21.992  14.628  1.00  0.00    +0.000 H 
ATOM    128  H37 UNL A   1      50.929  20.718  12.427  1.00  0.00    +0.000 H 
ENDROOT
BRANCH   30   29
ATOM    129  H38 UNL A   1      52.607  21.422   9.780  1.00  0.00    +0.000 H 
ATOM    130  H39 UNL A   1      50.785  21.442   8.182  1.00  0.00    +0.000 H 
ATOM    117  H26 UNL A   1      49.870  17.455   9.164  1.00  0.00    +0.000 H 
ATOM    118  H27 UNL A   1      51.562  17.499  10.904  1.00  0.00    +0.000 H 
ATOM     87  C63 UNL A   1      52.013  20.586   9.666  1.00  0.00    +0.000 C 
ATOM     88  C64 UNL A   1      50.991  20.586   8.719  1.00  0.00    +0.000 C 
ATOM     26  C21 UNL A   1      50.245  19.425   8.496  1.00  0.00    +0.000 C 
ATOM     27  C22 UNL A   1      50.446  18.300   9.302  1.00  0.00    +0.000 C 
ATOM     28  C23 UNL A   1      51.429  18.322  10.295  1.00  0.00    +0.000 C 
ATOM     29  C24 UNL A   1      52.238  19.455  10.467  1.00  0.00    +0.000 C 
BRANCH   26   24
ATOM     25  O2  UNL A   1      48.274  20.178   7.477  1.00  0.00    +0.000 O 
ATOM     24  C20 UNL A   1      49.198  19.375   7.450  1.00  0.00    +0.000 C 
BRANCH   24   23
ATOM    116  H25 UNL A   1      48.408  17.992   6.234  1.00  0.00    +0.000 H 
ATOM     23  N3  UNL A   1      49.260  18.436   6.449  1.00  0.00    +0.000 N 
BRANCH   23   22
ATOM    114  H23 UNL A   1      51.041  17.404   6.276  1.00  0.00    +0.000 H 
ATOM    115  H24 UNL A   1      50.034  17.443   4.825  1.00  0.00    +0.000 H 
ATOM     22  C19 UNL A   1      50.403  18.002   5.660  1.00  0.00    +0.000 C 
BRANCH   22   21
ATOM    113  H22 UNL A   1      50.706  20.066   5.459  1.00  0.00    +0.000 H 
ATOM     21  C18 UNL A   1      51.205  19.183   5.120  1.00  0.00    +0.000 C 
ATOM    112  H21 UNL A   1      51.241  19.101   4.053  1.00  0.00    +0.000 H 
BRANCH   21   20
ATOM     20  C17 UNL A   1      52.645  19.277   5.637  1.00  0.00    +0.000 C 
ATOM    110  H19 UNL A   1      53.301  19.225   4.794  1.00  0.00    +0.000 H 
ATOM    111  H20 UNL A   1      52.701  20.200   6.176  1.00  0.00    +0.000 H 
BRANCH   20   19
ATOM     19  C16 UNL A   1      53.067  18.187   6.632  1.00  0.00    +0.000 C 
ATOM    108  H17 UNL A   1      53.294  18.660   7.564  1.00  0.00    +0.000 H 
ATOM    109  H18 UNL A   1      52.247  17.502   6.686  1.00  0.00    +0.000 H 
BRANCH   19   18
ATOM     18  C15 UNL A   1      54.285  17.355   6.215  1.00  0.00    +0.000 C 
ATOM    107  H16 UNL A   1      54.042  16.331   6.407  1.00  0.00    +0.000 H 
ATOM    106  H15 UNL A   1      55.131  17.691   6.777  1.00  0.00    +0.000 H 
BRANCH   18   17
ATOM     17  C14 UNL A   1      54.627  17.457   4.727  1.00  0.00    +0.000 C 
ATOM    105  H14 UNL A   1      53.956  18.161   4.280  1.00  0.00    +0.000 H 
ATOM    104  H13 UNL A   1      54.525  16.489   4.281  1.00  0.00    +0.000 H 
BRANCH   17   16
ATOM    103  H12 UNL A   1      56.557  17.308   4.017  1.00  0.00    +0.000 H 
ATOM     16  N2  UNL A   1      55.979  17.931   4.514  1.00  0.00    +0.000 N 
BRANCH   16   14
ATOM     14  C13 UNL A   1      56.586  19.092   4.884  1.00  0.00    +0.000 C 
ATOM     15  O1  UNL A   1      56.294  20.100   4.229  1.00  0.00    +0.000 O 
BRANCH   14   12
ATOM     99  H8  UNL A   1      58.436  19.732   5.639  1.00  0.00    +0.000 H 
ATOM     12  C11 UNL A   1      57.600  19.192   6.033  1.00  0.00    +0.000 C 
BRANCH   12   11
ATOM     97  H6  UNL A   1      58.103  21.500  10.059  1.00  0.00    +0.000 H 
ATOM     98  H7  UNL A   1      58.972  20.270   8.177  1.00  0.00    +0.000 H 
ATOM    131  H40 UNL A   1      55.142  20.177   6.476  1.00  0.00    +0.000 H 
ATOM    132  H41 UNL A   1      54.301  21.527   8.290  1.00  0.00    +0.000 H 
ATOM      8  C7  UNL A   1      56.116  21.620   9.362  1.00  0.00    +0.000 C 
ATOM      9  C8  UNL A   1      57.464  21.235   9.293  1.00  0.00    +0.000 C 
ATOM     10  C9  UNL A   1      57.966  20.500   8.212  1.00  0.00    +0.000 C 
ATOM     11  C10 UNL A   1      57.129  20.073   7.179  1.00  0.00    +0.000 C 
ATOM     89  C65 UNL A   1      55.783  20.464   7.233  1.00  0.00    +0.000 C 
ATOM     90  C66 UNL A   1      55.291  21.236   8.294  1.00  0.00    +0.000 C 
BRANCH    8    7
ATOM      3  C3  UNL A   1      53.851  23.687  11.627  1.00  0.00    +0.000 C 
ATOM      4  C4  UNL A   1      54.690  23.762  12.734  1.00  0.00    +0.000 C 
ATOM      5  N1  UNL A   1      55.918  23.201  12.799  1.00  0.00    +0.000 N 
ATOM    133  H42 UNL A   1      53.739  22.920   9.665  1.00  0.00    +0.000 H 
ATOM      7  C6  UNL A   1      55.598  22.385  10.517  1.00  0.00    +0.000 C 
ATOM      6  C5  UNL A   1      56.335  22.539  11.693  1.00  0.00    +0.000 C 
ATOM     91  C67 UNL A   1      54.329  22.990  10.509  1.00  0.00    +0.000 C 
ATOM     95  H4  UNL A   1      54.352  24.280  13.560  1.00  0.00    +0.000 H 
ATOM     96  H5  UNL A   1      57.275  22.113  11.723  1.00  0.00    +0.000 H 
BRANCH    3    2
ATOM      2  C2  UNL A   1      52.555  24.374  11.646  1.00  0.00    +0.000 C 
ATOM     94  H3  UNL A   1      52.451  25.189  12.269  1.00  0.00    +0.000 H 
BRANCH    2    1
ATOM      1  C1  UNL A   1      51.500  24.010  10.907  1.00  0.00    +0.000 C 
ATOM     92  H1  UNL A   1      51.606  23.872   9.889  1.00  0.00    +0.000 H 
ATOM     93  H2  UNL A   1      50.580  23.869  11.354  1.00  0.00    +0.000 H 
ENDBRANCH    2    1
ENDBRANCH    3    2
ENDBRANCH    8    7
ENDBRANCH   12   11
BRANCH   12   13
ATOM    101  H10 UNL A   1      58.702  17.951   7.384  1.00  0.00    +0.000 H 
ATOM    100  H9  UNL A   1      57.487  17.099   6.461  1.00  0.00    +0.000 H 
ATOM     13  C12 UNL A   1      58.240  17.858   6.423  1.00  0.00    +0.000 C 
ATOM    102  H11 UNL A   1      58.979  17.592   5.697  1.00  0.00    +0.000 H 
ENDBRANCH   12   13
ENDBRANCH   14   12
ENDBRANCH   16   14
ENDBRANCH   17   16
ENDBRANCH   18   17
ENDBRANCH   19   18
ENDBRANCH   20   19
ENDBRANCH   21   20
ENDBRANCH   22   21
ENDBRANCH   23   22
ENDBRANCH   24   23
ENDBRANCH   26   24
ENDBRANCH   30   29
BRANCH   34   35
ATOM     35  C29 UNL A   1      52.722  22.388  16.751  1.00  0.00    +0.000 C 
ATOM     36  C30 UNL A   1      52.495  23.748  16.494  1.00  0.00    +0.000 C 
ATOM     37  F1  UNL A   1      53.172  24.374  15.520  1.00  0.00    +0.000 F 
ATOM     38  C31 UNL A   1      51.597  24.483  17.264  1.00  0.00    +0.000 C 
ATOM     39  F2  UNL A   1      51.432  25.792  17.032  1.00  0.00    +0.000 F 
ATOM     40  C32 UNL A   1      50.885  23.865  18.282  1.00  0.00    +0.000 C 
ATOM     41  F3  UNL A   1      50.018  24.573  19.020  1.00  0.00    +0.000 F 
ATOM     42  C33 UNL A   1      51.078  22.516  18.540  1.00  0.00    +0.000 C 
ATOM     43  F4  UNL A   1      50.383  21.916  19.515  1.00  0.00    +0.000 F 
ATOM     44  C34 UNL A   1      51.996  21.786  17.790  1.00  0.00    +0.000 C 
ATOM     45  F5  UNL A   1      52.171  20.486  18.072  1.00  0.00    +0.000 F 
ENDBRANCH   34   35
BRANCH   51   52
ATOM     52  C40 UNL A   1      59.482  19.925  17.225  1.00  0.00    +0.000 C 
ATOM     53  C41 UNL A   1      60.359  21.014  17.336  1.00  0.00    +0.000 C 
ATOM     54  F6  UNL A   1      60.242  22.063  16.509  1.00  0.00    +0.000 F 
ATOM     55  C42 UNL A   1      61.385  21.011  18.278  1.00  0.00    +0.000 C 
ATOM     56  F7  UNL A   1      62.239  22.042  18.339  1.00  0.00    +0.000 F 
ATOM     57  C43 UNL A   1      61.534  19.937  19.142  1.00  0.00    +0.000 C 
ATOM     58  F8  UNL A   1      62.519  19.938  20.051  1.00  0.00    +0.000 F 
ATOM     59  C44 UNL A   1      60.668  18.856  19.059  1.00  0.00    +0.000 C 
ATOM     60  F9  UNL A   1      60.805  17.822  19.900  1.00  0.00    +0.000 F 
ATOM     61  C45 UNL A   1      59.658  18.845  18.102  1.00  0.00    +0.000 C 
ATOM     62  F10 UNL A   1      58.841  17.782  18.037  1.00  0.00    +0.000 F 
ENDBRANCH   51   52
BRANCH   66   67
ATOM     67  C49 UNL A   1      58.889  17.240  10.827  1.00  0.00    +0.000 C 
ATOM     68  C50 UNL A   1      59.871  17.916  10.091  1.00  0.00    +0.000 C 
ATOM     69  F11 UNL A   1      59.961  19.252  10.166  1.00  0.00    +0.000 F 
ATOM     70  C51 UNL A   1      60.740  17.228   9.248  1.00  0.00    +0.000 C 
ATOM     71  F12 UNL A   1      61.644  17.903   8.526  1.00  0.00    +0.000 F 
ATOM     72  C52 UNL A   1      60.661  15.847   9.145  1.00  0.00    +0.000 C 
ATOM     73  F13 UNL A   1      61.500  15.184   8.338  1.00  0.00    +0.000 F 
ATOM     74  C53 UNL A   1      59.706  15.155   9.875  1.00  0.00    +0.000 C 
ATOM     75  F14 UNL A   1      59.635  13.819   9.788  1.00  0.00    +0.000 F 
ATOM     76  C54 UNL A   1      58.820  15.845  10.700  1.00  0.00    +0.000 C 
ATOM     77  F15 UNL A   1      57.901  15.152  11.388  1.00  0.00    +0.000 F 
ENDBRANCH   66   67
TORSDOF 20
ENDMDL
MODEL 5
REMARK VINA RESULT:     -10.3      3.922      9.217
ROOT
ATOM     30  C25 UNL A   1      40.594  27.986  28.943  1.00  0.00    +0.000 C 
ATOM     31  C26 UNL A   1      42.005  28.118  29.445  1.00  0.00    +0.000 C 
ATOM     32  N4  UNL A   1      42.550  29.083  30.144  1.00  0.00    +0.000 N 
ATOM     33  C27 UNL A   1      43.859  28.686  30.378  1.00  0.00    +0.000 C 
ATOM     34  C28 UNL A   1      44.848  29.363  31.011  1.00  0.00    +0.000 C 
ATOM     46  C35 UNL A   1      44.697  30.680  31.573  1.00  0.00    +0.000 C 
ATOM     47  C36 UNL A   1      45.654  31.474  32.181  1.00  0.00    +0.000 C 
ATOM     48  C37 UNL A   1      45.037  32.657  32.602  1.00  0.00    +0.000 C 
ATOM     49  C38 UNL A   1      43.706  32.618  32.221  1.00  0.00    +0.000 C 
ATOM     50  N5  UNL A   1      43.511  31.397  31.593  1.00  0.00    +0.000 N 
ATOM     51  C39 UNL A   1      42.687  33.617  32.413  1.00  0.00    +0.000 C 
ATOM     63  C46 UNL A   1      41.402  33.509  31.995  1.00  0.00    +0.000 C 
ATOM     64  N6  UNL A   1      40.792  32.465  31.314  1.00  0.00    +0.000 N 
ATOM     65  C47 UNL A   1      39.542  32.824  31.149  1.00  0.00    +0.000 C 
ATOM     66  C48 UNL A   1      38.427  32.092  30.453  1.00  0.00    +0.000 C 
ATOM     78  C55 UNL A   1      38.679  30.900  29.879  1.00  0.00    +0.000 C 
ATOM     79  C56 UNL A   1      37.702  30.079  29.170  1.00  0.00    +0.000 C 
ATOM     80  C57 UNL A   1      38.294  28.941  28.774  1.00  0.00    +0.000 C 
ATOM     81  C58 UNL A   1      39.701  28.968  29.175  1.00  0.00    +0.000 C 
ATOM     82  N7  UNL A   1      39.842  30.173  29.816  1.00  0.00    +0.000 N 
ATOM     83  C59 UNL A   1      39.211  34.131  31.734  1.00  0.00    +0.000 C 
ATOM     84  C60 UNL A   1      40.388  34.522  32.204  1.00  0.00    +0.000 C 
ATOM     85  C61 UNL A   1      44.016  27.374  29.787  1.00  0.00    +0.000 C 
ATOM     86  C62 UNL A   1      42.918  27.006  29.142  1.00  0.00    +0.000 C 
ATOM    119  H28 UNL A   1      46.651  31.234  32.303  1.00  0.00    +0.000 H 
ATOM    120  H29 UNL A   1      45.497  33.428  33.112  1.00  0.00    +0.000 H 
ATOM    121  H30 UNL A   1      42.655  31.086  31.218  1.00  0.00    +0.000 H 
ATOM    122  H31 UNL A   1      36.717  30.334  28.998  1.00  0.00    +0.000 H 
ATOM    123  H32 UNL A   1      37.830  28.170  28.269  1.00  0.00    +0.000 H 
ATOM    124  H33 UNL A   1      40.695  30.487  30.193  1.00  0.00    +0.000 H 
ATOM    125  H34 UNL A   1      38.302  34.618  31.770  1.00  0.00    +0.000 H 
ATOM    126  H35 UNL A   1      40.559  35.431  32.661  1.00  0.00    +0.000 H 
ATOM    127  H36 UNL A   1      44.870  26.801  29.858  1.00  0.00    +0.000 H 
ATOM    128  H37 UNL A   1      42.749  26.160  28.576  1.00  0.00    +0.000 H 
ENDROOT
BRANCH   30   29
ATOM    129  H38 UNL A   1      41.074  27.251  26.413  1.00  0.00    +0.000 H 
ATOM    130  H39 UNL A   1      40.290  25.286  25.231  1.00  0.00    +0.000 H 
ATOM    117  H26 UNL A   1      38.495  23.869  28.762  1.00  0.00    +0.000 H 
ATOM    118  H27 UNL A   1      39.106  25.928  29.895  1.00  0.00    +0.000 H 
ATOM     87  C63 UNL A   1      40.508  26.545  26.908  1.00  0.00    +0.000 C 
ATOM     88  C64 UNL A   1      40.091  25.396  26.238  1.00  0.00    +0.000 C 
ATOM     26  C21 UNL A   1      39.405  24.393  26.928  1.00  0.00    +0.000 C 
ATOM     27  C22 UNL A   1      39.036  24.592  28.262  1.00  0.00    +0.000 C 
ATOM     28  C23 UNL A   1      39.398  25.772  28.917  1.00  0.00    +0.000 C 
ATOM     29  C24 UNL A   1      40.160  26.746  28.253  1.00  0.00    +0.000 C 
BRANCH   26   24
ATOM     25  O2  UNL A   1      39.725  22.145  26.354  1.00  0.00    +0.000 O 
ATOM     24  C20 UNL A   1      39.009  23.134  26.258  1.00  0.00    +0.000 C 
BRANCH   24   23
ATOM    116  H25 UNL A   1      37.720  23.780  24.867  1.00  0.00    +0.000 H 
ATOM     23  N3  UNL A   1      37.842  23.068  25.535  1.00  0.00    +0.000 N 
BRANCH   23   22
ATOM    114  H23 UNL A   1      36.888  21.376  24.834  1.00  0.00    +0.000 H 
ATOM    115  H24 UNL A   1      36.802  21.637  26.579  1.00  0.00    +0.000 H 
ATOM     22  C19 UNL A   1      36.761  22.097  25.614  1.00  0.00    +0.000 C 
BRANCH   22   21
ATOM    113  H22 UNL A   1      34.818  22.454  26.314  1.00  0.00    +0.000 H 
ATOM     21  C18 UNL A   1      35.391  22.754  25.461  1.00  0.00    +0.000 C 
ATOM    112  H21 UNL A   1      34.969  22.429  24.532  1.00  0.00    +0.000 H 
BRANCH   21   20
ATOM     20  C17 UNL A   1      35.404  24.286  25.468  1.00  0.00    +0.000 C 
ATOM    110  H19 UNL A   1      36.076  24.606  26.237  1.00  0.00    +0.000 H 
ATOM    111  H20 UNL A   1      35.702  24.579  24.482  1.00  0.00    +0.000 H 
BRANCH   20   19
ATOM     19  C16 UNL A   1      34.049  24.963  25.714  1.00  0.00    +0.000 C 
ATOM    108  H17 UNL A   1      33.352  24.574  25.002  1.00  0.00    +0.000 H 
ATOM    109  H18 UNL A   1      33.791  24.747  26.729  1.00  0.00    +0.000 H 
BRANCH   19   18
ATOM     18  C15 UNL A   1      34.048  26.491  25.593  1.00  0.00    +0.000 C 
ATOM    107  H16 UNL A   1      35.041  26.781  25.324  1.00  0.00    +0.000 H 
ATOM    106  H15 UNL A   1      33.737  26.903  26.530  1.00  0.00    +0.000 H 
BRANCH   18   17
ATOM     17  C14 UNL A   1      33.119  27.027  24.501  1.00  0.00    +0.000 C 
ATOM    105  H14 UNL A   1      33.591  27.878  24.055  1.00  0.00    +0.000 H 
ATOM    104  H13 UNL A   1      32.181  27.293  24.944  1.00  0.00    +0.000 H 
BRANCH   17   16
ATOM    103  H12 UNL A   1      33.704  25.684  23.050  1.00  0.00    +0.000 H 
ATOM     16  N2  UNL A   1      32.886  26.048  23.460  1.00  0.00    +0.000 N 
BRANCH   16   14
ATOM     14  C13 UNL A   1      31.727  25.543  22.953  1.00  0.00    +0.000 C 
ATOM     15  O1  UNL A   1      31.454  25.856  21.788  1.00  0.00    +0.000 O 
BRANCH   14   12
ATOM     99  H8  UNL A   1      29.931  24.471  23.110  1.00  0.00    +0.000 H 
ATOM     12  C11 UNL A   1      30.768  24.648  23.752  1.00  0.00    +0.000 C 
BRANCH   12   11
ATOM     97  H6  UNL A   1      31.890  20.971  26.399  1.00  0.00    +0.000 H 
ATOM     98  H7  UNL A   1      30.828  23.106  26.045  1.00  0.00    +0.000 H 
ATOM    131  H40 UNL A   1      31.914  22.968  21.999  1.00  0.00    +0.000 H 
ATOM    132  H41 UNL A   1      32.853  20.770  22.323  1.00  0.00    +0.000 H 
ATOM      8  C7  UNL A   1      32.486  20.672  24.399  1.00  0.00    +0.000 C 
ATOM      9  C8  UNL A   1      31.889  21.382  25.453  1.00  0.00    +0.000 C 
ATOM     10  C9  UNL A   1      31.292  22.633  25.254  1.00  0.00    +0.000 C 
ATOM     11  C10 UNL A   1      31.314  23.251  24.002  1.00  0.00    +0.000 C 
ATOM     89  C65 UNL A   1      31.897  22.544  22.940  1.00  0.00    +0.000 C 
ATOM     90  C66 UNL A   1      32.456  21.273  23.131  1.00  0.00    +0.000 C 
BRANCH    8    7
ATOM      3  C3  UNL A   1      33.024  16.995  25.248  1.00  0.00    +0.000 C 
ATOM      4  C4  UNL A   1      34.389  16.927  24.989  1.00  0.00    +0.000 C 
ATOM      5  N1  UNL A   1      35.136  17.970  24.566  1.00  0.00    +0.000 N 
ATOM    133  H42 UNL A   1      31.388  18.327  25.255  1.00  0.00    +0.000 H 
ATOM      7  C6  UNL A   1      33.124  19.358  24.627  1.00  0.00    +0.000 C 
ATOM      6  C5  UNL A   1      34.488  19.149  24.406  1.00  0.00    +0.000 C 
ATOM     91  C67 UNL A   1      32.399  18.236  25.064  1.00  0.00    +0.000 C 
ATOM     95  H4  UNL A   1      34.861  16.020  25.128  1.00  0.00    +0.000 H 
ATOM     96  H5  UNL A   1      35.047  19.958  24.093  1.00  0.00    +0.000 H 
BRANCH    3    2
ATOM      2  C2  UNL A   1      32.317  15.811  25.748  1.00  0.00    +0.000 C 
ATOM     94  H3  UNL A   1      31.465  15.960  26.310  1.00  0.00    +0.000 H 
BRANCH    2    1
ATOM      1  C1  UNL A   1      32.705  14.550  25.522  1.00  0.00    +0.000 C 
ATOM     92  H1  UNL A   1      33.058  14.278  24.590  1.00  0.00    +0.000 H 
ATOM     93  H2  UNL A   1      32.652  13.850  26.278  1.00  0.00    +0.000 H 
ENDBRANCH    2    1
ENDBRANCH    3    2
ENDBRANCH    8    7
ENDBRANCH   12   11
BRANCH   12   13
ATOM    101  H10 UNL A   1      29.397  26.058  24.595  1.00  0.00    +0.000 H 
ATOM    100  H9  UNL A   1      29.615  24.613  25.553  1.00  0.00    +0.000 H 
ATOM     13  C12 UNL A   1      30.110  25.342  24.947  1.00  0.00    +0.000 C 
ATOM    102  H11 UNL A   1      30.859  25.839  25.526  1.00  0.00    +0.000 H 
ENDBRANCH   12   13
ENDBRANCH   14   12
ENDBRANCH   16   14
ENDBRANCH   17   16
ENDBRANCH   18   17
ENDBRANCH   19   18
ENDBRANCH   20   19
ENDBRANCH   21   20
ENDBRANCH   22   21
ENDBRANCH   23   22
ENDBRANCH   24   23
ENDBRANCH   26   24
ENDBRANCH   30   29
BRANCH   34   35
ATOM     35  C29 UNL A   1      46.184  28.690  31.127  1.00  0.00    +0.000 C 
ATOM     36  C30 UNL A   1      47.167  28.837  30.137  1.00  0.00    +0.000 C 
ATOM     37  F1  UNL A   1      46.913  29.558  29.035  1.00  0.00    +0.000 F 
ATOM     38  C31 UNL A   1      48.404  28.210  30.257  1.00  0.00    +0.000 C 
ATOM     39  F2  UNL A   1      49.310  28.325  29.276  1.00  0.00    +0.000 F 
ATOM     40  C32 UNL A   1      48.695  27.452  31.382  1.00  0.00    +0.000 C 
ATOM     41  F3  UNL A   1      49.888  26.853  31.498  1.00  0.00    +0.000 F 
ATOM     42  C33 UNL A   1      47.746  27.312  32.383  1.00  0.00    +0.000 C 
ATOM     43  F4  UNL A   1      48.029  26.591  33.477  1.00  0.00    +0.000 F 
ATOM     44  C34 UNL A   1      46.497  27.915  32.253  1.00  0.00    +0.000 C 
ATOM     45  F5  UNL A   1      45.595  27.748  33.232  1.00  0.00    +0.000 F 
ENDBRANCH   34   35
BRANCH   51   52
ATOM     52  C40 UNL A   1      43.077  34.887  33.107  1.00  0.00    +0.000 C 
ATOM     53  C41 UNL A   1      43.475  36.024  32.388  1.00  0.00    +0.000 C 
ATOM     54  F6  UNL A   1      43.564  35.980  31.051  1.00  0.00    +0.000 F 
ATOM     55  C42 UNL A   1      43.818  37.203  33.047  1.00  0.00    +0.000 C 
ATOM     56  F7  UNL A   1      44.236  38.264  32.344  1.00  0.00    +0.000 F 
ATOM     57  C43 UNL A   1      43.741  37.275  34.430  1.00  0.00    +0.000 C 
ATOM     58  F8  UNL A   1      44.067  38.410  35.062  1.00  0.00    +0.000 F 
ATOM     59  C44 UNL A   1      43.335  36.166  35.159  1.00  0.00    +0.000 C 
ATOM     60  F9  UNL A   1      43.251  36.238  36.495  1.00  0.00    +0.000 F 
ATOM     61  C45 UNL A   1      43.017  34.980  34.505  1.00  0.00    +0.000 C 
ATOM     62  F10 UNL A   1      42.638  33.920  35.237  1.00  0.00    +0.000 F 
ENDBRANCH   51   52
BRANCH   66   67
ATOM     67  C49 UNL A   1      37.068  32.683  30.366  1.00  0.00    +0.000 C 
ATOM     68  C50 UNL A   1      36.705  33.489  29.278  1.00  0.00    +0.000 C 
ATOM     69  F11 UNL A   1      37.600  33.753  28.314  1.00  0.00    +0.000 F 
ATOM     70  C51 UNL A   1      35.437  34.058  29.195  1.00  0.00    +0.000 C 
ATOM     71  F12 UNL A   1      35.130  34.857  28.165  1.00  0.00    +0.000 F 
ATOM     72  C52 UNL A   1      34.498  33.809  30.184  1.00  0.00    +0.000 C 
ATOM     73  F13 UNL A   1      33.276  34.353  30.102  1.00  0.00    +0.000 F 
ATOM     74  C53 UNL A   1      34.829  33.003  31.263  1.00  0.00    +0.000 C 
ATOM     75  F14 UNL A   1      33.919  32.750  32.214  1.00  0.00    +0.000 F 
ATOM     76  C54 UNL A   1      36.105  32.453  31.359  1.00  0.00    +0.000 C 
ATOM     77  F15 UNL A   1      36.401  31.684  32.417  1.00  0.00    +0.000 F 
ENDBRANCH   66   67
TORSDOF 20
ENDMDL
MODEL 6
REMARK VINA RESULT:     -10.3     34.994     39.450
ROOT
ATOM     30  C25 UNL A   1      10.805   2.877  21.420  1.00  0.00    +0.000 C 
ATOM     31  C26 UNL A   1       9.832   3.779  22.125  1.00  0.00    +0.000 C 
ATOM     32  N4  UNL A   1       9.345   4.934  21.744  1.00  0.00    +0.000 N 
ATOM     33  C27 UNL A   1       8.457   5.317  22.740  1.00  0.00    +0.000 C 
ATOM     34  C28 UNL A   1       7.739   6.462  22.839  1.00  0.00    +0.000 C 
ATOM     46  C35 UNL A   1       7.783   7.532  21.877  1.00  0.00    +0.000 C 
ATOM     47  C36 UNL A   1       7.140   8.757  21.917  1.00  0.00    +0.000 C 
ATOM     48  C37 UNL A   1       7.454   9.455  20.745  1.00  0.00    +0.000 C 
ATOM     49  C38 UNL A   1       8.325   8.682  19.995  1.00  0.00    +0.000 C 
ATOM     50  N5  UNL A   1       8.516   7.504  20.700  1.00  0.00    +0.000 N 
ATOM     51  C39 UNL A   1       8.939   8.994  18.730  1.00  0.00    +0.000 C 
ATOM     63  C46 UNL A   1       9.797   8.184  18.061  1.00  0.00    +0.000 C 
ATOM     64  N6  UNL A   1      10.269   6.930  18.418  1.00  0.00    +0.000 N 
ATOM     65  C47 UNL A   1      11.061   6.552  17.444  1.00  0.00    +0.000 C 
ATOM     66  C48 UNL A   1      11.866   5.289  17.309  1.00  0.00    +0.000 C 
ATOM     78  C55 UNL A   1      11.832   4.377  18.301  1.00  0.00    +0.000 C 
ATOM     79  C56 UNL A   1      12.559   3.111  18.312  1.00  0.00    +0.000 C 
ATOM     80  C57 UNL A   1      12.250   2.439  19.432  1.00  0.00    +0.000 C 
ATOM     81  C58 UNL A   1      11.326   3.243  20.233  1.00  0.00    +0.000 C 
ATOM     82  N7  UNL A   1      11.142   4.381  19.488  1.00  0.00    +0.000 N 
ATOM     83  C59 UNL A   1      11.159   7.519  16.341  1.00  0.00    +0.000 C 
ATOM     84  C60 UNL A   1      10.399   8.511  16.785  1.00  0.00    +0.000 C 
ATOM     85  C61 UNL A   1       8.436   4.253  23.721  1.00  0.00    +0.000 C 
ATOM     86  C62 UNL A   1       9.317   3.309  23.420  1.00  0.00    +0.000 C 
ATOM    119  H28 UNL A   1       6.533   9.097  22.680  1.00  0.00    +0.000 H 
ATOM    120  H29 UNL A   1       7.096  10.387  20.485  1.00  0.00    +0.000 H 
ATOM    121  H30 UNL A   1       9.086   6.757  20.407  1.00  0.00    +0.000 H 
ATOM    122  H31 UNL A   1      13.208   2.786  17.578  1.00  0.00    +0.000 H 
ATOM    123  H32 UNL A   1      12.605   1.505  19.687  1.00  0.00    +0.000 H 
ATOM    124  H33 UNL A   1      10.572   5.129  19.777  1.00  0.00    +0.000 H 
ATOM    125  H34 UNL A   1      11.681   7.446  15.454  1.00  0.00    +0.000 H 
ATOM    126  H35 UNL A   1      10.255   9.402  16.285  1.00  0.00    +0.000 H 
ATOM    127  H36 UNL A   1       7.818   4.232  24.546  1.00  0.00    +0.000 H 
ATOM    128  H37 UNL A   1       9.573   2.464  23.954  1.00  0.00    +0.000 H 
ENDROOT
BRANCH   30   29
ATOM    129  H38 UNL A   1      13.036   2.157  22.715  1.00  0.00    +0.000 H 
ATOM    130  H39 UNL A   1      13.657  -0.026  23.566  1.00  0.00    +0.000 H 
ATOM    117  H26 UNL A   1       9.904  -1.547  22.425  1.00  0.00    +0.000 H 
ATOM    118  H27 UNL A   1       9.358   0.583  21.394  1.00  0.00    +0.000 H 
ATOM     87  C63 UNL A   1      12.378   1.367  22.633  1.00  0.00    +0.000 C 
ATOM     88  C64 UNL A   1      12.721   0.122  23.157  1.00  0.00    +0.000 C 
ATOM     26  C21 UNL A   1      11.797  -0.927  23.132  1.00  0.00    +0.000 C 
ATOM     27  C22 UNL A   1      10.572  -0.761  22.478  1.00  0.00    +0.000 C 
ATOM     28  C23 UNL A   1      10.253   0.469  21.896  1.00  0.00    +0.000 C 
ATOM     29  C24 UNL A   1      11.142   1.550  21.992  1.00  0.00    +0.000 C 
BRANCH   26   24
ATOM     25  O2  UNL A   1      11.560  -3.249  23.320  1.00  0.00    +0.000 O 
ATOM     24  C20 UNL A   1      12.109  -2.239  23.741  1.00  0.00    +0.000 C 
BRANCH   24   23
ATOM    116  H25 UNL A   1      13.948  -2.471  24.502  1.00  0.00    +0.000 H 
ATOM     23  N3  UNL A   1      13.012  -2.330  24.773  1.00  0.00    +0.000 N 
BRANCH   23   22
ATOM    114  H23 UNL A   1      11.733  -2.284  26.393  1.00  0.00    +0.000 H 
ATOM    115  H24 UNL A   1      13.289  -3.071  26.669  1.00  0.00    +0.000 H 
ATOM     22  C19 UNL A   1      12.786  -2.248  26.207  1.00  0.00    +0.000 C 
BRANCH   22   21
ATOM    113  H22 UNL A   1      13.683  -1.203  27.787  1.00  0.00    +0.000 H 
ATOM     21  C18 UNL A   1      13.347  -0.958  26.802  1.00  0.00    +0.000 C 
ATOM    112  H21 UNL A   1      12.570  -0.221  26.791  1.00  0.00    +0.000 H 
BRANCH   21   20
ATOM     20  C17 UNL A   1      14.559  -0.381  26.064  1.00  0.00    +0.000 C 
ATOM    110  H19 UNL A   1      15.429  -0.904  26.402  1.00  0.00    +0.000 H 
ATOM    111  H20 UNL A   1      14.354  -0.508  25.021  1.00  0.00    +0.000 H 
BRANCH   20   19
ATOM     19  C16 UNL A   1      14.806   1.122  26.261  1.00  0.00    +0.000 C 
ATOM    108  H17 UNL A   1      15.686   1.386  25.715  1.00  0.00    +0.000 H 
ATOM    109  H18 UNL A   1      13.921   1.614  25.916  1.00  0.00    +0.000 H 
BRANCH   19   18
ATOM     18  C15 UNL A   1      14.998   1.569  27.715  1.00  0.00    +0.000 C 
ATOM    107  H16 UNL A   1      15.839   1.030  28.096  1.00  0.00    +0.000 H 
ATOM    106  H15 UNL A   1      14.097   1.363  28.253  1.00  0.00    +0.000 H 
BRANCH   18   17
ATOM     17  C14 UNL A   1      15.320   3.057  27.869  1.00  0.00    +0.000 C 
ATOM    105  H14 UNL A   1      15.890   3.363  27.017  1.00  0.00    +0.000 H 
ATOM    104  H13 UNL A   1      15.872   3.200  28.775  1.00  0.00    +0.000 H 
BRANCH   17   16
ATOM    103  H12 UNL A   1      14.089   4.593  27.254  1.00  0.00    +0.000 H 
ATOM     16  N2  UNL A   1      14.120   3.868  27.919  1.00  0.00    +0.000 N 
BRANCH   16   14
ATOM     14  C13 UNL A   1      13.029   3.796  28.730  1.00  0.00    +0.000 C 
ATOM     15  O1  UNL A   1      13.212   3.333  29.862  1.00  0.00    +0.000 O 
BRANCH   14   12
ATOM     99  H8  UNL A   1      11.766   4.979  27.542  1.00  0.00    +0.000 H 
ATOM     12  C11 UNL A   1      11.621   4.237  28.301  1.00  0.00    +0.000 C 
BRANCH   12   11
ATOM     97  H6  UNL A   1       7.846   1.643  27.404  1.00  0.00    +0.000 H 
ATOM     98  H7  UNL A   1       8.959   3.510  28.446  1.00  0.00    +0.000 H 
ATOM    131  H40 UNL A   1      12.504   2.506  26.448  1.00  0.00    +0.000 H 
ATOM    132  H41 UNL A   1      11.355   0.723  25.300  1.00  0.00    +0.000 H 
ATOM      8  C7  UNL A   1       9.497   0.995  26.263  1.00  0.00    +0.000 C 
ATOM      9  C8  UNL A   1       8.838   1.826  27.182  1.00  0.00    +0.000 C 
ATOM     10  C9  UNL A   1       9.488   2.897  27.806  1.00  0.00    +0.000 C 
ATOM     11  C10 UNL A   1      10.842   3.150  27.577  1.00  0.00    +0.000 C 
ATOM     89  C65 UNL A   1      11.507   2.334  26.651  1.00  0.00    +0.000 C 
ATOM     90  C66 UNL A   1      10.843   1.288  25.994  1.00  0.00    +0.000 C 
BRANCH    8    7
ATOM      3  C3  UNL A   1       8.455  -2.536  25.274  1.00  0.00    +0.000 C 
ATOM      4  C4  UNL A   1       7.418  -2.204  24.409  1.00  0.00    +0.000 C 
ATOM      5  N1  UNL A   1       7.038  -0.938  24.127  1.00  0.00    +0.000 N 
ATOM    133  H42 UNL A   1       9.932  -1.685  26.517  1.00  0.00    +0.000 H 
ATOM      7  C6  UNL A   1       8.801  -0.141  25.621  1.00  0.00    +0.000 C 
ATOM      6  C5  UNL A   1       7.740   0.050  24.731  1.00  0.00    +0.000 C 
ATOM     91  C67 UNL A   1       9.149  -1.478  25.876  1.00  0.00    +0.000 C 
ATOM     95  H4  UNL A   1       6.905  -2.975  23.954  1.00  0.00    +0.000 H 
ATOM     96  H5  UNL A   1       7.469   1.022  24.518  1.00  0.00    +0.000 H 
BRANCH    3    2
ATOM      2  C2  UNL A   1       8.816  -3.944  25.474  1.00  0.00    +0.000 C 
ATOM     94  H3  UNL A   1       9.773  -4.236  25.226  1.00  0.00    +0.000 H 
BRANCH    2    1
ATOM      1  C1  UNL A   1       7.982  -4.874  25.958  1.00  0.00    +0.000 C 
ATOM     92  H1  UNL A   1       8.182  -5.322  26.866  1.00  0.00    +0.000 H 
ATOM     93  H2  UNL A   1       7.142  -5.142  25.423  1.00  0.00    +0.000 H 
ENDBRANCH    2    1
ENDBRANCH    3    2
ENDBRANCH    8    7
ENDBRANCH   12   11
BRANCH   12   13
ATOM    101  H10 UNL A   1       9.851   4.660  29.427  1.00  0.00    +0.000 H 
ATOM    100  H9  UNL A   1      11.337   4.896  30.316  1.00  0.00    +0.000 H 
ATOM     13  C12 UNL A   1      10.857   5.022  29.369  1.00  0.00    +0.000 C 
ATOM    102  H11 UNL A   1      10.847   6.060  29.109  1.00  0.00    +0.000 H 
ENDBRANCH   12   13
ENDBRANCH   14   12
ENDBRANCH   16   14
ENDBRANCH   17   16
ENDBRANCH   18   17
ENDBRANCH   19   18
ENDBRANCH   20   19
ENDBRANCH   21   20
ENDBRANCH   22   21
ENDBRANCH   23   22
ENDBRANCH   24   23
ENDBRANCH   26   24
ENDBRANCH   30   29
BRANCH   34   35
ATOM     35  C29 UNL A   1       6.845   6.618  24.034  1.00  0.00    +0.000 C 
ATOM     36  C30 UNL A   1       5.562   6.049  24.069  1.00  0.00    +0.000 C 
ATOM     37  F1  UNL A   1       5.091   5.382  23.005  1.00  0.00    +0.000 F 
ATOM     38  C31 UNL A   1       4.743   6.198  25.184  1.00  0.00    +0.000 C 
ATOM     39  F2  UNL A   1       3.504   5.687  25.177  1.00  0.00    +0.000 F 
ATOM     40  C32 UNL A   1       5.201   6.888  26.298  1.00  0.00    +0.000 C 
ATOM     41  F3  UNL A   1       4.412   7.026  27.373  1.00  0.00    +0.000 F 
ATOM     42  C33 UNL A   1       6.473   7.439  26.293  1.00  0.00    +0.000 C 
ATOM     43  F4  UNL A   1       6.921   8.095  27.372  1.00  0.00    +0.000 F 
ATOM     44  C34 UNL A   1       7.285   7.316  25.168  1.00  0.00    +0.000 C 
ATOM     45  F5  UNL A   1       8.505   7.873  25.189  1.00  0.00    +0.000 F 
ENDBRANCH   34   35
BRANCH   51   52
ATOM     52  C40 UNL A   1       8.627  10.323  18.111  1.00  0.00    +0.000 C 
ATOM     53  C41 UNL A   1       9.418  11.453  18.362  1.00  0.00    +0.000 C 
ATOM     54  F6  UNL A   1      10.453  11.378  19.213  1.00  0.00    +0.000 F 
ATOM     55  C42 UNL A   1       9.126  12.678  17.766  1.00  0.00    +0.000 C 
ATOM     56  F7  UNL A   1       9.869  13.755  18.053  1.00  0.00    +0.000 F 
ATOM     57  C43 UNL A   1       8.058  12.787  16.888  1.00  0.00    +0.000 C 
ATOM     58  F8  UNL A   1       7.780  13.964  16.311  1.00  0.00    +0.000 F 
ATOM     59  C44 UNL A   1       7.272  11.677  16.613  1.00  0.00    +0.000 C 
ATOM     60  F9  UNL A   1       6.246  11.779  15.757  1.00  0.00    +0.000 F 
ATOM     61  C45 UNL A   1       7.546  10.459  17.227  1.00  0.00    +0.000 C 
ATOM     62  F10 UNL A   1       6.762   9.405  16.952  1.00  0.00    +0.000 F 
ENDBRANCH   51   52
BRANCH   66   67
ATOM     67  C49 UNL A   1      12.718   5.053  16.117  1.00  0.00    +0.000 C 
ATOM     68  C50 UNL A   1      12.199   4.418  14.980  1.00  0.00    +0.000 C 
ATOM     69  F11 UNL A   1      10.926   3.997  14.972  1.00  0.00    +0.000 F 
ATOM     70  C51 UNL A   1      12.995   4.181  13.862  1.00  0.00    +0.000 C 
ATOM     71  F12 UNL A   1      12.485   3.537  12.804  1.00  0.00    +0.000 F 
ATOM     72  C52 UNL A   1      14.318   4.597  13.849  1.00  0.00    +0.000 C 
ATOM     73  F13 UNL A   1      15.083   4.373  12.772  1.00  0.00    +0.000 F 
ATOM     74  C53 UNL A   1      14.849   5.240  14.958  1.00  0.00    +0.000 C 
ATOM     75  F14 UNL A   1      16.124   5.655  14.944  1.00  0.00    +0.000 F 
ATOM     76  C54 UNL A   1      14.061   5.456  16.086  1.00  0.00    +0.000 C 
ATOM     77  F15 UNL A   1      14.602   6.072  17.147  1.00  0.00    +0.000 F 
ENDBRANCH   66   67
TORSDOF 20
ENDMDL
MODEL 7
REMARK VINA RESULT:     -10.3      4.493      9.978
ROOT
ATOM     30  C25 UNL A   1      41.449  26.594  27.620  1.00  0.00    +0.000 C 
ATOM     31  C26 UNL A   1      42.876  26.868  27.237  1.00  0.00    +0.000 C 
ATOM     32  N4  UNL A   1      43.627  27.903  27.520  1.00  0.00    +0.000 N 
ATOM     33  C27 UNL A   1      44.870  27.632  26.965  1.00  0.00    +0.000 C 
ATOM     34  C28 UNL A   1      45.974  28.417  26.939  1.00  0.00    +0.000 C 
ATOM     46  C35 UNL A   1      46.044  29.738  27.508  1.00  0.00    +0.000 C 
ATOM     47  C36 UNL A   1      47.096  30.636  27.480  1.00  0.00    +0.000 C 
ATOM     48  C37 UNL A   1      46.717  31.777  28.195  1.00  0.00    +0.000 C 
ATOM     49  C38 UNL A   1      45.414  31.606  28.633  1.00  0.00    +0.000 C 
ATOM     50  N5  UNL A   1      45.015  30.349  28.208  1.00  0.00    +0.000 N 
ATOM     51  C39 UNL A   1      44.593  32.521  29.385  1.00  0.00    +0.000 C 
ATOM     63  C46 UNL A   1      43.314  32.284  29.767  1.00  0.00    +0.000 C 
ATOM     64  N6  UNL A   1      42.527  31.165  29.534  1.00  0.00    +0.000 N 
ATOM     65  C47 UNL A   1      41.375  31.407  30.111  1.00  0.00    +0.000 C 
ATOM     66  C48 UNL A   1      40.138  30.554  30.157  1.00  0.00    +0.000 C 
ATOM     78  C55 UNL A   1      40.133  29.366  29.522  1.00  0.00    +0.000 C 
ATOM     79  C56 UNL A   1      39.009  28.435  29.477  1.00  0.00    +0.000 C 
ATOM     80  C57 UNL A   1      39.378  27.337  28.799  1.00  0.00    +0.000 C 
ATOM     81  C58 UNL A   1      40.755  27.502  28.333  1.00  0.00    +0.000 C 
ATOM     82  N7  UNL A   1      41.119  28.740  28.800  1.00  0.00    +0.000 N 
ATOM     83  C59 UNL A   1      41.312  32.703  30.801  1.00  0.00    +0.000 C 
ATOM     84  C60 UNL A   1      42.505  33.213  30.529  1.00  0.00    +0.000 C 
ATOM     85  C61 UNL A   1      44.789  26.316  26.369  1.00  0.00    +0.000 C 
ATOM     86  C62 UNL A   1      43.559  25.828  26.452  1.00  0.00    +0.000 C 
ATOM    119  H28 UNL A   1      48.005  30.489  27.012  1.00  0.00    +0.000 H 
ATOM    120  H29 UNL A   1      47.309  32.605  28.368  1.00  0.00    +0.000 H 
ATOM    121  H30 UNL A   1      44.131  29.950  28.378  1.00  0.00    +0.000 H 
ATOM    122  H31 UNL A   1      38.080  28.596  29.898  1.00  0.00    +0.000 H 
ATOM    123  H32 UNL A   1      38.785  26.509  28.633  1.00  0.00    +0.000 H 
ATOM    124  H33 UNL A   1      42.002  29.142  28.633  1.00  0.00    +0.000 H 
ATOM    125  H34 UNL A   1      40.540  33.110  31.354  1.00  0.00    +0.000 H 
ATOM    126  H35 UNL A   1      42.818  34.151  30.823  1.00  0.00    +0.000 H 
ATOM    127  H36 UNL A   1      45.583  25.822  25.934  1.00  0.00    +0.000 H 
ATOM    128  H37 UNL A   1      43.181  24.948  26.069  1.00  0.00    +0.000 H 
ENDROOT
BRANCH   30   29
ATOM    129  H38 UNL A   1      39.552  26.108  25.794  1.00  0.00    +0.000 H 
ATOM    130  H39 UNL A   1      38.434  24.018  25.287  1.00  0.00    +0.000 H 
ATOM    117  H26 UNL A   1      40.913  22.018  28.035  1.00  0.00    +0.000 H 
ATOM    118  H27 UNL A   1      41.895  24.141  28.689  1.00  0.00    +0.000 H 
ATOM     87  C63 UNL A   1      39.827  25.245  26.287  1.00  0.00    +0.000 C 
ATOM     88  C64 UNL A   1      39.211  24.037  25.966  1.00  0.00    +0.000 C 
ATOM     26  C21 UNL A   1      39.645  22.850  26.563  1.00  0.00    +0.000 C 
ATOM     27  C22 UNL A   1      40.619  22.889  27.566  1.00  0.00    +0.000 C 
ATOM     28  C23 UNL A   1      41.193  24.110  27.932  1.00  0.00    +0.000 C 
ATOM     29  C24 UNL A   1      40.821  25.293  27.278  1.00  0.00    +0.000 C 
BRANCH   26   24
ATOM     25  O2  UNL A   1      39.748  20.535  26.221  1.00  0.00    +0.000 O 
ATOM     24  C20 UNL A   1      39.055  21.544  26.193  1.00  0.00    +0.000 C 
BRANCH   24   23
ATOM    116  H25 UNL A   1      37.091  21.408  26.566  1.00  0.00    +0.000 H 
ATOM     23  N3  UNL A   1      37.734  21.458  25.823  1.00  0.00    +0.000 N 
BRANCH   23   22
ATOM    114  H23 UNL A   1      37.653  22.148  23.878  1.00  0.00    +0.000 H 
ATOM    115  H24 UNL A   1      37.262  20.440  24.102  1.00  0.00    +0.000 H 
ATOM     22  C19 UNL A   1      37.149  21.430  24.491  1.00  0.00    +0.000 C 
BRANCH   22   21
ATOM    113  H22 UNL A   1      35.452  22.148  25.490  1.00  0.00    +0.000 H 
ATOM     21  C18 UNL A   1      35.659  21.761  24.515  1.00  0.00    +0.000 C 
ATOM    112  H21 UNL A   1      35.116  20.866  24.290  1.00  0.00    +0.000 H 
BRANCH   21   20
ATOM     20  C17 UNL A   1      35.222  22.843  23.521  1.00  0.00    +0.000 C 
ATOM    110  H19 UNL A   1      36.029  23.008  22.839  1.00  0.00    +0.000 H 
ATOM    111  H20 UNL A   1      34.331  22.470  23.058  1.00  0.00    +0.000 H 
BRANCH   20   19
ATOM     19  C16 UNL A   1      34.838  24.196  24.136  1.00  0.00    +0.000 C 
ATOM    108  H17 UNL A   1      34.146  24.013  24.930  1.00  0.00    +0.000 H 
ATOM    109  H18 UNL A   1      35.754  24.644  24.458  1.00  0.00    +0.000 H 
BRANCH   19   18
ATOM     18  C15 UNL A   1      34.196  25.197  23.169  1.00  0.00    +0.000 C 
ATOM    107  H16 UNL A   1      33.404  24.680  22.669  1.00  0.00    +0.000 H 
ATOM    106  H15 UNL A   1      34.950  25.546  22.495  1.00  0.00    +0.000 H 
BRANCH   18   17
ATOM     17  C14 UNL A   1      33.567  26.411  23.857  1.00  0.00    +0.000 C 
ATOM    105  H14 UNL A   1      34.142  27.275  23.594  1.00  0.00    +0.000 H 
ATOM    104  H13 UNL A   1      33.572  26.250  24.915  1.00  0.00    +0.000 H 
BRANCH   17   16
ATOM    103  H12 UNL A   1      32.119  27.137  22.582  1.00  0.00    +0.000 H 
ATOM     16  N2  UNL A   1      32.203  26.632  23.422  1.00  0.00    +0.000 N 
BRANCH   16   14
ATOM     14  C13 UNL A   1      31.018  26.260  23.980  1.00  0.00    +0.000 C 
ATOM     15  O1  UNL A   1      29.994  26.707  23.448  1.00  0.00    +0.000 O 
BRANCH   14   12
ATOM     99  H8  UNL A   1      29.865  25.316  25.457  1.00  0.00    +0.000 H 
ATOM     12  C11 UNL A   1      30.907  25.353  25.214  1.00  0.00    +0.000 C 
BRANCH   12   11
ATOM     97  H6  UNL A   1      32.451  21.087  26.314  1.00  0.00    +0.000 H 
ATOM     98  H7  UNL A   1      31.747  23.320  26.888  1.00  0.00    +0.000 H 
ATOM    131  H40 UNL A   1      30.787  24.044  22.873  1.00  0.00    +0.000 H 
ATOM    132  H41 UNL A   1      31.360  21.766  22.323  1.00  0.00    +0.000 H 
ATOM      8  C7  UNL A   1      31.986  21.217  24.261  1.00  0.00    +0.000 C 
ATOM      9  C8  UNL A   1      32.084  21.706  25.574  1.00  0.00    +0.000 C 
ATOM     10  C9  UNL A   1      31.697  23.010  25.905  1.00  0.00    +0.000 C 
ATOM     11  C10 UNL A   1      31.247  23.899  24.927  1.00  0.00    +0.000 C 
ATOM     89  C65 UNL A   1      31.133  23.416  23.615  1.00  0.00    +0.000 C 
ATOM     90  C66 UNL A   1      31.480  22.096  23.292  1.00  0.00    +0.000 C 
BRANCH    8    7
ATOM      3  C3  UNL A   1      33.348  17.666  24.533  1.00  0.00    +0.000 C 
ATOM      4  C4  UNL A   1      33.138  17.270  23.217  1.00  0.00    +0.000 C 
ATOM      5  N1  UNL A   1      32.596  18.057  22.262  1.00  0.00    +0.000 N 
ATOM    133  H42 UNL A   1      33.128  19.309  25.839  1.00  0.00    +0.000 H 
ATOM      7  C6  UNL A   1      32.410  19.841  23.924  1.00  0.00    +0.000 C 
ATOM      6  C5  UNL A   1      32.257  19.313  22.639  1.00  0.00    +0.000 C 
ATOM     91  C67 UNL A   1      32.979  18.975  24.874  1.00  0.00    +0.000 C 
ATOM     95  H4  UNL A   1      33.413  16.312  22.953  1.00  0.00    +0.000 H 
ATOM     96  H5  UNL A   1      31.851  19.931  21.918  1.00  0.00    +0.000 H 
BRANCH    3    2
ATOM      2  C2  UNL A   1      33.987  16.746  25.480  1.00  0.00    +0.000 C 
ATOM     94  H3  UNL A   1      33.595  16.684  26.431  1.00  0.00    +0.000 H 
BRANCH    2    1
ATOM      1  C1  UNL A   1      35.047  15.981  25.187  1.00  0.00    +0.000 C 
ATOM     92  H1  UNL A   1      35.682  15.671  25.940  1.00  0.00    +0.000 H 
ATOM     93  H2  UNL A   1      35.228  15.702  24.210  1.00  0.00    +0.000 H 
ENDBRANCH    2    1
ENDBRANCH    3    2
ENDBRANCH    8    7
ENDBRANCH   12   11
BRANCH   12   13
ATOM    101  H10 UNL A   1      31.077  25.473  27.344  1.00  0.00    +0.000 H 
ATOM    100  H9  UNL A   1      32.566  25.795  26.489  1.00  0.00    +0.000 H 
ATOM     13  C12 UNL A   1      31.508  25.950  26.488  1.00  0.00    +0.000 C 
ATOM    102  H11 UNL A   1      31.301  26.999  26.522  1.00  0.00    +0.000 H 
ENDBRANCH   12   13
ENDBRANCH   14   12
ENDBRANCH   16   14
ENDBRANCH   17   16
ENDBRANCH   18   17
ENDBRANCH   19   18
ENDBRANCH   20   19
ENDBRANCH   21   20
ENDBRANCH   22   21
ENDBRANCH   23   22
ENDBRANCH   24   23
ENDBRANCH   26   24
ENDBRANCH   30   29
BRANCH   34   35
ATOM     35  C29 UNL A   1      47.198  27.868  26.267  1.00  0.00    +0.000 C 
ATOM     36  C30 UNL A   1      48.258  27.322  27.007  1.00  0.00    +0.000 C 
ATOM     37  F1  UNL A   1      48.214  27.318  28.347  1.00  0.00    +0.000 F 
ATOM     38  C31 UNL A   1      49.388  26.813  26.372  1.00  0.00    +0.000 C 
ATOM     39  F2  UNL A   1      50.408  26.341  27.100  1.00  0.00    +0.000 F 
ATOM     40  C32 UNL A   1      49.465  26.808  24.986  1.00  0.00    +0.000 C 
ATOM     41  F3  UNL A   1      50.551  26.313  24.376  1.00  0.00    +0.000 F 
ATOM     42  C33 UNL A   1      48.419  27.322  24.235  1.00  0.00    +0.000 C 
ATOM     43  F4  UNL A   1      48.487  27.306  22.897  1.00  0.00    +0.000 F 
ATOM     44  C34 UNL A   1      47.300  27.858  24.868  1.00  0.00    +0.000 C 
ATOM     45  F5  UNL A   1      46.311  28.361  24.113  1.00  0.00    +0.000 F 
ENDBRANCH   34   35
BRANCH   51   52
ATOM     52  C40 UNL A   1      45.185  33.847  29.756  1.00  0.00    +0.000 C 
ATOM     53  C41 UNL A   1      45.062  34.966  28.920  1.00  0.00    +0.000 C 
ATOM     54  F6  UNL A   1      44.448  34.857  27.732  1.00  0.00    +0.000 F 
ATOM     55  C42 UNL A   1      45.602  36.196  29.287  1.00  0.00    +0.000 C 
ATOM     56  F7  UNL A   1      45.511  37.241  28.454  1.00  0.00    +0.000 F 
ATOM     57  C43 UNL A   1      46.248  36.336  30.506  1.00  0.00    +0.000 C 
ATOM     58  F8  UNL A   1      46.764  37.522  30.860  1.00  0.00    +0.000 F 
ATOM     59  C44 UNL A   1      46.368  35.246  31.355  1.00  0.00    +0.000 C 
ATOM     60  F9  UNL A   1      46.983  35.383  32.539  1.00  0.00    +0.000 F 
ATOM     61  C45 UNL A   1      45.851  34.010  30.980  1.00  0.00    +0.000 C 
ATOM     62  F10 UNL A   1      45.991  32.970  31.817  1.00  0.00    +0.000 F 
ENDBRANCH   51   52
BRANCH   66   67
ATOM     67  C49 UNL A   1      38.918  31.020  30.864  1.00  0.00    +0.000 C 
ATOM     68  C50 UNL A   1      37.900  31.687  30.171  1.00  0.00    +0.000 C 
ATOM     69  F11 UNL A   1      38.032  31.932  28.859  1.00  0.00    +0.000 F 
ATOM     70  C51 UNL A   1      36.758  32.140  30.829  1.00  0.00    +0.000 C 
ATOM     71  F12 UNL A   1      35.818  32.810  30.150  1.00  0.00    +0.000 F 
ATOM     72  C52 UNL A   1      36.602  31.910  32.187  1.00  0.00    +0.000 C 
ATOM     73  F13 UNL A   1      35.502  32.341  32.819  1.00  0.00    +0.000 F 
ATOM     74  C53 UNL A   1      37.591  31.238  32.891  1.00  0.00    +0.000 C 
ATOM     75  F14 UNL A   1      37.437  31.003  34.202  1.00  0.00    +0.000 F 
ATOM     76  C54 UNL A   1      38.744  30.807  32.239  1.00  0.00    +0.000 C 
ATOM     77  F15 UNL A   1      39.688  30.168  32.946  1.00  0.00    +0.000 F 
ENDBRANCH   66   67
TORSDOF 20
ENDMDL
MODEL 8
REMARK VINA RESULT:     -10.1     19.788     25.940
ROOT
ATOM     30  C25 UNL A   1      53.348  19.908  11.668  1.00  0.00    +0.000 C 
ATOM     31  C26 UNL A   1      54.710  19.292  11.507  1.00  0.00    +0.000 C 
ATOM     32  N4  UNL A   1      55.703  19.239  12.360  1.00  0.00    +0.000 N 
ATOM     33  C27 UNL A   1      56.707  18.520  11.726  1.00  0.00    +0.000 C 
ATOM     34  C28 UNL A   1      57.955  18.239  12.172  1.00  0.00    +0.000 C 
ATOM     46  C35 UNL A   1      58.478  18.666  13.443  1.00  0.00    +0.000 C 
ATOM     47  C36 UNL A   1      59.748  18.483  13.960  1.00  0.00    +0.000 C 
ATOM     48  C37 UNL A   1      59.783  19.038  15.244  1.00  0.00    +0.000 C 
ATOM     49  C38 UNL A   1      58.547  19.603  15.510  1.00  0.00    +0.000 C 
ATOM     50  N5  UNL A   1      57.755  19.364  14.398  1.00  0.00    +0.000 N 
ATOM     51  C39 UNL A   1      58.118  20.309  16.690  1.00  0.00    +0.000 C 
ATOM     63  C46 UNL A   1      56.886  20.848  16.871  1.00  0.00    +0.000 C 
ATOM     64  N6  UNL A   1      55.802  20.853  16.005  1.00  0.00    +0.000 N 
ATOM     65  C47 UNL A   1      54.841  21.483  16.635  1.00  0.00    +0.000 C 
ATOM     66  C48 UNL A   1      53.449  21.806  16.166  1.00  0.00    +0.000 C 
ATOM     78  C55 UNL A   1      53.072  21.443  14.924  1.00  0.00    +0.000 C 
ATOM     79  C56 UNL A   1      51.760  21.690  14.332  1.00  0.00    +0.000 C 
ATOM     80  C57 UNL A   1      51.726  21.148  13.105  1.00  0.00    +0.000 C 
ATOM     81  C58 UNL A   1      53.026  20.544  12.812  1.00  0.00    +0.000 C 
ATOM     82  N7  UNL A   1      53.765  20.776  13.944  1.00  0.00    +0.000 N 
ATOM     83  C59 UNL A   1      55.202  21.927  17.989  1.00  0.00    +0.000 C 
ATOM     84  C60 UNL A   1      56.470  21.548  18.068  1.00  0.00    +0.000 C 
ATOM     85  C61 UNL A   1      56.189  18.117  10.436  1.00  0.00    +0.000 C 
ATOM     86  C62 UNL A   1      54.983  18.624  10.225  1.00  0.00    +0.000 C 
ATOM    119  H28 UNL A   1      60.535  18.017  13.481  1.00  0.00    +0.000 H 
ATOM    120  H29 UNL A   1      60.593  19.028  15.884  1.00  0.00    +0.000 H 
ATOM    121  H30 UNL A   1      56.817  19.647  14.301  1.00  0.00    +0.000 H 
ATOM    122  H31 UNL A   1      50.985  22.200  14.784  1.00  0.00    +0.000 H 
ATOM    123  H32 UNL A   1      50.913  21.156  12.469  1.00  0.00    +0.000 H 
ATOM    124  H33 UNL A   1      54.702  20.493  14.045  1.00  0.00    +0.000 H 
ATOM    125  H34 UNL A   1      54.621  22.408  18.694  1.00  0.00    +0.000 H 
ATOM    126  H35 UNL A   1      57.082  21.728  18.879  1.00  0.00    +0.000 H 
ATOM    127  H36 UNL A   1      56.693  17.515   9.767  1.00  0.00    +0.000 H 
ATOM    128  H37 UNL A   1      54.390  18.564   9.383  1.00  0.00    +0.000 H 
ENDROOT
BRANCH   30   29
ATOM    129  H38 UNL A   1      52.712  21.651   9.737  1.00  0.00    +0.000 H 
ATOM    130  H39 UNL A   1      50.984  21.477   8.047  1.00  0.00    +0.000 H 
ATOM    117  H26 UNL A   1      50.063  17.594   9.378  1.00  0.00    +0.000 H 
ATOM    118  H27 UNL A   1      51.653  17.843  11.195  1.00  0.00    +0.000 H 
ATOM     87  C63 UNL A   1      52.136  20.798   9.677  1.00  0.00    +0.000 C 
ATOM     88  C64 UNL A   1      51.170  20.683   8.679  1.00  0.00    +0.000 C 
ATOM     26  C21 UNL A   1      50.452  19.493   8.534  1.00  0.00    +0.000 C 
ATOM     27  C22 UNL A   1      50.621  18.459   9.460  1.00  0.00    +0.000 C 
ATOM     28  C23 UNL A   1      51.545  18.598  10.499  1.00  0.00    +0.000 C 
ATOM     29  C24 UNL A   1      52.329  19.757  10.600  1.00  0.00    +0.000 C 
BRANCH   26   24
ATOM     25  O2  UNL A   1      49.084  20.294   6.810  1.00  0.00    +0.000 O 
ATOM     24  C20 UNL A   1      49.467  19.319   7.443  1.00  0.00    +0.000 C 
BRANCH   24   23
ATOM    116  H25 UNL A   1      48.359  17.686   7.791  1.00  0.00    +0.000 H 
ATOM     23  N3  UNL A   1      48.984  18.069   7.135  1.00  0.00    +0.000 N 
BRANCH   23   22
ATOM    114  H23 UNL A   1      50.062  17.671   5.419  1.00  0.00    +0.000 H 
ATOM    115  H24 UNL A   1      49.527  16.258   6.332  1.00  0.00    +0.000 H 
ATOM     22  C19 UNL A   1      49.263  17.232   5.978  1.00  0.00    +0.000 C 
BRANCH   22   21
ATOM    113  H22 UNL A   1      47.212  16.893   5.709  1.00  0.00    +0.000 H 
ATOM     21  C18 UNL A   1      48.045  17.090   5.068  1.00  0.00    +0.000 C 
ATOM    112  H21 UNL A   1      48.240  16.299   4.372  1.00  0.00    +0.000 H 
BRANCH   21   20
ATOM     20  C17 UNL A   1      47.686  18.347   4.269  1.00  0.00    +0.000 C 
ATOM    110  H19 UNL A   1      48.531  19.003   4.290  1.00  0.00    +0.000 H 
ATOM    111  H20 UNL A   1      47.426  18.005   3.288  1.00  0.00    +0.000 H 
BRANCH   20   19
ATOM     19  C16 UNL A   1      46.467  19.131   4.774  1.00  0.00    +0.000 C 
ATOM    108  H17 UNL A   1      46.108  18.650   5.659  1.00  0.00    +0.000 H 
ATOM    109  H18 UNL A   1      46.806  20.132   4.936  1.00  0.00    +0.000 H 
BRANCH   19   18
ATOM     18  C15 UNL A   1      45.299  19.236   3.786  1.00  0.00    +0.000 C 
ATOM    107  H16 UNL A   1      44.423  18.909   4.306  1.00  0.00    +0.000 H 
ATOM    106  H15 UNL A   1      45.524  18.630   2.934  1.00  0.00    +0.000 H 
BRANCH   18   17
ATOM     17  C14 UNL A   1      45.021  20.661   3.302  1.00  0.00    +0.000 C 
ATOM    105  H14 UNL A   1      45.936  21.067   2.922  1.00  0.00    +0.000 H 
ATOM    104  H13 UNL A   1      44.653  21.240   4.124  1.00  0.00    +0.000 H 
BRANCH   17   16
ATOM    103  H12 UNL A   1      44.085  21.486   1.660  1.00  0.00    +0.000 H 
ATOM     16  N2  UNL A   1      44.043  20.688   2.234  1.00  0.00    +0.000 N 
BRANCH   16   14
ATOM     14  C13 UNL A   1      43.073  19.795   1.890  1.00  0.00    +0.000 C 
ATOM     15  O1  UNL A   1      43.222  19.210   0.810  1.00  0.00    +0.000 O 
BRANCH   14   12
ATOM     99  H8  UNL A   1      41.974  20.067   3.656  1.00  0.00    +0.000 H 
ATOM     12  C11 UNL A   1      41.835  19.511   2.752  1.00  0.00    +0.000 C 
BRANCH   12   11
ATOM     97  H6  UNL A   1      37.207  19.815   2.224  1.00  0.00    +0.000 H 
ATOM     98  H7  UNL A   1      39.183  18.977   3.321  1.00  0.00    +0.000 H 
ATOM    131  H40 UNL A   1      41.563  21.435   0.900  1.00  0.00    +0.000 H 
ATOM    132  H41 UNL A   1      39.579  22.375  -0.100  1.00  0.00    +0.000 H 
ATOM      8  C7  UNL A   1      38.204  21.165   0.947  1.00  0.00    +0.000 C 
ATOM      9  C8  UNL A   1      38.131  20.178   1.943  1.00  0.00    +0.000 C 
ATOM     10  C9  UNL A   1      39.279  19.673   2.565  1.00  0.00    +0.000 C 
ATOM     11  C10 UNL A   1      40.553  20.096   2.179  1.00  0.00    +0.000 C 
ATOM     89  C65 UNL A   1      40.636  21.091   1.195  1.00  0.00    +0.000 C 
ATOM     90  C66 UNL A   1      39.484  21.627   0.603  1.00  0.00    +0.000 C 
BRANCH    8    7
ATOM      3  C3  UNL A   1      35.757  22.433  -1.687  1.00  0.00    +0.000 C 
ATOM      4  C4  UNL A   1      34.647  22.601  -0.865  1.00  0.00    +0.000 C 
ATOM      5  N1  UNL A   1      34.635  22.338   0.461  1.00  0.00    +0.000 N 
ATOM    133  H42 UNL A   1      37.782  21.842  -1.661  1.00  0.00    +0.000 H 
ATOM      7  C6  UNL A   1      36.984  21.680   0.290  1.00  0.00    +0.000 C 
ATOM      6  C5  UNL A   1      35.797  21.895   0.997  1.00  0.00    +0.000 C 
ATOM     91  C67 UNL A   1      36.934  21.971  -1.084  1.00  0.00    +0.000 C 
ATOM     95  H4  UNL A   1      33.777  22.948  -1.296  1.00  0.00    +0.000 H 
ATOM     96  H5  UNL A   1      35.808  21.700   2.010  1.00  0.00    +0.000 H 
BRANCH    3    2
ATOM      2  C2  UNL A   1      35.674  22.793  -3.106  1.00  0.00    +0.000 C 
ATOM     94  H3  UNL A   1      35.287  23.718  -3.347  1.00  0.00    +0.000 H 
BRANCH    2    1
ATOM      1  C1  UNL A   1      36.068  21.998  -4.109  1.00  0.00    +0.000 C 
ATOM     92  H1  UNL A   1      36.837  22.295  -4.731  1.00  0.00    +0.000 H 
ATOM     93  H2  UNL A   1      35.604  21.089  -4.261  1.00  0.00    +0.000 H 
ENDBRANCH    2    1
ENDBRANCH    3    2
ENDBRANCH    8    7
ENDBRANCH   12   11
BRANCH   12   13
ATOM    101  H10 UNL A   1      42.450  17.461   2.747  1.00  0.00    +0.000 H 
ATOM    100  H9  UNL A   1      41.980  18.062   4.319  1.00  0.00    +0.000 H 
ATOM     13  C12 UNL A   1      41.750  18.075   3.275  1.00  0.00    +0.000 C 
ATOM    102  H11 UNL A   1      40.760  17.698   3.122  1.00  0.00    +0.000 H 
ENDBRANCH   12   13
ENDBRANCH   14   12
ENDBRANCH   16   14
ENDBRANCH   17   16
ENDBRANCH   18   17
ENDBRANCH   19   18
ENDBRANCH   20   19
ENDBRANCH   21   20
ENDBRANCH   22   21
ENDBRANCH   23   22
ENDBRANCH   24   23
ENDBRANCH   26   24
ENDBRANCH   30   29
BRANCH   34   35
ATOM     35  C29 UNL A   1      58.845  17.432  11.272  1.00  0.00    +0.000 C 
ATOM     36  C30 UNL A   1      58.888  16.031  11.348  1.00  0.00    +0.000 C 
ATOM     37  F1  UNL A   1      58.155  15.382  12.264  1.00  0.00    +0.000 F 
ATOM     38  C31 UNL A   1      59.715  15.293  10.506  1.00  0.00    +0.000 C 
ATOM     39  F2  UNL A   1      59.776  13.961  10.629  1.00  0.00    +0.000 F 
ATOM     40  C32 UNL A   1      60.490  15.937   9.552  1.00  0.00    +0.000 C 
ATOM     41  F3  UNL A   1      61.283  15.225   8.739  1.00  0.00    +0.000 F 
ATOM     42  C33 UNL A   1      60.447  17.319   9.445  1.00  0.00    +0.000 C 
ATOM     43  F4  UNL A   1      61.185  17.940   8.515  1.00  0.00    +0.000 F 
ATOM     44  C34 UNL A   1      59.641  18.062  10.304  1.00  0.00    +0.000 C 
ATOM     45  F5  UNL A   1      59.632  19.398  10.185  1.00  0.00    +0.000 F 
ENDBRANCH   34   35
BRANCH   51   52
ATOM     52  C40 UNL A   1      59.112  20.485  17.799  1.00  0.00    +0.000 C 
ATOM     53  C41 UNL A   1      59.788  21.698  17.992  1.00  0.00    +0.000 C 
ATOM     54  F6  UNL A   1      59.594  22.722  17.147  1.00  0.00    +0.000 F 
ATOM     55  C42 UNL A   1      60.696  21.851  19.037  1.00  0.00    +0.000 C 
ATOM     56  F7  UNL A   1      61.363  23.004  19.179  1.00  0.00    +0.000 F 
ATOM     57  C43 UNL A   1      60.921  20.807  19.923  1.00  0.00    +0.000 C 
ATOM     58  F8  UNL A   1      61.792  20.958  20.930  1.00  0.00    +0.000 F 
ATOM     59  C44 UNL A   1      60.251  19.604  19.758  1.00  0.00    +0.000 C 
ATOM     60  F9  UNL A   1      60.460  18.598  20.619  1.00  0.00    +0.000 F 
ATOM     61  C45 UNL A   1      59.363  19.440  18.700  1.00  0.00    +0.000 C 
ATOM     62  F10 UNL A   1      58.737  18.260  18.558  1.00  0.00    +0.000 F 
ENDBRANCH   51   52
BRANCH   66   67
ATOM     67  C49 UNL A   1      52.504  22.546  17.039  1.00  0.00    +0.000 C 
ATOM     68  C50 UNL A   1      52.362  23.936  16.927  1.00  0.00    +0.000 C 
ATOM     69  F11 UNL A   1      53.104  24.613  16.038  1.00  0.00    +0.000 F 
ATOM     70  C51 UNL A   1      51.488  24.640  17.751  1.00  0.00    +0.000 C 
ATOM     71  F12 UNL A   1      51.402  25.973  17.650  1.00  0.00    +0.000 F 
ATOM     72  C52 UNL A   1      50.719  23.964  18.686  1.00  0.00    +0.000 C 
ATOM     73  F13 UNL A   1      49.874  24.640  19.476  1.00  0.00    +0.000 F 
ATOM     74  C53 UNL A   1      50.831  22.586  18.805  1.00  0.00    +0.000 C 
ATOM     75  F14 UNL A   1      50.079  21.929  19.699  1.00  0.00    +0.000 F 
ATOM     76  C54 UNL A   1      51.723  21.885  17.998  1.00  0.00    +0.000 C 
ATOM     77  F15 UNL A   1      51.818  20.554  18.140  1.00  0.00    +0.000 F 
ENDBRANCH   66   67
TORSDOF 20
ENDMDL
MODEL 9
REMARK VINA RESULT:     -10.1      4.516      9.326
ROOT
ATOM     30  C25 UNL A   1      40.168  28.796  29.121  1.00  0.00    +0.000 C 
ATOM     31  C26 UNL A   1      41.078  29.727  29.873  1.00  0.00    +0.000 C 
ATOM     32  N4  UNL A   1      42.346  29.587  30.170  1.00  0.00    +0.000 N 
ATOM     33  C27 UNL A   1      42.710  30.754  30.829  1.00  0.00    +0.000 C 
ATOM     34  C28 UNL A   1      43.903  31.073  31.385  1.00  0.00    +0.000 C 
ATOM     46  C35 UNL A   1      45.054  30.207  31.389  1.00  0.00    +0.000 C 
ATOM     47  C36 UNL A   1      46.288  30.415  31.978  1.00  0.00    +0.000 C 
ATOM     48  C37 UNL A   1      47.103  29.315  31.688  1.00  0.00    +0.000 C 
ATOM     49  C38 UNL A   1      46.362  28.404  30.953  1.00  0.00    +0.000 C 
ATOM     50  N5  UNL A   1      45.108  28.966  30.774  1.00  0.00    +0.000 N 
ATOM     51  C39 UNL A   1      46.766  27.115  30.451  1.00  0.00    +0.000 C 
ATOM     63  C46 UNL A   1      45.973  26.271  29.746  1.00  0.00    +0.000 C 
ATOM     64  N6  UNL A   1      44.649  26.434  29.364  1.00  0.00    +0.000 N 
ATOM     65  C47 UNL A   1      44.332  25.353  28.693  1.00  0.00    +0.000 C 
ATOM     66  C48 UNL A   1      43.019  24.975  28.065  1.00  0.00    +0.000 C 
ATOM     78  C55 UNL A   1      41.968  25.810  28.184  1.00  0.00    +0.000 C 
ATOM     79  C56 UNL A   1      40.636  25.577  27.633  1.00  0.00    +0.000 C 
ATOM     80  C57 UNL A   1      39.860  26.638  27.905  1.00  0.00    +0.000 C 
ATOM     81  C58 UNL A   1      40.631  27.610  28.678  1.00  0.00    +0.000 C 
ATOM     82  N7  UNL A   1      41.868  27.030  28.805  1.00  0.00    +0.000 N 
ATOM     83  C59 UNL A   1      45.435  24.391  28.551  1.00  0.00    +0.000 C 
ATOM     84  C60 UNL A   1      46.400  24.982  29.242  1.00  0.00    +0.000 C 
ATOM     85  C61 UNL A   1      41.543  31.610  30.849  1.00  0.00    +0.000 C 
ATOM     86  C62 UNL A   1      40.490  30.996  30.328  1.00  0.00    +0.000 C 
ATOM    119  H28 UNL A   1      46.562  31.240  32.536  1.00  0.00    +0.000 H 
ATOM    120  H29 UNL A   1      48.089  29.202  31.973  1.00  0.00    +0.000 H 
ATOM    121  H30 UNL A   1      44.366  28.546  30.282  1.00  0.00    +0.000 H 
ATOM    122  H31 UNL A   1      40.339  24.733  27.119  1.00  0.00    +0.000 H 
ATOM    123  H32 UNL A   1      38.876  26.749  27.614  1.00  0.00    +0.000 H 
ATOM    124  H33 UNL A   1      42.613  27.448  29.295  1.00  0.00    +0.000 H 
ATOM    125  H34 UNL A   1      45.454  23.491  28.044  1.00  0.00    +0.000 H 
ATOM    126  H35 UNL A   1      47.335  24.576  29.400  1.00  0.00    +0.000 H 
ATOM    127  H36 UNL A   1      41.532  32.572  31.221  1.00  0.00    +0.000 H 
ATOM    128  H37 UNL A   1      39.515  31.324  30.259  1.00  0.00    +0.000 H 
ENDROOT
BRANCH   30   29
ATOM    129  H38 UNL A   1      38.008  28.672  30.700  1.00  0.00    +0.000 H 
ATOM    130  H39 UNL A   1      35.710  29.235  30.173  1.00  0.00    +0.000 H 
ATOM    117  H26 UNL A   1      36.903  30.564  26.363  1.00  0.00    +0.000 H 
ATOM    118  H27 UNL A   1      39.169  29.816  26.815  1.00  0.00    +0.000 H 
ATOM     87  C63 UNL A   1      37.772  29.053  29.771  1.00  0.00    +0.000 C 
ATOM     88  C64 UNL A   1      36.457  29.413  29.483  1.00  0.00    +0.000 C 
ATOM     26  C21 UNL A   1      36.149  30.016  28.260  1.00  0.00    +0.000 C 
ATOM     27  C22 UNL A   1      37.138  30.154  27.281  1.00  0.00    +0.000 C 
ATOM     28  C23 UNL A   1      38.444  29.735  27.547  1.00  0.00    +0.000 C 
ATOM     29  C24 UNL A   1      38.777  29.206  28.803  1.00  0.00    +0.000 C 
BRANCH   26   24
ATOM     25  O2  UNL A   1      33.941  29.661  27.562  1.00  0.00    +0.000 O 
ATOM     24  C20 UNL A   1      34.773  30.470  27.953  1.00  0.00    +0.000 C 
BRANCH   24   23
ATOM    116  H25 UNL A   1      34.226  32.274  27.276  1.00  0.00    +0.000 H 
ATOM     23  N3  UNL A   1      34.425  31.790  28.110  1.00  0.00    +0.000 N 
BRANCH   23   22
ATOM    114  H23 UNL A   1      33.300  32.922  29.421  1.00  0.00    +0.000 H 
ATOM    115  H24 UNL A   1      34.579  31.948  30.152  1.00  0.00    +0.000 H 
ATOM     22  C19 UNL A   1      34.308  32.575  29.329  1.00  0.00    +0.000 C 
BRANCH   22   21
ATOM    113  H22 UNL A   1      35.393  34.049  30.349  1.00  0.00    +0.000 H 
ATOM     21  C18 UNL A   1      35.245  33.780  29.325  1.00  0.00    +0.000 C 
ATOM    112  H21 UNL A   1      34.788  34.556  28.745  1.00  0.00    +0.000 H 
BRANCH   21   20
ATOM     20  C17 UNL A   1      36.639  33.514  28.745  1.00  0.00    +0.000 C 
ATOM    110  H19 UNL A   1      36.586  32.620  28.159  1.00  0.00    +0.000 H 
ATOM    111  H20 UNL A   1      36.892  34.388  28.181  1.00  0.00    +0.000 H 
BRANCH   20   19
ATOM     19  C16 UNL A   1      37.766  33.339  29.772  1.00  0.00    +0.000 C 
ATOM    108  H17 UNL A   1      38.550  32.779  29.309  1.00  0.00    +0.000 H 
ATOM    109  H18 UNL A   1      38.056  34.326  30.064  1.00  0.00    +0.000 H 
BRANCH   19   18
ATOM     18  C15 UNL A   1      37.368  32.616  31.064  1.00  0.00    +0.000 C 
ATOM    107  H16 UNL A   1      37.951  31.721  31.111  1.00  0.00    +0.000 H 
ATOM    106  H15 UNL A   1      36.316  32.422  31.032  1.00  0.00    +0.000 H 
BRANCH   18   17
ATOM     17  C14 UNL A   1      37.672  33.408  32.338  1.00  0.00    +0.000 C 
ATOM    105  H14 UNL A   1      37.001  33.074  33.103  1.00  0.00    +0.000 H 
ATOM    104  H13 UNL A   1      37.540  34.451  32.137  1.00  0.00    +0.000 H 
BRANCH   17   16
ATOM    103  H12 UNL A   1      39.725  33.538  32.204  1.00  0.00    +0.000 H 
ATOM     16  N2  UNL A   1      39.026  33.188  32.802  1.00  0.00    +0.000 N 
BRANCH   16   14
ATOM     14  C13 UNL A   1      39.495  32.579  33.926  1.00  0.00    +0.000 C 
ATOM     15  O1  UNL A   1      40.380  33.178  34.549  1.00  0.00    +0.000 O 
BRANCH   14   12
ATOM     99  H8  UNL A   1      38.365  30.833  33.648  1.00  0.00    +0.000 H 
ATOM     12  C11 UNL A   1      39.000  31.212  34.422  1.00  0.00    +0.000 C 
BRANCH   12   11
ATOM     97  H6  UNL A   1      41.583  27.666  32.827  1.00  0.00    +0.000 H 
ATOM     98  H7  UNL A   1      39.961  29.427  32.543  1.00  0.00    +0.000 H 
ATOM    131  H40 UNL A   1      40.599  30.645  36.503  1.00  0.00    +0.000 H 
ATOM    132  H41 UNL A   1      42.320  28.972  36.743  1.00  0.00    +0.000 H 
ATOM      8  C7  UNL A   1      42.097  28.141  34.817  1.00  0.00    +0.000 C 
ATOM      9  C8  UNL A   1      41.390  28.306  33.614  1.00  0.00    +0.000 C 
ATOM     10  C9  UNL A   1      40.431  29.313  33.455  1.00  0.00    +0.000 C 
ATOM     11  C10 UNL A   1      40.100  30.166  34.510  1.00  0.00    +0.000 C 
ATOM     89  C65 UNL A   1      40.810  30.019  35.710  1.00  0.00    +0.000 C 
ATOM     90  C66 UNL A   1      41.800  29.037  35.855  1.00  0.00    +0.000 C 
BRANCH    8    7
ATOM      3  C3  UNL A   1      44.125  24.960  34.270  1.00  0.00    +0.000 C 
ATOM      4  C4  UNL A   1      45.028  25.116  35.317  1.00  0.00    +0.000 C 
ATOM      5  N1  UNL A   1      45.027  26.161  36.174  1.00  0.00    +0.000 N 
ATOM    133  H42 UNL A   1      42.456  25.868  33.354  1.00  0.00    +0.000 H 
ATOM      7  C6  UNL A   1      43.098  27.064  34.974  1.00  0.00    +0.000 C 
ATOM      6  C5  UNL A   1      44.064  27.094  35.983  1.00  0.00    +0.000 C 
ATOM     91  C67 UNL A   1      43.150  25.954  34.114  1.00  0.00    +0.000 C 
ATOM     95  H4  UNL A   1      45.746  24.387  35.446  1.00  0.00    +0.000 H 
ATOM     96  H5  UNL A   1      44.043  27.893  36.636  1.00  0.00    +0.000 H 
BRANCH    3    2
ATOM      2  C2  UNL A   1      44.187  23.762  33.426  1.00  0.00    +0.000 C 
ATOM     94  H3  UNL A   1      44.087  22.844  33.885  1.00  0.00    +0.000 H 
BRANCH    2    1
ATOM      1  C1  UNL A   1      44.365  23.784  32.099  1.00  0.00    +0.000 C 
ATOM     92  H1  UNL A   1      44.869  24.570  31.660  1.00  0.00    +0.000 H 
ATOM     93  H2  UNL A   1      43.997  23.016  31.516  1.00  0.00    +0.000 H 
ENDBRANCH    2    1
ENDBRANCH    3    2
ENDBRANCH    8    7
ENDBRANCH   12   11
BRANCH   12   13
ATOM    101  H10 UNL A   1      38.352  32.068  36.273  1.00  0.00    +0.000 H 
ATOM    100  H9  UNL A   1      37.051  31.492  35.259  1.00  0.00    +0.000 H 
ATOM     13  C12 UNL A   1      38.040  31.287  35.611  1.00  0.00    +0.000 C 
ATOM    102  H11 UNL A   1      38.046  30.353  36.133  1.00  0.00    +0.000 H 
ENDBRANCH   12   13
ENDBRANCH   14   12
ENDBRANCH   16   14
ENDBRANCH   17   16
ENDBRANCH   18   17
ENDBRANCH   19   18
ENDBRANCH   20   19
ENDBRANCH   21   20
ENDBRANCH   22   21
ENDBRANCH   23   22
ENDBRANCH   24   23
ENDBRANCH   26   24
ENDBRANCH   30   29
BRANCH   34   35
ATOM     35  C29 UNL A   1      44.024  32.418  32.040  1.00  0.00    +0.000 C 
ATOM     36  C30 UNL A   1      44.453  33.546  31.325  1.00  0.00    +0.000 C 
ATOM     37  F1  UNL A   1      44.807  33.434  30.036  1.00  0.00    +0.000 F 
ATOM     38  C31 UNL A   1      44.558  34.789  31.943  1.00  0.00    +0.000 C 
ATOM     39  F2  UNL A   1      45.016  35.842  31.253  1.00  0.00    +0.000 F 
ATOM     40  C32 UNL A   1      44.204  34.936  33.277  1.00  0.00    +0.000 C 
ATOM     41  F3  UNL A   1      44.301  36.134  33.869  1.00  0.00    +0.000 F 
ATOM     42  C33 UNL A   1      43.757  33.838  33.997  1.00  0.00    +0.000 C 
ATOM     43  F4  UNL A   1      43.403  33.981  35.281  1.00  0.00    +0.000 F 
ATOM     44  C34 UNL A   1      43.677  32.588  33.389  1.00  0.00    +0.000 C 
ATOM     45  F5  UNL A   1      43.255  31.543  34.116  1.00  0.00    +0.000 F 
ENDBRANCH   34   35
BRANCH   51   52
ATOM     52  C40 UNL A   1      48.163  26.658  30.745  1.00  0.00    +0.000 C 
ATOM     53  C41 UNL A   1      48.449  25.835  31.844  1.00  0.00    +0.000 C 
ATOM     54  F6  UNL A   1      47.474  25.479  32.693  1.00  0.00    +0.000 F 
ATOM     55  C42 UNL A   1      49.750  25.404  32.095  1.00  0.00    +0.000 C 
ATOM     56  F7  UNL A   1      50.009  24.654  33.174  1.00  0.00    +0.000 F 
ATOM     57  C43 UNL A   1      50.780  25.763  31.238  1.00  0.00    +0.000 C 
ATOM     58  F8  UNL A   1      52.030  25.344  31.478  1.00  0.00    +0.000 F 
ATOM     59  C44 UNL A   1      50.516  26.564  30.137  1.00  0.00    +0.000 C 
ATOM     60  F9  UNL A   1      51.508  26.903  29.302  1.00  0.00    +0.000 F 
ATOM     61  C45 UNL A   1      49.222  27.017  29.898  1.00  0.00    +0.000 C 
ATOM     62  F10 UNL A   1      48.998  27.800  28.831  1.00  0.00    +0.000 F 
ENDBRANCH   51   52
BRANCH   66   67
ATOM     67  C49 UNL A   1      42.862  23.685  27.348  1.00  0.00    +0.000 C 
ATOM     68  C50 UNL A   1      42.357  22.556  28.007  1.00  0.00    +0.000 C 
ATOM     69  F11 UNL A   1      42.033  22.629  29.306  1.00  0.00    +0.000 F 
ATOM     70  C51 UNL A   1      42.219  21.338  27.346  1.00  0.00    +0.000 C 
ATOM     71  F12 UNL A   1      41.772  20.265  28.010  1.00  0.00    +0.000 F 
ATOM     72  C52 UNL A   1      42.557  21.233  26.005  1.00  0.00    +0.000 C 
ATOM     73  F13 UNL A   1      42.420  20.063  25.367  1.00  0.00    +0.000 F 
ATOM     74  C53 UNL A   1      43.045  22.342  25.328  1.00  0.00    +0.000 C 
ATOM     75  F14 UNL A   1      43.361  22.246  24.029  1.00  0.00    +0.000 F 
ATOM     76  C54 UNL A   1      43.206  23.554  25.995  1.00  0.00    +0.000 C 
ATOM     77  F15 UNL A   1      43.688  24.607  25.319  1.00  0.00    +0.000 F 
ENDBRANCH   66   67
TORSDOF 20
ENDMDL
MODEL 10
REMARK VINA RESULT:     -10.1     25.561     33.945
ROOT
ATOM     30  C25 UNL A   1      19.965  18.760   5.837  1.00  0.00    +0.000 C 
ATOM     31  C26 UNL A   1      18.848  18.514   6.812  1.00  0.00    +0.000 C 
ATOM     32  N4  UNL A   1      17.610  18.942   6.781  1.00  0.00    +0.000 N 
ATOM     33  C27 UNL A   1      16.991  18.386   7.893  1.00  0.00    +0.000 C 
ATOM     34  C28 UNL A   1      15.723  18.570   8.334  1.00  0.00    +0.000 C 
ATOM     46  C35 UNL A   1      14.756  19.421   7.691  1.00  0.00    +0.000 C 
ATOM     47  C36 UNL A   1      13.466  19.719   8.093  1.00  0.00    +0.000 C 
ATOM     48  C37 UNL A   1      12.893  20.562   7.134  1.00  0.00    +0.000 C 
ATOM     49  C38 UNL A   1      13.839  20.821   6.157  1.00  0.00    +0.000 C 
ATOM     50  N5  UNL A   1      14.976  20.111   6.509  1.00  0.00    +0.000 N 
ATOM     51  C39 UNL A   1      13.717  21.653   4.987  1.00  0.00    +0.000 C 
ATOM     63  C46 UNL A   1      14.700  21.868   4.078  1.00  0.00    +0.000 C 
ATOM     64  N6  UNL A   1      15.994  21.368   4.060  1.00  0.00    +0.000 N 
ATOM     65  C47 UNL A   1      16.553  21.851   2.977  1.00  0.00    +0.000 C 
ATOM     66  C48 UNL A   1      17.954  21.662   2.465  1.00  0.00    +0.000 C 
ATOM     78  C55 UNL A   1      18.821  20.917   3.177  1.00  0.00    +0.000 C 
ATOM     79  C56 UNL A   1      20.208  20.648   2.809  1.00  0.00    +0.000 C 
ATOM     80  C57 UNL A   1      20.753  19.833   3.725  1.00  0.00    +0.000 C 
ATOM     81  C58 UNL A   1      19.762  19.548   4.763  1.00  0.00    +0.000 C 
ATOM     82  N7  UNL A   1      18.648  20.241   4.360  1.00  0.00    +0.000 N 
ATOM     83  C59 UNL A   1      15.661  22.695   2.169  1.00  0.00    +0.000 C 
ATOM     84  C60 UNL A   1      14.557  22.702   2.904  1.00  0.00    +0.000 C 
ATOM     85  C61 UNL A   1      17.974  17.554   8.553  1.00  0.00    +0.000 C 
ATOM     86  C62 UNL A   1      19.156  17.650   7.962  1.00  0.00    +0.000 C 
ATOM    119  H28 UNL A   1      13.006  19.379   8.952  1.00  0.00    +0.000 H 
ATOM    120  H29 UNL A   1      11.927  20.928   7.152  1.00  0.00    +0.000 H 
ATOM    121  H30 UNL A   1      15.816  20.099   5.995  1.00  0.00    +0.000 H 
ATOM    122  H31 UNL A   1      20.691  21.026   1.979  1.00  0.00    +0.000 H 
ATOM    123  H32 UNL A   1      21.717  19.465   3.701  1.00  0.00    +0.000 H 
ATOM    124  H33 UNL A   1      17.807  20.254   4.870  1.00  0.00    +0.000 H 
ATOM    125  H34 UNL A   1      15.845  23.160   1.266  1.00  0.00    +0.000 H 
ATOM    126  H35 UNL A   1      13.705  23.235   2.668  1.00  0.00    +0.000 H 
ATOM    127  H36 UNL A   1      17.780  16.965   9.377  1.00  0.00    +0.000 H 
ATOM    128  H37 UNL A   1      20.056  17.227   8.236  1.00  0.00    +0.000 H 
ENDROOT
BRANCH   30   29
ATOM    129  H38 UNL A   1      20.683  16.316   5.011  1.00  0.00    +0.000 H 
ATOM    130  H39 UNL A   1      22.774  15.146   5.378  1.00  0.00    +0.000 H 
ATOM    117  H26 UNL A   1      24.355  18.550   7.278  1.00  0.00    +0.000 H 
ATOM    118  H27 UNL A   1      22.200  19.652   7.090  1.00  0.00    +0.000 H 
ATOM     87  C63 UNL A   1      21.454  16.784   5.512  1.00  0.00    +0.000 C 
ATOM     88  C64 UNL A   1      22.669  16.125   5.687  1.00  0.00    +0.000 C 
ATOM     26  C21 UNL A   1      23.746  16.788   6.281  1.00  0.00    +0.000 C 
ATOM     27  C22 UNL A   1      23.572  18.074   6.804  1.00  0.00    +0.000 C 
ATOM     28  C23 UNL A   1      22.334  18.712   6.684  1.00  0.00    +0.000 C 
ATOM     29  C24 UNL A   1      21.274  18.083   6.014  1.00  0.00    +0.000 C 
BRANCH   26   24
ATOM     25  O2  UNL A   1      25.887  16.226   5.515  1.00  0.00    +0.000 O 
ATOM     24  C20 UNL A   1      25.068  16.135   6.420  1.00  0.00    +0.000 C 
BRANCH   24   23
ATOM    116  H25 UNL A   1      26.282  15.594   7.919  1.00  0.00    +0.000 H 
ATOM     23  N3  UNL A   1      25.380  15.433   7.560  1.00  0.00    +0.000 N 
BRANCH   23   22
ATOM    114  H23 UNL A   1      23.725  14.208   7.717  1.00  0.00    +0.000 H 
ATOM    115  H24 UNL A   1      25.180  13.638   8.539  1.00  0.00    +0.000 H 
ATOM     22  C19 UNL A   1      24.570  14.487   8.311  1.00  0.00    +0.000 C 
BRANCH   22   21
ATOM    113  H22 UNL A   1      24.806  15.796   9.930  1.00  0.00    +0.000 H 
ATOM     21  C18 UNL A   1      24.073  15.078   9.628  1.00  0.00    +0.000 C 
ATOM    112  H21 UNL A   1      23.951  14.277  10.327  1.00  0.00    +0.000 H 
BRANCH   21   20
ATOM     20  C17 UNL A   1      22.743  15.834   9.535  1.00  0.00    +0.000 C 
ATOM    110  H19 UNL A   1      22.615  16.153   8.522  1.00  0.00    +0.000 H 
ATOM    111  H20 UNL A   1      21.994  15.147   9.872  1.00  0.00    +0.000 H 
BRANCH   20   19
ATOM     19  C16 UNL A   1      22.613  17.068  10.439  1.00  0.00    +0.000 C 
ATOM    108  H17 UNL A   1      22.952  17.918   9.886  1.00  0.00    +0.000 H 
ATOM    109  H18 UNL A   1      21.583  17.121  10.720  1.00  0.00    +0.000 H 
BRANCH   19   18
ATOM     18  C15 UNL A   1      23.407  17.008  11.749  1.00  0.00    +0.000 C 
ATOM    107  H16 UNL A   1      24.321  17.537  11.582  1.00  0.00    +0.000 H 
ATOM    106  H15 UNL A   1      23.566  15.979  11.999  1.00  0.00    +0.000 H 
BRANCH   18   17
ATOM     17  C14 UNL A   1      22.711  17.688  12.929  1.00  0.00    +0.000 C 
ATOM    105  H14 UNL A   1      22.648  16.980  13.730  1.00  0.00    +0.000 H 
ATOM    104  H13 UNL A   1      21.737  18.008  12.620  1.00  0.00    +0.000 H 
BRANCH   17   16
ATOM    103  H12 UNL A   1      23.819  18.740  14.314  1.00  0.00    +0.000 H 
ATOM     16  N2  UNL A   1      23.452  18.837  13.405  1.00  0.00    +0.000 N 
BRANCH   16   14
ATOM     14  C13 UNL A   1      23.728  20.030  12.809  1.00  0.00    +0.000 C 
ATOM     15  O1  UNL A   1      22.756  20.695  12.431  1.00  0.00    +0.000 O 
BRANCH   14   12
ATOM     99  H8  UNL A   1      25.713  20.272  13.447  1.00  0.00    +0.000 H 
ATOM     12  C11 UNL A   1      25.153  20.556  12.579  1.00  0.00    +0.000 C 
BRANCH   12   11
ATOM     97  H6  UNL A   1      28.789  18.384  10.618  1.00  0.00    +0.000 H 
ATOM     98  H7  UNL A   1      27.623  19.317  12.510  1.00  0.00    +0.000 H 
ATOM    131  H40 UNL A   1      24.316  20.125  10.065  1.00  0.00    +0.000 H 
ATOM    132  H41 UNL A   1      25.429  19.065   8.205  1.00  0.00    +0.000 H 
ATOM      8  C7  UNL A   1      27.227  18.648   9.227  1.00  0.00    +0.000 C 
ATOM      9  C8  UNL A   1      27.829  18.740  10.492  1.00  0.00    +0.000 C 
ATOM     10  C9  UNL A   1      27.162  19.303  11.587  1.00  0.00    +0.000 C 
ATOM     11  C10 UNL A   1      25.883  19.846  11.450  1.00  0.00    +0.000 C 
ATOM     89  C65 UNL A   1      25.267  19.747  10.193  1.00  0.00    +0.000 C 
ATOM     90  C66 UNL A   1      25.920  19.145   9.109  1.00  0.00    +0.000 C 
BRANCH    8    7
ATOM      3  C3  UNL A   1      28.711  18.126   5.755  1.00  0.00    +0.000 C 
ATOM      4  C4  UNL A   1      29.356  16.917   5.992  1.00  0.00    +0.000 C 
ATOM      5  N1  UNL A   1      29.345  16.268   7.177  1.00  0.00    +0.000 N 
ATOM    133  H42 UNL A   1      27.497  19.583   6.680  1.00  0.00    +0.000 H 
ATOM      7  C6  UNL A   1      27.948  18.062   8.077  1.00  0.00    +0.000 C 
ATOM      6  C5  UNL A   1      28.640  16.852   8.176  1.00  0.00    +0.000 C 
ATOM     91  C67 UNL A   1      27.997  18.690   6.821  1.00  0.00    +0.000 C 
ATOM     95  H4  UNL A   1      29.878  16.488   5.213  1.00  0.00    +0.000 H 
ATOM     96  H5  UNL A   1      28.613  16.364   9.085  1.00  0.00    +0.000 H 
BRANCH    3    2
ATOM      2  C2  UNL A   1      28.748  18.722   4.415  1.00  0.00    +0.000 C 
ATOM     94  H3  UNL A   1      29.611  18.609   3.861  1.00  0.00    +0.000 H 
BRANCH    2    1
ATOM      1  C1  UNL A   1      27.736  19.404   3.865  1.00  0.00    +0.000 C 
ATOM     92  H1  UNL A   1      27.371  20.250   4.331  1.00  0.00    +0.000 H 
ATOM     93  H2  UNL A   1      27.320  19.084   2.977  1.00  0.00    +0.000 H 
ENDBRANCH    2    1
ENDBRANCH    3    2
ENDBRANCH    8    7
ENDBRANCH   12   11
BRANCH   12   13
ATOM    101  H10 UNL A   1      24.821  22.492  11.731  1.00  0.00    +0.000 H 
ATOM    100  H9  UNL A   1      24.773  22.459  13.478  1.00  0.00    +0.000 H 
ATOM     13  C12 UNL A   1      25.272  22.081  12.610  1.00  0.00    +0.000 C 
ATOM    102  H11 UNL A   1      26.305  22.357  12.644  1.00  0.00    +0.000 H 
ENDBRANCH   12   13
ENDBRANCH   14   12
ENDBRANCH   16   14
ENDBRANCH   17   16
ENDBRANCH   18   17
ENDBRANCH   19   18
ENDBRANCH   20   19
ENDBRANCH   21   20
ENDBRANCH   22   21
ENDBRANCH   23   22
ENDBRANCH   24   23
ENDBRANCH   26   24
ENDBRANCH   30   29
BRANCH   34   35
ATOM     35  C29 UNL A   1      15.309  17.836   9.576  1.00  0.00    +0.000 C 
ATOM     36  C30 UNL A   1      14.848  16.512   9.526  1.00  0.00    +0.000 C 
ATOM     37  F1  UNL A   1      14.727  15.883   8.348  1.00  0.00    +0.000 F 
ATOM     38  C31 UNL A   1      14.470  15.841  10.686  1.00  0.00    +0.000 C 
ATOM     39  F2  UNL A   1      13.986  14.594  10.610  1.00  0.00    +0.000 F 
ATOM     40  C32 UNL A   1      14.577  16.468  11.919  1.00  0.00    +0.000 C 
ATOM     41  F3  UNL A   1      14.217  15.819  13.036  1.00  0.00    +0.000 F 
ATOM     42  C33 UNL A   1      15.052  17.768  11.994  1.00  0.00    +0.000 C 
ATOM     43  F4  UNL A   1      15.168  18.370  13.186  1.00  0.00    +0.000 F 
ATOM     44  C34 UNL A   1      15.404  18.452  10.833  1.00  0.00    +0.000 C 
ATOM     45  F5  UNL A   1      15.847  19.714  10.936  1.00  0.00    +0.000 F 
ENDBRANCH   34   35
BRANCH   51   52
ATOM     52  C40 UNL A   1      12.412  22.357   4.764  1.00  0.00    +0.000 C 
ATOM     53  C41 UNL A   1      11.351  21.737   4.088  1.00  0.00    +0.000 C 
ATOM     54  F6  UNL A   1      11.502  20.505   3.579  1.00  0.00    +0.000 F 
ATOM     55  C42 UNL A   1      10.138  22.397   3.904  1.00  0.00    +0.000 C 
ATOM     56  F7  UNL A   1       9.152  21.803   3.219  1.00  0.00    +0.000 F 
ATOM     57  C43 UNL A   1       9.956  23.673   4.415  1.00  0.00    +0.000 C 
ATOM     58  F8  UNL A   1       8.787  24.306   4.240  1.00  0.00    +0.000 F 
ATOM     59  C44 UNL A   1      10.988  24.299   5.099  1.00  0.00    +0.000 C 
ATOM     60  F9  UNL A   1      10.809  25.528   5.602  1.00  0.00    +0.000 F 
ATOM     61  C45 UNL A   1      12.208  23.652   5.263  1.00  0.00    +0.000 C 
ATOM     62  F10 UNL A   1      13.193  24.285   5.920  1.00  0.00    +0.000 F 
ENDBRANCH   51   52
BRANCH   66   67
ATOM     67  C49 UNL A   1      18.398  22.312   1.206  1.00  0.00    +0.000 C 
ATOM     68  C50 UNL A   1      18.257  21.658  -0.026  1.00  0.00    +0.000 C 
ATOM     69  F11 UNL A   1      17.738  20.422  -0.071  1.00  0.00    +0.000 F 
ATOM     70  C51 UNL A   1      18.684  22.254  -1.210  1.00  0.00    +0.000 C 
ATOM     71  F12 UNL A   1      18.574  21.590  -2.368  1.00  0.00    +0.000 F 
ATOM     72  C52 UNL A   1      19.234  23.526  -1.189  1.00  0.00    +0.000 C 
ATOM     73  F13 UNL A   1      19.640  24.102  -2.328  1.00  0.00    +0.000 F 
ATOM     74  C53 UNL A   1      19.370  24.199   0.017  1.00  0.00    +0.000 C 
ATOM     75  F14 UNL A   1      19.889  25.434   0.039  1.00  0.00    +0.000 F 
ATOM     76  C54 UNL A   1      18.966  23.593   1.205  1.00  0.00    +0.000 C 
ATOM     77  F15 UNL A   1      19.117  24.263   2.357  1.00  0.00    +0.000 F 
ENDBRANCH   66   67
TORSDOF 20
ENDMDL
