MODEL 1
REMARK VINA RESULT:     -11.1      0.000      0.000
ROOT
ATOM     30  C24 UNL A   1      40.743  27.785  29.118  1.00  0.00    +0.000 C 
ATOM     31  C25 UNL A   1      40.931  26.370  28.562  1.00  0.00    +0.000 C 
ATOM     32  N4  UNL A   1      41.705  25.407  28.966  1.00  0.00    +0.000 N 
ATOM     33  C26 UNL A   1      41.576  24.351  28.040  1.00  0.00    +0.000 C 
ATOM     34  C27 UNL A   1      42.445  23.304  27.953  1.00  0.00    +0.000 C 
ATOM     46  C34 UNL A   1      43.452  23.381  28.955  1.00  0.00    +0.000 C 
ATOM     47  C35 UNL A   1      43.484  23.084  30.291  1.00  0.00    +0.000 C 
ATOM     48  C36 UNL A   1      44.506  23.904  30.820  1.00  0.00    +0.000 C 
ATOM     49  C37 UNL A   1      45.080  24.641  29.781  1.00  0.00    +0.000 C 
ATOM     50  N5  UNL A   1      44.603  24.054  28.633  1.00  0.00    +0.000 N 
ATOM     51  C38 UNL A   1      45.807  25.885  29.644  1.00  0.00    +0.000 C 
ATOM     63  C45 UNL A   1      46.014  26.617  30.766  1.00  0.00    +0.000 C 
ATOM     64  N6  UNL A   1      45.833  27.983  30.735  1.00  0.00    +0.000 N 
ATOM     65  C46 UNL A   1      45.151  28.207  31.821  1.00  0.00    +0.000 C 
ATOM     66  C47 UNL A   1      44.384  29.438  32.098  1.00  0.00    +0.000 C 
ATOM     78  C54 UNL A   1      43.276  29.382  31.294  1.00  0.00    +0.000 C 
ATOM     79  C55 UNL A   1      42.226  30.370  31.149  1.00  0.00    +0.000 C 
ATOM     80  C56 UNL A   1      41.259  29.901  30.339  1.00  0.00    +0.000 C 
ATOM     81  C57 UNL A   1      41.579  28.540  29.884  1.00  0.00    +0.000 C 
ATOM     82  N7  UNL A   1      42.830  28.340  30.440  1.00  0.00    +0.000 N 
ATOM     83  C58 UNL A   1      45.099  27.105  32.789  1.00  0.00    +0.000 C 
ATOM     84  C59 UNL A   1      45.827  26.205  32.135  1.00  0.00    +0.000 C 
ATOM     85  C60 UNL A   1      40.488  24.698  27.174  1.00  0.00    +0.000 C 
ATOM     86  C61 UNL A   1      40.088  25.947  27.414  1.00  0.00    +0.000 C 
ATOM    114  H26 UNL A   1      42.891  22.410  30.800  1.00  0.00    +0.000 H 
ATOM    115  H27 UNL A   1      44.786  23.950  31.813  1.00  0.00    +0.000 H 
ATOM    116  H28 UNL A   1      45.014  24.108  27.740  1.00  0.00    +0.000 H 
ATOM    117  H29 UNL A   1      42.221  31.299  31.600  1.00  0.00    +0.000 H 
ATOM    118  H30 UNL A   1      40.410  30.424  30.074  1.00  0.00    +0.000 H 
ATOM    119  H31 UNL A   1      43.370  27.537  30.258  1.00  0.00    +0.000 H 
ATOM    120  H32 UNL A   1      44.634  27.046  33.709  1.00  0.00    +0.000 H 
ATOM    121  H33 UNL A   1      46.202  25.336  32.547  1.00  0.00    +0.000 H 
ATOM    122  H34 UNL A   1      40.075  24.071  26.466  1.00  0.00    +0.000 H 
ATOM    123  H35 UNL A   1      39.363  26.490  26.919  1.00  0.00    +0.000 H 
ENDROOT
BRANCH   30   29
ATOM    124  H36 UNL A   1      38.427  27.795  30.536  1.00  0.00    +0.000 H 
ATOM     29  C23 UNL A   1      39.430  28.381  28.765  1.00  0.00    +0.000 C 
ATOM    112  H24 UNL A   1      38.069  30.316  26.396  1.00  0.00    +0.000 H 
ATOM    113  H25 UNL A   1      40.092  29.070  26.878  1.00  0.00    +0.000 H 
ATOM     87  C62 UNL A   1      38.353  28.341  29.664  1.00  0.00    +0.000 C 
ATOM     88  C63 UNL A   1      37.184  29.044  29.374  1.00  0.00    +0.000 C 
ATOM     26  C20 UNL A   1      37.102  29.808  28.206  1.00  0.00    +0.000 C 
ATOM     27  C21 UNL A   1      38.155  29.795  27.283  1.00  0.00    +0.000 C 
ATOM     28  C22 UNL A   1      39.317  29.082  27.559  1.00  0.00    +0.000 C 
ATOM    125  H37 UNL A   1      36.381  28.999  30.021  1.00  0.00    +0.000 H 
BRANCH   26   24
ATOM     25  O2  UNL A   1      35.960  31.808  27.802  1.00  0.00    +0.000 O 
ATOM     24  C19 UNL A   1      35.895  30.590  27.853  1.00  0.00    +0.000 C 
BRANCH   24   23
ATOM    111  H23 UNL A   1      33.898  30.399  27.999  1.00  0.00    +0.000 H 
ATOM     23  N3  UNL A   1      34.692  29.970  27.607  1.00  0.00    +0.000 N 
BRANCH   23   22
ATOM    110  H22 UNL A   1      35.029  27.967  27.263  1.00  0.00    +0.000 H 
ATOM    109  H21 UNL A   1      34.731  28.930  25.820  1.00  0.00    +0.000 H 
ATOM     22  C18 UNL A   1      34.449  28.759  26.839  1.00  0.00    +0.000 C 
BRANCH   22   21
ATOM    107  H19 UNL A   1      32.863  27.422  26.388  1.00  0.00    +0.000 H 
ATOM    108  H20 UNL A   1      32.703  28.316  27.923  1.00  0.00    +0.000 H 
ATOM     21  C17 UNL A   1      32.974  28.362  26.888  1.00  0.00    +0.000 C 
BRANCH   21   20
ATOM    105  H17 UNL A   1      31.029  29.151  26.552  1.00  0.00    +0.000 H 
ATOM    106  H18 UNL A   1      32.366  30.340  26.533  1.00  0.00    +0.000 H 
ATOM     20  C16 UNL A   1      32.024  29.372  26.230  1.00  0.00    +0.000 C 
BRANCH   20   19
ATOM     19  C15 UNL A   1      32.038  29.376  24.699  1.00  0.00    +0.000 C 
ATOM    103  H15 UNL A   1      32.426  30.318  24.374  1.00  0.00    +0.000 H 
ATOM    104  H16 UNL A   1      32.640  28.541  24.407  1.00  0.00    +0.000 H 
BRANCH   19   18
ATOM     18  C14 UNL A   1      30.672  29.169  24.030  1.00  0.00    +0.000 C 
ATOM    101  H13 UNL A   1      30.007  28.752  24.756  1.00  0.00    +0.000 H 
ATOM    102  H14 UNL A   1      30.364  30.131  23.675  1.00  0.00    +0.000 H 
BRANCH   18   17
ATOM     17  C13 UNL A   1      30.682  28.247  22.811  1.00  0.00    +0.000 C 
ATOM     99  H11 UNL A   1      29.876  28.518  22.162  1.00  0.00    +0.000 H 
ATOM    100  H12 UNL A   1      31.623  28.358  22.312  1.00  0.00    +0.000 H 
BRANCH   17   16
ATOM     98  H10 UNL A   1      31.109  26.185  22.774  1.00  0.00    +0.000 H 
ATOM     16  N2  UNL A   1      30.532  26.862  23.197  1.00  0.00    +0.000 N 
BRANCH   16    2
ATOM      1  O1  UNL A   1      28.395  26.535  23.975  1.00  0.00    +0.000 O 
ATOM      2  C1  UNL A   1      29.608  26.455  24.139  1.00  0.00    +0.000 C 
BRANCH    2    3
ATOM     89  H1  UNL A   1      29.457  25.625  26.082  1.00  0.00    +0.000 H 
ATOM     90  H2  UNL A   1      30.798  26.763  25.844  1.00  0.00    +0.000 H 
ATOM      3  C2  UNL A   1      30.237  25.953  25.427  1.00  0.00    +0.000 C 
BRANCH    3    4
ATOM     97  H9  UNL A   1      33.109  25.737  25.512  1.00  0.00    +0.000 H 
ATOM      4  C3  UNL A   1      31.189  24.817  25.217  1.00  0.00    +0.000 C 
ATOM      5  C4  UNL A   1      30.885  23.472  24.878  1.00  0.00    +0.000 C 
ATOM      6  C5  UNL A   1      32.073  22.804  24.698  1.00  0.00    +0.000 C 
ATOM      7  N1  UNL A   1      33.122  23.674  24.921  1.00  0.00    +0.000 N 
ATOM     15  C12 UNL A   1      32.571  24.893  25.261  1.00  0.00    +0.000 C 
ATOM     91  H3  UNL A   1      29.939  23.068  24.785  1.00  0.00    +0.000 H 
ATOM     92  H4  UNL A   1      32.168  21.810  24.436  1.00  0.00    +0.000 H 
BRANCH    7    8
ATOM      8  C6  UNL A   1      34.502  23.371  24.781  1.00  0.00    +0.000 C 
ATOM      9  C7  UNL A   1      35.062  23.244  23.500  1.00  0.00    +0.000 C 
ATOM     10  C8  UNL A   1      36.425  22.971  23.352  1.00  0.00    +0.000 C 
ATOM     11  C9  UNL A   1      37.231  22.798  24.475  1.00  0.00    +0.000 C 
ATOM     12  C10 UNL A   1      36.678  22.912  25.749  1.00  0.00    +0.000 C 
ATOM     13  C11 UNL A   1      35.325  23.209  25.899  1.00  0.00    +0.000 C 
ATOM     14  F1  UNL A   1      34.839  23.265  27.147  1.00  0.00    +0.000 F 
ATOM     93  H5  UNL A   1      34.465  23.352  22.664  1.00  0.00    +0.000 H 
ATOM     94  H6  UNL A   1      36.835  22.895  22.408  1.00  0.00    +0.000 H 
ATOM     95  H7  UNL A   1      38.235  22.586  24.364  1.00  0.00    +0.000 H 
ATOM     96  H8  UNL A   1      37.272  22.776  26.583  1.00  0.00    +0.000 H 
ENDBRANCH    7    8
ENDBRANCH    3    4
ENDBRANCH    2    3
ENDBRANCH   16    2
ENDBRANCH   17   16
ENDBRANCH   18   17
ENDBRANCH   19   18
ENDBRANCH   20   19
ENDBRANCH   21   20
ENDBRANCH   22   21
ENDBRANCH   23   22
ENDBRANCH   24   23
ENDBRANCH   26   24
ENDBRANCH   30   29
BRANCH   34   35
ATOM     35  C28 UNL A   1      42.617  22.259  26.883  1.00  0.00    +0.000 C 
ATOM     36  C29 UNL A   1      43.569  22.355  25.858  1.00  0.00    +0.000 C 
ATOM     37  F2  UNL A   1      44.212  23.505  25.617  1.00  0.00    +0.000 F 
ATOM     38  C30 UNL A   1      43.957  21.234  25.115  1.00  0.00    +0.000 C 
ATOM     39  F3  UNL A   1      44.897  21.359  24.168  1.00  0.00    +0.000 F 
ATOM     40  C31 UNL A   1      43.430  19.983  25.394  1.00  0.00    +0.000 C 
ATOM     41  F4  UNL A   1      43.880  18.900  24.749  1.00  0.00    +0.000 F 
ATOM     42  C32 UNL A   1      42.462  19.859  26.370  1.00  0.00    +0.000 C 
ATOM     43  F5  UNL A   1      41.968  18.650  26.675  1.00  0.00    +0.000 F 
ATOM     44  C33 UNL A   1      42.040  20.981  27.081  1.00  0.00    +0.000 C 
ATOM     45  F6  UNL A   1      41.099  20.793  28.019  1.00  0.00    +0.000 F 
ENDBRANCH   34   35
BRANCH   51   52
ATOM     52  C39 UNL A   1      45.941  26.695  28.373  1.00  0.00    +0.000 C 
ATOM     53  C40 UNL A   1      44.841  27.234  27.685  1.00  0.00    +0.000 C 
ATOM     54  F7  UNL A   1      43.600  26.944  28.067  1.00  0.00    +0.000 F 
ATOM     55  C41 UNL A   1      44.984  28.081  26.588  1.00  0.00    +0.000 C 
ATOM     56  F8  UNL A   1      43.896  28.549  25.957  1.00  0.00    +0.000 F 
ATOM     57  C42 UNL A   1      46.246  28.432  26.153  1.00  0.00    +0.000 C 
ATOM     58  F9  UNL A   1      46.390  29.247  25.100  1.00  0.00    +0.000 F 
ATOM     59  C43 UNL A   1      47.356  27.923  26.808  1.00  0.00    +0.000 C 
ATOM     60  F10 UNL A   1      48.583  28.259  26.385  1.00  0.00    +0.000 F 
ATOM     61  C44 UNL A   1      47.207  27.063  27.899  1.00  0.00    +0.000 C 
ATOM     62  F11 UNL A   1      48.310  26.590  28.501  1.00  0.00    +0.000 F 
ENDBRANCH   51   52
BRANCH   66   67
ATOM     67  C48 UNL A   1      44.908  30.354  33.190  1.00  0.00    +0.000 C 
ATOM     68  C49 UNL A   1      44.193  30.494  34.414  1.00  0.00    +0.000 C 
ATOM     69  F12 UNL A   1      43.177  29.681  34.732  1.00  0.00    +0.000 F 
ATOM     70  C50 UNL A   1      44.481  31.467  35.374  1.00  0.00    +0.000 C 
ATOM     71  F13 UNL A   1      43.698  31.588  36.457  1.00  0.00    +0.000 F 
ATOM     72  C51 UNL A   1      45.552  32.309  35.199  1.00  0.00    +0.000 C 
ATOM     73  F14 UNL A   1      45.820  33.262  36.100  1.00  0.00    +0.000 F 
ATOM     74  C52 UNL A   1      46.354  32.135  34.089  1.00  0.00    +0.000 C 
ATOM     75  F15 UNL A   1      47.441  32.904  33.937  1.00  0.00    +0.000 F 
ATOM     76  C53 UNL A   1      46.046  31.170  33.113  1.00  0.00    +0.000 C 
ATOM     77  F16 UNL A   1      46.928  31.047  32.120  1.00  0.00    +0.000 F 
ENDBRANCH   66   67
TORSDOF 17
ENDMDL
MODEL 2
REMARK VINA RESULT:     -11.0     21.648     26.541
ROOT
ATOM     30  C24 UNL A   1      25.683  36.587  45.403  1.00  0.00    +0.000 C 
ATOM     31  C25 UNL A   1      25.377  37.903  46.123  1.00  0.00    +0.000 C 
ATOM     32  N4  UNL A   1      26.023  39.031  46.121  1.00  0.00    +0.000 N 
ATOM     33  C26 UNL A   1      25.375  39.886  47.035  1.00  0.00    +0.000 C 
ATOM     34  C27 UNL A   1      25.928  41.031  47.531  1.00  0.00    +0.000 C 
ATOM     46  C34 UNL A   1      27.204  41.282  46.954  1.00  0.00    +0.000 C 
ATOM     47  C35 UNL A   1      27.618  41.795  45.754  1.00  0.00    +0.000 C 
ATOM     48  C36 UNL A   1      28.905  41.248  45.551  1.00  0.00    +0.000 C 
ATOM     49  C37 UNL A   1      29.239  40.452  46.650  1.00  0.00    +0.000 C 
ATOM     50  N5  UNL A   1      28.295  40.758  47.601  1.00  0.00    +0.000 N 
ATOM     51  C38 UNL A   1      30.120  39.335  46.918  1.00  0.00    +0.000 C 
ATOM     63  C45 UNL A   1      30.838  38.840  45.880  1.00  0.00    +0.000 C 
ATOM     64  N6  UNL A   1      30.945  37.476  45.711  1.00  0.00    +0.000 N 
ATOM     65  C46 UNL A   1      30.727  37.327  44.437  1.00  0.00    +0.000 C 
ATOM     66  C47 UNL A   1      30.370  36.051  43.785  1.00  0.00    +0.000 C 
ATOM     78  C54 UNL A   1      29.071  35.796  44.138  1.00  0.00    +0.000 C 
ATOM     79  C55 UNL A   1      28.263  34.641  43.800  1.00  0.00    +0.000 C 
ATOM     80  C56 UNL A   1      27.007  34.810  44.249  1.00  0.00    +0.000 C 
ATOM     81  C57 UNL A   1      26.866  36.112  44.919  1.00  0.00    +0.000 C 
ATOM     82  N7  UNL A   1      28.160  36.598  44.872  1.00  0.00    +0.000 N 
ATOM     83  C58 UNL A   1      30.773  38.550  43.626  1.00  0.00    +0.000 C 
ATOM     84  C59 UNL A   1      31.037  39.435  44.582  1.00  0.00    +0.000 C 
ATOM     85  C60 UNL A   1      24.158  39.232  47.416  1.00  0.00    +0.000 C 
ATOM     86  C61 UNL A   1      24.130  37.992  46.927  1.00  0.00    +0.000 C 
ATOM    114  H26 UNL A   1      27.103  42.439  45.134  1.00  0.00    +0.000 H 
ATOM    115  H27 UNL A   1      29.504  41.410  44.726  1.00  0.00    +0.000 H 
ATOM    116  H28 UNL A   1      28.385  40.626  48.572  1.00  0.00    +0.000 H 
ATOM    117  H29 UNL A   1      28.602  33.811  43.289  1.00  0.00    +0.000 H 
ATOM    118  H30 UNL A   1      26.246  34.121  44.140  1.00  0.00    +0.000 H 
ATOM    119  H31 UNL A   1      28.428  37.437  45.313  1.00  0.00    +0.000 H 
ATOM    120  H32 UNL A   1      30.641  38.683  42.611  1.00  0.00    +0.000 H 
ATOM    121  H33 UNL A   1      31.339  40.409  44.418  1.00  0.00    +0.000 H 
ATOM    122  H34 UNL A   1      23.412  39.660  47.985  1.00  0.00    +0.000 H 
ATOM    123  H35 UNL A   1      23.411  37.265  47.073  1.00  0.00    +0.000 H 
ENDROOT
BRANCH   30   29
ATOM    124  H36 UNL A   1      24.886  34.389  46.783  1.00  0.00    +0.000 H 
ATOM     29  C23 UNL A   1      24.482  35.738  45.201  1.00  0.00    +0.000 C 
ATOM    112  H24 UNL A   1      21.686  35.683  43.360  1.00  0.00    +0.000 H 
ATOM    113  H25 UNL A   1      23.806  36.847  43.532  1.00  0.00    +0.000 H 
ATOM     87  C62 UNL A   1      24.200  34.669  46.066  1.00  0.00    +0.000 C 
ATOM     88  C63 UNL A   1      22.988  33.990  45.951  1.00  0.00    +0.000 C 
ATOM     26  C20 UNL A   1      22.048  34.396  44.998  1.00  0.00    +0.000 C 
ATOM     27  C21 UNL A   1      22.360  35.422  44.098  1.00  0.00    +0.000 C 
ATOM     28  C22 UNL A   1      23.574  36.093  44.196  1.00  0.00    +0.000 C 
ATOM    125  H37 UNL A   1      22.784  33.188  46.569  1.00  0.00    +0.000 H 
BRANCH   26   24
ATOM     25  O2  UNL A   1      19.854  34.274  44.198  1.00  0.00    +0.000 O 
ATOM     24  C19 UNL A   1      20.737  33.726  44.840  1.00  0.00    +0.000 C 
BRANCH   24   23
ATOM    111  H23 UNL A   1      20.104  32.538  46.336  1.00  0.00    +0.000 H 
ATOM     23  N3  UNL A   1      20.484  32.509  45.428  1.00  0.00    +0.000 N 
BRANCH   23   22
ATOM    110  H22 UNL A   1      21.328  30.633  45.550  1.00  0.00    +0.000 H 
ATOM    109  H21 UNL A   1      21.185  31.281  43.920  1.00  0.00    +0.000 H 
ATOM     22  C18 UNL A   1      20.709  31.183  44.873  1.00  0.00    +0.000 C 
BRANCH   22   21
ATOM    107  H19 UNL A   1      19.607  29.471  44.271  1.00  0.00    +0.000 H 
ATOM    108  H20 UNL A   1      18.945  30.359  45.669  1.00  0.00    +0.000 H 
ATOM     21  C17 UNL A   1      19.391  30.429  44.698  1.00  0.00    +0.000 C 
BRANCH   21   20
ATOM    105  H17 UNL A   1      17.908  31.915  44.367  1.00  0.00    +0.000 H 
ATOM    106  H18 UNL A   1      18.922  31.498  42.953  1.00  0.00    +0.000 H 
ATOM     20  C16 UNL A   1      18.371  31.138  43.797  1.00  0.00    +0.000 C 
BRANCH   20   19
ATOM     19  C15 UNL A   1      17.266  30.240  43.232  1.00  0.00    +0.000 C 
ATOM    103  H15 UNL A   1      16.327  30.611  43.585  1.00  0.00    +0.000 H 
ATOM    104  H16 UNL A   1      17.369  30.278  42.168  1.00  0.00    +0.000 H 
BRANCH   19   18
ATOM     18  C14 UNL A   1      17.365  28.757  43.617  1.00  0.00    +0.000 C 
ATOM    101  H13 UNL A   1      17.489  28.190  42.719  1.00  0.00    +0.000 H 
ATOM    102  H14 UNL A   1      18.194  28.677  44.288  1.00  0.00    +0.000 H 
BRANCH   18   17
ATOM     17  C13 UNL A   1      16.153  28.202  44.366  1.00  0.00    +0.000 C 
ATOM     99  H11 UNL A   1      16.446  27.320  44.895  1.00  0.00    +0.000 H 
ATOM    100  H12 UNL A   1      15.803  28.952  45.044  1.00  0.00    +0.000 H 
BRANCH   17   16
ATOM     98  H10 UNL A   1      14.254  28.410  43.479  1.00  0.00    +0.000 H 
ATOM     16  N2  UNL A   1      15.078  27.872  43.456  1.00  0.00    +0.000 N 
BRANCH   16    2
ATOM      1  O1  UNL A   1      15.076  26.972  41.341  1.00  0.00    +0.000 O 
ATOM      2  C1  UNL A   1      15.168  26.828  42.556  1.00  0.00    +0.000 C 
BRANCH    2    3
ATOM     89  H1  UNL A   1      15.202  25.589  44.273  1.00  0.00    +0.000 H 
ATOM     90  H2  UNL A   1      16.309  25.112  42.970  1.00  0.00    +0.000 H 
ATOM      3  C2  UNL A   1      15.332  25.471  43.218  1.00  0.00    +0.000 C 
BRANCH    3    4
ATOM     97  H9  UNL A   1      15.613  22.911  41.926  1.00  0.00    +0.000 H 
ATOM      4  C3  UNL A   1      14.349  24.452  42.729  1.00  0.00    +0.000 C 
ATOM      5  C4  UNL A   1      12.931  24.516  42.770  1.00  0.00    +0.000 C 
ATOM      6  C5  UNL A   1      12.442  23.402  42.128  1.00  0.00    +0.000 C 
ATOM      7  N1  UNL A   1      13.499  22.628  41.693  1.00  0.00    +0.000 N 
ATOM     15  C12 UNL A   1      14.657  23.266  42.086  1.00  0.00    +0.000 C 
ATOM     91  H3  UNL A   1      12.368  25.265  43.203  1.00  0.00    +0.000 H 
ATOM     92  H4  UNL A   1      11.443  23.180  41.992  1.00  0.00    +0.000 H 
BRANCH    7    8
ATOM      8  C6  UNL A   1      13.399  21.426  40.942  1.00  0.00    +0.000 C 
ATOM      9  C7  UNL A   1      13.262  20.197  41.607  1.00  0.00    +0.000 C 
ATOM     10  C8  UNL A   1      13.138  19.012  40.875  1.00  0.00    +0.000 C 
ATOM     11  C9  UNL A   1      13.174  19.041  39.483  1.00  0.00    +0.000 C 
ATOM     12  C10 UNL A   1      13.322  20.257  38.819  1.00  0.00    +0.000 C 
ATOM     13  C11 UNL A   1      13.421  21.442  39.545  1.00  0.00    +0.000 C 
ATOM     14  F1  UNL A   1      13.603  22.577  38.854  1.00  0.00    +0.000 F 
ATOM     93  H5  UNL A   1      13.253  20.168  42.639  1.00  0.00    +0.000 H 
ATOM     94  H6  UNL A   1      13.020  18.113  41.369  1.00  0.00    +0.000 H 
ATOM     95  H7  UNL A   1      13.093  18.163  38.945  1.00  0.00    +0.000 H 
ATOM     96  H8  UNL A   1      13.357  20.280  37.787  1.00  0.00    +0.000 H 
ENDBRANCH    7    8
ENDBRANCH    3    4
ENDBRANCH    2    3
ENDBRANCH   16    2
ENDBRANCH   17   16
ENDBRANCH   18   17
ENDBRANCH   19   18
ENDBRANCH   20   19
ENDBRANCH   21   20
ENDBRANCH   22   21
ENDBRANCH   23   22
ENDBRANCH   24   23
ENDBRANCH   26   24
ENDBRANCH   30   29
BRANCH   34   35
ATOM     35  C28 UNL A   1      25.511  41.900  48.687  1.00  0.00    +0.000 C 
ATOM     36  C29 UNL A   1      24.732  43.056  48.539  1.00  0.00    +0.000 C 
ATOM     37  F2  UNL A   1      24.524  43.602  47.334  1.00  0.00    +0.000 F 
ATOM     38  C30 UNL A   1      24.060  43.626  49.627  1.00  0.00    +0.000 C 
ATOM     39  F3  UNL A   1      23.295  44.710  49.439  1.00  0.00    +0.000 F 
ATOM     40  C31 UNL A   1      24.121  43.042  50.882  1.00  0.00    +0.000 C 
ATOM     41  F4  UNL A   1      23.395  43.534  51.894  1.00  0.00    +0.000 F 
ATOM     42  C32 UNL A   1      24.911  41.926  51.072  1.00  0.00    +0.000 C 
ATOM     43  F5  UNL A   1      24.952  41.330  52.272  1.00  0.00    +0.000 F 
ATOM     44  C33 UNL A   1      25.618  41.382  50.000  1.00  0.00    +0.000 C 
ATOM     45  F6  UNL A   1      26.364  40.294  50.249  1.00  0.00    +0.000 F 
ENDBRANCH   34   35
BRANCH   51   52
ATOM     52  C39 UNL A   1      29.987  38.360  48.068  1.00  0.00    +0.000 C 
ATOM     53  C40 UNL A   1      30.967  38.206  49.062  1.00  0.00    +0.000 C 
ATOM     54  F7  UNL A   1      32.133  38.838  48.962  1.00  0.00    +0.000 F 
ATOM     55  C41 UNL A   1      30.779  37.398  50.181  1.00  0.00    +0.000 C 
ATOM     56  F8  UNL A   1      31.759  37.272  51.089  1.00  0.00    +0.000 F 
ATOM     57  C42 UNL A   1      29.584  36.728  50.350  1.00  0.00    +0.000 C 
ATOM     58  F9  UNL A   1      29.397  35.951  51.425  1.00  0.00    +0.000 F 
ATOM     59  C43 UNL A   1      28.591  36.858  49.393  1.00  0.00    +0.000 C 
ATOM     60  F10 UNL A   1      27.431  36.205  49.551  1.00  0.00    +0.000 F 
ATOM     61  C44 UNL A   1      28.790  37.659  48.264  1.00  0.00    +0.000 C 
ATOM     62  F11 UNL A   1      27.803  37.752  47.359  1.00  0.00    +0.000 F 
ENDBRANCH   51   52
BRANCH   66   67
ATOM     67  C48 UNL A   1      31.407  35.422  42.870  1.00  0.00    +0.000 C 
ATOM     68  C49 UNL A   1      31.459  35.779  41.492  1.00  0.00    +0.000 C 
ATOM     69  F12 UNL A   1      30.762  36.814  41.006  1.00  0.00    +0.000 F 
ATOM     70  C50 UNL A   1      32.227  35.098  40.543  1.00  0.00    +0.000 C 
ATOM     71  F13 UNL A   1      32.146  35.443  39.250  1.00  0.00    +0.000 F 
ATOM     72  C51 UNL A   1      33.048  34.069  40.933  1.00  0.00    +0.000 C 
ATOM     73  F14 UNL A   1      33.767  33.393  40.029  1.00  0.00    +0.000 F 
ATOM     74  C52 UNL A   1      33.129  33.763  42.277  1.00  0.00    +0.000 C 
ATOM     75  F15 UNL A   1      33.975  32.805  42.683  1.00  0.00    +0.000 F 
ATOM     76  C53 UNL A   1      32.336  34.434  43.226  1.00  0.00    +0.000 C 
ATOM     77  F16 UNL A   1      32.549  34.101  44.500  1.00  0.00    +0.000 F 
ENDBRANCH   66   67
TORSDOF 17
ENDMDL
MODEL 3
REMARK VINA RESULT:     -10.7      3.832      7.107
ROOT
ATOM     30  C24 UNL A   1      40.877  27.326  28.900  1.00  0.00    +0.000 C 
ATOM     31  C25 UNL A   1      42.217  27.100  29.606  1.00  0.00    +0.000 C 
ATOM     32  N4  UNL A   1      42.715  27.669  30.663  1.00  0.00    +0.000 N 
ATOM     33  C26 UNL A   1      44.025  27.173  30.827  1.00  0.00    +0.000 C 
ATOM     34  C27 UNL A   1      44.962  27.750  31.633  1.00  0.00    +0.000 C 
ATOM     46  C34 UNL A   1      44.428  28.868  32.332  1.00  0.00    +0.000 C 
ATOM     47  C35 UNL A   1      43.632  29.002  33.437  1.00  0.00    +0.000 C 
ATOM     48  C36 UNL A   1      42.990  30.250  33.272  1.00  0.00    +0.000 C 
ATOM     49  C37 UNL A   1      43.445  30.842  32.091  1.00  0.00    +0.000 C 
ATOM     50  N5  UNL A   1      44.539  30.094  31.726  1.00  0.00    +0.000 N 
ATOM     51  C38 UNL A   1      42.956  31.819  31.141  1.00  0.00    +0.000 C 
ATOM     63  C45 UNL A   1      41.723  32.339  31.355  1.00  0.00    +0.000 C 
ATOM     64  N6  UNL A   1      40.849  32.485  30.299  1.00  0.00    +0.000 N 
ATOM     65  C46 UNL A   1      39.733  32.023  30.784  1.00  0.00    +0.000 C 
ATOM     66  C47 UNL A   1      38.567  31.613  29.977  1.00  0.00    +0.000 C 
ATOM     78  C54 UNL A   1      38.915  30.427  29.385  1.00  0.00    +0.000 C 
ATOM     79  C55 UNL A   1      38.140  29.633  28.452  1.00  0.00    +0.000 C 
ATOM     80  C56 UNL A   1      38.786  28.485  28.177  1.00  0.00    +0.000 C 
ATOM     81  C57 UNL A   1      40.053  28.411  28.921  1.00  0.00    +0.000 C 
ATOM     82  N7  UNL A   1      40.083  29.640  29.555  1.00  0.00    +0.000 N 
ATOM     83  C58 UNL A   1      39.689  31.837  32.240  1.00  0.00    +0.000 C 
ATOM     84  C59 UNL A   1      40.919  32.239  32.548  1.00  0.00    +0.000 C 
ATOM     85  C60 UNL A   1      44.174  26.095  29.895  1.00  0.00    +0.000 C 
ATOM     86  C61 UNL A   1      43.117  26.037  29.084  1.00  0.00    +0.000 C 
ATOM    114  H26 UNL A   1      43.524  28.338  34.220  1.00  0.00    +0.000 H 
ATOM    115  H27 UNL A   1      42.297  30.660  33.919  1.00  0.00    +0.000 H 
ATOM    116  H28 UNL A   1      45.271  30.385  31.136  1.00  0.00    +0.000 H 
ATOM    117  H29 UNL A   1      37.227  29.907  28.057  1.00  0.00    +0.000 H 
ATOM    118  H30 UNL A   1      38.442  27.757  27.532  1.00  0.00    +0.000 H 
ATOM    119  H31 UNL A   1      40.855  29.945  30.085  1.00  0.00    +0.000 H 
ATOM    120  H32 UNL A   1      38.927  31.496  32.847  1.00  0.00    +0.000 H 
ATOM    121  H33 UNL A   1      41.250  32.448  33.503  1.00  0.00    +0.000 H 
ATOM    122  H34 UNL A   1      44.983  25.456  29.856  1.00  0.00    +0.000 H 
ATOM    123  H35 UNL A   1      42.960  25.404  28.285  1.00  0.00    +0.000 H 
ENDROOT
BRANCH   30   29
ATOM    124  H36 UNL A   1      41.852  26.395  26.543  1.00  0.00    +0.000 H 
ATOM     29  C23 UNL A   1      40.434  26.158  28.099  1.00  0.00    +0.000 C 
ATOM    112  H24 UNL A   1      38.314  23.576  28.322  1.00  0.00    +0.000 H 
ATOM    113  H25 UNL A   1      38.869  25.659  29.431  1.00  0.00    +0.000 H 
ATOM     87  C62 UNL A   1      41.110  25.789  26.925  1.00  0.00    +0.000 C 
ATOM     88  C63 UNL A   1      40.774  24.599  26.279  1.00  0.00    +0.000 C 
ATOM     26  C20 UNL A   1      39.791  23.766  26.821  1.00  0.00    +0.000 C 
ATOM     27  C21 UNL A   1      39.077  24.168  27.957  1.00  0.00    +0.000 C 
ATOM     28  C22 UNL A   1      39.396  25.361  28.595  1.00  0.00    +0.000 C 
ATOM    125  H37 UNL A   1      41.252  24.334  25.404  1.00  0.00    +0.000 H 
BRANCH   26   24
ATOM     25  O2  UNL A   1      40.267  21.667  25.906  1.00  0.00    +0.000 O 
ATOM     24  C19 UNL A   1      39.404  22.483  26.192  1.00  0.00    +0.000 C 
BRANCH   24   23
ATOM    111  H23 UNL A   1      37.418  22.588  26.504  1.00  0.00    +0.000 H 
ATOM     23  N3  UNL A   1      38.090  22.202  25.896  1.00  0.00    +0.000 N 
BRANCH   23   22
ATOM    110  H22 UNL A   1      36.876  20.694  25.191  1.00  0.00    +0.000 H 
ATOM    109  H21 UNL A   1      38.386  20.905  24.313  1.00  0.00    +0.000 H 
ATOM     22  C18 UNL A   1      37.571  21.404  24.797  1.00  0.00    +0.000 C 
BRANCH   22   21
ATOM    107  H19 UNL A   1      37.510  22.461  22.956  1.00  0.00    +0.000 H 
ATOM    108  H20 UNL A   1      35.964  21.745  23.484  1.00  0.00    +0.000 H 
ATOM     21  C17 UNL A   1      36.845  22.279  23.775  1.00  0.00    +0.000 C 
BRANCH   21   20
ATOM    105  H17 UNL A   1      36.758  23.739  25.317  1.00  0.00    +0.000 H 
ATOM    106  H18 UNL A   1      36.748  24.373  23.643  1.00  0.00    +0.000 H 
ATOM     20  C16 UNL A   1      36.377  23.634  24.323  1.00  0.00    +0.000 C 
BRANCH   20   19
ATOM     19  C15 UNL A   1      34.858  23.826  24.373  1.00  0.00    +0.000 C 
ATOM    103  H15 UNL A   1      34.401  22.863  24.293  1.00  0.00    +0.000 H 
ATOM    104  H16 UNL A   1      34.654  24.322  25.299  1.00  0.00    +0.000 H 
BRANCH   19   18
ATOM     18  C14 UNL A   1      34.274  24.723  23.273  1.00  0.00    +0.000 C 
ATOM    101  H13 UNL A   1      35.083  25.081  22.672  1.00  0.00    +0.000 H 
ATOM    102  H14 UNL A   1      33.578  24.116  22.731  1.00  0.00    +0.000 H 
BRANCH   18   17
ATOM     17  C13 UNL A   1      33.486  25.932  23.776  1.00  0.00    +0.000 C 
ATOM     99  H11 UNL A   1      33.350  25.844  24.833  1.00  0.00    +0.000 H 
ATOM    100  H12 UNL A   1      34.038  26.817  23.537  1.00  0.00    +0.000 H 
BRANCH   17   16
ATOM     98  H10 UNL A   1      32.134  26.371  22.222  1.00  0.00    +0.000 H 
ATOM     16  N2  UNL A   1      32.190  26.018  23.139  1.00  0.00    +0.000 N 
BRANCH   16    2
ATOM      1  O1  UNL A   1      30.495  26.265  24.671  1.00  0.00    +0.000 O 
ATOM      2  C1  UNL A   1      31.029  25.622  23.773  1.00  0.00    +0.000 C 
BRANCH    2    3
ATOM     89  H1  UNL A   1      30.695  24.195  22.244  1.00  0.00    +0.000 H 
ATOM     90  H2  UNL A   1      29.460  24.247  23.518  1.00  0.00    +0.000 H 
ATOM      3  C2  UNL A   1      30.505  24.279  23.294  1.00  0.00    +0.000 C 
BRANCH    3    4
ATOM     97  H9  UNL A   1      31.989  21.993  22.360  1.00  0.00    +0.000 H 
ATOM      4  C3  UNL A   1      31.143  23.114  23.986  1.00  0.00    +0.000 C 
ATOM      5  C4  UNL A   1      31.153  22.822  25.376  1.00  0.00    +0.000 C 
ATOM      6  C5  UNL A   1      31.776  21.607  25.544  1.00  0.00    +0.000 C 
ATOM      7  N1  UNL A   1      32.172  21.124  24.313  1.00  0.00    +0.000 N 
ATOM     15  C12 UNL A   1      31.802  22.063  23.372  1.00  0.00    +0.000 C 
ATOM     91  H3  UNL A   1      30.763  23.415  26.125  1.00  0.00    +0.000 H 
ATOM     92  H4  UNL A   1      31.924  21.131  26.449  1.00  0.00    +0.000 H 
BRANCH    7    8
ATOM      8  C6  UNL A   1      32.799  19.874  24.070  1.00  0.00    +0.000 C 
ATOM      9  C7  UNL A   1      32.210  18.957  23.186  1.00  0.00    +0.000 C 
ATOM     10  C8  UNL A   1      32.834  17.734  22.922  1.00  0.00    +0.000 C 
ATOM     11  C9  UNL A   1      34.033  17.408  23.554  1.00  0.00    +0.000 C 
ATOM     12  C10 UNL A   1      34.616  18.309  24.441  1.00  0.00    +0.000 C 
ATOM     13  C11 UNL A   1      34.008  19.539  24.687  1.00  0.00    +0.000 C 
ATOM     14  F1  UNL A   1      34.593  20.349  25.581  1.00  0.00    +0.000 F 
ATOM     93  H5  UNL A   1      31.313  19.185  22.730  1.00  0.00    +0.000 H 
ATOM     94  H6  UNL A   1      32.406  17.071  22.257  1.00  0.00    +0.000 H 
ATOM     95  H7  UNL A   1      34.487  16.500  23.365  1.00  0.00    +0.000 H 
ATOM     96  H8  UNL A   1      35.500  18.067  24.916  1.00  0.00    +0.000 H 
ENDBRANCH    7    8
ENDBRANCH    3    4
ENDBRANCH    2    3
ENDBRANCH   16    2
ENDBRANCH   17   16
ENDBRANCH   18   17
ENDBRANCH   19   18
ENDBRANCH   20   19
ENDBRANCH   21   20
ENDBRANCH   22   21
ENDBRANCH   23   22
ENDBRANCH   24   23
ENDBRANCH   26   24
ENDBRANCH   30   29
BRANCH   34   35
ATOM     35  C28 UNL A   1      46.448  27.528  31.722  1.00  0.00    +0.000 C 
ATOM     36  C29 UNL A   1      47.039  26.617  32.609  1.00  0.00    +0.000 C 
ATOM     37  F2  UNL A   1      46.337  26.073  33.612  1.00  0.00    +0.000 F 
ATOM     38  C30 UNL A   1      48.351  26.164  32.424  1.00  0.00    +0.000 C 
ATOM     39  F3  UNL A   1      48.867  25.265  33.272  1.00  0.00    +0.000 F 
ATOM     40  C31 UNL A   1      49.096  26.582  31.333  1.00  0.00    +0.000 C 
ATOM     41  F4  UNL A   1      50.311  26.067  31.107  1.00  0.00    +0.000 F 
ATOM     42  C32 UNL A   1      48.560  27.508  30.462  1.00  0.00    +0.000 C 
ATOM     43  F5  UNL A   1      49.256  27.896  29.383  1.00  0.00    +0.000 F 
ATOM     44  C33 UNL A   1      47.271  27.996  30.669  1.00  0.00    +0.000 C 
ATOM     45  F6  UNL A   1      46.806  28.892  29.784  1.00  0.00    +0.000 F 
ENDBRANCH   34   35
BRANCH   51   52
ATOM     52  C39 UNL A   1      43.427  31.974  29.712  1.00  0.00    +0.000 C 
ATOM     53  C40 UNL A   1      43.353  30.942  28.762  1.00  0.00    +0.000 C 
ATOM     54  F7  UNL A   1      42.969  29.720  29.123  1.00  0.00    +0.000 F 
ATOM     55  C41 UNL A   1      43.672  31.134  27.419  1.00  0.00    +0.000 C 
ATOM     56  F8  UNL A   1      43.603  30.106  26.560  1.00  0.00    +0.000 F 
ATOM     57  C42 UNL A   1      44.062  32.383  26.979  1.00  0.00    +0.000 C 
ATOM     58  F9  UNL A   1      44.369  32.574  25.689  1.00  0.00    +0.000 F 
ATOM     59  C43 UNL A   1      44.144  33.428  27.886  1.00  0.00    +0.000 C 
ATOM     60  F10 UNL A   1      44.526  34.641  27.463  1.00  0.00    +0.000 F 
ATOM     61  C44 UNL A   1      43.836  33.227  29.234  1.00  0.00    +0.000 C 
ATOM     62  F11 UNL A   1      43.933  34.265  30.079  1.00  0.00    +0.000 F 
ENDBRANCH   51   52
BRANCH   66   67
ATOM     67  C48 UNL A   1      37.321  32.477  30.064  1.00  0.00    +0.000 C 
ATOM     68  C49 UNL A   1      36.334  32.216  31.058  1.00  0.00    +0.000 C 
ATOM     69  F12 UNL A   1      36.559  31.364  32.066  1.00  0.00    +0.000 F 
ATOM     70  C50 UNL A   1      35.071  32.814  31.073  1.00  0.00    +0.000 C 
ATOM     71  F13 UNL A   1      34.169  32.442  31.993  1.00  0.00    +0.000 F 
ATOM     72  C51 UNL A   1      34.750  33.766  30.137  1.00  0.00    +0.000 C 
ATOM     73  F14 UNL A   1      33.534  34.326  30.127  1.00  0.00    +0.000 F 
ATOM     74  C52 UNL A   1      35.715  34.147  29.226  1.00  0.00    +0.000 C 
ATOM     75  F15 UNL A   1      35.440  35.122  28.348  1.00  0.00    +0.000 F 
ATOM     76  C53 UNL A   1      36.977  33.525  29.198  1.00  0.00    +0.000 C 
ATOM     77  F16 UNL A   1      37.849  34.021  28.320  1.00  0.00    +0.000 F 
ENDBRANCH   66   67
TORSDOF 17
ENDMDL
MODEL 4
REMARK VINA RESULT:     -10.7      2.780      8.590
ROOT
ATOM     30  C24 UNL A   1      40.530  29.089  29.106  1.00  0.00    +0.000 C 
ATOM     31  C25 UNL A   1      41.736  30.031  29.034  1.00  0.00    +0.000 C 
ATOM     32  N4  UNL A   1      42.882  29.883  28.438  1.00  0.00    +0.000 N 
ATOM     33  C26 UNL A   1      43.675  30.999  28.775  1.00  0.00    +0.000 C 
ATOM     34  C27 UNL A   1      45.027  31.055  28.595  1.00  0.00    +0.000 C 
ATOM     46  C34 UNL A   1      45.515  29.877  27.964  1.00  0.00    +0.000 C 
ATOM     47  C35 UNL A   1      45.525  29.429  26.671  1.00  0.00    +0.000 C 
ATOM     48  C36 UNL A   1      45.586  28.020  26.775  1.00  0.00    +0.000 C 
ATOM     49  C37 UNL A   1      45.645  27.668  28.126  1.00  0.00    +0.000 C 
ATOM     50  N5  UNL A   1      45.906  28.847  28.782  1.00  0.00    +0.000 N 
ATOM     51  C38 UNL A   1      45.312  26.513  28.933  1.00  0.00    +0.000 C 
ATOM     63  C45 UNL A   1      44.766  25.444  28.302  1.00  0.00    +0.000 C 
ATOM     64  N6  UNL A   1      43.695  24.788  28.870  1.00  0.00    +0.000 N 
ATOM     65  C46 UNL A   1      42.885  24.636  27.864  1.00  0.00    +0.000 C 
ATOM     66  C47 UNL A   1      41.447  24.319  27.977  1.00  0.00    +0.000 C 
ATOM     78  C54 UNL A   1      40.841  25.465  28.419  1.00  0.00    +0.000 C 
ATOM     79  C55 UNL A   1      39.442  25.670  28.740  1.00  0.00    +0.000 C 
ATOM     80  C56 UNL A   1      39.223  26.962  29.043  1.00  0.00    +0.000 C 
ATOM     81  C57 UNL A   1      40.468  27.739  28.935  1.00  0.00    +0.000 C 
ATOM     82  N7  UNL A   1      41.391  26.755  28.631  1.00  0.00    +0.000 N 
ATOM     83  C58 UNL A   1      43.455  24.877  26.532  1.00  0.00    +0.000 C 
ATOM     84  C59 UNL A   1      44.697  25.198  26.883  1.00  0.00    +0.000 C 
ATOM     85  C60 UNL A   1      42.814  31.925  29.448  1.00  0.00    +0.000 C 
ATOM     86  C61 UNL A   1      41.627  31.365  29.681  1.00  0.00    +0.000 C 
ATOM    114  H26 UNL A   1      45.495  29.995  25.808  1.00  0.00    +0.000 H 
ATOM    115  H27 UNL A   1      45.587  27.359  25.983  1.00  0.00    +0.000 H 
ATOM    116  H28 UNL A   1      46.302  28.937  29.679  1.00  0.00    +0.000 H 
ATOM    117  H29 UNL A   1      38.720  24.933  28.736  1.00  0.00    +0.000 H 
ATOM    118  H30 UNL A   1      38.309  27.355  29.315  1.00  0.00    +0.000 H 
ATOM    119  H31 UNL A   1      42.357  26.937  28.567  1.00  0.00    +0.000 H 
ATOM    120  H32 UNL A   1      43.021  24.815  25.599  1.00  0.00    +0.000 H 
ATOM    121  H33 UNL A   1      45.497  25.262  26.232  1.00  0.00    +0.000 H 
ATOM    122  H34 UNL A   1      43.076  32.887  29.715  1.00  0.00    +0.000 H 
ATOM    123  H35 UNL A   1      40.823  31.764  30.190  1.00  0.00    +0.000 H 
ENDROOT
BRANCH   30   29
ATOM    124  H36 UNL A   1      39.405  29.715  31.497  1.00  0.00    +0.000 H 
ATOM     29  C23 UNL A   1      39.255  29.795  29.385  1.00  0.00    +0.000 C 
ATOM    112  H24 UNL A   1      36.834  31.421  27.741  1.00  0.00    +0.000 H 
ATOM    113  H25 UNL A   1      38.759  30.004  27.340  1.00  0.00    +0.000 H 
ATOM     87  C62 UNL A   1      38.865  30.088  30.701  1.00  0.00    +0.000 C 
ATOM     88  C63 UNL A   1      37.746  30.888  30.928  1.00  0.00    +0.000 C 
ATOM     26  C20 UNL A   1      37.037  31.418  29.846  1.00  0.00    +0.000 C 
ATOM     27  C21 UNL A   1      37.392  31.072  28.536  1.00  0.00    +0.000 C 
ATOM     28  C22 UNL A   1      38.498  30.261  28.304  1.00  0.00    +0.000 C 
ATOM    125  H37 UNL A   1      37.441  31.089  31.894  1.00  0.00    +0.000 H 
BRANCH   26   24
ATOM     25  O2  UNL A   1      35.956  33.327  30.656  1.00  0.00    +0.000 O 
ATOM     24  C19 UNL A   1      35.852  32.288  30.022  1.00  0.00    +0.000 C 
BRANCH   24   23
ATOM    111  H23 UNL A   1      34.031  31.437  30.117  1.00  0.00    +0.000 H 
ATOM     23  N3  UNL A   1      34.626  31.934  29.510  1.00  0.00    +0.000 N 
BRANCH   23   22
ATOM    110  H22 UNL A   1      34.801  32.818  27.657  1.00  0.00    +0.000 H 
ATOM    109  H21 UNL A   1      33.157  32.702  28.274  1.00  0.00    +0.000 H 
ATOM     22  C18 UNL A   1      34.100  32.204  28.181  1.00  0.00    +0.000 C 
BRANCH   22   21
ATOM    107  H19 UNL A   1      34.581  30.914  26.564  1.00  0.00    +0.000 H 
ATOM    108  H20 UNL A   1      34.088  30.104  28.074  1.00  0.00    +0.000 H 
ATOM     21  C17 UNL A   1      33.904  30.908  27.393  1.00  0.00    +0.000 C 
BRANCH   21   20
ATOM    105  H17 UNL A   1      31.832  31.383  27.366  1.00  0.00    +0.000 H 
ATOM    106  H18 UNL A   1      32.539  30.889  25.797  1.00  0.00    +0.000 H 
ATOM     20  C16 UNL A   1      32.482  30.708  26.850  1.00  0.00    +0.000 C 
BRANCH   20   19
ATOM     19  C15 UNL A   1      31.919  29.292  27.009  1.00  0.00    +0.000 C 
ATOM    103  H15 UNL A   1      31.475  29.220  27.979  1.00  0.00    +0.000 H 
ATOM    104  H16 UNL A   1      31.222  29.160  26.207  1.00  0.00    +0.000 H 
BRANCH   19   18
ATOM     18  C14 UNL A   1      32.945  28.159  26.870  1.00  0.00    +0.000 C 
ATOM    101  H13 UNL A   1      33.598  28.400  26.059  1.00  0.00    +0.000 H 
ATOM    102  H14 UNL A   1      33.445  28.092  27.814  1.00  0.00    +0.000 H 
BRANCH   18   17
ATOM     17  C13 UNL A   1      32.348  26.777  26.604  1.00  0.00    +0.000 C 
ATOM     99  H11 UNL A   1      32.738  26.401  25.682  1.00  0.00    +0.000 H 
ATOM    100  H12 UNL A   1      32.612  26.133  27.417  1.00  0.00    +0.000 H 
BRANCH   17   16
ATOM     98  H10 UNL A   1      30.430  27.557  26.985  1.00  0.00    +0.000 H 
ATOM     16  N2  UNL A   1      30.906  26.833  26.518  1.00  0.00    +0.000 N 
BRANCH   16    2
ATOM      1  O1  UNL A   1      29.383  25.123  26.321  1.00  0.00    +0.000 O 
ATOM      2  C1  UNL A   1      30.173  25.907  25.803  1.00  0.00    +0.000 C 
BRANCH    2    3
ATOM     89  H1  UNL A   1      29.679  25.423  23.801  1.00  0.00    +0.000 H 
ATOM     90  H2  UNL A   1      31.412  25.399  24.183  1.00  0.00    +0.000 H 
ATOM      3  C2  UNL A   1      30.481  25.909  24.316  1.00  0.00    +0.000 C 
BRANCH    3    4
ATOM     97  H9  UNL A   1      28.665  28.107  23.904  1.00  0.00    +0.000 H 
ATOM      4  C3  UNL A   1      30.644  27.285  23.747  1.00  0.00    +0.000 C 
ATOM      5  C4  UNL A   1      31.820  27.877  23.214  1.00  0.00    +0.000 C 
ATOM      6  C5  UNL A   1      31.481  29.117  22.726  1.00  0.00    +0.000 C 
ATOM      7  N1  UNL A   1      30.136  29.338  22.941  1.00  0.00    +0.000 N 
ATOM     15  C12 UNL A   1      29.640  28.224  23.587  1.00  0.00    +0.000 C 
ATOM     91  H3  UNL A   1      32.760  27.451  23.197  1.00  0.00    +0.000 H 
ATOM     92  H4  UNL A   1      32.130  29.778  22.270  1.00  0.00    +0.000 H 
BRANCH    7    8
ATOM      8  C6  UNL A   1      29.403  30.482  22.530  1.00  0.00    +0.000 C 
ATOM      9  C7  UNL A   1      28.852  30.533  21.240  1.00  0.00    +0.000 C 
ATOM     10  C8  UNL A   1      28.107  31.645  20.835  1.00  0.00    +0.000 C 
ATOM     11  C9  UNL A   1      27.928  32.721  21.702  1.00  0.00    +0.000 C 
ATOM     12  C10 UNL A   1      28.482  32.682  22.979  1.00  0.00    +0.000 C 
ATOM     13  C11 UNL A   1      29.204  31.564  23.394  1.00  0.00    +0.000 C 
ATOM     14  F1  UNL A   1      29.748  31.599  24.618  1.00  0.00    +0.000 F 
ATOM     93  H5  UNL A   1      28.998  29.746  20.587  1.00  0.00    +0.000 H 
ATOM     94  H6  UNL A   1      27.690  31.669  19.891  1.00  0.00    +0.000 H 
ATOM     95  H7  UNL A   1      27.386  33.546  21.397  1.00  0.00    +0.000 H 
ATOM     96  H8  UNL A   1      28.357  33.481  23.620  1.00  0.00    +0.000 H 
ENDBRANCH    7    8
ENDBRANCH    3    4
ENDBRANCH    2    3
ENDBRANCH   16    2
ENDBRANCH   17   16
ENDBRANCH   18   17
ENDBRANCH   19   18
ENDBRANCH   20   19
ENDBRANCH   21   20
ENDBRANCH   22   21
ENDBRANCH   23   22
ENDBRANCH   24   23
ENDBRANCH   26   24
ENDBRANCH   30   29
BRANCH   34   35
ATOM     35  C28 UNL A   1      46.047  32.023  29.129  1.00  0.00    +0.000 C 
ATOM     36  C29 UNL A   1      46.473  32.036  30.465  1.00  0.00    +0.000 C 
ATOM     37  F2  UNL A   1      45.810  31.356  31.408  1.00  0.00    +0.000 F 
ATOM     38  C30 UNL A   1      47.658  32.675  30.846  1.00  0.00    +0.000 C 
ATOM     39  F3  UNL A   1      48.050  32.634  32.127  1.00  0.00    +0.000 F 
ATOM     40  C31 UNL A   1      48.466  33.290  29.904  1.00  0.00    +0.000 C 
ATOM     41  F4  UNL A   1      49.648  33.809  30.261  1.00  0.00    +0.000 F 
ATOM     42  C32 UNL A   1      48.059  33.330  28.586  1.00  0.00    +0.000 C 
ATOM     43  F5  UNL A   1      48.847  33.891  27.657  1.00  0.00    +0.000 F 
ATOM     44  C33 UNL A   1      46.856  32.735  28.209  1.00  0.00    +0.000 C 
ATOM     45  F6  UNL A   1      46.518  32.805  26.912  1.00  0.00    +0.000 F 
ENDBRANCH   34   35
BRANCH   51   52
ATOM     52  C39 UNL A   1      45.051  26.521  30.423  1.00  0.00    +0.000 C 
ATOM     53  C40 UNL A   1      43.958  27.181  31.008  1.00  0.00    +0.000 C 
ATOM     54  F7  UNL A   1      43.158  27.946  30.269  1.00  0.00    +0.000 F 
ATOM     55  C41 UNL A   1      43.659  27.079  32.364  1.00  0.00    +0.000 C 
ATOM     56  F8  UNL A   1      42.613  27.749  32.873  1.00  0.00    +0.000 F 
ATOM     57  C42 UNL A   1      44.441  26.288  33.182  1.00  0.00    +0.000 C 
ATOM     58  F9  UNL A   1      44.157  26.184  34.487  1.00  0.00    +0.000 F 
ATOM     59  C43 UNL A   1      45.527  25.617  32.641  1.00  0.00    +0.000 C 
ATOM     60  F10 UNL A   1      46.292  24.852  33.432  1.00  0.00    +0.000 F 
ATOM     61  C44 UNL A   1      45.832  25.735  31.281  1.00  0.00    +0.000 C 
ATOM     62  F11 UNL A   1      46.895  25.073  30.800  1.00  0.00    +0.000 F 
ENDBRANCH   51   52
BRANCH   66   67
ATOM     67  C48 UNL A   1      40.999  22.942  27.519  1.00  0.00    +0.000 C 
ATOM     68  C49 UNL A   1      41.737  21.784  27.898  1.00  0.00    +0.000 C 
ATOM     69  F12 UNL A   1      42.701  21.836  28.827  1.00  0.00    +0.000 F 
ATOM     70  C50 UNL A   1      41.526  20.515  27.350  1.00  0.00    +0.000 C 
ATOM     71  F13 UNL A   1      42.328  19.498  27.697  1.00  0.00    +0.000 F 
ATOM     72  C51 UNL A   1      40.512  20.318  26.446  1.00  0.00    +0.000 C 
ATOM     73  F14 UNL A   1      40.318  19.113  25.895  1.00  0.00    +0.000 F 
ATOM     74  C52 UNL A   1      39.686  21.381  26.137  1.00  0.00    +0.000 C 
ATOM     75  F15 UNL A   1      38.651  21.189  25.307  1.00  0.00    +0.000 F 
ATOM     76  C53 UNL A   1      39.917  22.661  26.672  1.00  0.00    +0.000 C 
ATOM     77  F16 UNL A   1      39.017  23.593  26.356  1.00  0.00    +0.000 F 
ENDBRANCH   66   67
TORSDOF 17
ENDMDL
MODEL 5
REMARK VINA RESULT:     -10.6     21.633     26.483
ROOT
ATOM     30  C24 UNL A   1      25.729  36.029  45.532  1.00  0.00    +0.000 C 
ATOM     31  C25 UNL A   1      25.338  37.337  46.227  1.00  0.00    +0.000 C 
ATOM     32  N4  UNL A   1      25.881  38.516  46.163  1.00  0.00    +0.000 N 
ATOM     33  C26 UNL A   1      25.199  39.341  47.080  1.00  0.00    +0.000 C 
ATOM     34  C27 UNL A   1      25.668  40.545  47.517  1.00  0.00    +0.000 C 
ATOM     46  C34 UNL A   1      26.892  40.886  46.878  1.00  0.00    +0.000 C 
ATOM     47  C35 UNL A   1      27.209  41.394  45.647  1.00  0.00    +0.000 C 
ATOM     48  C36 UNL A   1      28.531  40.954  45.403  1.00  0.00    +0.000 C 
ATOM     49  C37 UNL A   1      28.978  40.227  46.509  1.00  0.00    +0.000 C 
ATOM     50  N5  UNL A   1      28.051  40.481  47.491  1.00  0.00    +0.000 N 
ATOM     51  C38 UNL A   1      29.964  39.200  46.770  1.00  0.00    +0.000 C 
ATOM     63  C45 UNL A   1      30.680  38.736  45.716  1.00  0.00    +0.000 C 
ATOM     64  N6  UNL A   1      30.900  37.382  45.582  1.00  0.00    +0.000 N 
ATOM     65  C46 UNL A   1      30.643  37.172  44.324  1.00  0.00    +0.000 C 
ATOM     66  C47 UNL A   1      30.374  35.850  43.725  1.00  0.00    +0.000 C 
ATOM     78  C54 UNL A   1      29.118  35.495  44.142  1.00  0.00    +0.000 C 
ATOM     79  C55 UNL A   1      28.402  34.263  43.874  1.00  0.00    +0.000 C 
ATOM     80  C56 UNL A   1      27.155  34.337  44.374  1.00  0.00    +0.000 C 
ATOM     81  C57 UNL A   1      26.927  35.643  45.011  1.00  0.00    +0.000 C 
ATOM     82  N7  UNL A   1      28.170  36.238  44.892  1.00  0.00    +0.000 N 
ATOM     83  C58 UNL A   1      30.548  38.367  43.476  1.00  0.00    +0.000 C 
ATOM     84  C59 UNL A   1      30.771  39.303  44.394  1.00  0.00    +0.000 C 
ATOM     85  C60 UNL A   1      24.061  38.596  47.533  1.00  0.00    +0.000 C 
ATOM     86  C61 UNL A   1      24.122  37.343  47.082  1.00  0.00    +0.000 C 
ATOM    114  H26 UNL A   1      26.614  41.970  45.031  1.00  0.00    +0.000 H 
ATOM    115  H27 UNL A   1      29.077  41.141  44.547  1.00  0.00    +0.000 H 
ATOM    116  H28 UNL A   1      28.193  40.390  48.461  1.00  0.00    +0.000 H 
ATOM    117  H29 UNL A   1      28.791  33.449  43.373  1.00  0.00    +0.000 H 
ATOM    118  H30 UNL A   1      26.454  33.582  44.318  1.00  0.00    +0.000 H 
ATOM    119  H31 UNL A   1      28.381  37.111  45.297  1.00  0.00    +0.000 H 
ATOM    120  H32 UNL A   1      30.363  38.455  42.465  1.00  0.00    +0.000 H 
ATOM    121  H33 UNL A   1      30.980  40.294  44.189  1.00  0.00    +0.000 H 
ATOM    122  H34 UNL A   1      23.304  38.976  48.122  1.00  0.00    +0.000 H 
ATOM    123  H35 UNL A   1      23.477  36.562  47.281  1.00  0.00    +0.000 H 
ENDROOT
BRANCH   30   29
ATOM    124  H36 UNL A   1      25.207  33.794  46.984  1.00  0.00    +0.000 H 
ATOM     29  C23 UNL A   1      24.600  35.073  45.409  1.00  0.00    +0.000 C 
ATOM    112  H24 UNL A   1      21.726  34.734  43.725  1.00  0.00    +0.000 H 
ATOM    113  H25 UNL A   1      23.738  36.086  43.764  1.00  0.00    +0.000 H 
ATOM     87  C62 UNL A   1      24.461  33.999  46.302  1.00  0.00    +0.000 C 
ATOM     88  C63 UNL A   1      23.311  33.212  46.263  1.00  0.00    +0.000 C 
ATOM     26  C20 UNL A   1      22.289  33.515  45.358  1.00  0.00    +0.000 C 
ATOM     27  C21 UNL A   1      22.459  34.549  44.428  1.00  0.00    +0.000 C 
ATOM     28  C22 UNL A   1      23.611  35.326  44.450  1.00  0.00    +0.000 C 
ATOM    125  H37 UNL A   1      23.213  32.407  46.902  1.00  0.00    +0.000 H 
BRANCH   26   24
ATOM     25  O2  UNL A   1      20.548  32.275  46.304  1.00  0.00    +0.000 O 
ATOM     24  C19 UNL A   1      21.037  32.729  45.281  1.00  0.00    +0.000 C 
BRANCH   24   23
ATOM    111  H23 UNL A   1      20.992  32.049  43.388  1.00  0.00    +0.000 H 
ATOM     23  N3  UNL A   1      20.429  32.474  44.075  1.00  0.00    +0.000 N 
BRANCH   23   22
ATOM    110  H22 UNL A   1      19.064  33.503  42.924  1.00  0.00    +0.000 H 
ATOM    109  H21 UNL A   1      18.515  33.100  44.546  1.00  0.00    +0.000 H 
ATOM     22  C18 UNL A   1      19.055  32.756  43.689  1.00  0.00    +0.000 C 
BRANCH   22   21
ATOM    107  H19 UNL A   1      17.407  31.786  42.765  1.00  0.00    +0.000 H 
ATOM    108  H20 UNL A   1      19.012  31.114  42.375  1.00  0.00    +0.000 H 
ATOM     21  C17 UNL A   1      18.370  31.505  43.137  1.00  0.00    +0.000 C 
BRANCH   21   20
ATOM    105  H17 UNL A   1      19.134  30.151  44.586  1.00  0.00    +0.000 H 
ATOM    106  H18 UNL A   1      17.476  30.756  44.884  1.00  0.00    +0.000 H 
ATOM     20  C16 UNL A   1      18.178  30.383  44.167  1.00  0.00    +0.000 C 
BRANCH   20   19
ATOM     19  C15 UNL A   1      17.575  29.088  43.614  1.00  0.00    +0.000 C 
ATOM    103  H15 UNL A   1      17.966  28.936  42.631  1.00  0.00    +0.000 H 
ATOM    104  H16 UNL A   1      17.845  28.318  44.307  1.00  0.00    +0.000 H 
BRANCH   19   18
ATOM     18  C14 UNL A   1      16.043  29.063  43.527  1.00  0.00    +0.000 C 
ATOM    101  H13 UNL A   1      15.667  28.628  44.428  1.00  0.00    +0.000 H 
ATOM    102  H14 UNL A   1      15.735  30.078  43.384  1.00  0.00    +0.000 H 
BRANCH   18   17
ATOM     17  C13 UNL A   1      15.476  28.275  42.346  1.00  0.00    +0.000 C 
ATOM     99  H11 UNL A   1      14.471  28.592  42.166  1.00  0.00    +0.000 H 
ATOM    100  H12 UNL A   1      16.091  28.460  41.490  1.00  0.00    +0.000 H 
BRANCH   17   16
ATOM     98  H10 UNL A   1      16.344  26.400  42.756  1.00  0.00    +0.000 H 
ATOM     16  N2  UNL A   1      15.482  26.853  42.611  1.00  0.00    +0.000 N 
BRANCH   16    2
ATOM      1  O1  UNL A   1      13.642  25.991  43.685  1.00  0.00    +0.000 O 
ATOM      2  C1  UNL A   1      14.320  26.109  42.669  1.00  0.00    +0.000 C 
BRANCH    2    3
ATOM     89  H1  UNL A   1      14.736  25.653  40.643  1.00  0.00    +0.000 H 
ATOM     90  H2  UNL A   1      13.014  25.714  41.071  1.00  0.00    +0.000 H 
ATOM      3  C2  UNL A   1      13.992  25.397  41.368  1.00  0.00    +0.000 C 
BRANCH    3    4
ATOM     97  H9  UNL A   1      12.686  23.310  39.872  1.00  0.00    +0.000 H 
ATOM      4  C3  UNL A   1      13.953  23.907  41.503  1.00  0.00    +0.000 C 
ATOM      5  C4  UNL A   1      14.582  23.101  42.488  1.00  0.00    +0.000 C 
ATOM      6  C5  UNL A   1      14.197  21.798  42.274  1.00  0.00    +0.000 C 
ATOM      7  N1  UNL A   1      13.356  21.746  41.180  1.00  0.00    +0.000 N 
ATOM     15  C12 UNL A   1      13.233  23.035  40.703  1.00  0.00    +0.000 C 
ATOM     91  H3  UNL A   1      15.215  23.434  43.232  1.00  0.00    +0.000 H 
ATOM     92  H4  UNL A   1      14.490  20.986  42.841  1.00  0.00    +0.000 H 
BRANCH    7    8
ATOM      8  C6  UNL A   1      12.709  20.586  40.679  1.00  0.00    +0.000 C 
ATOM      9  C7  UNL A   1      13.136  20.015  39.470  1.00  0.00    +0.000 C 
ATOM     10  C8  UNL A   1      12.522  18.858  38.982  1.00  0.00    +0.000 C 
ATOM     11  C9  UNL A   1      11.465  18.278  39.681  1.00  0.00    +0.000 C 
ATOM     12  C10 UNL A   1      11.029  18.847  40.876  1.00  0.00    +0.000 C 
ATOM     13  C11 UNL A   1      11.657  19.986  41.377  1.00  0.00    +0.000 C 
ATOM     14  F1  UNL A   1      11.168  20.513  42.509  1.00  0.00    +0.000 F 
ATOM     93  H5  UNL A   1      13.906  20.452  38.939  1.00  0.00    +0.000 H 
ATOM     94  H6  UNL A   1      12.852  18.433  38.102  1.00  0.00    +0.000 H 
ATOM     95  H7  UNL A   1      11.006  17.429  39.314  1.00  0.00    +0.000 H 
ATOM     96  H8  UNL A   1      10.242  18.423  41.391  1.00  0.00    +0.000 H 
ENDBRANCH    7    8
ENDBRANCH    3    4
ENDBRANCH    2    3
ENDBRANCH   16    2
ENDBRANCH   17   16
ENDBRANCH   18   17
ENDBRANCH   19   18
ENDBRANCH   20   19
ENDBRANCH   21   20
ENDBRANCH   22   21
ENDBRANCH   23   22
ENDBRANCH   24   23
ENDBRANCH   26   24
ENDBRANCH   30   29
BRANCH   34   35
ATOM     35  C28 UNL A   1      25.225  41.412  48.665  1.00  0.00    +0.000 C 
ATOM     36  C29 UNL A   1      25.515  41.123  50.006  1.00  0.00    +0.000 C 
ATOM     37  F2  UNL A   1      25.985  39.923  50.369  1.00  0.00    +0.000 F 
ATOM     38  C30 UNL A   1      25.422  42.105  51.000  1.00  0.00    +0.000 C 
ATOM     39  F3  UNL A   1      25.744  41.799  52.264  1.00  0.00    +0.000 F 
ATOM     40  C31 UNL A   1      25.068  43.405  50.679  1.00  0.00    +0.000 C 
ATOM     41  F4  UNL A   1      25.080  44.360  51.618  1.00  0.00    +0.000 F 
ATOM     42  C32 UNL A   1      24.737  43.715  49.376  1.00  0.00    +0.000 C 
ATOM     43  F5  UNL A   1      24.426  44.976  49.045  1.00  0.00    +0.000 F 
ATOM     44  C33 UNL A   1      24.784  42.729  48.391  1.00  0.00    +0.000 C 
ATOM     45  F6  UNL A   1      24.455  43.096  47.142  1.00  0.00    +0.000 F 
ENDBRANCH   34   35
BRANCH   51   52
ATOM     52  C39 UNL A   1      29.965  38.256  47.952  1.00  0.00    +0.000 C 
ATOM     53  C40 UNL A   1      28.913  37.368  48.227  1.00  0.00    +0.000 C 
ATOM     54  F7  UNL A   1      27.792  37.409  47.511  1.00  0.00    +0.000 F 
ATOM     55  C41 UNL A   1      28.979  36.418  49.243  1.00  0.00    +0.000 C 
ATOM     56  F8  UNL A   1      27.934  35.609  49.475  1.00  0.00    +0.000 F 
ATOM     57  C42 UNL A   1      30.121  36.314  50.011  1.00  0.00    +0.000 C 
ATOM     58  F9  UNL A   1      30.193  35.401  50.989  1.00  0.00    +0.000 F 
ATOM     59  C43 UNL A   1      31.184  37.171  49.768  1.00  0.00    +0.000 C 
ATOM     60  F10 UNL A   1      32.293  37.076  50.514  1.00  0.00    +0.000 F 
ATOM     61  C44 UNL A   1      31.106  38.132  48.756  1.00  0.00    +0.000 C 
ATOM     62  F11 UNL A   1      32.156  38.944  48.558  1.00  0.00    +0.000 F 
ENDBRANCH   51   52
BRANCH   66   67
ATOM     67  C48 UNL A   1      31.423  35.284  42.784  1.00  0.00    +0.000 C 
ATOM     68  C49 UNL A   1      31.460  35.693  41.420  1.00  0.00    +0.000 C 
ATOM     69  F12 UNL A   1      30.734  36.726  40.976  1.00  0.00    +0.000 F 
ATOM     70  C50 UNL A   1      32.242  35.069  40.444  1.00  0.00    +0.000 C 
ATOM     71  F13 UNL A   1      32.147  35.460  39.165  1.00  0.00    +0.000 F 
ATOM     72  C51 UNL A   1      33.091  34.048  40.793  1.00  0.00    +0.000 C 
ATOM     73  F14 UNL A   1      33.824  33.427  39.861  1.00  0.00    +0.000 F 
ATOM     74  C52 UNL A   1      33.186  33.695  42.124  1.00  0.00    +0.000 C 
ATOM     75  F15 UNL A   1      34.059  32.745  42.491  1.00  0.00    +0.000 F 
ATOM     76  C53 UNL A   1      32.380  34.308  43.100  1.00  0.00    +0.000 C 
ATOM     77  F16 UNL A   1      32.606  33.933  44.360  1.00  0.00    +0.000 F 
ENDBRANCH   66   67
TORSDOF 17
ENDMDL
MODEL 6
REMARK VINA RESULT:     -10.6     34.773     40.190
ROOT
ATOM     30  C24 UNL A   1      28.565 -11.633  24.936  1.00  0.00    +0.000 C 
ATOM     31  C25 UNL A   1      29.176 -10.775  23.824  1.00  0.00    +0.000 C 
ATOM     32  N4  UNL A   1      30.390 -10.742  23.361  1.00  0.00    +0.000 N 
ATOM     33  C26 UNL A   1      30.448  -9.698  22.415  1.00  0.00    +0.000 C 
ATOM     34  C27 UNL A   1      31.610  -9.161  21.944  1.00  0.00    +0.000 C 
ATOM     46  C34 UNL A   1      32.745  -9.833  22.477  1.00  0.00    +0.000 C 
ATOM     47  C35 UNL A   1      33.367 -11.018  22.188  1.00  0.00    +0.000 C 
ATOM     48  C36 UNL A   1      34.012 -11.391  23.388  1.00  0.00    +0.000 C 
ATOM     49  C37 UNL A   1      33.788 -10.403  24.350  1.00  0.00    +0.000 C 
ATOM     50  N5  UNL A   1      33.270  -9.342  23.645  1.00  0.00    +0.000 N 
ATOM     51  C38 UNL A   1      33.767 -10.319  25.795  1.00  0.00    +0.000 C 
ATOM     63  C45 UNL A   1      33.989 -11.460  26.493  1.00  0.00    +0.000 C 
ATOM     64  N6  UNL A   1      33.205 -11.757  27.587  1.00  0.00    +0.000 N 
ATOM     65  C46 UNL A   1      32.916 -13.012  27.402  1.00  0.00    +0.000 C 
ATOM     66  C47 UNL A   1      31.820 -13.735  28.076  1.00  0.00    +0.000 C 
ATOM     78  C54 UNL A   1      30.660 -13.282  27.504  1.00  0.00    +0.000 C 
ATOM     79  C55 UNL A   1      29.297 -13.640  27.842  1.00  0.00    +0.000 C 
ATOM     80  C56 UNL A   1      28.441 -13.058  26.983  1.00  0.00    +0.000 C 
ATOM     81  C57 UNL A   1      29.169 -12.267  25.979  1.00  0.00    +0.000 C 
ATOM     82  N7  UNL A   1      30.477 -12.397  26.410  1.00  0.00    +0.000 N 
ATOM     83  C58 UNL A   1      33.711 -13.714  26.386  1.00  0.00    +0.000 C 
ATOM     84  C59 UNL A   1      34.494 -12.715  25.993  1.00  0.00    +0.000 C 
ATOM     85  C60 UNL A   1      29.100  -9.261  22.204  1.00  0.00    +0.000 C 
ATOM     86  C61 UNL A   1      28.282  -9.850  23.078  1.00  0.00    +0.000 C 
ATOM    114  H26 UNL A   1      33.364 -11.528  21.290  1.00  0.00    +0.000 H 
ATOM    115  H27 UNL A   1      34.562 -12.254  23.532  1.00  0.00    +0.000 H 
ATOM    116  H28 UNL A   1      33.276  -8.399  23.928  1.00  0.00    +0.000 H 
ATOM    117  H29 UNL A   1      29.023 -14.251  28.628  1.00  0.00    +0.000 H 
ATOM    118  H30 UNL A   1      27.414 -13.153  27.022  1.00  0.00    +0.000 H 
ATOM    119  H31 UNL A   1      31.225 -11.913  25.989  1.00  0.00    +0.000 H 
ATOM    120  H32 UNL A   1      33.673 -14.696  26.071  1.00  0.00    +0.000 H 
ATOM    121  H33 UNL A   1      35.342 -12.822  25.413  1.00  0.00    +0.000 H 
ATOM    122  H34 UNL A   1      28.804  -8.587  21.481  1.00  0.00    +0.000 H 
ATOM    123  H35 UNL A   1      27.270  -9.699  23.205  1.00  0.00    +0.000 H 
ENDROOT
BRANCH   30   29
ATOM    124  H36 UNL A   1      27.151 -13.567  23.658  1.00  0.00    +0.000 H 
ATOM     29  C23 UNL A   1      27.094 -11.791  24.811  1.00  0.00    +0.000 C 
ATOM    112  H24 UNL A   1      24.278 -10.402  25.973  1.00  0.00    +0.000 H 
ATOM    113  H25 UNL A   1      26.671 -10.021  25.889  1.00  0.00    +0.000 H 
ATOM     87  C62 UNL A   1      26.540 -12.903  24.159  1.00  0.00    +0.000 C 
ATOM     88  C63 UNL A   1      25.161 -13.109  24.193  1.00  0.00    +0.000 C 
ATOM     26  C20 UNL A   1      24.342 -12.224  24.901  1.00  0.00    +0.000 C 
ATOM     27  C21 UNL A   1      24.892 -11.082  25.497  1.00  0.00    +0.000 C 
ATOM     28  C22 UNL A   1      26.265 -10.863  25.452  1.00  0.00    +0.000 C 
ATOM    125  H37 UNL A   1      24.746 -13.913  23.696  1.00  0.00    +0.000 H 
BRANCH   26   24
ATOM     25  O2  UNL A   1      22.150 -11.814  24.199  1.00  0.00    +0.000 O 
ATOM     24  C19 UNL A   1      22.875 -12.398  24.989  1.00  0.00    +0.000 C 
BRANCH   24   23
ATOM    111  H23 UNL A   1      21.613 -13.814  25.663  1.00  0.00    +0.000 H 
ATOM     23  N3  UNL A   1      22.308 -13.185  25.965  1.00  0.00    +0.000 N 
BRANCH   23   22
ATOM    110  H22 UNL A   1      21.730 -13.500  27.917  1.00  0.00    +0.000 H 
ATOM    109  H21 UNL A   1      22.921 -12.224  27.690  1.00  0.00    +0.000 H 
ATOM     22  C18 UNL A   1      22.610 -13.203  27.387  1.00  0.00    +0.000 C 
BRANCH   22   21
ATOM    107  H19 UNL A   1      23.353 -14.909  28.411  1.00  0.00    +0.000 H 
ATOM    108  H20 UNL A   1      24.006 -14.651  26.772  1.00  0.00    +0.000 H 
ATOM     21  C17 UNL A   1      23.726 -14.200  27.701  1.00  0.00    +0.000 C 
BRANCH   21   20
ATOM    105  H17 UNL A   1      25.492 -14.299  28.879  1.00  0.00    +0.000 H 
ATOM    106  H18 UNL A   1      25.574 -13.237  27.441  1.00  0.00    +0.000 H 
ATOM     20  C16 UNL A   1      24.997 -13.564  28.281  1.00  0.00    +0.000 C 
BRANCH   20   19
ATOM     19  C15 UNL A   1      24.767 -12.322  29.148  1.00  0.00    +0.000 C 
ATOM    103  H15 UNL A   1      23.876 -11.840  28.804  1.00  0.00    +0.000 H 
ATOM    104  H16 UNL A   1      24.702 -12.674  30.156  1.00  0.00    +0.000 H 
BRANCH   19   18
ATOM     18  C14 UNL A   1      25.902 -11.290  29.130  1.00  0.00    +0.000 C 
ATOM    101  H13 UNL A   1      26.600 -11.551  29.898  1.00  0.00    +0.000 H 
ATOM    102  H14 UNL A   1      26.322 -11.323  28.146  1.00  0.00    +0.000 H 
BRANCH   18   17
ATOM     17  C13 UNL A   1      25.464  -9.843  29.360  1.00  0.00    +0.000 C 
ATOM     99  H11 UNL A   1      25.525  -9.310  28.434  1.00  0.00    +0.000 H 
ATOM    100  H12 UNL A   1      24.460  -9.850  29.728  1.00  0.00    +0.000 H 
BRANCH   17   16
ATOM     98  H10 UNL A   1      26.071  -9.265  31.292  1.00  0.00    +0.000 H 
ATOM     16  N2  UNL A   1      26.304  -9.188  30.338  1.00  0.00    +0.000 N 
BRANCH   16    2
ATOM      1  O1  UNL A   1      27.439  -7.663  29.047  1.00  0.00    +0.000 O 
ATOM      2  C1  UNL A   1      27.421  -8.458  29.982  1.00  0.00    +0.000 C 
BRANCH    2    3
ATOM     89  H1  UNL A   1      28.756  -8.017  31.565  1.00  0.00    +0.000 H 
ATOM     90  H2  UNL A   1      29.484  -8.817  30.157  1.00  0.00    +0.000 H 
ATOM      3  C2  UNL A   1      28.646  -8.778  30.821  1.00  0.00    +0.000 C 
BRANCH    3    4
ATOM     97  H9  UNL A   1      29.180 -11.479  29.974  1.00  0.00    +0.000 H 
ATOM      4  C3  UNL A   1      28.563 -10.106  31.507  1.00  0.00    +0.000 C 
ATOM      5  C4  UNL A   1      28.149 -10.378  32.838  1.00  0.00    +0.000 C 
ATOM      6  C5  UNL A   1      28.144 -11.742  33.006  1.00  0.00    +0.000 C 
ATOM      7  N1  UNL A   1      28.551 -12.346  31.833  1.00  0.00    +0.000 N 
ATOM     15  C12 UNL A   1      28.828 -11.338  30.933  1.00  0.00    +0.000 C 
ATOM     91  H3  UNL A   1      27.897  -9.675  33.552  1.00  0.00    +0.000 H 
ATOM     92  H4  UNL A   1      27.877 -12.238  33.872  1.00  0.00    +0.000 H 
BRANCH    7    8
ATOM      8  C6  UNL A   1      28.624 -13.744  31.597  1.00  0.00    +0.000 C 
ATOM      9  C7  UNL A   1      27.614 -14.382  30.860  1.00  0.00    +0.000 C 
ATOM     10  C8  UNL A   1      27.690 -15.754  30.601  1.00  0.00    +0.000 C 
ATOM     11  C9  UNL A   1      28.758 -16.501  31.094  1.00  0.00    +0.000 C 
ATOM     12  C10 UNL A   1      29.757 -15.876  31.836  1.00  0.00    +0.000 C 
ATOM     13  C11 UNL A   1      29.696 -14.504  32.074  1.00  0.00    +0.000 C 
ATOM     14  F1  UNL A   1      30.663 -13.964  32.829  1.00  0.00    +0.000 F 
ATOM     93  H5  UNL A   1      26.811 -13.836  30.508  1.00  0.00    +0.000 H 
ATOM     94  H6  UNL A   1      26.954 -16.214  30.043  1.00  0.00    +0.000 H 
ATOM     95  H7  UNL A   1      28.807 -17.516  30.910  1.00  0.00    +0.000 H 
ATOM     96  H8  UNL A   1      30.545 -16.429  32.209  1.00  0.00    +0.000 H 
ENDBRANCH    7    8
ENDBRANCH    3    4
ENDBRANCH    2    3
ENDBRANCH   16    2
ENDBRANCH   17   16
ENDBRANCH   18   17
ENDBRANCH   19   18
ENDBRANCH   20   19
ENDBRANCH   21   20
ENDBRANCH   22   21
ENDBRANCH   23   22
ENDBRANCH   24   23
ENDBRANCH   26   24
ENDBRANCH   30   29
BRANCH   34   35
ATOM     35  C28 UNL A   1      31.861  -7.899  21.163  1.00  0.00    +0.000 C 
ATOM     36  C29 UNL A   1      31.919  -6.627  21.751  1.00  0.00    +0.000 C 
ATOM     37  F2  UNL A   1      31.500  -6.426  23.007  1.00  0.00    +0.000 F 
ATOM     38  C30 UNL A   1      32.507  -5.543  21.088  1.00  0.00    +0.000 C 
ATOM     39  F3  UNL A   1      32.577  -4.353  21.698  1.00  0.00    +0.000 F 
ATOM     40  C31 UNL A   1      33.080  -5.705  19.837  1.00  0.00    +0.000 C 
ATOM     41  F4  UNL A   1      33.729  -4.689  19.254  1.00  0.00    +0.000 F 
ATOM     42  C32 UNL A   1      33.006  -6.933  19.212  1.00  0.00    +0.000 C 
ATOM     43  F5  UNL A   1      33.585  -7.114  18.016  1.00  0.00    +0.000 F 
ATOM     44  C33 UNL A   1      32.380  -8.004  19.850  1.00  0.00    +0.000 C 
ATOM     45  F6  UNL A   1      32.345  -9.173  19.191  1.00  0.00    +0.000 F 
ENDBRANCH   34   35
BRANCH   51   52
ATOM     52  C39 UNL A   1      33.070  -9.251  26.608  1.00  0.00    +0.000 C 
ATOM     53  C40 UNL A   1      31.686  -9.017  26.544  1.00  0.00    +0.000 C 
ATOM     54  F7  UNL A   1      30.935  -9.660  25.654  1.00  0.00    +0.000 F 
ATOM     55  C41 UNL A   1      31.038  -8.118  27.388  1.00  0.00    +0.000 C 
ATOM     56  F8  UNL A   1      29.716  -7.920  27.267  1.00  0.00    +0.000 F 
ATOM     57  C42 UNL A   1      31.759  -7.432  28.343  1.00  0.00    +0.000 C 
ATOM     58  F9  UNL A   1      31.141  -6.567  29.159  1.00  0.00    +0.000 F 
ATOM     59  C43 UNL A   1      33.127  -7.638  28.440  1.00  0.00    +0.000 C 
ATOM     60  F10 UNL A   1      33.831  -6.970  29.364  1.00  0.00    +0.000 F 
ATOM     61  C44 UNL A   1      33.775  -8.531  27.582  1.00  0.00    +0.000 C 
ATOM     62  F11 UNL A   1      35.100  -8.697  27.707  1.00  0.00    +0.000 F 
ENDBRANCH   51   52
BRANCH   66   67
ATOM     67  C48 UNL A   1      32.206 -14.796  29.091  1.00  0.00    +0.000 C 
ATOM     68  C49 UNL A   1      32.839 -14.425  30.312  1.00  0.00    +0.000 C 
ATOM     69  F12 UNL A   1      32.920 -13.147  30.703  1.00  0.00    +0.000 F 
ATOM     70  C50 UNL A   1      33.419 -15.341  31.195  1.00  0.00    +0.000 C 
ATOM     71  F13 UNL A   1      34.076 -14.899  32.277  1.00  0.00    +0.000 F 
ATOM     72  C51 UNL A   1      33.329 -16.688  30.944  1.00  0.00    +0.000 C 
ATOM     73  F14 UNL A   1      33.903 -17.572  31.769  1.00  0.00    +0.000 F 
ATOM     74  C52 UNL A   1      32.618 -17.108  29.838  1.00  0.00    +0.000 C 
ATOM     75  F15 UNL A   1      32.465 -18.421  29.615  1.00  0.00    +0.000 F 
ATOM     76  C53 UNL A   1      32.057 -16.182  28.939  1.00  0.00    +0.000 C 
ATOM     77  F16 UNL A   1      31.336 -16.703  27.944  1.00  0.00    +0.000 F 
ENDBRANCH   66   67
TORSDOF 17
ENDMDL
MODEL 7
REMARK VINA RESULT:     -10.6      3.061      8.794
ROOT
ATOM     30  C24 UNL A   1      40.229  29.415  29.881  1.00  0.00    +0.000 C 
ATOM     31  C25 UNL A   1      41.385  30.410  29.741  1.00  0.00    +0.000 C 
ATOM     32  N4  UNL A   1      42.435  30.375  28.976  1.00  0.00    +0.000 N 
ATOM     33  C26 UNL A   1      43.238  31.482  29.316  1.00  0.00    +0.000 C 
ATOM     34  C27 UNL A   1      44.547  31.614  28.953  1.00  0.00    +0.000 C 
ATOM     46  C34 UNL A   1      44.969  30.530  28.135  1.00  0.00    +0.000 C 
ATOM     47  C35 UNL A   1      44.803  30.220  26.812  1.00  0.00    +0.000 C 
ATOM     48  C36 UNL A   1      44.917  28.812  26.752  1.00  0.00    +0.000 C 
ATOM     49  C37 UNL A   1      45.182  28.324  28.034  1.00  0.00    +0.000 C 
ATOM     50  N5  UNL A   1      45.504  29.438  28.772  1.00  0.00    +0.000 N 
ATOM     51  C38 UNL A   1      45.002  27.078  28.749  1.00  0.00    +0.000 C 
ATOM     63  C45 UNL A   1      44.399  26.058  28.089  1.00  0.00    +0.000 C 
ATOM     64  N6  UNL A   1      43.441  25.301  28.729  1.00  0.00    +0.000 N 
ATOM     65  C46 UNL A   1      42.497  25.220  27.837  1.00  0.00    +0.000 C 
ATOM     66  C47 UNL A   1      41.100  24.832  28.119  1.00  0.00    +0.000 C 
ATOM     78  C54 UNL A   1      40.534  25.899  28.765  1.00  0.00    +0.000 C 
ATOM     79  C55 UNL A   1      39.192  26.009  29.302  1.00  0.00    +0.000 C 
ATOM     80  C56 UNL A   1      38.985  27.252  29.773  1.00  0.00    +0.000 C 
ATOM     81  C57 UNL A   1      40.178  28.089  29.574  1.00  0.00    +0.000 C 
ATOM     82  N7  UNL A   1      41.074  27.182  29.037  1.00  0.00    +0.000 N 
ATOM     83  C58 UNL A   1      42.860  25.623  26.473  1.00  0.00    +0.000 C 
ATOM     84  C59 UNL A   1      44.131  25.959  26.676  1.00  0.00    +0.000 C 
ATOM     85  C60 UNL A   1      42.460  32.295  30.203  1.00  0.00    +0.000 C 
ATOM     86  C61 UNL A   1      41.335  31.664  30.539  1.00  0.00    +0.000 C 
ATOM    114  H26 UNL A   1      44.632  30.871  26.030  1.00  0.00    +0.000 H 
ATOM    115  H27 UNL A   1      44.820  28.237  25.900  1.00  0.00    +0.000 H 
ATOM    116  H28 UNL A   1      46.024  29.451  29.607  1.00  0.00    +0.000 H 
ATOM    117  H29 UNL A   1      38.498  25.246  29.321  1.00  0.00    +0.000 H 
ATOM    118  H30 UNL A   1      38.109  27.575  30.213  1.00  0.00    +0.000 H 
ATOM    119  H31 UNL A   1      42.015  27.411  28.856  1.00  0.00    +0.000 H 
ATOM    120  H32 UNL A   1      42.296  25.640  25.609  1.00  0.00    +0.000 H 
ATOM    121  H33 UNL A   1      44.825  26.124  25.930  1.00  0.00    +0.000 H 
ATOM    122  H34 UNL A   1      42.731  33.234  30.533  1.00  0.00    +0.000 H 
ATOM    123  H35 UNL A   1      40.603  31.973  31.198  1.00  0.00    +0.000 H 
ENDROOT
BRANCH   30   29
ATOM    124  H36 UNL A   1      39.217  29.329  32.399  1.00  0.00    +0.000 H 
ATOM     29  C23 UNL A   1      38.989  30.032  30.414  1.00  0.00    +0.000 C 
ATOM    112  H24 UNL A   1      36.562  32.121  29.436  1.00  0.00    +0.000 H 
ATOM    113  H25 UNL A   1      38.423  30.846  28.546  1.00  0.00    +0.000 H 
ATOM     87  C62 UNL A   1      38.659  29.932  31.775  1.00  0.00    +0.000 C 
ATOM     88  C63 UNL A   1      37.577  30.652  32.279  1.00  0.00    +0.000 C 
ATOM     26  C20 UNL A   1      36.845  31.492  31.435  1.00  0.00    +0.000 C 
ATOM     27  C21 UNL A   1      37.138  31.542  30.066  1.00  0.00    +0.000 C 
ATOM     28  C22 UNL A   1      38.207  30.813  29.555  1.00  0.00    +0.000 C 
ATOM    125  H37 UNL A   1      37.316  30.564  33.274  1.00  0.00    +0.000 H 
BRANCH   26   24
ATOM     25  O2  UNL A   1      35.618  32.586  33.098  1.00  0.00    +0.000 O 
ATOM     24  C19 UNL A   1      35.697  32.295  31.914  1.00  0.00    +0.000 C 
BRANCH   24   23
ATOM    111  H23 UNL A   1      34.213  31.978  30.593  1.00  0.00    +0.000 H 
ATOM     23  N3  UNL A   1      34.701  32.697  31.055  1.00  0.00    +0.000 N 
BRANCH   23   22
ATOM    110  H22 UNL A   1      34.366  34.647  31.633  1.00  0.00    +0.000 H 
ATOM    109  H21 UNL A   1      33.266  34.036  30.402  1.00  0.00    +0.000 H 
ATOM     22  C18 UNL A   1      34.280  34.055  30.746  1.00  0.00    +0.000 C 
BRANCH   22   21
ATOM    107  H19 UNL A   1      35.038  35.735  29.693  1.00  0.00    +0.000 H 
ATOM    108  H20 UNL A   1      36.167  34.366  29.873  1.00  0.00    +0.000 H 
ATOM     21  C17 UNL A   1      35.163  34.672  29.662  1.00  0.00    +0.000 C 
BRANCH   21   20
ATOM    105  H17 UNL A   1      35.237  34.913  27.552  1.00  0.00    +0.000 H 
ATOM    106  H18 UNL A   1      35.296  33.226  28.146  1.00  0.00    +0.000 H 
ATOM     20  C16 UNL A   1      34.847  34.192  28.239  1.00  0.00    +0.000 C 
BRANCH   20   19
ATOM     19  C15 UNL A   1      33.358  34.001  27.933  1.00  0.00    +0.000 C 
ATOM    103  H15 UNL A   1      32.807  34.218  28.823  1.00  0.00    +0.000 H 
ATOM    104  H16 UNL A   1      33.137  34.661  27.120  1.00  0.00    +0.000 H 
BRANCH   19   18
ATOM     18  C14 UNL A   1      32.962  32.596  27.459  1.00  0.00    +0.000 C 
ATOM    101  H13 UNL A   1      31.927  32.449  27.687  1.00  0.00    +0.000 H 
ATOM    102  H14 UNL A   1      33.175  32.562  26.411  1.00  0.00    +0.000 H 
BRANCH   18   17
ATOM     17  C13 UNL A   1      33.754  31.453  28.094  1.00  0.00    +0.000 C 
ATOM     99  H11 UNL A   1      34.430  31.857  28.817  1.00  0.00    +0.000 H 
ATOM    100  H12 UNL A   1      33.062  30.780  28.557  1.00  0.00    +0.000 H 
BRANCH   17   16
ATOM     98  H10 UNL A   1      34.780  31.180  26.275  1.00  0.00    +0.000 H 
ATOM     16  N2  UNL A   1      34.507  30.719  27.100  1.00  0.00    +0.000 N 
BRANCH   16    2
ATOM      1  O1  UNL A   1      35.980  29.028  27.600  1.00  0.00    +0.000 O 
ATOM      2  C1  UNL A   1      34.856  29.394  27.271  1.00  0.00    +0.000 C 
BRANCH    2    3
ATOM     89  H1  UNL A   1      33.031  28.439  27.761  1.00  0.00    +0.000 H 
ATOM     90  H2  UNL A   1      34.171  27.460  26.817  1.00  0.00    +0.000 H 
ATOM      3  C2  UNL A   1      33.731  28.425  26.952  1.00  0.00    +0.000 C 
BRANCH    3    4
ATOM     97  H9  UNL A   1      31.104  29.473  26.403  1.00  0.00    +0.000 H 
ATOM      4  C3  UNL A   1      33.001  28.761  25.688  1.00  0.00    +0.000 C 
ATOM      5  C4  UNL A   1      33.455  28.613  24.351  1.00  0.00    +0.000 C 
ATOM      6  C5  UNL A   1      32.420  28.961  23.515  1.00  0.00    +0.000 C 
ATOM      7  N1  UNL A   1      31.329  29.336  24.274  1.00  0.00    +0.000 N 
ATOM     15  C12 UNL A   1      31.703  29.233  25.598  1.00  0.00    +0.000 C 
ATOM     91  H3  UNL A   1      34.395  28.301  24.059  1.00  0.00    +0.000 H 
ATOM     92  H4  UNL A   1      32.453  28.944  22.483  1.00  0.00    +0.000 H 
BRANCH    7    8
ATOM      8  C6  UNL A   1      30.055  29.710  23.773  1.00  0.00    +0.000 C 
ATOM      9  C7  UNL A   1      29.339  28.826  22.951  1.00  0.00    +0.000 C 
ATOM     10  C8  UNL A   1      28.072  29.176  22.474  1.00  0.00    +0.000 C 
ATOM     11  C9  UNL A   1      27.523  30.416  22.793  1.00  0.00    +0.000 C 
ATOM     12  C10 UNL A   1      28.233  31.303  23.599  1.00  0.00    +0.000 C 
ATOM     13  C11 UNL A   1      29.485  30.946  24.096  1.00  0.00    +0.000 C 
ATOM     14  F1  UNL A   1      30.140  31.855  24.832  1.00  0.00    +0.000 F 
ATOM     93  H5  UNL A   1      29.750  27.913  22.696  1.00  0.00    +0.000 H 
ATOM     94  H6  UNL A   1      27.544  28.515  21.885  1.00  0.00    +0.000 H 
ATOM     95  H7  UNL A   1      26.591  30.677  22.431  1.00  0.00    +0.000 H 
ATOM     96  H8  UNL A   1      27.831  32.225  23.830  1.00  0.00    +0.000 H 
ENDBRANCH    7    8
ENDBRANCH    3    4
ENDBRANCH    2    3
ENDBRANCH   16    2
ENDBRANCH   17   16
ENDBRANCH   18   17
ENDBRANCH   19   18
ENDBRANCH   20   19
ENDBRANCH   21   20
ENDBRANCH   22   21
ENDBRANCH   23   22
ENDBRANCH   24   23
ENDBRANCH   26   24
ENDBRANCH   30   29
BRANCH   34   35
ATOM     35  C28 UNL A   1      45.607  32.564  29.439  1.00  0.00    +0.000 C 
ATOM     36  C29 UNL A   1      46.165  32.506  30.724  1.00  0.00    +0.000 C 
ATOM     37  F2  UNL A   1      45.606  31.762  31.687  1.00  0.00    +0.000 F 
ATOM     38  C30 UNL A   1      47.378  33.138  31.023  1.00  0.00    +0.000 C 
ATOM     39  F3  UNL A   1      47.897  33.028  32.253  1.00  0.00    +0.000 F 
ATOM     40  C31 UNL A   1      48.081  33.819  30.042  1.00  0.00    +0.000 C 
ATOM     41  F4  UNL A   1      49.288  34.334  30.310  1.00  0.00    +0.000 F 
ATOM     42  C32 UNL A   1      47.543  33.930  28.777  1.00  0.00    +0.000 C 
ATOM     43  F5  UNL A   1      48.229  34.555  27.809  1.00  0.00    +0.000 F 
ATOM     44  C33 UNL A   1      46.313  33.340  28.488  1.00  0.00    +0.000 C 
ATOM     45  F6  UNL A   1      45.846  33.481  27.237  1.00  0.00    +0.000 F 
ENDBRANCH   34   35
BRANCH   51   52
ATOM     52  C39 UNL A   1      44.962  26.920  30.253  1.00  0.00    +0.000 C 
ATOM     53  C40 UNL A   1      43.981  27.517  31.062  1.00  0.00    +0.000 C 
ATOM     54  F7  UNL A   1      43.100  28.366  30.538  1.00  0.00    +0.000 F 
ATOM     55  C41 UNL A   1      43.880  27.264  32.428  1.00  0.00    +0.000 C 
ATOM     56  F8  UNL A   1      42.936  27.880  33.156  1.00  0.00    +0.000 F 
ATOM     57  C42 UNL A   1      44.755  26.381  33.029  1.00  0.00    +0.000 C 
ATOM     58  F9  UNL A   1      44.662  26.132  34.342  1.00  0.00    +0.000 F 
ATOM     59  C43 UNL A   1      45.734  25.768  32.263  1.00  0.00    +0.000 C 
ATOM     60  F10 UNL A   1      46.588  24.914  32.843  1.00  0.00    +0.000 F 
ATOM     61  C44 UNL A   1      45.840  26.037  30.895  1.00  0.00    +0.000 C 
ATOM     62  F11 UNL A   1      46.806  25.425  30.192  1.00  0.00    +0.000 F 
ENDBRANCH   51   52
BRANCH   66   67
ATOM     67  C48 UNL A   1      40.628  23.492  27.582  1.00  0.00    +0.000 C 
ATOM     68  C49 UNL A   1      41.300  22.292  27.954  1.00  0.00    +0.000 C 
ATOM     69  F12 UNL A   1      42.210  22.271  28.936  1.00  0.00    +0.000 F 
ATOM     70  C50 UNL A   1      41.073  21.055  27.344  1.00  0.00    +0.000 C 
ATOM     71  F13 UNL A   1      41.815  19.995  27.694  1.00  0.00    +0.000 F 
ATOM     72  C51 UNL A   1      40.105  20.932  26.378  1.00  0.00    +0.000 C 
ATOM     73  F14 UNL A   1      39.899  19.758  25.769  1.00  0.00    +0.000 F 
ATOM     74  C52 UNL A   1      39.339  22.038  26.067  1.00  0.00    +0.000 C 
ATOM     75  F15 UNL A   1      38.346  21.919  25.174  1.00  0.00    +0.000 F 
ATOM     76  C53 UNL A   1      39.587  23.287  26.665  1.00  0.00    +0.000 C 
ATOM     77  F16 UNL A   1      38.741  24.266  26.338  1.00  0.00    +0.000 F 
ENDBRANCH   66   67
TORSDOF 17
ENDMDL
MODEL 8
REMARK VINA RESULT:     -10.6      2.263      8.328
ROOT
ATOM     30  C24 UNL A   1      39.863  29.243  29.116  1.00  0.00    +0.000 C 
ATOM     31  C25 UNL A   1      40.671  30.361  29.781  1.00  0.00    +0.000 C 
ATOM     32  N4  UNL A   1      41.955  30.558  29.820  1.00  0.00    +0.000 N 
ATOM     33  C26 UNL A   1      42.182  31.672  30.654  1.00  0.00    +0.000 C 
ATOM     34  C27 UNL A   1      43.399  31.996  31.179  1.00  0.00    +0.000 C 
ATOM     46  C34 UNL A   1      44.413  31.109  30.722  1.00  0.00    +0.000 C 
ATOM     47  C35 UNL A   1      45.125  31.003  29.558  1.00  0.00    +0.000 C 
ATOM     48  C36 UNL A   1      45.505  29.643  29.487  1.00  0.00    +0.000 C 
ATOM     49  C37 UNL A   1      45.038  28.982  30.627  1.00  0.00    +0.000 C 
ATOM     50  N5  UNL A   1      44.650  29.989  31.479  1.00  0.00    +0.000 N 
ATOM     51  C38 UNL A   1      44.697  27.625  30.997  1.00  0.00    +0.000 C 
ATOM     63  C45 UNL A   1      44.802  26.669  30.041  1.00  0.00    +0.000 C 
ATOM     64  N6  UNL A   1      43.808  25.724  29.907  1.00  0.00    +0.000 N 
ATOM     65  C46 UNL A   1      43.613  25.692  28.621  1.00  0.00    +0.000 C 
ATOM     66  C47 UNL A   1      42.423  25.122  27.960  1.00  0.00    +0.000 C 
ATOM     78  C54 UNL A   1      41.401  26.005  28.192  1.00  0.00    +0.000 C 
ATOM     79  C55 UNL A   1      40.011  25.888  27.799  1.00  0.00    +0.000 C 
ATOM     80  C56 UNL A   1      39.344  27.010  28.125  1.00  0.00    +0.000 C 
ATOM     81  C57 UNL A   1      40.246  27.986  28.756  1.00  0.00    +0.000 C 
ATOM     82  N7  UNL A   1      41.431  27.276  28.822  1.00  0.00    +0.000 N 
ATOM     83  C58 UNL A   1      44.637  26.347  27.796  1.00  0.00    +0.000 C 
ATOM     84  C59 UNL A   1      45.450  26.774  28.757  1.00  0.00    +0.000 C 
ATOM     85  C60 UNL A   1      40.898  32.246  30.928  1.00  0.00    +0.000 C 
ATOM     86  C61 UNL A   1      39.931  31.456  30.461  1.00  0.00    +0.000 C 
ATOM    114  H26 UNL A   1      45.339  31.751  28.880  1.00  0.00    +0.000 H 
ATOM    115  H27 UNL A   1      46.040  29.207  28.720  1.00  0.00    +0.000 H 
ATOM    116  H28 UNL A   1      44.558  29.919  32.456  1.00  0.00    +0.000 H 
ATOM    117  H29 UNL A   1      39.594  25.064  27.338  1.00  0.00    +0.000 H 
ATOM    118  H30 UNL A   1      38.338  27.165  27.956  1.00  0.00    +0.000 H 
ATOM    119  H31 UNL A   1      42.234  27.626  29.272  1.00  0.00    +0.000 H 
ATOM    120  H32 UNL A   1      44.705  26.446  26.771  1.00  0.00    +0.000 H 
ATOM    121  H33 UNL A   1      46.408  27.129  28.606  1.00  0.00    +0.000 H 
ATOM    122  H34 UNL A   1      40.744  33.142  31.416  1.00  0.00    +0.000 H 
ATOM    123  H35 UNL A   1      38.910  31.576  30.551  1.00  0.00    +0.000 H 
ENDROOT
BRANCH   30   29
ATOM    124  H36 UNL A   1      38.833  30.329  26.850  1.00  0.00    +0.000 H 
ATOM     29  C23 UNL A   1      38.463  29.634  28.816  1.00  0.00    +0.000 C 
ATOM    112  H24 UNL A   1      35.413  29.419  30.182  1.00  0.00    +0.000 H 
ATOM    113  H25 UNL A   1      37.751  29.084  30.731  1.00  0.00    +0.000 H 
ATOM     87  C62 UNL A   1      38.105  30.125  27.551  1.00  0.00    +0.000 C 
ATOM     88  C63 UNL A   1      36.760  30.334  27.246  1.00  0.00    +0.000 C 
ATOM     26  C20 UNL A   1      35.775  30.025  28.189  1.00  0.00    +0.000 C 
ATOM     27  C21 UNL A   1      36.140  29.594  29.471  1.00  0.00    +0.000 C 
ATOM     28  C22 UNL A   1      37.481  29.399  29.786  1.00  0.00    +0.000 C 
ATOM    125  H37 UNL A   1      36.493  30.717  26.325  1.00  0.00    +0.000 H 
BRANCH   26   24
ATOM     25  O2  UNL A   1      33.802  31.279  28.171  1.00  0.00    +0.000 O 
ATOM     24  C19 UNL A   1      34.331  30.208  27.918  1.00  0.00    +0.000 C 
BRANCH   24   23
ATOM    111  H23 UNL A   1      32.843  28.855  27.993  1.00  0.00    +0.000 H 
ATOM     23  N3  UNL A   1      33.566  29.183  27.411  1.00  0.00    +0.000 N 
BRANCH   23   22
ATOM    110  H22 UNL A   1      34.735  28.402  25.904  1.00  0.00    +0.000 H 
ATOM    109  H21 UNL A   1      33.222  29.127  25.373  1.00  0.00    +0.000 H 
ATOM     22  C18 UNL A   1      33.694  28.524  26.121  1.00  0.00    +0.000 C 
BRANCH   22   21
ATOM    107  H19 UNL A   1      33.123  26.719  25.161  1.00  0.00    +0.000 H 
ATOM    108  H20 UNL A   1      33.543  26.572  26.888  1.00  0.00    +0.000 H 
ATOM     21  C17 UNL A   1      33.036  27.145  26.139  1.00  0.00    +0.000 C 
BRANCH   21   20
ATOM    105  H17 UNL A   1      31.434  26.562  27.407  1.00  0.00    +0.000 H 
ATOM    106  H18 UNL A   1      31.291  28.186  26.669  1.00  0.00    +0.000 H 
ATOM     20  C16 UNL A   1      31.551  27.158  26.527  1.00  0.00    +0.000 C 
BRANCH   20   19
ATOM     19  C15 UNL A   1      30.595  26.620  25.458  1.00  0.00    +0.000 C 
ATOM    103  H15 UNL A   1      30.987  25.692  25.100  1.00  0.00    +0.000 H 
ATOM    104  H16 UNL A   1      29.641  26.528  25.935  1.00  0.00    +0.000 H 
BRANCH   19   18
ATOM     18  C14 UNL A   1      30.377  27.542  24.250  1.00  0.00    +0.000 C 
ATOM    101  H13 UNL A   1      29.370  27.900  24.283  1.00  0.00    +0.000 H 
ATOM    102  H14 UNL A   1      31.108  28.319  24.331  1.00  0.00    +0.000 H 
BRANCH   18   17
ATOM     17  C13 UNL A   1      30.602  26.884  22.888  1.00  0.00    +0.000 C 
ATOM     99  H11 UNL A   1      29.959  26.033  22.801  1.00  0.00    +0.000 H 
ATOM    100  H12 UNL A   1      30.383  27.603  22.126  1.00  0.00    +0.000 H 
BRANCH   17   16
ATOM     98  H10 UNL A   1      32.697  27.077  22.978  1.00  0.00    +0.000 H 
ATOM     16  N2  UNL A   1      31.974  26.457  22.729  1.00  0.00    +0.000 N 
BRANCH   16    2
ATOM      1  O1  UNL A   1      32.869  25.029  21.167  1.00  0.00    +0.000 O 
ATOM      2  C1  UNL A   1      32.306  25.208  22.242  1.00  0.00    +0.000 C 
BRANCH    2    3
ATOM     89  H1  UNL A   1      31.704  23.199  22.534  1.00  0.00    +0.000 H 
ATOM     90  H2  UNL A   1      30.953  24.383  23.622  1.00  0.00    +0.000 H 
ATOM      3  C2  UNL A   1      31.853  24.068  23.139  1.00  0.00    +0.000 C 
BRANCH    3    4
ATOM     97  H9  UNL A   1      34.701  23.634  23.145  1.00  0.00    +0.000 H 
ATOM      4  C3  UNL A   1      32.840  23.734  24.214  1.00  0.00    +0.000 C 
ATOM      5  C4  UNL A   1      32.588  23.514  25.594  1.00  0.00    +0.000 C 
ATOM      6  C5  UNL A   1      33.775  23.146  26.184  1.00  0.00    +0.000 C 
ATOM      7  N1  UNL A   1      34.773  23.137  25.231  1.00  0.00    +0.000 N 
ATOM     15  C12 UNL A   1      34.197  23.521  24.037  1.00  0.00    +0.000 C 
ATOM     91  H3  UNL A   1      31.677  23.612  26.069  1.00  0.00    +0.000 H 
ATOM     92  H4  UNL A   1      33.900  22.913  27.183  1.00  0.00    +0.000 H 
BRANCH    7    8
ATOM      8  C6  UNL A   1      36.125  22.758  25.442  1.00  0.00    +0.000 C 
ATOM      9  C7  UNL A   1      37.041  23.692  25.951  1.00  0.00    +0.000 C 
ATOM     10  C8  UNL A   1      38.368  23.321  26.186  1.00  0.00    +0.000 C 
ATOM     11  C9  UNL A   1      38.796  22.027  25.893  1.00  0.00    +0.000 C 
ATOM     12  C10 UNL A   1      37.894  21.099  25.378  1.00  0.00    +0.000 C 
ATOM     13  C11 UNL A   1      36.565  21.460  25.166  1.00  0.00    +0.000 C 
ATOM     14  F1  UNL A   1      35.752  20.539  24.629  1.00  0.00    +0.000 F 
ATOM     93  H5  UNL A   1      36.734  24.658  26.152  1.00  0.00    +0.000 H 
ATOM     94  H6  UNL A   1      39.033  24.007  26.576  1.00  0.00    +0.000 H 
ATOM     95  H7  UNL A   1      39.779  21.758  26.058  1.00  0.00    +0.000 H 
ATOM     96  H8  UNL A   1      38.210  20.143  25.153  1.00  0.00    +0.000 H 
ENDBRANCH    7    8
ENDBRANCH    3    4
ENDBRANCH    2    3
ENDBRANCH   16    2
ENDBRANCH   17   16
ENDBRANCH   18   17
ENDBRANCH   19   18
ENDBRANCH   20   19
ENDBRANCH   21   20
ENDBRANCH   22   21
ENDBRANCH   23   22
ENDBRANCH   24   23
ENDBRANCH   26   24
ENDBRANCH   30   29
BRANCH   34   35
ATOM     35  C28 UNL A   1      43.769  32.959  32.274  1.00  0.00    +0.000 C 
ATOM     36  C29 UNL A   1      44.177  34.279  32.035  1.00  0.00    +0.000 C 
ATOM     37  F2  UNL A   1      44.509  34.687  30.804  1.00  0.00    +0.000 F 
ATOM     38  C30 UNL A   1      44.156  35.244  33.048  1.00  0.00    +0.000 C 
ATOM     39  F3  UNL A   1      44.518  36.504  32.771  1.00  0.00    +0.000 F 
ATOM     40  C31 UNL A   1      43.700  34.928  34.318  1.00  0.00    +0.000 C 
ATOM     41  F4  UNL A   1      43.587  35.880  35.253  1.00  0.00    +0.000 F 
ATOM     42  C32 UNL A   1      43.328  33.629  34.599  1.00  0.00    +0.000 C 
ATOM     43  F5  UNL A   1      42.851  33.316  35.813  1.00  0.00    +0.000 F 
ATOM     44  C33 UNL A   1      43.390  32.655  33.605  1.00  0.00    +0.000 C 
ATOM     45  F6  UNL A   1      43.011  31.412  33.941  1.00  0.00    +0.000 F 
ENDBRANCH   34   35
BRANCH   51   52
ATOM     52  C39 UNL A   1      43.799  27.221  32.146  1.00  0.00    +0.000 C 
ATOM     53  C40 UNL A   1      44.213  26.367  33.181  1.00  0.00    +0.000 C 
ATOM     54  F7  UNL A   1      45.400  25.768  33.126  1.00  0.00    +0.000 F 
ATOM     55  C41 UNL A   1      43.422  26.102  34.296  1.00  0.00    +0.000 C 
ATOM     56  F8  UNL A   1      43.860  25.260  35.245  1.00  0.00    +0.000 F 
ATOM     57  C42 UNL A   1      42.186  26.705  34.419  1.00  0.00    +0.000 C 
ATOM     58  F9  UNL A   1      41.421  26.455  35.490  1.00  0.00    +0.000 F 
ATOM     59  C43 UNL A   1      41.744  27.557  33.420  1.00  0.00    +0.000 C 
ATOM     60  F10 UNL A   1      40.543  28.142  33.533  1.00  0.00    +0.000 F 
ATOM     61  C44 UNL A   1      42.536  27.809  32.296  1.00  0.00    +0.000 C 
ATOM     62  F11 UNL A   1      42.067  28.637  31.350  1.00  0.00    +0.000 F 
ENDBRANCH   51   52
BRANCH   66   67
ATOM     67  C48 UNL A   1      42.615  23.846  27.159  1.00  0.00    +0.000 C 
ATOM     68  C49 UNL A   1      42.229  22.589  27.708  1.00  0.00    +0.000 C 
ATOM     69  F12 UNL A   1      41.502  22.503  28.829  1.00  0.00    +0.000 F 
ATOM     70  C50 UNL A   1      42.566  21.358  27.137  1.00  0.00    +0.000 C 
ATOM     71  F13 UNL A   1      42.241  20.220  27.769  1.00  0.00    +0.000 F 
ATOM     72  C51 UNL A   1      43.242  21.315  25.943  1.00  0.00    +0.000 C 
ATOM     73  F14 UNL A   1      43.591  20.142  25.402  1.00  0.00    +0.000 F 
ATOM     74  C52 UNL A   1      43.530  22.505  25.306  1.00  0.00    +0.000 C 
ATOM     75  F15 UNL A   1      44.131  22.480  24.107  1.00  0.00    +0.000 F 
ATOM     76  C53 UNL A   1      43.212  23.743  25.895  1.00  0.00    +0.000 C 
ATOM     77  F16 UNL A   1      43.478  24.822  25.157  1.00  0.00    +0.000 F 
ENDBRANCH   66   67
TORSDOF 17
ENDMDL
MODEL 9
REMARK VINA RESULT:     -10.5      2.640      8.530
ROOT
ATOM     30  C24 UNL A   1      39.809  29.231  29.154  1.00  0.00    +0.000 C 
ATOM     31  C25 UNL A   1      40.580  30.405  29.766  1.00  0.00    +0.000 C 
ATOM     32  N4  UNL A   1      41.859  30.633  29.816  1.00  0.00    +0.000 N 
ATOM     33  C26 UNL A   1      42.045  31.799  30.587  1.00  0.00    +0.000 C 
ATOM     34  C27 UNL A   1      43.244  32.180  31.114  1.00  0.00    +0.000 C 
ATOM     46  C34 UNL A   1      44.286  31.291  30.729  1.00  0.00    +0.000 C 
ATOM     47  C35 UNL A   1      45.023  31.133  29.587  1.00  0.00    +0.000 C 
ATOM     48  C36 UNL A   1      45.433  29.780  29.604  1.00  0.00    +0.000 C 
ATOM     49  C37 UNL A   1      44.958  29.178  30.772  1.00  0.00    +0.000 C 
ATOM     50  N5  UNL A   1      44.532  30.224  31.555  1.00  0.00    +0.000 N 
ATOM     51  C38 UNL A   1      44.640  27.837  31.216  1.00  0.00    +0.000 C 
ATOM     63  C45 UNL A   1      44.783  26.829  30.320  1.00  0.00    +0.000 C 
ATOM     64  N6  UNL A   1      43.813  25.855  30.224  1.00  0.00    +0.000 N 
ATOM     65  C46 UNL A   1      43.644  25.743  28.939  1.00  0.00    +0.000 C 
ATOM     66  C47 UNL A   1      42.479  25.108  28.292  1.00  0.00    +0.000 C 
ATOM     78  C54 UNL A   1      41.435  25.981  28.453  1.00  0.00    +0.000 C 
ATOM     79  C55 UNL A   1      40.056  25.809  28.042  1.00  0.00    +0.000 C 
ATOM     80  C56 UNL A   1      39.358  26.933  28.288  1.00  0.00    +0.000 C 
ATOM     81  C57 UNL A   1      40.226  27.964  28.876  1.00  0.00    +0.000 C 
ATOM     82  N7  UNL A   1      41.425  27.287  29.007  1.00  0.00    +0.000 N 
ATOM     83  C58 UNL A   1      44.669  26.372  28.096  1.00  0.00    +0.000 C 
ATOM     84  C59 UNL A   1      45.455  26.873  29.045  1.00  0.00    +0.000 C 
ATOM     85  C60 UNL A   1      40.744  32.359  30.803  1.00  0.00    +0.000 C 
ATOM     86  C61 UNL A   1      39.803  31.521  30.367  1.00  0.00    +0.000 C 
ATOM    114  H26 UNL A   1      45.234  31.845  28.870  1.00  0.00    +0.000 H 
ATOM    115  H27 UNL A   1      45.992  29.312  28.874  1.00  0.00    +0.000 H 
ATOM    116  H28 UNL A   1      44.423  30.210  32.534  1.00  0.00    +0.000 H 
ATOM    117  H29 UNL A   1      39.665  24.950  27.623  1.00  0.00    +0.000 H 
ATOM    118  H30 UNL A   1      38.352  27.055  28.092  1.00  0.00    +0.000 H 
ATOM    119  H31 UNL A   1      42.211  27.681  29.449  1.00  0.00    +0.000 H 
ATOM    120  H32 UNL A   1      44.756  26.412  27.068  1.00  0.00    +0.000 H 
ATOM    121  H33 UNL A   1      46.407  27.240  28.890  1.00  0.00    +0.000 H 
ATOM    122  H34 UNL A   1      40.561  33.278  31.235  1.00  0.00    +0.000 H 
ATOM    123  H35 UNL A   1      38.778  31.623  30.430  1.00  0.00    +0.000 H 
ENDROOT
BRANCH   30   29
ATOM    124  H36 UNL A   1      38.813  30.231  26.834  1.00  0.00    +0.000 H 
ATOM     29  C23 UNL A   1      38.407  29.572  28.806  1.00  0.00    +0.000 C 
ATOM    112  H24 UNL A   1      35.328  29.297  30.092  1.00  0.00    +0.000 H 
ATOM    113  H25 UNL A   1      37.658  29.047  30.713  1.00  0.00    +0.000 H 
ATOM     87  C62 UNL A   1      38.071  30.021  27.520  1.00  0.00    +0.000 C 
ATOM     88  C63 UNL A   1      36.730  30.182  27.172  1.00  0.00    +0.000 C 
ATOM     26  C20 UNL A   1      35.728  29.866  28.095  1.00  0.00    +0.000 C 
ATOM     27  C21 UNL A   1      36.069  29.477  29.397  1.00  0.00    +0.000 C 
ATOM     28  C22 UNL A   1      37.405  29.331  29.754  1.00  0.00    +0.000 C 
ATOM    125  H37 UNL A   1      36.477  30.534  26.235  1.00  0.00    +0.000 H 
BRANCH   26   24
ATOM     25  O2  UNL A   1      33.741  31.084  27.904  1.00  0.00    +0.000 O 
ATOM     24  C19 UNL A   1      34.288  29.998  27.780  1.00  0.00    +0.000 C 
BRANCH   24   23
ATOM    111  H23 UNL A   1      32.838  28.619  27.995  1.00  0.00    +0.000 H 
ATOM     23  N3  UNL A   1      33.544  28.914  27.376  1.00  0.00    +0.000 N 
BRANCH   23   22
ATOM    110  H22 UNL A   1      34.713  27.981  25.958  1.00  0.00    +0.000 H 
ATOM    109  H21 UNL A   1      33.230  28.701  25.343  1.00  0.00    +0.000 H 
ATOM     22  C18 UNL A   1      33.674  28.149  26.145  1.00  0.00    +0.000 C 
BRANCH   22   21
ATOM    107  H19 UNL A   1      33.052  26.294  25.320  1.00  0.00    +0.000 H 
ATOM    108  H20 UNL A   1      33.466  26.264  27.054  1.00  0.00    +0.000 H 
ATOM     21  C17 UNL A   1      32.976  26.794  26.263  1.00  0.00    +0.000 C 
BRANCH   21   20
ATOM    105  H17 UNL A   1      31.315  26.184  27.440  1.00  0.00    +0.000 H 
ATOM    106  H18 UNL A   1      31.314  27.896  26.918  1.00  0.00    +0.000 H 
ATOM     20  C16 UNL A   1      31.492  26.877  26.645  1.00  0.00    +0.000 C 
BRANCH   20   19
ATOM     19  C15 UNL A   1      30.510  26.563  25.512  1.00  0.00    +0.000 C 
ATOM    103  H15 UNL A   1      30.790  25.623  25.084  1.00  0.00    +0.000 H 
ATOM    104  H16 UNL A   1      29.537  26.559  25.957  1.00  0.00    +0.000 H 
BRANCH   19   18
ATOM     18  C14 UNL A   1      30.457  27.602  24.383  1.00  0.00    +0.000 C 
ATOM    101  H13 UNL A   1      29.488  28.054  24.395  1.00  0.00    +0.000 H 
ATOM    102  H14 UNL A   1      31.251  28.292  24.574  1.00  0.00    +0.000 H 
BRANCH   18   17
ATOM     17  C13 UNL A   1      30.702  27.045  22.981  1.00  0.00    +0.000 C 
ATOM     99  H11 UNL A   1      29.933  26.339  22.747  1.00  0.00    +0.000 H 
ATOM    100  H12 UNL A   1      30.692  27.860  22.288  1.00  0.00    +0.000 H 
BRANCH   17   16
ATOM     98  H10 UNL A   1      32.793  26.879  23.177  1.00  0.00    +0.000 H 
ATOM     16  N2  UNL A   1      31.988  26.389  22.893  1.00  0.00    +0.000 N 
BRANCH   16    2
ATOM      1  O1  UNL A   1      33.025  24.745  21.666  1.00  0.00    +0.000 O 
ATOM      2  C1  UNL A   1      32.126  25.097  22.423  1.00  0.00    +0.000 C 
BRANCH    2    3
ATOM     89  H1  UNL A   1      30.504  23.795  22.027  1.00  0.00    +0.000 H 
ATOM     90  H2  UNL A   1      30.380  24.725  23.533  1.00  0.00    +0.000 H 
ATOM      3  C2  UNL A   1      31.022  24.163  22.887  1.00  0.00    +0.000 C 
BRANCH    3    4
ATOM     97  H9  UNL A   1      32.495  21.791  22.178  1.00  0.00    +0.000 H 
ATOM      4  C3  UNL A   1      31.528  22.994  23.674  1.00  0.00    +0.000 C 
ATOM      5  C4  UNL A   1      31.374  22.741  25.063  1.00  0.00    +0.000 C 
ATOM      6  C5  UNL A   1      31.920  21.507  25.328  1.00  0.00    +0.000 C 
ATOM      7  N1  UNL A   1      32.425  20.972  24.160  1.00  0.00    +0.000 N 
ATOM     15  C12 UNL A   1      32.202  21.898  23.161  1.00  0.00    +0.000 C 
ATOM     91  H3  UNL A   1      30.932  23.372  25.750  1.00  0.00    +0.000 H 
ATOM     92  H4  UNL A   1      31.947  21.052  26.255  1.00  0.00    +0.000 H 
BRANCH    7    8
ATOM      8  C6  UNL A   1      33.019  19.691  24.018  1.00  0.00    +0.000 C 
ATOM      9  C7  UNL A   1      32.376  18.703  23.256  1.00  0.00    +0.000 C 
ATOM     10  C8  UNL A   1      32.965  17.446  23.090  1.00  0.00    +0.000 C 
ATOM     11  C9  UNL A   1      34.184  17.159  23.701  1.00  0.00    +0.000 C 
ATOM     12  C10 UNL A   1      34.822  18.131  24.468  1.00  0.00    +0.000 C 
ATOM     13  C11 UNL A   1      34.248  19.393  24.614  1.00  0.00    +0.000 C 
ATOM     14  F1  UNL A   1      34.886  20.275  25.397  1.00  0.00    +0.000 F 
ATOM     93  H5  UNL A   1      31.463  18.905  22.817  1.00  0.00    +0.000 H 
ATOM     94  H6  UNL A   1      32.496  16.730  22.515  1.00  0.00    +0.000 H 
ATOM     95  H7  UNL A   1      34.613  16.226  23.586  1.00  0.00    +0.000 H 
ATOM     96  H8  UNL A   1      35.721  17.917  24.928  1.00  0.00    +0.000 H 
ENDBRANCH    7    8
ENDBRANCH    3    4
ENDBRANCH    2    3
ENDBRANCH   16    2
ENDBRANCH   17   16
ENDBRANCH   18   17
ENDBRANCH   19   18
ENDBRANCH   20   19
ENDBRANCH   21   20
ENDBRANCH   22   21
ENDBRANCH   23   22
ENDBRANCH   24   23
ENDBRANCH   26   24
ENDBRANCH   30   29
BRANCH   34   35
ATOM     35  C28 UNL A   1      43.572  33.215  32.157  1.00  0.00    +0.000 C 
ATOM     36  C29 UNL A   1      43.919  34.538  31.848  1.00  0.00    +0.000 C 
ATOM     37  F2  UNL A   1      44.232  34.896  30.596  1.00  0.00    +0.000 F 
ATOM     38  C30 UNL A   1      43.857  35.552  32.811  1.00  0.00    +0.000 C 
ATOM     39  F3  UNL A   1      44.161  36.811  32.467  1.00  0.00    +0.000 F 
ATOM     40  C31 UNL A   1      43.417  35.282  34.096  1.00  0.00    +0.000 C 
ATOM     41  F4  UNL A   1      43.262  36.275  34.981  1.00  0.00    +0.000 F 
ATOM     42  C32 UNL A   1      43.104  33.984  34.446  1.00  0.00    +0.000 C 
ATOM     43  F5  UNL A   1      42.644  33.713  35.676  1.00  0.00    +0.000 F 
ATOM     44  C33 UNL A   1      43.209  32.963  33.503  1.00  0.00    +0.000 C 
ATOM     45  F6  UNL A   1      42.887  31.723  33.904  1.00  0.00    +0.000 F 
ENDBRANCH   34   35
BRANCH   51   52
ATOM     52  C39 UNL A   1      43.728  27.481  32.370  1.00  0.00    +0.000 C 
ATOM     53  C40 UNL A   1      44.157  26.751  33.491  1.00  0.00    +0.000 C 
ATOM     54  F7  UNL A   1      45.379  26.226  33.526  1.00  0.00    +0.000 F 
ATOM     55  C41 UNL A   1      43.344  26.537  34.602  1.00  0.00    +0.000 C 
ATOM     56  F8  UNL A   1      43.799  25.813  35.636  1.00  0.00    +0.000 F 
ATOM     57  C42 UNL A   1      42.071  27.069  34.633  1.00  0.00    +0.000 C 
ATOM     58  F9  UNL A   1      41.285  26.869  35.699  1.00  0.00    +0.000 F 
ATOM     59  C43 UNL A   1      41.613  27.799  33.547  1.00  0.00    +0.000 C 
ATOM     60  F10 UNL A   1      40.376  28.314  33.572  1.00  0.00    +0.000 F 
ATOM     61  C44 UNL A   1      42.428  27.999  32.429  1.00  0.00    +0.000 C 
ATOM     62  F11 UNL A   1      41.943  28.708  31.398  1.00  0.00    +0.000 F 
ENDBRANCH   51   52
BRANCH   66   67
ATOM     67  C48 UNL A   1      42.714  23.792  27.572  1.00  0.00    +0.000 C 
ATOM     68  C49 UNL A   1      43.119  23.783  26.206  1.00  0.00    +0.000 C 
ATOM     69  F12 UNL A   1      43.511  24.900  25.581  1.00  0.00    +0.000 F 
ATOM     70  C50 UNL A   1      43.146  22.632  25.413  1.00  0.00    +0.000 C 
ATOM     71  F13 UNL A   1      43.452  22.729  24.111  1.00  0.00    +0.000 F 
ATOM     72  C51 UNL A   1      42.843  21.411  25.962  1.00  0.00    +0.000 C 
ATOM     73  F14 UNL A   1      42.841  20.307  25.205  1.00  0.00    +0.000 F 
ATOM     74  C52 UNL A   1      42.565  21.346  27.313  1.00  0.00    +0.000 C 
ATOM     75  F15 UNL A   1      42.331  20.153  27.879  1.00  0.00    +0.000 F 
ATOM     76  C53 UNL A   1      42.514  22.509  28.103  1.00  0.00    +0.000 C 
ATOM     77  F16 UNL A   1      42.302  22.318  29.406  1.00  0.00    +0.000 F 
ENDBRANCH   66   67
TORSDOF 17
ENDMDL
MODEL 10
REMARK VINA RESULT:     -10.4      3.766      7.372
ROOT
ATOM     30  C24 UNL A   1      40.825  27.316  28.856  1.00  0.00    +0.000 C 
ATOM     31  C25 UNL A   1      42.162  27.069  29.562  1.00  0.00    +0.000 C 
ATOM     32  N4  UNL A   1      42.664  27.622  30.626  1.00  0.00    +0.000 N 
ATOM     33  C26 UNL A   1      43.969  27.111  30.786  1.00  0.00    +0.000 C 
ATOM     34  C27 UNL A   1      44.911  27.671  31.599  1.00  0.00    +0.000 C 
ATOM     46  C34 UNL A   1      44.386  28.786  32.309  1.00  0.00    +0.000 C 
ATOM     47  C35 UNL A   1      43.590  28.917  33.415  1.00  0.00    +0.000 C 
ATOM     48  C36 UNL A   1      42.960  30.173  33.263  1.00  0.00    +0.000 C 
ATOM     49  C37 UNL A   1      43.422  30.772  32.089  1.00  0.00    +0.000 C 
ATOM     50  N5  UNL A   1      44.510  30.018  31.717  1.00  0.00    +0.000 N 
ATOM     51  C38 UNL A   1      42.944  31.764  31.149  1.00  0.00    +0.000 C 
ATOM     63  C45 UNL A   1      41.715  32.294  31.367  1.00  0.00    +0.000 C 
ATOM     64  N6  UNL A   1      40.844  32.459  30.312  1.00  0.00    +0.000 N 
ATOM     65  C46 UNL A   1      39.723  32.003  30.790  1.00  0.00    +0.000 C 
ATOM     66  C47 UNL A   1      38.555  31.612  29.977  1.00  0.00    +0.000 C 
ATOM     78  C54 UNL A   1      38.892  30.430  29.372  1.00  0.00    +0.000 C 
ATOM     79  C55 UNL A   1      38.111  29.653  28.431  1.00  0.00    +0.000 C 
ATOM     80  C56 UNL A   1      38.747  28.503  28.144  1.00  0.00    +0.000 C 
ATOM     81  C57 UNL A   1      40.011  28.408  28.889  1.00  0.00    +0.000 C 
ATOM     82  N7  UNL A   1      40.052  29.630  29.536  1.00  0.00    +0.000 N 
ATOM     83  C58 UNL A   1      39.676  31.802  32.244  1.00  0.00    +0.000 C 
ATOM     84  C59 UNL A   1      40.909  32.188  32.558  1.00  0.00    +0.000 C 
ATOM     85  C60 UNL A   1      44.109  26.043  29.842  1.00  0.00    +0.000 C 
ATOM     86  C61 UNL A   1      43.052  26.004  29.030  1.00  0.00    +0.000 C 
ATOM    114  H26 UNL A   1      43.475  28.245  34.191  1.00  0.00    +0.000 H 
ATOM    115  H27 UNL A   1      42.270  30.582  33.913  1.00  0.00    +0.000 H 
ATOM    116  H28 UNL A   1      45.245  30.309  31.131  1.00  0.00    +0.000 H 
ATOM    117  H29 UNL A   1      37.201  29.940  28.038  1.00  0.00    +0.000 H 
ATOM    118  H30 UNL A   1      38.396  27.785  27.490  1.00  0.00    +0.000 H 
ATOM    119  H31 UNL A   1      40.827  29.922  30.070  1.00  0.00    +0.000 H 
ATOM    120  H32 UNL A   1      38.910  31.461  32.846  1.00  0.00    +0.000 H 
ATOM    121  H33 UNL A   1      41.241  32.384  33.516  1.00  0.00    +0.000 H 
ATOM    122  H34 UNL A   1      44.912  25.397  29.798  1.00  0.00    +0.000 H 
ATOM    123  H35 UNL A   1      42.891  25.381  28.223  1.00  0.00    +0.000 H 
ENDROOT
BRANCH   30   29
ATOM    124  H36 UNL A   1      41.652  26.524  26.394  1.00  0.00    +0.000 H 
ATOM     29  C23 UNL A   1      40.373  26.161  28.042  1.00  0.00    +0.000 C 
ATOM    112  H24 UNL A   1      38.390  23.476  28.316  1.00  0.00    +0.000 H 
ATOM    113  H25 UNL A   1      38.939  25.538  29.468  1.00  0.00    +0.000 H 
ATOM     87  C62 UNL A   1      40.969  25.870  26.806  1.00  0.00    +0.000 C 
ATOM     88  C63 UNL A   1      40.637  24.692  26.137  1.00  0.00    +0.000 C 
ATOM     26  C20 UNL A   1      39.735  23.793  26.716  1.00  0.00    +0.000 C 
ATOM     27  C21 UNL A   1      39.096  24.117  27.920  1.00  0.00    +0.000 C 
ATOM     28  C22 UNL A   1      39.411  25.298  28.582  1.00  0.00    +0.000 C 
ATOM    125  H37 UNL A   1      41.056  24.484  25.217  1.00  0.00    +0.000 H 
BRANCH   26   24
ATOM     25  O2  UNL A   1      40.185  21.628  25.957  1.00  0.00    +0.000 O 
ATOM     24  C19 UNL A   1      39.357  22.519  26.065  1.00  0.00    +0.000 C 
BRANCH   24   23
ATOM    111  H23 UNL A   1      37.791  21.395  25.486  1.00  0.00    +0.000 H 
ATOM     23  N3  UNL A   1      38.095  22.329  25.551  1.00  0.00    +0.000 N 
BRANCH   23   22
ATOM    110  H22 UNL A   1      36.949  23.165  24.055  1.00  0.00    +0.000 H 
ATOM    109  H21 UNL A   1      37.588  24.308  25.231  1.00  0.00    +0.000 H 
ATOM     22  C18 UNL A   1      37.155  23.339  25.090  1.00  0.00    +0.000 C 
BRANCH   22   21
ATOM    107  H19 UNL A   1      36.071  23.175  26.908  1.00  0.00    +0.000 H 
ATOM    108  H20 UNL A   1      35.296  24.156  25.637  1.00  0.00    +0.000 H 
ATOM     21  C17 UNL A   1      35.840  23.264  25.867  1.00  0.00    +0.000 C 
BRANCH   21   20
ATOM    105  H17 UNL A   1      35.561  21.225  25.338  1.00  0.00    +0.000 H 
ATOM    106  H18 UNL A   1      34.227  21.979  26.263  1.00  0.00    +0.000 H 
ATOM     20  C16 UNL A   1      34.940  22.085  25.472  1.00  0.00    +0.000 C 
BRANCH   20   19
ATOM     19  C15 UNL A   1      34.126  22.289  24.190  1.00  0.00    +0.000 C 
ATOM    103  H15 UNL A   1      34.348  23.263  23.810  1.00  0.00    +0.000 H 
ATOM    104  H16 UNL A   1      34.411  21.496  23.531  1.00  0.00    +0.000 H 
BRANCH   19   18
ATOM     18  C14 UNL A   1      32.604  22.178  24.355  1.00  0.00    +0.000 C 
ATOM    101  H13 UNL A   1      32.371  21.164  24.605  1.00  0.00    +0.000 H 
ATOM    102  H14 UNL A   1      32.334  22.877  25.119  1.00  0.00    +0.000 H 
BRANCH   18   17
ATOM     17  C13 UNL A   1      31.791  22.560  23.118  1.00  0.00    +0.000 C 
ATOM     99  H11 UNL A   1      32.450  22.964  22.380  1.00  0.00    +0.000 H 
ATOM    100  H12 UNL A   1      31.304  21.681  22.750  1.00  0.00    +0.000 H 
BRANCH   17   16
ATOM     98  H10 UNL A   1      29.933  23.240  23.840  1.00  0.00    +0.000 H 
ATOM     16  N2  UNL A   1      30.779  23.542  23.437  1.00  0.00    +0.000 N 
BRANCH   16    2
ATOM      1  O1  UNL A   1      31.773  25.331  22.392  1.00  0.00    +0.000 O 
ATOM      2  C1  UNL A   1      30.957  24.890  23.195  1.00  0.00    +0.000 C 
BRANCH    2    3
ATOM     89  H1  UNL A   1      29.924  25.290  25.000  1.00  0.00    +0.000 H 
ATOM     90  H2  UNL A   1      29.172  25.948  23.532  1.00  0.00    +0.000 H 
ATOM      3  C2  UNL A   1      30.086  25.781  24.063  1.00  0.00    +0.000 C 
BRANCH    3    4
ATOM     97  H9  UNL A   1      32.167  26.692  25.835  1.00  0.00    +0.000 H 
ATOM      4  C3  UNL A   1      30.694  27.123  24.331  1.00  0.00    +0.000 C 
ATOM      5  C4  UNL A   1      30.353  28.370  23.745  1.00  0.00    +0.000 C 
ATOM      6  C5  UNL A   1      31.108  29.343  24.356  1.00  0.00    +0.000 C 
ATOM      7  N1  UNL A   1      31.927  28.756  25.301  1.00  0.00    +0.000 N 
ATOM     15  C12 UNL A   1      31.683  27.398  25.260  1.00  0.00    +0.000 C 
ATOM     91  H3  UNL A   1      29.660  28.520  22.994  1.00  0.00    +0.000 H 
ATOM     92  H4  UNL A   1      31.070  30.353  24.143  1.00  0.00    +0.000 H 
BRANCH    7    8
ATOM      8  C6  UNL A   1      32.814  29.438  26.175  1.00  0.00    +0.000 C 
ATOM      9  C7  UNL A   1      34.039  28.849  26.524  1.00  0.00    +0.000 C 
ATOM     10  C8  UNL A   1      34.930  29.525  27.364  1.00  0.00    +0.000 C 
ATOM     11  C9  UNL A   1      34.596  30.775  27.880  1.00  0.00    +0.000 C 
ATOM     12  C10 UNL A   1      33.376  31.359  27.545  1.00  0.00    +0.000 C 
ATOM     13  C11 UNL A   1      32.497  30.699  26.688  1.00  0.00    +0.000 C 
ATOM     14  F1  UNL A   1      31.320  31.290  26.435  1.00  0.00    +0.000 F 
ATOM     93  H5  UNL A   1      34.284  27.914  26.161  1.00  0.00    +0.000 H 
ATOM     94  H6  UNL A   1      35.837  29.095  27.604  1.00  0.00    +0.000 H 
ATOM     95  H7  UNL A   1      35.250  31.268  28.508  1.00  0.00    +0.000 H 
ATOM     96  H8  UNL A   1      33.123  32.282  27.932  1.00  0.00    +0.000 H 
ENDBRANCH    7    8
ENDBRANCH    3    4
ENDBRANCH    2    3
ENDBRANCH   16    2
ENDBRANCH   17   16
ENDBRANCH   18   17
ENDBRANCH   19   18
ENDBRANCH   20   19
ENDBRANCH   21   20
ENDBRANCH   22   21
ENDBRANCH   23   22
ENDBRANCH   24   23
ENDBRANCH   26   24
ENDBRANCH   30   29
BRANCH   34   35
ATOM     35  C28 UNL A   1      46.394  27.434  31.688  1.00  0.00    +0.000 C 
ATOM     36  C29 UNL A   1      46.982  26.569  32.623  1.00  0.00    +0.000 C 
ATOM     37  F2  UNL A   1      46.283  26.097  33.662  1.00  0.00    +0.000 F 
ATOM     38  C30 UNL A   1      48.285  26.088  32.452  1.00  0.00    +0.000 C 
ATOM     39  F3  UNL A   1      48.798  25.234  33.348  1.00  0.00    +0.000 F 
ATOM     40  C31 UNL A   1      49.025  26.429  31.332  1.00  0.00    +0.000 C 
ATOM     41  F4  UNL A   1      50.231  25.884  31.126  1.00  0.00    +0.000 F 
ATOM     42  C32 UNL A   1      48.493  27.309  30.411  1.00  0.00    +0.000 C 
ATOM     43  F5  UNL A   1      49.183  27.622  29.305  1.00  0.00    +0.000 F 
ATOM     44  C33 UNL A   1      47.213  27.827  30.601  1.00  0.00    +0.000 C 
ATOM     45  F6  UNL A   1      46.751  28.674  29.668  1.00  0.00    +0.000 F 
ENDBRANCH   34   35
BRANCH   51   52
ATOM     52  C39 UNL A   1      43.418  31.930  29.722  1.00  0.00    +0.000 C 
ATOM     53  C40 UNL A   1      43.334  30.910  28.760  1.00  0.00    +0.000 C 
ATOM     54  F7  UNL A   1      42.936  29.688  29.107  1.00  0.00    +0.000 F 
ATOM     55  C41 UNL A   1      43.657  31.114  27.421  1.00  0.00    +0.000 C 
ATOM     56  F8  UNL A   1      43.577  30.096  26.550  1.00  0.00    +0.000 F 
ATOM     57  C42 UNL A   1      44.061  32.363  26.995  1.00  0.00    +0.000 C 
ATOM     58  F9  UNL A   1      44.372  32.565  25.707  1.00  0.00    +0.000 F 
ATOM     59  C43 UNL A   1      44.154  33.397  27.913  1.00  0.00    +0.000 C 
ATOM     60  F10 UNL A   1      44.549  34.610  27.504  1.00  0.00    +0.000 F 
ATOM     61  C44 UNL A   1      43.841  33.184  29.259  1.00  0.00    +0.000 C 
ATOM     62  F11 UNL A   1      43.949  34.211  30.115  1.00  0.00    +0.000 F 
ENDBRANCH   51   52
BRANCH   66   67
ATOM     67  C48 UNL A   1      37.317  32.487  30.072  1.00  0.00    +0.000 C 
ATOM     68  C49 UNL A   1      36.337  32.238  31.076  1.00  0.00    +0.000 C 
ATOM     69  F12 UNL A   1      36.563  31.388  32.085  1.00  0.00    +0.000 F 
ATOM     70  C50 UNL A   1      35.079  32.847  31.100  1.00  0.00    +0.000 C 
ATOM     71  F13 UNL A   1      34.182  32.486  32.029  1.00  0.00    +0.000 F 
ATOM     72  C51 UNL A   1      34.758  33.799  30.163  1.00  0.00    +0.000 C 
ATOM     73  F14 UNL A   1      33.547  34.369  30.162  1.00  0.00    +0.000 F 
ATOM     74  C52 UNL A   1      35.718  34.168  29.242  1.00  0.00    +0.000 C 
ATOM     75  F15 UNL A   1      35.444  35.142  28.363  1.00  0.00    +0.000 F 
ATOM     76  C53 UNL A   1      36.974  33.535  29.206  1.00  0.00    +0.000 C 
ATOM     77  F16 UNL A   1      37.843  34.021  28.317  1.00  0.00    +0.000 F 
ENDBRANCH   66   67
TORSDOF 17
ENDMDL
