MODEL 1
REMARK VINA RESULT:      -9.3      0.000      0.000
ROOT
ATOM     19  C15 UNL A   1      29.252 -13.883  31.029  1.00  0.00    +0.000 C 
ATOM     20  C16 UNL A   1      28.954 -13.970  32.498  1.00  0.00    +0.000 C 
ATOM     21  N3  UNL A   1      27.893 -13.578  33.155  1.00  0.00    +0.000 N 
ATOM     22  C17 UNL A   1      28.099 -13.974  34.470  1.00  0.00    +0.000 C 
ATOM     23  C18 UNL A   1      27.306 -13.766  35.547  1.00  0.00    +0.000 C 
ATOM     35  C25 UNL A   1      26.067 -13.037  35.507  1.00  0.00    +0.000 C 
ATOM     36  C26 UNL A   1      25.225 -12.708  36.555  1.00  0.00    +0.000 C 
ATOM     37  C27 UNL A   1      24.123 -12.023  36.030  1.00  0.00    +0.000 C 
ATOM     38  C28 UNL A   1      24.301 -11.889  34.661  1.00  0.00    +0.000 C 
ATOM     39  N4  UNL A   1      25.494 -12.520  34.354  1.00  0.00    +0.000 N 
ATOM     40  C29 UNL A   1      23.444 -11.233  33.706  1.00  0.00    +0.000 C 
ATOM     52  C36 UNL A   1      23.681 -11.146  32.375  1.00  0.00    +0.000 C 
ATOM     53  N5  UNL A   1      24.764 -11.626  31.650  1.00  0.00    +0.000 N 
ATOM     54  C37 UNL A   1      24.543 -11.286  30.403  1.00  0.00    +0.000 C 
ATOM     55  C38 UNL A   1      25.399 -11.531  29.192  1.00  0.00    +0.000 C 
ATOM     67  C45 UNL A   1      26.607 -12.107  29.340  1.00  0.00    +0.000 C 
ATOM     68  C46 UNL A   1      27.533 -12.423  28.256  1.00  0.00    +0.000 C 
ATOM     69  C47 UNL A   1      28.582 -13.095  28.759  1.00  0.00    +0.000 C 
ATOM     70  C48 UNL A   1      28.419 -13.219  30.207  1.00  0.00    +0.000 C 
ATOM     71  N6  UNL A   1      27.246 -12.554  30.471  1.00  0.00    +0.000 N 
ATOM     72  C49 UNL A   1      23.273 -10.578  30.190  1.00  0.00    +0.000 C 
ATOM     73  C50 UNL A   1      22.800 -10.495  31.427  1.00  0.00    +0.000 C 
ATOM     74  C51 UNL A   1      29.369 -14.668  34.509  1.00  0.00    +0.000 C 
ATOM     75  C52 UNL A   1      29.972 -14.627  33.331  1.00  0.00    +0.000 C 
ATOM    112  H21 UNL A   1      25.382 -12.929  37.550  1.00  0.00    +0.000 H 
ATOM    113  H22 UNL A   1      23.315 -11.677  36.569  1.00  0.00    +0.000 H 
ATOM    114  H23 UNL A   1      25.880 -12.592  33.450  1.00  0.00    +0.000 H 
ATOM    115  H24 UNL A   1      27.404 -12.170  27.264  1.00  0.00    +0.000 H 
ATOM    116  H25 UNL A   1      29.375 -13.464  28.211  1.00  0.00    +0.000 H 
ATOM    117  H26 UNL A   1      26.898 -12.413  31.381  1.00  0.00    +0.000 H 
ATOM    118  H27 UNL A   1      22.858 -10.235  29.310  1.00  0.00    +0.000 H 
ATOM    119  H28 UNL A   1      21.917 -10.027  31.682  1.00  0.00    +0.000 H 
ATOM    120  H29 UNL A   1      29.754 -15.134  35.346  1.00  0.00    +0.000 H 
ATOM    121  H30 UNL A   1      30.910 -14.968  33.066  1.00  0.00    +0.000 H 
ENDROOT
BRANCH   19   18
ATOM     76  C53 UNL A   1      30.234 -16.001  30.185  1.00  0.00    +0.000 C 
ATOM     77  C54 UNL A   1      31.293 -16.750  29.687  1.00  0.00    +0.000 C 
ATOM    110  H19 UNL A   1      33.609 -14.323  29.517  1.00  0.00    +0.000 H 
ATOM     15  C11 UNL A   1      32.503 -16.119  29.386  1.00  0.00    +0.000 C 
ATOM     16  C12 UNL A   1      32.697 -14.771  29.698  1.00  0.00    +0.000 C 
ATOM     17  C13 UNL A   1      31.650 -14.034  30.257  1.00  0.00    +0.000 C 
ATOM    111  H20 UNL A   1      31.796 -13.044  30.509  1.00  0.00    +0.000 H 
ATOM     18  C14 UNL A   1      30.403 -14.637  30.475  1.00  0.00    +0.000 C 
ATOM    122  H31 UNL A   1      29.318 -16.450  30.345  1.00  0.00    +0.000 H 
ATOM    123  H32 UNL A   1      31.186 -17.766  29.539  1.00  0.00    +0.000 H 
BRANCH   15   13
ATOM     13  C10 UNL A   1      33.584 -16.867  28.711  1.00  0.00    +0.000 C 
ATOM     14  O2  UNL A   1      33.960 -17.943  29.165  1.00  0.00    +0.000 O 
BRANCH   13   12
ATOM     12  N2  UNL A   1      34.169 -16.334  27.590  1.00  0.00    +0.000 N 
ATOM    109  H18 UNL A   1      34.904 -15.697  27.750  1.00  0.00    +0.000 H 
BRANCH   12   11
ATOM     11  C9  UNL A   1      33.845 -16.585  26.194  1.00  0.00    +0.000 C 
ATOM    108  H17 UNL A   1      33.350 -17.532  26.140  1.00  0.00    +0.000 H 
ATOM    107  H16 UNL A   1      34.752 -16.585  25.625  1.00  0.00    +0.000 H 
BRANCH   11   10
ATOM    105  H14 UNL A   1      33.114 -14.600  26.096  1.00  0.00    +0.000 H 
ATOM     10  C8  UNL A   1      32.904 -15.534  25.617  1.00  0.00    +0.000 C 
ATOM    106  H15 UNL A   1      33.081 -15.515  24.562  1.00  0.00    +0.000 H 
BRANCH   10    9
ATOM      9  C7  UNL A   1      31.417 -15.841  25.802  1.00  0.00    +0.000 C 
ATOM    103  H12 UNL A   1      31.028 -16.176  24.863  1.00  0.00    +0.000 H 
ATOM    104  H13 UNL A   1      31.359 -16.580  26.574  1.00  0.00    +0.000 H 
BRANCH    9    8
ATOM    101  H10 UNL A   1      29.549 -14.991  26.339  1.00  0.00    +0.000 H 
ATOM    102  H11 UNL A   1      30.977 -14.358  27.215  1.00  0.00    +0.000 H 
ATOM      8  C6  UNL A   1      30.565 -14.661  26.276  1.00  0.00    +0.000 C 
BRANCH    8    7
ATOM     99  H8  UNL A   1      31.404 -13.535  24.676  1.00  0.00    +0.000 H 
ATOM    100  H9  UNL A   1      29.644 -13.349  24.907  1.00  0.00    +0.000 H 
ATOM      7  C5  UNL A   1      30.604 -13.416  25.376  1.00  0.00    +0.000 C 
BRANCH    7    6
ATOM     97  H6  UNL A   1      30.981 -11.312  25.419  1.00  0.00    +0.000 H 
ATOM     98  H7  UNL A   1      29.947 -11.889  26.715  1.00  0.00    +0.000 H 
ATOM      6  C4  UNL A   1      30.817 -12.097  26.127  1.00  0.00    +0.000 C 
BRANCH    6    5
ATOM      5  N1  UNL A   1      31.964 -12.191  27.008  1.00  0.00    +0.000 N 
ATOM     96  H5  UNL A   1      31.946 -12.932  27.655  1.00  0.00    +0.000 H 
BRANCH    5    3
ATOM      3  C3  UNL A   1      33.067 -11.386  27.059  1.00  0.00    +0.000 C 
ATOM      4  O1  UNL A   1      34.045 -11.826  27.669  1.00  0.00    +0.000 O 
BRANCH    3    2
ATOM      2  C2  UNL A   1      33.024  -9.974  26.433  1.00  0.00    +0.000 C 
ATOM     95  H4  UNL A   1      32.297  -9.954  25.649  1.00  0.00    +0.000 H 
BRANCH    2    1
ATOM      1  C1  UNL A   1      34.380  -9.646  25.798  1.00  0.00    +0.000 C 
ATOM     92  H1  UNL A   1      34.341  -8.671  25.358  1.00  0.00    +0.000 H 
ATOM     93  H2  UNL A   1      34.604 -10.369  25.042  1.00  0.00    +0.000 H 
ATOM     94  H3  UNL A   1      35.141  -9.668  26.549  1.00  0.00    +0.000 H 
ENDBRANCH    2    1
BRANCH    2   78
ATOM    132  H41 UNL A   1      30.494  -9.326  27.133  1.00  0.00    +0.000 H 
ATOM     78  C55 UNL A   1      32.547  -8.922  27.447  1.00  0.00    +0.000 C 
ATOM     79  C56 UNL A   1      33.425  -8.080  28.148  1.00  0.00    +0.000 C 
ATOM     80  C57 UNL A   1      32.950  -7.187  29.112  1.00  0.00    +0.000 C 
ATOM     81  C58 UNL A   1      31.590  -7.133  29.406  1.00  0.00    +0.000 C 
ATOM     82  C59 UNL A   1      30.688  -7.945  28.714  1.00  0.00    +0.000 C 
ATOM     91  C67 UNL A   1      31.167  -8.790  27.703  1.00  0.00    +0.000 C 
ATOM    124  H33 UNL A   1      34.436  -8.121  27.948  1.00  0.00    +0.000 H 
ATOM    125  H34 UNL A   1      33.609  -6.567  29.608  1.00  0.00    +0.000 H 
ATOM    126  H35 UNL A   1      31.247  -6.490  30.138  1.00  0.00    +0.000 H 
BRANCH   82   83
ATOM     83  C60 UNL A   1      29.243  -7.856  29.071  1.00  0.00    +0.000 C 
ATOM     84  O3  UNL A   1      28.476  -7.229  28.342  1.00  0.00    +0.000 O 
BRANCH   83   85
ATOM    129  H38 UNL A   1      27.072 -10.224  33.293  1.00  0.00    +0.000 H 
ATOM    130  H39 UNL A   1      29.313 -10.845  32.607  1.00  0.00    +0.000 H 
ATOM    131  H40 UNL A   1      30.348  -9.756  30.696  1.00  0.00    +0.000 H 
ATOM     85  C61 UNL A   1      28.678  -8.531  30.264  1.00  0.00    +0.000 C 
ATOM     86  C62 UNL A   1      27.399  -8.150  30.686  1.00  0.00    +0.000 C 
ATOM     87  C63 UNL A   1      26.814  -8.768  31.791  1.00  0.00    +0.000 C 
ATOM     88  C64 UNL A   1      27.510  -9.758  32.484  1.00  0.00    +0.000 C 
ATOM     89  C65 UNL A   1      28.798 -10.119  32.086  1.00  0.00    +0.000 C 
ATOM     90  C66 UNL A   1      29.390  -9.500  30.982  1.00  0.00    +0.000 C 
ATOM    127  H36 UNL A   1      26.888  -7.410  30.179  1.00  0.00    +0.000 H 
ATOM    128  H37 UNL A   1      25.866  -8.495  32.094  1.00  0.00    +0.000 H 
ENDBRANCH   83   85
ENDBRANCH   82   83
ENDBRANCH    2   78
ENDBRANCH    3    2
ENDBRANCH    5    3
ENDBRANCH    6    5
ENDBRANCH    7    6
ENDBRANCH    8    7
ENDBRANCH    9    8
ENDBRANCH   10    9
ENDBRANCH   11   10
ENDBRANCH   12   11
ENDBRANCH   13   12
ENDBRANCH   15   13
ENDBRANCH   19   18
BRANCH   23   24
ATOM     33  C24 UNL A   1      28.750 -13.711  37.610  1.00  0.00    +0.000 C 
ATOM     34  F5  UNL A   1      29.311 -12.577  37.169  1.00  0.00    +0.000 F 
ATOM     24  C19 UNL A   1      27.754 -14.350  36.854  1.00  0.00    +0.000 C 
ATOM     25  C20 UNL A   1      27.205 -15.537  37.361  1.00  0.00    +0.000 C 
ATOM     26  F1  UNL A   1      26.242 -16.178  36.684  1.00  0.00    +0.000 F 
ATOM     27  C21 UNL A   1      27.606 -16.042  38.596  1.00  0.00    +0.000 C 
ATOM     28  F2  UNL A   1      27.022 -17.142  39.089  1.00  0.00    +0.000 F 
ATOM     29  C22 UNL A   1      28.590 -15.392  39.327  1.00  0.00    +0.000 C 
ATOM     30  F3  UNL A   1      28.972 -15.877  40.517  1.00  0.00    +0.000 F 
ATOM     31  C23 UNL A   1      29.170 -14.235  38.830  1.00  0.00    +0.000 C 
ATOM     32  F4  UNL A   1      30.129 -13.613  39.530  1.00  0.00    +0.000 F 
ENDBRANCH   23   24
BRANCH   40   41
ATOM     41  C30 UNL A   1      22.205 -10.576  34.234  1.00  0.00    +0.000 C 
ATOM     42  C31 UNL A   1      20.951 -11.196  34.149  1.00  0.00    +0.000 C 
ATOM     43  F6  UNL A   1      20.819 -12.364  33.503  1.00  0.00    +0.000 F 
ATOM     44  C32 UNL A   1      19.824 -10.606  34.714  1.00  0.00    +0.000 C 
ATOM     45  F7  UNL A   1      18.630 -11.204  34.603  1.00  0.00    +0.000 F 
ATOM     46  C33 UNL A   1      19.934  -9.401  35.393  1.00  0.00    +0.000 C 
ATOM     47  F8  UNL A   1      18.851  -8.843  35.952  1.00  0.00    +0.000 F 
ATOM     48  C34 UNL A   1      21.166  -8.772  35.491  1.00  0.00    +0.000 C 
ATOM     49  F9  UNL A   1      21.277  -7.614  36.155  1.00  0.00    +0.000 F 
ATOM     50  C35 UNL A   1      22.291  -9.347  34.907  1.00  0.00    +0.000 C 
ATOM     51  F10 UNL A   1      23.470  -8.719  35.019  1.00  0.00    +0.000 F 
ENDBRANCH   40   41
BRANCH   55   56
ATOM     65  C44 UNL A   1      25.273  -9.869  27.306  1.00  0.00    +0.000 C 
ATOM     66  F15 UNL A   1      26.036  -9.018  28.008  1.00  0.00    +0.000 F 
ATOM     56  C39 UNL A   1      24.948 -11.125  27.837  1.00  0.00    +0.000 C 
ATOM     57  C40 UNL A   1      24.140 -11.972  27.067  1.00  0.00    +0.000 C 
ATOM     58  F11 UNL A   1      23.819 -13.189  27.530  1.00  0.00    +0.000 F 
ATOM     59  C41 UNL A   1      23.679 -11.581  25.813  1.00  0.00    +0.000 C 
ATOM     60  F12 UNL A   1      22.926 -12.420  25.087  1.00  0.00    +0.000 F 
ATOM     61  C42 UNL A   1      23.998 -10.327  25.313  1.00  0.00    +0.000 C 
ATOM     62  F13 UNL A   1      23.540  -9.946  24.113  1.00  0.00    +0.000 F 
ATOM     63  C43 UNL A   1      24.793  -9.470  26.060  1.00  0.00    +0.000 C 
ATOM     64  F14 UNL A   1      25.090  -8.252  25.588  1.00  0.00    +0.000 F 
ENDBRANCH   55   56
TORSDOF 19
ENDMDL
MODEL 2
REMARK VINA RESULT:      -8.8     65.514     70.772
ROOT
ATOM     19  C15 UNL A   1      13.901  53.359   5.780  1.00  0.00    +0.000 C 
ATOM     20  C16 UNL A   1      14.828  53.876   4.719  1.00  0.00    +0.000 C 
ATOM     21  N3  UNL A   1      15.277  53.279   3.645  1.00  0.00    +0.000 N 
ATOM     22  C17 UNL A   1      16.027  54.234   2.971  1.00  0.00    +0.000 C 
ATOM     23  C18 UNL A   1      16.731  54.097   1.823  1.00  0.00    +0.000 C 
ATOM     35  C25 UNL A   1      16.846  52.865   1.090  1.00  0.00    +0.000 C 
ATOM     36  C26 UNL A   1      17.593  52.602  -0.045  1.00  0.00    +0.000 C 
ATOM     37  C27 UNL A   1      17.365  51.272  -0.418  1.00  0.00    +0.000 C 
ATOM     38  C28 UNL A   1      16.509  50.697   0.508  1.00  0.00    +0.000 C 
ATOM     39  N4  UNL A   1      16.195  51.686   1.424  1.00  0.00    +0.000 N 
ATOM     40  C29 UNL A   1      16.016  49.344   0.553  1.00  0.00    +0.000 C 
ATOM     52  C36 UNL A   1      15.172  48.850   1.491  1.00  0.00    +0.000 C 
ATOM     53  N5  UNL A   1      14.624  49.493   2.594  1.00  0.00    +0.000 N 
ATOM     54  C37 UNL A   1      13.883  48.599   3.202  1.00  0.00    +0.000 C 
ATOM     55  C38 UNL A   1      13.075  48.741   4.462  1.00  0.00    +0.000 C 
ATOM     67  C45 UNL A   1      13.128  49.893   5.157  1.00  0.00    +0.000 C 
ATOM     68  C46 UNL A   1      12.385  50.179   6.380  1.00  0.00    +0.000 C 
ATOM     69  C47 UNL A   1      12.591  51.460   6.729  1.00  0.00    +0.000 C 
ATOM     70  C48 UNL A   1      13.515  52.070   5.773  1.00  0.00    +0.000 C 
ATOM     71  N6  UNL A   1      13.826  51.050   4.908  1.00  0.00    +0.000 N 
ATOM     72  C49 UNL A   1      13.851  47.291   2.532  1.00  0.00    +0.000 C 
ATOM     73  C50 UNL A   1      14.674  47.490   1.511  1.00  0.00    +0.000 C 
ATOM     74  C51 UNL A   1      15.942  55.459   3.739  1.00  0.00    +0.000 C 
ATOM     75  C52 UNL A   1      15.275  55.269   4.867  1.00  0.00    +0.000 C 
ATOM    112  H21 UNL A   1      18.212  53.269  -0.530  1.00  0.00    +0.000 H 
ATOM    113  H22 UNL A   1      17.766  50.800  -1.243  1.00  0.00    +0.000 H 
ATOM    114  H23 UNL A   1      15.597  51.571   2.199  1.00  0.00    +0.000 H 
ATOM    115  H24 UNL A   1      11.797  49.506   6.896  1.00  0.00    +0.000 H 
ATOM    116  H25 UNL A   1      12.167  51.936   7.540  1.00  0.00    +0.000 H 
ATOM    117  H26 UNL A   1      14.482  51.140   4.179  1.00  0.00    +0.000 H 
ATOM    118  H27 UNL A   1      13.327  46.440   2.790  1.00  0.00    +0.000 H 
ATOM    119  H28 UNL A   1      14.927  46.768   0.819  1.00  0.00    +0.000 H 
ATOM    120  H29 UNL A   1      16.349  56.361   3.445  1.00  0.00    +0.000 H 
ATOM    121  H30 UNL A   1      15.111  55.927   5.646  1.00  0.00    +0.000 H 
ENDROOT
BRANCH   19   18
ATOM     76  C53 UNL A   1      12.176  55.036   6.392  1.00  0.00    +0.000 C 
ATOM     77  C54 UNL A   1      11.611  55.951   7.273  1.00  0.00    +0.000 C 
ATOM    110  H19 UNL A   1      13.692  55.518   9.874  1.00  0.00    +0.000 H 
ATOM     15  C11 UNL A   1      12.130  56.078   8.564  1.00  0.00    +0.000 C 
ATOM     16  C12 UNL A   1      13.286  55.384   8.934  1.00  0.00    +0.000 C 
ATOM     17  C13 UNL A   1      13.889  54.510   8.027  1.00  0.00    +0.000 C 
ATOM    111  H20 UNL A   1      14.754  54.013   8.289  1.00  0.00    +0.000 H 
ATOM     18  C14 UNL A   1      13.319  54.307   6.761  1.00  0.00    +0.000 C 
ATOM    122  H31 UNL A   1      11.753  54.891   5.461  1.00  0.00    +0.000 H 
ATOM    123  H32 UNL A   1      10.813  56.534   6.974  1.00  0.00    +0.000 H 
BRANCH   15   13
ATOM     13  C10 UNL A   1      11.448  56.929   9.559  1.00  0.00    +0.000 C 
ATOM     14  O2  UNL A   1      10.887  57.960   9.202  1.00  0.00    +0.000 O 
BRANCH   13   12
ATOM     12  N2  UNL A   1      11.468  56.561  10.882  1.00  0.00    +0.000 N 
ATOM    109  H18 UNL A   1      12.313  56.729  11.361  1.00  0.00    +0.000 H 
BRANCH   12   11
ATOM     11  C9  UNL A   1      10.404  55.956  11.669  1.00  0.00    +0.000 C 
ATOM    108  H17 UNL A   1       9.805  55.366  11.007  1.00  0.00    +0.000 H 
ATOM    107  H16 UNL A   1       9.831  56.734  12.128  1.00  0.00    +0.000 H 
BRANCH   11   10
ATOM    105  H14 UNL A   1      10.969  55.583  13.676  1.00  0.00    +0.000 H 
ATOM     10  C8  UNL A   1      10.940  55.033  12.757  1.00  0.00    +0.000 C 
ATOM    106  H15 UNL A   1      10.281  54.191  12.792  1.00  0.00    +0.000 H 
BRANCH   10    9
ATOM      9  C7  UNL A   1      12.340  54.479  12.490  1.00  0.00    +0.000 C 
ATOM    103  H12 UNL A   1      12.390  54.186  11.462  1.00  0.00    +0.000 H 
ATOM    104  H13 UNL A   1      13.024  55.262  12.743  1.00  0.00    +0.000 H 
BRANCH    9    8
ATOM    101  H10 UNL A   1      12.981  53.631  14.326  1.00  0.00    +0.000 H 
ATOM    102  H11 UNL A   1      11.895  52.611  13.331  1.00  0.00    +0.000 H 
ATOM      8  C6  UNL A   1      12.735  53.273  13.348  1.00  0.00    +0.000 C 
BRANCH    8    7
ATOM     99  H8  UNL A   1      14.758  52.623  13.482  1.00  0.00    +0.000 H 
ATOM    100  H9  UNL A   1      13.611  51.434  12.805  1.00  0.00    +0.000 H 
ATOM      7  C5  UNL A   1      13.928  52.457  12.828  1.00  0.00    +0.000 C 
BRANCH    7    6
ATOM     97  H6  UNL A   1      13.665  52.395  10.707  1.00  0.00    +0.000 H 
ATOM     98  H7  UNL A   1      14.392  53.877  11.304  1.00  0.00    +0.000 H 
ATOM      6  C4  UNL A   1      14.364  52.812  11.401  1.00  0.00    +0.000 C 
BRANCH    6    5
ATOM      5  N1  UNL A   1      15.684  52.282  11.125  1.00  0.00    +0.000 N 
ATOM     96  H5  UNL A   1      16.392  52.951  10.984  1.00  0.00    +0.000 H 
BRANCH    5    3
ATOM      3  C3  UNL A   1      16.076  50.976  11.034  1.00  0.00    +0.000 C 
ATOM      4  O1  UNL A   1      16.604  50.486  12.036  1.00  0.00    +0.000 O 
BRANCH    3    2
ATOM      2  C2  UNL A   1      15.914  50.211   9.702  1.00  0.00    +0.000 C 
ATOM     95  H4  UNL A   1      16.786  49.616   9.524  1.00  0.00    +0.000 H 
BRANCH    2    1
ATOM      1  C1  UNL A   1      15.803  51.206   8.542  1.00  0.00    +0.000 C 
ATOM     92  H1  UNL A   1      14.906  51.779   8.648  1.00  0.00    +0.000 H 
ATOM     93  H2  UNL A   1      15.777  50.671   7.615  1.00  0.00    +0.000 H 
ATOM     94  H3  UNL A   1      16.649  51.861   8.552  1.00  0.00    +0.000 H 
ENDBRANCH    2    1
BRANCH    2   78
ATOM    132  H41 UNL A   1      13.321  50.662  10.322  1.00  0.00    +0.000 H 
ATOM     78  C55 UNL A   1      14.752  49.206   9.766  1.00  0.00    +0.000 C 
ATOM     79  C56 UNL A   1      14.915  47.830   9.539  1.00  0.00    +0.000 C 
ATOM     80  C57 UNL A   1      13.817  46.966   9.538  1.00  0.00    +0.000 C 
ATOM     81  C58 UNL A   1      12.533  47.464   9.746  1.00  0.00    +0.000 C 
ATOM     82  C59 UNL A   1      12.339  48.826   9.992  1.00  0.00    +0.000 C 
ATOM     91  C67 UNL A   1      13.454  49.674  10.056  1.00  0.00    +0.000 C 
ATOM    124  H33 UNL A   1      15.860  47.452   9.371  1.00  0.00    +0.000 H 
ATOM    125  H34 UNL A   1      13.958  45.956   9.382  1.00  0.00    +0.000 H 
ATOM    126  H35 UNL A   1      11.723  46.826   9.718  1.00  0.00    +0.000 H 
BRANCH   82   83
ATOM     83  C60 UNL A   1      10.946  49.312  10.200  1.00  0.00    +0.000 C 
ATOM     84  O3  UNL A   1      10.176  48.664  10.907  1.00  0.00    +0.000 O 
BRANCH   83   85
ATOM    129  H38 UNL A   1       9.312  53.924   8.148  1.00  0.00    +0.000 H 
ATOM    130  H39 UNL A   1       8.350  51.854   7.330  1.00  0.00    +0.000 H 
ATOM    131  H40 UNL A   1       9.054  49.727   8.271  1.00  0.00    +0.000 H 
ATOM     85  C61 UNL A   1      10.452  50.580   9.611  1.00  0.00    +0.000 C 
ATOM     86  C62 UNL A   1      10.977  51.780  10.106  1.00  0.00    +0.000 C 
ATOM     87  C63 UNL A   1      10.561  52.998   9.571  1.00  0.00    +0.000 C 
ATOM     88  C64 UNL A   1       9.609  53.023   8.552  1.00  0.00    +0.000 C 
ATOM     89  C65 UNL A   1       9.060  51.831   8.077  1.00  0.00    +0.000 C 
ATOM     90  C66 UNL A   1       9.471  50.607   8.611  1.00  0.00    +0.000 C 
ATOM    127  H36 UNL A   1      11.673  51.762  10.867  1.00  0.00    +0.000 H 
ATOM    128  H37 UNL A   1      10.957  53.882   9.929  1.00  0.00    +0.000 H 
ENDBRANCH   83   85
ENDBRANCH   82   83
ENDBRANCH    2   78
ENDBRANCH    3    2
ENDBRANCH    5    3
ENDBRANCH    6    5
ENDBRANCH    7    6
ENDBRANCH    8    7
ENDBRANCH    9    8
ENDBRANCH   10    9
ENDBRANCH   11   10
ENDBRANCH   12   11
ENDBRANCH   13   12
ENDBRANCH   15   13
ENDBRANCH   19   18
BRANCH   23   24
ATOM     33  C24 UNL A   1      18.722  55.635   1.701  1.00  0.00    +0.000 C 
ATOM     34  F5  UNL A   1      19.362  54.853   2.582  1.00  0.00    +0.000 F 
ATOM     24  C19 UNL A   1      17.418  55.318   1.287  1.00  0.00    +0.000 C 
ATOM     25  C20 UNL A   1      16.794  56.176   0.369  1.00  0.00    +0.000 C 
ATOM     26  F1  UNL A   1      15.555  55.909  -0.068  1.00  0.00    +0.000 F 
ATOM     27  C21 UNL A   1      17.464  57.282  -0.148  1.00  0.00    +0.000 C 
ATOM     28  F2  UNL A   1      16.871  58.050  -1.072  1.00  0.00    +0.000 F 
ATOM     29  C22 UNL A   1      18.753  57.575   0.275  1.00  0.00    +0.000 C 
ATOM     30  F3  UNL A   1      19.397  58.638  -0.226  1.00  0.00    +0.000 F 
ATOM     31  C23 UNL A   1      19.377  56.760   1.206  1.00  0.00    +0.000 C 
ATOM     32  F4  UNL A   1      20.617  57.049   1.623  1.00  0.00    +0.000 F 
ENDBRANCH   23   24
BRANCH   40   41
ATOM     41  C30 UNL A   1      16.494  48.403  -0.512  1.00  0.00    +0.000 C 
ATOM     42  C31 UNL A   1      15.703  48.090  -1.625  1.00  0.00    +0.000 C 
ATOM     43  F6  UNL A   1      14.450  48.559  -1.715  1.00  0.00    +0.000 F 
ATOM     44  C32 UNL A   1      16.194  47.277  -2.643  1.00  0.00    +0.000 C 
ATOM     45  F7  UNL A   1      15.415  46.970  -3.688  1.00  0.00    +0.000 F 
ATOM     46  C33 UNL A   1      17.489  46.784  -2.577  1.00  0.00    +0.000 C 
ATOM     47  F8  UNL A   1      17.967  46.015  -3.566  1.00  0.00    +0.000 F 
ATOM     48  C34 UNL A   1      18.290  47.084  -1.485  1.00  0.00    +0.000 C 
ATOM     49  F9  UNL A   1      19.545  46.617  -1.424  1.00  0.00    +0.000 F 
ATOM     50  C35 UNL A   1      17.794  47.877  -0.455  1.00  0.00    +0.000 C 
ATOM     51  F10 UNL A   1      18.590  48.154   0.589  1.00  0.00    +0.000 F 
ENDBRANCH   40   41
BRANCH   55   56
ATOM     65  C44 UNL A   1      10.925  47.433   4.517  1.00  0.00    +0.000 C 
ATOM     66  F15 UNL A   1      10.409  48.247   3.584  1.00  0.00    +0.000 F 
ATOM     56  C39 UNL A   1      12.239  47.623   4.968  1.00  0.00    +0.000 C 
ATOM     57  C40 UNL A   1      12.726  46.753   5.952  1.00  0.00    +0.000 C 
ATOM     58  F11 UNL A   1      13.983  46.888   6.399  1.00  0.00    +0.000 F 
ATOM     59  C41 UNL A   1      11.933  45.728   6.461  1.00  0.00    +0.000 C 
ATOM     60  F12 UNL A   1      12.431  44.894   7.385  1.00  0.00    +0.000 F 
ATOM     61  C42 UNL A   1      10.630  45.568   6.014  1.00  0.00    +0.000 C 
ATOM     62  F13 UNL A   1       9.862  44.592   6.517  1.00  0.00    +0.000 F 
ATOM     63  C43 UNL A   1      10.125  46.422   5.044  1.00  0.00    +0.000 C 
ATOM     64  F14 UNL A   1       8.861  46.279   4.621  1.00  0.00    +0.000 F 
ENDBRANCH   55   56
TORSDOF 19
ENDMDL
MODEL 3
REMARK VINA RESULT:      -8.6     46.452     51.627
ROOT
ATOM     19  C15 UNL A   1      25.220  38.556  48.212  1.00  0.00    +0.000 C 
ATOM     20  C16 UNL A   1      24.980  37.263  47.488  1.00  0.00    +0.000 C 
ATOM     21  N3  UNL A   1      25.801  36.557  46.754  1.00  0.00    +0.000 N 
ATOM     22  C17 UNL A   1      25.096  35.415  46.398  1.00  0.00    +0.000 C 
ATOM     23  C18 UNL A   1      25.496  34.390  45.609  1.00  0.00    +0.000 C 
ATOM     35  C25 UNL A   1      26.775  34.328  44.954  1.00  0.00    +0.000 C 
ATOM     36  C26 UNL A   1      27.250  33.369  44.076  1.00  0.00    +0.000 C 
ATOM     37  C27 UNL A   1      28.560  33.712  43.723  1.00  0.00    +0.000 C 
ATOM     38  C28 UNL A   1      28.885  34.906  44.349  1.00  0.00    +0.000 C 
ATOM     39  N4  UNL A   1      27.783  35.269  45.104  1.00  0.00    +0.000 N 
ATOM     40  C29 UNL A   1      30.110  35.659  44.262  1.00  0.00    +0.000 C 
ATOM     52  C36 UNL A   1      30.360  36.823  44.909  1.00  0.00    +0.000 C 
ATOM     53  N5  UNL A   1      29.528  37.545  45.755  1.00  0.00    +0.000 N 
ATOM     54  C37 UNL A   1      30.214  38.600  46.122  1.00  0.00    +0.000 C 
ATOM     55  C38 UNL A   1      29.795  39.734  47.016  1.00  0.00    +0.000 C 
ATOM     67  C45 UNL A   1      28.533  39.778  47.483  1.00  0.00    +0.000 C 
ATOM     68  C46 UNL A   1      27.995  40.803  48.373  1.00  0.00    +0.000 C 
ATOM     69  C47 UNL A   1      26.743  40.464  48.725  1.00  0.00    +0.000 C 
ATOM     70  C48 UNL A   1      26.379  39.219  48.049  1.00  0.00    +0.000 C 
ATOM     71  N6  UNL A   1      27.482  38.914  47.289  1.00  0.00    +0.000 N 
ATOM     72  C49 UNL A   1      31.577  38.650  45.575  1.00  0.00    +0.000 C 
ATOM     73  C50 UNL A   1      31.605  37.558  44.822  1.00  0.00    +0.000 C 
ATOM     74  C51 UNL A   1      23.795  35.506  47.026  1.00  0.00    +0.000 C 
ATOM     75  C52 UNL A   1      23.646  36.665  47.649  1.00  0.00    +0.000 C 
ATOM    112  H21 UNL A   1      26.729  32.545  43.739  1.00  0.00    +0.000 H 
ATOM    113  H22 UNL A   1      29.180  33.168  43.103  1.00  0.00    +0.000 H 
ATOM    114  H23 UNL A   1      27.723  36.077  45.665  1.00  0.00    +0.000 H 
ATOM    115  H24 UNL A   1      28.494  41.651  48.682  1.00  0.00    +0.000 H 
ATOM    116  H25 UNL A   1      26.136  40.997  49.367  1.00  0.00    +0.000 H 
ATOM    117  H26 UNL A   1      27.517  38.151  46.667  1.00  0.00    +0.000 H 
ATOM    118  H27 UNL A   1      32.317  39.351  45.734  1.00  0.00    +0.000 H 
ATOM    119  H28 UNL A   1      32.412  37.269  44.247  1.00  0.00    +0.000 H 
ATOM    120  H29 UNL A   1      23.077  34.764  46.991  1.00  0.00    +0.000 H 
ATOM    121  H30 UNL A   1      22.813  37.047  48.123  1.00  0.00    +0.000 H 
ENDROOT
BRANCH   19   18
ATOM     76  C53 UNL A   1      24.282  38.527  50.511  1.00  0.00    +0.000 C 
ATOM     77  C54 UNL A   1      23.352  38.929  51.462  1.00  0.00    +0.000 C 
ATOM    110  H19 UNL A   1      21.588  41.084  49.584  1.00  0.00    +0.000 H 
ATOM     15  C11 UNL A   1      22.410  39.908  51.137  1.00  0.00    +0.000 C 
ATOM     16  C12 UNL A   1      22.317  40.395  49.830  1.00  0.00    +0.000 C 
ATOM     17  C13 UNL A   1      23.214  39.945  48.858  1.00  0.00    +0.000 C 
ATOM    111  H20 UNL A   1      23.134  40.286  47.888  1.00  0.00    +0.000 H 
ATOM     18  C14 UNL A   1      24.221  39.031  49.201  1.00  0.00    +0.000 C 
ATOM    122  H31 UNL A   1      25.021  37.854  50.767  1.00  0.00    +0.000 H 
ATOM    123  H32 UNL A   1      23.357  38.506  52.404  1.00  0.00    +0.000 H 
BRANCH   15   13
ATOM     13  C10 UNL A   1      21.518  40.458  52.178  1.00  0.00    +0.000 C 
ATOM     14  O2  UNL A   1      21.964  40.718  53.292  1.00  0.00    +0.000 O 
BRANCH   13   12
ATOM     12  N2  UNL A   1      20.190  40.651  51.889  1.00  0.00    +0.000 N 
ATOM    109  H18 UNL A   1      19.891  41.589  51.853  1.00  0.00    +0.000 H 
BRANCH   12   11
ATOM     11  C9  UNL A   1      19.166  39.651  51.631  1.00  0.00    +0.000 C 
ATOM    108  H17 UNL A   1      19.036  39.583  50.571  1.00  0.00    +0.000 H 
ATOM    107  H16 UNL A   1      18.261  39.952  52.117  1.00  0.00    +0.000 H 
BRANCH   11   10
ATOM    105  H14 UNL A   1      20.600  38.294  52.398  1.00  0.00    +0.000 H 
ATOM     10  C8  UNL A   1      19.561  38.270  52.140  1.00  0.00    +0.000 C 
ATOM    106  H15 UNL A   1      18.926  38.062  52.976  1.00  0.00    +0.000 H 
BRANCH   10    9
ATOM      9  C7  UNL A   1      19.345  37.135  51.138  1.00  0.00    +0.000 C 
ATOM    103  H12 UNL A   1      19.731  36.234  51.568  1.00  0.00    +0.000 H 
ATOM    104  H13 UNL A   1      18.292  37.099  50.951  1.00  0.00    +0.000 H 
BRANCH    9    8
ATOM    101  H10 UNL A   1      19.634  38.242  49.352  1.00  0.00    +0.000 H 
ATOM    102  H11 UNL A   1      21.067  37.359  49.964  1.00  0.00    +0.000 H 
ATOM      8  C6  UNL A   1      20.015  37.337  49.775  1.00  0.00    +0.000 C 
BRANCH    8    7
ATOM     99  H8  UNL A   1      20.676  35.604  48.729  1.00  0.00    +0.000 H 
ATOM    100  H9  UNL A   1      18.928  35.667  49.087  1.00  0.00    +0.000 H 
ATOM      7  C5  UNL A   1      19.792  36.207  48.759  1.00  0.00    +0.000 C 
BRANCH    7    6
ATOM     97  H6  UNL A   1      18.473  36.461  47.094  1.00  0.00    +0.000 H 
ATOM     98  H7  UNL A   1      19.658  37.743  47.283  1.00  0.00    +0.000 H 
ATOM      6  C4  UNL A   1      19.492  36.687  47.334  1.00  0.00    +0.000 C 
BRANCH    6    5
ATOM      5  N1  UNL A   1      20.362  36.030  46.380  1.00  0.00    +0.000 N 
ATOM     96  H5  UNL A   1      21.291  36.355  46.356  1.00  0.00    +0.000 H 
BRANCH    5    3
ATOM      3  C3  UNL A   1      20.064  35.021  45.509  1.00  0.00    +0.000 C 
ATOM      4  O1  UNL A   1      20.408  35.184  44.335  1.00  0.00    +0.000 O 
BRANCH    3    2
ATOM      2  C2  UNL A   1      19.271  33.788  45.995  1.00  0.00    +0.000 C 
ATOM     95  H4  UNL A   1      18.397  34.111  46.521  1.00  0.00    +0.000 H 
BRANCH    2    1
ATOM      1  C1  UNL A   1      20.120  32.982  46.985  1.00  0.00    +0.000 C 
ATOM     92  H1  UNL A   1      21.057  33.476  47.135  1.00  0.00    +0.000 H 
ATOM     93  H2  UNL A   1      20.293  32.002  46.592  1.00  0.00    +0.000 H 
ATOM     94  H3  UNL A   1      19.603  32.906  47.918  1.00  0.00    +0.000 H 
ENDBRANCH    2    1
BRANCH    2   78
ATOM    132  H41 UNL A   1      19.338  31.106  45.655  1.00  0.00    +0.000 H 
ATOM     78  C55 UNL A   1      18.743  32.955  44.815  1.00  0.00    +0.000 C 
ATOM     79  C56 UNL A   1      18.162  33.527  43.673  1.00  0.00    +0.000 C 
ATOM     80  C57 UNL A   1      17.632  32.728  42.658  1.00  0.00    +0.000 C 
ATOM     81  C58 UNL A   1      17.656  31.340  42.775  1.00  0.00    +0.000 C 
ATOM     82  C59 UNL A   1      18.242  30.739  43.891  1.00  0.00    +0.000 C 
ATOM     91  C67 UNL A   1      18.830  31.549  44.874  1.00  0.00    +0.000 C 
ATOM    124  H33 UNL A   1      18.127  34.554  43.582  1.00  0.00    +0.000 H 
ATOM    125  H34 UNL A   1      17.220  33.166  41.820  1.00  0.00    +0.000 H 
ATOM    126  H35 UNL A   1      17.239  30.754  42.035  1.00  0.00    +0.000 H 
BRANCH   82   83
ATOM     83  C60 UNL A   1      18.235  29.251  43.975  1.00  0.00    +0.000 C 
ATOM     84  O3  UNL A   1      19.231  28.662  44.396  1.00  0.00    +0.000 O 
BRANCH   83   85
ATOM    129  H38 UNL A   1      14.008  26.274  42.781  1.00  0.00    +0.000 H 
ATOM    130  H39 UNL A   1      14.404  28.324  41.546  1.00  0.00    +0.000 H 
ATOM    131  H40 UNL A   1      16.348  29.693  42.048  1.00  0.00    +0.000 H 
ATOM     85  C61 UNL A   1      17.051  28.440  43.601  1.00  0.00    +0.000 C 
ATOM     86  C62 UNL A   1      16.839  27.238  44.286  1.00  0.00    +0.000 C 
ATOM     87  C63 UNL A   1      15.729  26.449  43.986  1.00  0.00    +0.000 C 
ATOM     88  C64 UNL A   1      14.837  26.851  42.993  1.00  0.00    +0.000 C 
ATOM     89  C65 UNL A   1      15.061  28.034  42.286  1.00  0.00    +0.000 C 
ATOM     90  C66 UNL A   1      16.174  28.827  42.581  1.00  0.00    +0.000 C 
ATOM    127  H36 UNL A   1      17.506  26.935  45.013  1.00  0.00    +0.000 H 
ATOM    128  H37 UNL A   1      15.567  25.568  44.499  1.00  0.00    +0.000 H 
ENDBRANCH   83   85
ENDBRANCH   82   83
ENDBRANCH    2   78
ENDBRANCH    3    2
ENDBRANCH    5    3
ENDBRANCH    6    5
ENDBRANCH    7    6
ENDBRANCH    8    7
ENDBRANCH    9    8
ENDBRANCH   10    9
ENDBRANCH   11   10
ENDBRANCH   12   11
ENDBRANCH   13   12
ENDBRANCH   15   13
ENDBRANCH   19   18
BRANCH   23   24
ATOM     33  C24 UNL A   1      23.495  33.342  44.494  1.00  0.00    +0.000 C 
ATOM     34  F5  UNL A   1      23.340  34.454  43.761  1.00  0.00    +0.000 F 
ATOM     24  C19 UNL A   1      24.540  33.248  45.427  1.00  0.00    +0.000 C 
ATOM     25  C20 UNL A   1      24.651  32.064  46.171  1.00  0.00    +0.000 C 
ATOM     26  F1  UNL A   1      25.640  31.919  47.065  1.00  0.00    +0.000 F 
ATOM     27  C21 UNL A   1      23.778  30.999  45.958  1.00  0.00    +0.000 C 
ATOM     28  F2  UNL A   1      23.943  29.855  46.636  1.00  0.00    +0.000 F 
ATOM     29  C22 UNL A   1      22.754  31.114  45.030  1.00  0.00    +0.000 C 
ATOM     30  F3  UNL A   1      21.917  30.088  44.824  1.00  0.00    +0.000 F 
ATOM     31  C23 UNL A   1      22.605  32.287  44.306  1.00  0.00    +0.000 C 
ATOM     32  F4  UNL A   1      21.609  32.404  43.417  1.00  0.00    +0.000 F 
ENDBRANCH   23   24
BRANCH   40   41
ATOM     41  C30 UNL A   1      31.184  35.121  43.364  1.00  0.00    +0.000 C 
ATOM     42  C31 UNL A   1      32.060  34.113  43.789  1.00  0.00    +0.000 C 
ATOM     43  F6  UNL A   1      32.013  33.668  45.053  1.00  0.00    +0.000 F 
ATOM     44  C32 UNL A   1      32.999  33.571  42.916  1.00  0.00    +0.000 C 
ATOM     45  F7  UNL A   1      33.843  32.623  43.347  1.00  0.00    +0.000 F 
ATOM     46  C33 UNL A   1      33.064  34.009  41.601  1.00  0.00    +0.000 C 
ATOM     47  F8  UNL A   1      33.957  33.474  40.758  1.00  0.00    +0.000 F 
ATOM     48  C34 UNL A   1      32.204  35.004  41.161  1.00  0.00    +0.000 C 
ATOM     49  F9  UNL A   1      32.258  35.422  39.888  1.00  0.00    +0.000 F 
ATOM     50  C35 UNL A   1      31.280  35.565  42.036  1.00  0.00    +0.000 C 
ATOM     51  F10 UNL A   1      30.459  36.524  41.583  1.00  0.00    +0.000 F 
ENDBRANCH   40   41
BRANCH   55   56
ATOM     65  C44 UNL A   1      31.535  40.746  48.527  1.00  0.00    +0.000 C 
ATOM     66  F15 UNL A   1      31.476  39.664  49.316  1.00  0.00    +0.000 F 
ATOM     56  C39 UNL A   1      30.742  40.820  47.374  1.00  0.00    +0.000 C 
ATOM     57  C40 UNL A   1      30.833  41.977  46.589  1.00  0.00    +0.000 C 
ATOM     58  F11 UNL A   1      30.105  42.082  45.468  1.00  0.00    +0.000 F 
ATOM     59  C41 UNL A   1      31.688  43.018  46.940  1.00  0.00    +0.000 C 
ATOM     60  F12 UNL A   1      31.775  44.104  46.160  1.00  0.00    +0.000 F 
ATOM     61  C42 UNL A   1      32.452  42.932  48.095  1.00  0.00    +0.000 C 
ATOM     62  F13 UNL A   1      33.262  43.942  48.441  1.00  0.00    +0.000 F 
ATOM     63  C43 UNL A   1      32.374  41.798  48.890  1.00  0.00    +0.000 C 
ATOM     64  F14 UNL A   1      33.098  41.718  50.014  1.00  0.00    +0.000 F 
ENDBRANCH   55   56
TORSDOF 19
ENDMDL
MODEL 4
REMARK VINA RESULT:      -8.5     48.465     53.441
ROOT
ATOM     19  C15 UNL A   1      25.870  36.092  45.650  1.00  0.00    +0.000 C 
ATOM     20  C16 UNL A   1      27.162  36.010  44.890  1.00  0.00    +0.000 C 
ATOM     21  N3  UNL A   1      28.251  36.722  45.023  1.00  0.00    +0.000 N 
ATOM     22  C17 UNL A   1      29.166  36.176  44.133  1.00  0.00    +0.000 C 
ATOM     23  C18 UNL A   1      30.430  36.584  43.868  1.00  0.00    +0.000 C 
ATOM     35  C25 UNL A   1      31.052  37.729  44.476  1.00  0.00    +0.000 C 
ATOM     36  C26 UNL A   1      32.301  38.269  44.223  1.00  0.00    +0.000 C 
ATOM     37  C27 UNL A   1      32.486  39.359  45.082  1.00  0.00    +0.000 C 
ATOM     38  C28 UNL A   1      31.336  39.522  45.839  1.00  0.00    +0.000 C 
ATOM     39  N4  UNL A   1      30.468  38.512  45.461  1.00  0.00    +0.000 N 
ATOM     40  C29 UNL A   1      31.053  40.525  46.834  1.00  0.00    +0.000 C 
ATOM     52  C36 UNL A   1      29.902  40.619  47.542  1.00  0.00    +0.000 C 
ATOM     53  N5  UNL A   1      28.766  39.823  47.469  1.00  0.00    +0.000 N 
ATOM     54  C37 UNL A   1      27.922  40.317  48.341  1.00  0.00    +0.000 C 
ATOM     55  C38 UNL A   1      26.527  39.862  48.667  1.00  0.00    +0.000 C 
ATOM     67  C45 UNL A   1      25.973  38.862  47.956  1.00  0.00    +0.000 C 
ATOM     68  C46 UNL A   1      24.641  38.305  48.173  1.00  0.00    +0.000 C 
ATOM     69  C47 UNL A   1      24.470  37.248  47.361  1.00  0.00    +0.000 C 
ATOM     70  C48 UNL A   1      25.667  37.083  46.537  1.00  0.00    +0.000 C 
ATOM     71  N6  UNL A   1      26.484  38.120  46.919  1.00  0.00    +0.000 N 
ATOM     72  C49 UNL A   1      28.441  41.468  49.094  1.00  0.00    +0.000 C 
ATOM     73  C50 UNL A   1      29.641  41.627  48.550  1.00  0.00    +0.000 C 
ATOM     74  C51 UNL A   1      28.516  35.052  43.492  1.00  0.00    +0.000 C 
ATOM     75  C52 UNL A   1      27.251  34.954  43.870  1.00  0.00    +0.000 C 
ATOM    112  H21 UNL A   1      32.977  37.929  43.523  1.00  0.00    +0.000 H 
ATOM    113  H22 UNL A   1      33.335  39.942  45.141  1.00  0.00    +0.000 H 
ATOM    114  H23 UNL A   1      29.568  38.370  45.836  1.00  0.00    +0.000 H 
ATOM    115  H24 UNL A   1      23.942  38.664  48.842  1.00  0.00    +0.000 H 
ATOM    116  H25 UNL A   1      23.630  36.651  47.323  1.00  0.00    +0.000 H 
ATOM    117  H26 UNL A   1      27.350  38.311  46.492  1.00  0.00    +0.000 H 
ATOM    118  H27 UNL A   1      27.991  42.010  49.848  1.00  0.00    +0.000 H 
ATOM    119  H28 UNL A   1      30.303  42.373  48.811  1.00  0.00    +0.000 H 
ATOM    120  H29 UNL A   1      28.979  34.412  42.827  1.00  0.00    +0.000 H 
ATOM    121  H30 UNL A   1      26.520  34.305  43.537  1.00  0.00    +0.000 H 
ENDROOT
BRANCH   19   18
ATOM     76  C53 UNL A   1      23.858  35.147  44.546  1.00  0.00    +0.000 C 
ATOM     77  C54 UNL A   1      22.889  34.161  44.394  1.00  0.00    +0.000 C 
ATOM    110  H19 UNL A   1      23.998  31.986  46.701  1.00  0.00    +0.000 H 
ATOM     15  C11 UNL A   1      22.981  32.983  45.139  1.00  0.00    +0.000 C 
ATOM     16  C12 UNL A   1      23.964  32.840  46.121  1.00  0.00    +0.000 C 
ATOM     17  C13 UNL A   1      24.901  33.858  46.315  1.00  0.00    +0.000 C 
ATOM    111  H20 UNL A   1      25.616  33.765  47.054  1.00  0.00    +0.000 H 
ATOM     18  C14 UNL A   1      24.872  35.004  45.506  1.00  0.00    +0.000 C 
ATOM    122  H31 UNL A   1      23.831  35.989  43.949  1.00  0.00    +0.000 H 
ATOM    123  H32 UNL A   1      22.106  34.300  43.735  1.00  0.00    +0.000 H 
BRANCH   15   13
ATOM     13  C10 UNL A   1      22.052  31.864  44.878  1.00  0.00    +0.000 C 
ATOM     14  O2  UNL A   1      22.273  31.086  43.956  1.00  0.00    +0.000 O 
BRANCH   13   12
ATOM     12  N2  UNL A   1      20.936  31.722  45.666  1.00  0.00    +0.000 N 
ATOM    109  H18 UNL A   1      21.033  31.125  46.444  1.00  0.00    +0.000 H 
BRANCH   12   11
ATOM     11  C9  UNL A   1      19.628  32.338  45.500  1.00  0.00    +0.000 C 
ATOM    108  H17 UNL A   1      18.916  31.737  46.026  1.00  0.00    +0.000 H 
ATOM    107  H16 UNL A   1      19.402  32.387  44.455  1.00  0.00    +0.000 H 
BRANCH   11   10
ATOM    105  H14 UNL A   1      20.114  34.398  45.430  1.00  0.00    +0.000 H 
ATOM     10  C8  UNL A   1      19.571  33.745  46.082  1.00  0.00    +0.000 C 
ATOM    106  H15 UNL A   1      18.534  33.998  46.161  1.00  0.00    +0.000 H 
BRANCH   10    9
ATOM      9  C7  UNL A   1      20.159  33.878  47.487  1.00  0.00    +0.000 C 
ATOM    103  H12 UNL A   1      19.388  34.237  48.137  1.00  0.00    +0.000 H 
ATOM    104  H13 UNL A   1      20.519  32.905  47.752  1.00  0.00    +0.000 H 
BRANCH    9    8
ATOM    101  H10 UNL A   1      22.040  34.588  46.812  1.00  0.00    +0.000 H 
ATOM    102  H11 UNL A   1      20.959  35.813  47.546  1.00  0.00    +0.000 H 
ATOM      8  C6  UNL A   1      21.358  34.823  47.602  1.00  0.00    +0.000 C 
BRANCH    8    7
ATOM     99  H8  UNL A   1      22.860  33.975  48.850  1.00  0.00    +0.000 H 
ATOM    100  H9  UNL A   1      22.559  35.719  49.085  1.00  0.00    +0.000 H 
ATOM      7  C5  UNL A   1      22.128  34.752  48.930  1.00  0.00    +0.000 C 
BRANCH    7    6
ATOM     97  H6  UNL A   1      20.223  34.510  49.870  1.00  0.00    +0.000 H 
ATOM     98  H7  UNL A   1      21.488  33.483  50.523  1.00  0.00    +0.000 H 
ATOM      6  C4  UNL A   1      21.253  34.461  50.155  1.00  0.00    +0.000 C 
BRANCH    6    5
ATOM      5  N1  UNL A   1      21.505  35.428  51.203  1.00  0.00    +0.000 N 
ATOM     96  H5  UNL A   1      21.576  35.062  52.114  1.00  0.00    +0.000 H 
BRANCH    5    3
ATOM      3  C3  UNL A   1      21.655  36.782  51.094  1.00  0.00    +0.000 C 
ATOM      4  O1  UNL A   1      22.798  37.225  51.234  1.00  0.00    +0.000 O 
BRANCH    3    2
ATOM      2  C2  UNL A   1      20.418  37.683  50.880  1.00  0.00    +0.000 C 
ATOM     95  H4  UNL A   1      20.686  38.704  51.057  1.00  0.00    +0.000 H 
BRANCH    2    1
ATOM      1  C1  UNL A   1      19.330  37.321  51.897  1.00  0.00    +0.000 C 
ATOM     92  H1  UNL A   1      19.523  37.826  52.820  1.00  0.00    +0.000 H 
ATOM     93  H2  UNL A   1      19.334  36.264  52.062  1.00  0.00    +0.000 H 
ATOM     94  H3  UNL A   1      18.375  37.620  51.520  1.00  0.00    +0.000 H 
ENDBRANCH    2    1
BRANCH    2   78
ATOM    132  H41 UNL A   1      18.191  36.533  49.866  1.00  0.00    +0.000 H 
ATOM     78  C55 UNL A   1      19.937  37.643  49.421  1.00  0.00    +0.000 C 
ATOM     79  C56 UNL A   1      20.667  38.198  48.358  1.00  0.00    +0.000 C 
ATOM     80  C57 UNL A   1      20.156  38.200  47.058  1.00  0.00    +0.000 C 
ATOM     81  C58 UNL A   1      18.896  37.664  46.799  1.00  0.00    +0.000 C 
ATOM     82  C59 UNL A   1      18.152  37.089  47.832  1.00  0.00    +0.000 C 
ATOM     91  C67 UNL A   1      18.701  37.033  49.121  1.00  0.00    +0.000 C 
ATOM    124  H33 UNL A   1      21.595  38.610  48.540  1.00  0.00    +0.000 H 
ATOM    125  H34 UNL A   1      20.712  38.601  46.287  1.00  0.00    +0.000 H 
ATOM    126  H35 UNL A   1      18.512  37.692  45.842  1.00  0.00    +0.000 H 
BRANCH   82   83
ATOM     83  C60 UNL A   1      16.806  36.537  47.508  1.00  0.00    +0.000 C 
ATOM     84  O3  UNL A   1      16.684  35.745  46.574  1.00  0.00    +0.000 O 
BRANCH   83   85
ATOM    129  H38 UNL A   1      12.552  37.899  50.372  1.00  0.00    +0.000 H 
ATOM    130  H39 UNL A   1      12.327  36.219  48.637  1.00  0.00    +0.000 H 
ATOM    131  H40 UNL A   1      14.263  35.550  47.329  1.00  0.00    +0.000 H 
ATOM     85  C61 UNL A   1      15.597  36.879  48.295  1.00  0.00    +0.000 C 
ATOM     86  C62 UNL A   1      15.730  37.821  49.322  1.00  0.00    +0.000 C 
ATOM     87  C63 UNL A   1      14.619  38.192  50.078  1.00  0.00    +0.000 C 
ATOM     88  C64 UNL A   1      13.376  37.614  49.821  1.00  0.00    +0.000 C 
ATOM     89  C65 UNL A   1      13.246  36.651  48.819  1.00  0.00    +0.000 C 
ATOM     90  C66 UNL A   1      14.356  36.273  48.060  1.00  0.00    +0.000 C 
ATOM    127  H36 UNL A   1      16.652  38.241  49.519  1.00  0.00    +0.000 H 
ATOM    128  H37 UNL A   1      14.716  38.895  50.827  1.00  0.00    +0.000 H 
ENDBRANCH   83   85
ENDBRANCH   82   83
ENDBRANCH    2   78
ENDBRANCH    3    2
ENDBRANCH    5    3
ENDBRANCH    6    5
ENDBRANCH    7    6
ENDBRANCH    8    7
ENDBRANCH    9    8
ENDBRANCH   10    9
ENDBRANCH   11   10
ENDBRANCH   12   11
ENDBRANCH   13   12
ENDBRANCH   15   13
ENDBRANCH   19   18
BRANCH   23   24
ATOM     33  C24 UNL A   1      31.876  34.603  43.295  1.00  0.00    +0.000 C 
ATOM     34  F5  UNL A   1      31.804  34.200  44.572  1.00  0.00    +0.000 F 
ATOM     24  C19 UNL A   1      31.221  35.775  42.883  1.00  0.00    +0.000 C 
ATOM     25  C20 UNL A   1      31.336  36.152  41.537  1.00  0.00    +0.000 C 
ATOM     26  F1  UNL A   1      30.719  37.255  41.091  1.00  0.00    +0.000 F 
ATOM     27  C21 UNL A   1      32.043  35.366  40.630  1.00  0.00    +0.000 C 
ATOM     28  F2  UNL A   1      32.085  35.714  39.337  1.00  0.00    +0.000 F 
ATOM     29  C22 UNL A   1      32.680  34.211  41.059  1.00  0.00    +0.000 C 
ATOM     30  F3  UNL A   1      33.357  33.454  40.185  1.00  0.00    +0.000 F 
ATOM     31  C23 UNL A   1      32.608  33.836  42.392  1.00  0.00    +0.000 C 
ATOM     32  F4  UNL A   1      33.233  32.727  42.810  1.00  0.00    +0.000 F 
ENDBRANCH   23   24
BRANCH   40   41
ATOM     41  C30 UNL A   1      32.108  41.559  47.085  1.00  0.00    +0.000 C 
ATOM     42  C31 UNL A   1      33.284  41.254  47.784  1.00  0.00    +0.000 C 
ATOM     43  F6  UNL A   1      33.450  40.039  48.327  1.00  0.00    +0.000 F 
ATOM     44  C32 UNL A   1      34.288  42.206  47.940  1.00  0.00    +0.000 C 
ATOM     45  F7  UNL A   1      35.396  41.902  48.630  1.00  0.00    +0.000 F 
ATOM     46  C33 UNL A   1      34.145  43.468  47.382  1.00  0.00    +0.000 C 
ATOM     47  F8  UNL A   1      35.120  44.377  47.518  1.00  0.00    +0.000 F 
ATOM     48  C34 UNL A   1      32.990  43.789  46.685  1.00  0.00    +0.000 C 
ATOM     49  F9  UNL A   1      32.854  45.005  46.137  1.00  0.00    +0.000 F 
ATOM     50  C35 UNL A   1      31.975  42.848  46.547  1.00  0.00    +0.000 C 
ATOM     51  F10 UNL A   1      30.869  43.185  45.866  1.00  0.00    +0.000 F 
ENDBRANCH   40   41
BRANCH   55   56
ATOM     65  C44 UNL A   1      24.948  41.643  49.488  1.00  0.00    +0.000 C 
ATOM     66  F15 UNL A   1      24.865  42.138  48.245  1.00  0.00    +0.000 F 
ATOM     56  C39 UNL A   1      25.738  40.513  49.744  1.00  0.00    +0.000 C 
ATOM     57  C40 UNL A   1      25.799  40.041  51.061  1.00  0.00    +0.000 C 
ATOM     58  F11 UNL A   1      26.528  38.953  51.348  1.00  0.00    +0.000 F 
ATOM     59  C41 UNL A   1      25.094  40.671  52.084  1.00  0.00    +0.000 C 
ATOM     60  F12 UNL A   1      25.151  40.186  53.332  1.00  0.00    +0.000 F 
ATOM     61  C42 UNL A   1      24.332  41.798  51.813  1.00  0.00    +0.000 C 
ATOM     62  F13 UNL A   1      23.668  42.414  52.800  1.00  0.00    +0.000 F 
ATOM     63  C43 UNL A   1      24.261  42.286  50.515  1.00  0.00    +0.000 C 
ATOM     64  F14 UNL A   1      23.539  43.383  50.252  1.00  0.00    +0.000 F 
ENDBRANCH   55   56
TORSDOF 19
ENDMDL
MODEL 5
REMARK VINA RESULT:      -8.5     32.337     37.281
ROOT
ATOM     19  C15 UNL A   1      46.288  10.888  48.150  1.00  0.00    +0.000 C 
ATOM     20  C16 UNL A   1      47.479  11.797  48.237  1.00  0.00    +0.000 C 
ATOM     21  N3  UNL A   1      48.516  11.735  49.033  1.00  0.00    +0.000 N 
ATOM     22  C17 UNL A   1      49.356  12.766  48.634  1.00  0.00    +0.000 C 
ATOM     23  C18 UNL A   1      50.540  13.143  49.171  1.00  0.00    +0.000 C 
ATOM     35  C25 UNL A   1      51.139  12.521  50.321  1.00  0.00    +0.000 C 
ATOM     36  C26 UNL A   1      52.299  12.874  50.988  1.00  0.00    +0.000 C 
ATOM     37  C27 UNL A   1      52.500  11.959  52.027  1.00  0.00    +0.000 C 
ATOM     38  C28 UNL A   1      51.443  11.062  52.034  1.00  0.00    +0.000 C 
ATOM     39  N4  UNL A   1      50.618  11.416  50.979  1.00  0.00    +0.000 N 
ATOM     40  C29 UNL A   1      51.203   9.965  52.936  1.00  0.00    +0.000 C 
ATOM     52  C36 UNL A   1      50.144   9.123  52.878  1.00  0.00    +0.000 C 
ATOM     53  N5  UNL A   1      49.075   9.127  51.991  1.00  0.00    +0.000 N 
ATOM     54  C37 UNL A   1      48.307   8.125  52.345  1.00  0.00    +0.000 C 
ATOM     55  C38 UNL A   1      47.004   7.677  51.745  1.00  0.00    +0.000 C 
ATOM     67  C45 UNL A   1      46.449   8.396  50.752  1.00  0.00    +0.000 C 
ATOM     68  C46 UNL A   1      45.203   8.071  50.064  1.00  0.00    +0.000 C 
ATOM     69  C47 UNL A   1      45.020   8.939  49.055  1.00  0.00    +0.000 C 
ATOM     70  C48 UNL A   1      46.116   9.907  49.055  1.00  0.00    +0.000 C 
ATOM     71  N6  UNL A   1      46.887   9.541  50.132  1.00  0.00    +0.000 N 
ATOM     72  C49 UNL A   1      48.821   7.349  53.482  1.00  0.00    +0.000 C 
ATOM     73  C50 UNL A   1      49.928   8.014  53.785  1.00  0.00    +0.000 C 
ATOM     74  C51 UNL A   1      48.725  13.414  47.504  1.00  0.00    +0.000 C 
ATOM     75  C52 UNL A   1      47.528  12.900  47.266  1.00  0.00    +0.000 C 
ATOM    112  H21 UNL A   1      52.910  13.673  50.759  1.00  0.00    +0.000 H 
ATOM    113  H22 UNL A   1      53.300  11.952  52.679  1.00  0.00    +0.000 H 
ATOM    114  H23 UNL A   1      49.785  10.952  50.731  1.00  0.00    +0.000 H 
ATOM    115  H24 UNL A   1      44.566   7.298  50.312  1.00  0.00    +0.000 H 
ATOM    116  H25 UNL A   1      44.232   8.926  48.389  1.00  0.00    +0.000 H 
ATOM    117  H26 UNL A   1      47.677  10.049  50.429  1.00  0.00    +0.000 H 
ATOM    118  H27 UNL A   1      48.424   6.507  53.928  1.00  0.00    +0.000 H 
ATOM    119  H28 UNL A   1      50.555   7.774  54.568  1.00  0.00    +0.000 H 
ATOM    120  H29 UNL A   1      49.153  14.177  46.955  1.00  0.00    +0.000 H 
ATOM    121  H30 UNL A   1      46.816  13.197  46.580  1.00  0.00    +0.000 H 
ENDROOT
BRANCH   19   18
ATOM     76  C53 UNL A   1      45.679  10.287  45.819  1.00  0.00    +0.000 C 
ATOM     77  C54 UNL A   1      44.858  10.383  44.702  1.00  0.00    +0.000 C 
ATOM    110  H19 UNL A   1      42.516  12.439  45.953  1.00  0.00    +0.000 H 
ATOM     15  C11 UNL A   1      43.673  11.119  44.776  1.00  0.00    +0.000 C 
ATOM     16  C12 UNL A   1      43.369  11.859  45.921  1.00  0.00    +0.000 C 
ATOM     17  C13 UNL A   1      44.227  11.811  47.023  1.00  0.00    +0.000 C 
ATOM    111  H20 UNL A   1      44.017  12.374  47.863  1.00  0.00    +0.000 H 
ATOM     18  C14 UNL A   1      45.371  11.000  46.990  1.00  0.00    +0.000 C 
ATOM    122  H31 UNL A   1      46.520   9.689  45.789  1.00  0.00    +0.000 H 
ATOM    123  H32 UNL A   1      45.123   9.912  43.822  1.00  0.00    +0.000 H 
BRANCH   15   13
ATOM     13  C10 UNL A   1      42.716  11.102  43.651  1.00  0.00    +0.000 C 
ATOM     14  O2  UNL A   1      42.858  10.296  42.737  1.00  0.00    +0.000 O 
BRANCH   13   12
ATOM     12  N2  UNL A   1      41.685  12.009  43.635  1.00  0.00    +0.000 N 
ATOM    109  H18 UNL A   1      40.975  11.864  44.301  1.00  0.00    +0.000 H 
BRANCH   12   11
ATOM     11  C9  UNL A   1      41.505  13.157  42.759  1.00  0.00    +0.000 C 
ATOM    108  H17 UNL A   1      40.858  13.848  43.256  1.00  0.00    +0.000 H 
ATOM    107  H16 UNL A   1      41.083  12.821  41.835  1.00  0.00    +0.000 H 
BRANCH   11   10
ATOM    105  H14 UNL A   1      43.579  13.445  43.084  1.00  0.00    +0.000 H 
ATOM     10  C8  UNL A   1      42.817  13.876  42.466  1.00  0.00    +0.000 C 
ATOM    106  H15 UNL A   1      43.004  13.751  41.420  1.00  0.00    +0.000 H 
BRANCH   10    9
ATOM      9  C7  UNL A   1      42.790  15.383  42.725  1.00  0.00    +0.000 C 
ATOM    103  H12 UNL A   1      41.784  15.724  42.592  1.00  0.00    +0.000 H 
ATOM    104  H13 UNL A   1      43.157  15.521  43.721  1.00  0.00    +0.000 H 
BRANCH    9    8
ATOM    101  H10 UNL A   1      44.676  15.777  41.839  1.00  0.00    +0.000 H 
ATOM    102  H11 UNL A   1      43.243  16.200  40.850  1.00  0.00    +0.000 H 
ATOM      8  C6  UNL A   1      43.700  16.214  41.817  1.00  0.00    +0.000 C 
BRANCH    8    7
ATOM     99  H8  UNL A   1      42.886  18.167  42.050  1.00  0.00    +0.000 H 
ATOM    100  H9  UNL A   1      44.160  17.720  43.218  1.00  0.00    +0.000 H 
ATOM      7  C5  UNL A   1      43.835  17.696  42.198  1.00  0.00    +0.000 C 
BRANCH    7    6
ATOM     97  H6  UNL A   1      44.454  18.764  40.452  1.00  0.00    +0.000 H 
ATOM     98  H7  UNL A   1      45.188  19.327  41.945  1.00  0.00    +0.000 H 
ATOM      6  C4  UNL A   1      44.883  18.466  41.386  1.00  0.00    +0.000 C 
BRANCH    6    5
ATOM      5  N1  UNL A   1      46.044  17.637  41.135  1.00  0.00    +0.000 N 
ATOM     96  H5  UNL A   1      45.944  16.967  40.421  1.00  0.00    +0.000 H 
BRANCH    5    3
ATOM      3  C3  UNL A   1      47.259  17.661  41.760  1.00  0.00    +0.000 C 
ATOM      4  O1  UNL A   1      48.246  17.423  41.059  1.00  0.00    +0.000 O 
BRANCH    3    2
ATOM      2  C2  UNL A   1      47.342  17.905  43.283  1.00  0.00    +0.000 C 
ATOM     95  H4  UNL A   1      46.788  18.786  43.533  1.00  0.00    +0.000 H 
BRANCH    2    1
ATOM      1  C1  UNL A   1      48.798  18.158  43.690  1.00  0.00    +0.000 C 
ATOM     92  H1  UNL A   1      48.901  18.020  44.746  1.00  0.00    +0.000 H 
ATOM     93  H2  UNL A   1      49.071  19.160  43.433  1.00  0.00    +0.000 H 
ATOM     94  H3  UNL A   1      49.437  17.471  43.177  1.00  0.00    +0.000 H 
ENDBRANCH    2    1
BRANCH    2   78
ATOM    132  H41 UNL A   1      46.017  18.042  45.636  1.00  0.00    +0.000 H 
ATOM     78  C55 UNL A   1      46.668  16.772  44.074  1.00  0.00    +0.000 C 
ATOM     79  C56 UNL A   1      46.699  15.429  43.666  1.00  0.00    +0.000 C 
ATOM     80  C57 UNL A   1      46.013  14.444  44.380  1.00  0.00    +0.000 C 
ATOM     81  C58 UNL A   1      45.266  14.786  45.505  1.00  0.00    +0.000 C 
ATOM     82  C59 UNL A   1      45.229  16.111  45.947  1.00  0.00    +0.000 C 
ATOM     91  C67 UNL A   1      45.974  17.081  45.262  1.00  0.00    +0.000 C 
ATOM    124  H33 UNL A   1      47.238  15.166  42.826  1.00  0.00    +0.000 H 
ATOM    125  H34 UNL A   1      46.057  13.461  44.072  1.00  0.00    +0.000 H 
ATOM    126  H35 UNL A   1      44.739  14.059  46.013  1.00  0.00    +0.000 H 
BRANCH   82   83
ATOM     83  C60 UNL A   1      44.409  16.430  47.150  1.00  0.00    +0.000 C 
ATOM     84  O3  UNL A   1      43.951  17.563  47.290  1.00  0.00    +0.000 O 
BRANCH   83   85
ATOM    129  H38 UNL A   1      43.125  12.763  50.765  1.00  0.00    +0.000 H 
ATOM    130  H39 UNL A   1      45.419  13.539  50.623  1.00  0.00    +0.000 H 
ATOM    131  H40 UNL A   1      46.033  15.240  49.000  1.00  0.00    +0.000 H 
ATOM     85  C61 UNL A   1      44.089  15.415  48.183  1.00  0.00    +0.000 C 
ATOM     86  C62 UNL A   1      42.759  14.991  48.293  1.00  0.00    +0.000 C 
ATOM     87  C63 UNL A   1      42.409  14.024  49.235  1.00  0.00    +0.000 C 
ATOM     88  C64 UNL A   1      43.382  13.488  50.077  1.00  0.00    +0.000 C 
ATOM     89  C65 UNL A   1      44.703  13.931  49.992  1.00  0.00    +0.000 C 
ATOM     90  C66 UNL A   1      45.059  14.902  49.053  1.00  0.00    +0.000 C 
ATOM    127  H36 UNL A   1      42.037  15.396  47.677  1.00  0.00    +0.000 H 
ATOM    128  H37 UNL A   1      41.430  13.704  49.307  1.00  0.00    +0.000 H 
ENDBRANCH   83   85
ENDBRANCH   82   83
ENDBRANCH    2   78
ENDBRANCH    3    2
ENDBRANCH    5    3
ENDBRANCH    6    5
ENDBRANCH    7    6
ENDBRANCH    8    7
ENDBRANCH    9    8
ENDBRANCH   10    9
ENDBRANCH   11   10
ENDBRANCH   12   11
ENDBRANCH   13   12
ENDBRANCH   15   13
ENDBRANCH   19   18
BRANCH   23   24
ATOM     33  C24 UNL A   1      52.254  14.011  47.541  1.00  0.00    +0.000 C 
ATOM     34  F5  UNL A   1      52.557  12.748  47.209  1.00  0.00    +0.000 F 
ATOM     24  C19 UNL A   1      51.268  14.273  48.505  1.00  0.00    +0.000 C 
ATOM     25  C20 UNL A   1      50.996  15.614  48.817  1.00  0.00    +0.000 C 
ATOM     26  F1  UNL A   1      50.054  15.918  49.721  1.00  0.00    +0.000 F 
ATOM     27  C21 UNL A   1      51.654  16.651  48.160  1.00  0.00    +0.000 C 
ATOM     28  F2  UNL A   1      51.332  17.923  48.430  1.00  0.00    +0.000 F 
ATOM     29  C22 UNL A   1      52.623  16.367  47.209  1.00  0.00    +0.000 C 
ATOM     30  F3  UNL A   1      53.254  17.365  46.575  1.00  0.00    +0.000 F 
ATOM     31  C23 UNL A   1      52.932  15.050  46.908  1.00  0.00    +0.000 C 
ATOM     32  F4  UNL A   1      53.877  14.775  45.998  1.00  0.00    +0.000 F 
ENDBRANCH   23   24
BRANCH   40   41
ATOM     41  C30 UNL A   1      52.195   9.757  54.041  1.00  0.00    +0.000 C 
ATOM     42  C31 UNL A   1      51.964  10.240  55.336  1.00  0.00    +0.000 C 
ATOM     43  F6  UNL A   1      50.881  10.988  55.593  1.00  0.00    +0.000 F 
ATOM     44  C32 UNL A   1      52.859   9.969  56.368  1.00  0.00    +0.000 C 
ATOM     45  F7  UNL A   1      52.633  10.460  57.594  1.00  0.00    +0.000 F 
ATOM     46  C33 UNL A   1      53.984   9.193  56.129  1.00  0.00    +0.000 C 
ATOM     47  F8  UNL A   1      54.835   8.919  57.127  1.00  0.00    +0.000 F 
ATOM     48  C34 UNL A   1      54.229   8.703  54.855  1.00  0.00    +0.000 C 
ATOM     49  F9  UNL A   1      55.309   7.944  54.625  1.00  0.00    +0.000 F 
ATOM     50  C35 UNL A   1      53.349   8.991  53.816  1.00  0.00    +0.000 C 
ATOM     51  F10 UNL A   1      53.609   8.502  52.594  1.00  0.00    +0.000 F 
ENDBRANCH   40   41
BRANCH   55   56
ATOM     65  C44 UNL A   1      46.684   5.181  51.838  1.00  0.00    +0.000 C 
ATOM     66  F15 UNL A   1      47.722   5.020  51.005  1.00  0.00    +0.000 F 
ATOM     56  C39 UNL A   1      46.303   6.467  52.247  1.00  0.00    +0.000 C 
ATOM     57  C40 UNL A   1      45.205   6.582  53.109  1.00  0.00    +0.000 C 
ATOM     58  F11 UNL A   1      44.817   7.792  53.539  1.00  0.00    +0.000 F 
ATOM     59  C41 UNL A   1      44.517   5.455  53.551  1.00  0.00    +0.000 C 
ATOM     60  F12 UNL A   1      43.485   5.591  54.394  1.00  0.00    +0.000 F 
ATOM     61  C42 UNL A   1      44.900   4.193  53.121  1.00  0.00    +0.000 C 
ATOM     62  F13 UNL A   1      44.227   3.110  53.533  1.00  0.00    +0.000 F 
ATOM     63  C43 UNL A   1      45.981   4.056  52.263  1.00  0.00    +0.000 C 
ATOM     64  F14 UNL A   1      46.344   2.840  51.833  1.00  0.00    +0.000 F 
ENDBRANCH   55   56
TORSDOF 19
ENDMDL
MODEL 6
REMARK VINA RESULT:      -8.5     45.043     50.871
ROOT
ATOM     19  C15 UNL A   1      11.320  27.359   1.914  1.00  0.00    +0.000 C 
ATOM     20  C16 UNL A   1      12.106  26.343   1.138  1.00  0.00    +0.000 C 
ATOM     21  N3  UNL A   1      12.327  25.081   1.407  1.00  0.00    +0.000 N 
ATOM     22  C17 UNL A   1      13.038  24.586   0.321  1.00  0.00    +0.000 C 
ATOM     23  C18 UNL A   1      13.535  23.341   0.137  1.00  0.00    +0.000 C 
ATOM     35  C25 UNL A   1      13.429  22.279   1.101  1.00  0.00    +0.000 C 
ATOM     36  C26 UNL A   1      13.962  21.003   1.043  1.00  0.00    +0.000 C 
ATOM     37  C27 UNL A   1      13.567  20.314   2.195  1.00  0.00    +0.000 C 
ATOM     38  C28 UNL A   1      12.824  21.173   2.989  1.00  0.00    +0.000 C 
ATOM     39  N4  UNL A   1      12.743  22.374   2.303  1.00  0.00    +0.000 N 
ATOM     40  C29 UNL A   1      12.232  20.918   4.277  1.00  0.00    +0.000 C 
ATOM     52  C36 UNL A   1      11.511  21.810   4.997  1.00  0.00    +0.000 C 
ATOM     53  N5  UNL A   1      11.200  23.128   4.690  1.00  0.00    +0.000 N 
ATOM     54  C37 UNL A   1      10.494  23.578   5.699  1.00  0.00    +0.000 C 
ATOM     55  C38 UNL A   1       9.911  24.948   5.908  1.00  0.00    +0.000 C 
ATOM     67  C45 UNL A   1      10.171  25.921   5.014  1.00  0.00    +0.000 C 
ATOM     68  C46 UNL A   1       9.658  27.287   5.077  1.00  0.00    +0.000 C 
ATOM     69  C47 UNL A   1      10.023  27.943   3.963  1.00  0.00    +0.000 C 
ATOM     70  C48 UNL A   1      10.831  27.054   3.130  1.00  0.00    +0.000 C 
ATOM     71  N6  UNL A   1      10.914  25.893   3.859  1.00  0.00    +0.000 N 
ATOM     72  C49 UNL A   1      10.246  22.580   6.749  1.00  0.00    +0.000 C 
ATOM     73  C50 UNL A   1      10.910  21.529   6.285  1.00  0.00    +0.000 C 
ATOM     74  C51 UNL A   1      13.179  25.674  -0.625  1.00  0.00    +0.000 C 
ATOM     75  C52 UNL A   1      12.686  26.800  -0.134  1.00  0.00    +0.000 C 
ATOM    112  H21 UNL A   1      14.549  20.627   0.283  1.00  0.00    +0.000 H 
ATOM    113  H22 UNL A   1      13.790  19.331   2.415  1.00  0.00    +0.000 H 
ATOM    114  H23 UNL A   1      12.268  23.176   2.622  1.00  0.00    +0.000 H 
ATOM    115  H24 UNL A   1       9.105  27.685   5.852  1.00  0.00    +0.000 H 
ATOM    116  H25 UNL A   1       9.775  28.918   3.734  1.00  0.00    +0.000 H 
ATOM    117  H26 UNL A   1      11.451  25.116   3.581  1.00  0.00    +0.000 H 
ATOM    118  H27 UNL A   1       9.701  22.673   7.620  1.00  0.00    +0.000 H 
ATOM    119  H28 UNL A   1      10.989  20.627   6.779  1.00  0.00    +0.000 H 
ATOM    120  H29 UNL A   1      13.608  25.582  -1.560  1.00  0.00    +0.000 H 
ATOM    121  H30 UNL A   1      12.703  27.750  -0.538  1.00  0.00    +0.000 H 
ENDROOT
BRANCH   19   18
ATOM     76  C53 UNL A   1      11.779  29.775   1.572  1.00  0.00    +0.000 C 
ATOM     77  C54 UNL A   1      11.484  31.014   1.016  1.00  0.00    +0.000 C 
ATOM    110  H19 UNL A   1       8.826  30.129  -0.838  1.00  0.00    +0.000 H 
ATOM     15  C11 UNL A   1      10.444  31.125   0.089  1.00  0.00    +0.000 C 
ATOM     16  C12 UNL A   1       9.622  30.029  -0.188  1.00  0.00    +0.000 C 
ATOM     17  C13 UNL A   1       9.883  28.798   0.419  1.00  0.00    +0.000 C 
ATOM    111  H20 UNL A   1       9.265  27.992   0.233  1.00  0.00    +0.000 H 
ATOM     18  C14 UNL A   1      10.982  28.656   1.278  1.00  0.00    +0.000 C 
ATOM    122  H31 UNL A   1      12.589  29.676   2.205  1.00  0.00    +0.000 H 
ATOM    123  H32 UNL A   1      12.030  31.848   1.286  1.00  0.00    +0.000 H 
BRANCH   15   13
ATOM     13  C10 UNL A   1      10.218  32.397  -0.627  1.00  0.00    +0.000 C 
ATOM     14  O2  UNL A   1       9.116  32.935  -0.587  1.00  0.00    +0.000 O 
BRANCH   13   12
ATOM     12  N2  UNL A   1      11.246  32.953  -1.347  1.00  0.00    +0.000 N 
ATOM    109  H18 UNL A   1      11.599  33.806  -1.003  1.00  0.00    +0.000 H 
BRANCH   12   11
ATOM     11  C9  UNL A   1      11.881  32.446  -2.554  1.00  0.00    +0.000 C 
ATOM    108  H17 UNL A   1      11.568  33.063  -3.371  1.00  0.00    +0.000 H 
ATOM    107  H16 UNL A   1      11.584  31.428  -2.697  1.00  0.00    +0.000 H 
BRANCH   11   10
ATOM    105  H14 UNL A   1      13.741  33.237  -3.186  1.00  0.00    +0.000 H 
ATOM     10  C8  UNL A   1      13.402  32.508  -2.480  1.00  0.00    +0.000 C 
ATOM    106  H15 UNL A   1      13.645  32.757  -1.468  1.00  0.00    +0.000 H 
BRANCH   10    9
ATOM      9  C7  UNL A   1      14.109  31.186  -2.783  1.00  0.00    +0.000 C 
ATOM    103  H12 UNL A   1      13.800  30.860  -3.755  1.00  0.00    +0.000 H 
ATOM    104  H13 UNL A   1      15.158  31.387  -2.716  1.00  0.00    +0.000 H 
BRANCH    9    8
ATOM    101  H10 UNL A   1      13.479  30.497  -0.879  1.00  0.00    +0.000 H 
ATOM    102  H11 UNL A   1      13.107  29.422  -2.262  1.00  0.00    +0.000 H 
ATOM      8  C6  UNL A   1      13.826  30.056  -1.790  1.00  0.00    +0.000 C 
BRANCH    8    7
ATOM     99  H8  UNL A   1      15.455  29.502  -0.536  1.00  0.00    +0.000 H 
ATOM    100  H9  UNL A   1      14.651  28.157  -1.392  1.00  0.00    +0.000 H 
ATOM      7  C5  UNL A   1      15.026  29.158  -1.454  1.00  0.00    +0.000 C 
BRANCH    7    6
ATOM     97  H6  UNL A   1      15.676  29.171  -3.491  1.00  0.00    +0.000 H 
ATOM     98  H7  UNL A   1      16.751  30.006  -2.383  1.00  0.00    +0.000 H 
ATOM      6  C4  UNL A   1      16.127  29.147  -2.521  1.00  0.00    +0.000 C 
BRANCH    6    5
ATOM      5  N1  UNL A   1      16.940  27.954  -2.403  1.00  0.00    +0.000 N 
ATOM     96  H5  UNL A   1      16.463  27.100  -2.506  1.00  0.00    +0.000 H 
BRANCH    5    3
ATOM      3  C3  UNL A   1      18.283  27.858  -2.165  1.00  0.00    +0.000 C 
ATOM      4  O1  UNL A   1      18.639  27.010  -1.342  1.00  0.00    +0.000 O 
BRANCH    3    2
ATOM      2  C2  UNL A   1      19.263  28.831  -2.857  1.00  0.00    +0.000 C 
ATOM     95  H4  UNL A   1      18.824  29.195  -3.763  1.00  0.00    +0.000 H 
BRANCH    2    1
ATOM      1  C1  UNL A   1      20.545  28.086  -3.247  1.00  0.00    +0.000 C 
ATOM     92  H1  UNL A   1      20.905  27.532  -2.405  1.00  0.00    +0.000 H 
ATOM     93  H2  UNL A   1      21.289  28.793  -3.552  1.00  0.00    +0.000 H 
ATOM     94  H3  UNL A   1      20.337  27.415  -4.053  1.00  0.00    +0.000 H 
ENDBRANCH    2    1
BRANCH    2   78
ATOM    132  H41 UNL A   1      18.003  29.614  -0.597  1.00  0.00    +0.000 H 
ATOM     78  C55 UNL A   1      19.513  30.084  -2.003  1.00  0.00    +0.000 C 
ATOM     79  C56 UNL A   1      20.458  31.065  -2.340  1.00  0.00    +0.000 C 
ATOM     80  C57 UNL A   1      20.700  32.152  -1.496  1.00  0.00    +0.000 C 
ATOM     81  C58 UNL A   1      20.013  32.268  -0.290  1.00  0.00    +0.000 C 
ATOM     82  C59 UNL A   1      19.052  31.318   0.066  1.00  0.00    +0.000 C 
ATOM     91  C67 UNL A   1      18.771  30.267  -0.818  1.00  0.00    +0.000 C 
ATOM    124  H33 UNL A   1      20.983  30.982  -3.224  1.00  0.00    +0.000 H 
ATOM    125  H34 UNL A   1      21.390  32.869  -1.766  1.00  0.00    +0.000 H 
ATOM    126  H35 UNL A   1      20.214  33.058   0.343  1.00  0.00    +0.000 H 
BRANCH   82   83
ATOM     83  C60 UNL A   1      18.350  31.481   1.371  1.00  0.00    +0.000 C 
ATOM     84  O3  UNL A   1      18.847  31.005   2.391  1.00  0.00    +0.000 O 
BRANCH   83   85
ATOM    129  H38 UNL A   1      13.721  34.040   1.786  1.00  0.00    +0.000 H 
ATOM    130  H39 UNL A   1      15.683  34.953   2.879  1.00  0.00    +0.000 H 
ATOM    131  H40 UNL A   1      17.826  33.822   2.682  1.00  0.00    +0.000 H 
ATOM     85  C61 UNL A   1      17.079  32.234   1.499  1.00  0.00    +0.000 C 
ATOM     86  C62 UNL A   1      15.951  31.731   0.840  1.00  0.00    +0.000 C 
ATOM     87  C63 UNL A   1      14.728  32.390   0.945  1.00  0.00    +0.000 C 
ATOM     88  C64 UNL A   1      14.629  33.560   1.698  1.00  0.00    +0.000 C 
ATOM     89  C65 UNL A   1      15.758  34.082   2.331  1.00  0.00    +0.000 C 
ATOM     90  C66 UNL A   1      16.988  33.427   2.226  1.00  0.00    +0.000 C 
ATOM    127  H36 UNL A   1      16.027  30.870   0.274  1.00  0.00    +0.000 H 
ATOM    128  H37 UNL A   1      13.894  32.012   0.468  1.00  0.00    +0.000 H 
ENDBRANCH   83   85
ENDBRANCH   82   83
ENDBRANCH    2   78
ENDBRANCH    3    2
ENDBRANCH    5    3
ENDBRANCH    6    5
ENDBRANCH    7    6
ENDBRANCH    8    7
ENDBRANCH    9    8
ENDBRANCH   10    9
ENDBRANCH   11   10
ENDBRANCH   12   11
ENDBRANCH   13   12
ENDBRANCH   15   13
ENDBRANCH   19   18
BRANCH   23   24
ATOM     33  C24 UNL A   1      15.599  23.331  -1.308  1.00  0.00    +0.000 C 
ATOM     34  F5  UNL A   1      16.299  23.843  -0.285  1.00  0.00    +0.000 F 
ATOM     24  C19 UNL A   1      14.229  23.063  -1.164  1.00  0.00    +0.000 C 
ATOM     25  C20 UNL A   1      13.544  22.533  -2.269  1.00  0.00    +0.000 C 
ATOM     26  F1  UNL A   1      12.238  22.247  -2.178  1.00  0.00    +0.000 F 
ATOM     27  C21 UNL A   1      14.214  22.244  -3.455  1.00  0.00    +0.000 C 
ATOM     28  F2  UNL A   1      13.552  21.680  -4.475  1.00  0.00    +0.000 F 
ATOM     29  C22 UNL A   1      15.569  22.516  -3.573  1.00  0.00    +0.000 C 
ATOM     30  F3  UNL A   1      16.213  22.235  -4.715  1.00  0.00    +0.000 F 
ATOM     31  C23 UNL A   1      16.259  23.070  -2.506  1.00  0.00    +0.000 C 
ATOM     32  F4  UNL A   1      17.566  23.344  -2.623  1.00  0.00    +0.000 F 
ENDBRANCH   23   24
BRANCH   40   41
ATOM     41  C30 UNL A   1      12.455  19.562   4.878  1.00  0.00    +0.000 C 
ATOM     42  C31 UNL A   1      13.526  19.311   5.747  1.00  0.00    +0.000 C 
ATOM     43  F6  UNL A   1      14.436  20.265   5.989  1.00  0.00    +0.000 F 
ATOM     44  C32 UNL A   1      13.672  18.067   6.357  1.00  0.00    +0.000 C 
ATOM     45  F7  UNL A   1      14.714  17.839   7.167  1.00  0.00    +0.000 F 
ATOM     46  C33 UNL A   1      12.741  17.065   6.127  1.00  0.00    +0.000 C 
ATOM     47  F8  UNL A   1      12.874  15.874   6.728  1.00  0.00    +0.000 F 
ATOM     48  C34 UNL A   1      11.673  17.294   5.272  1.00  0.00    +0.000 C 
ATOM     49  F9  UNL A   1      10.767  16.330   5.058  1.00  0.00    +0.000 F 
ATOM     50  C35 UNL A   1      11.536  18.527   4.643  1.00  0.00    +0.000 C 
ATOM     51  F10 UNL A   1      10.493  18.723   3.823  1.00  0.00    +0.000 F 
ENDBRANCH   40   41
BRANCH   55   56
ATOM     65  C44 UNL A   1       9.652  25.665   8.307  1.00  0.00    +0.000 C 
ATOM     66  F15 UNL A   1      10.980  25.821   8.400  1.00  0.00    +0.000 F 
ATOM     56  C39 UNL A   1       9.076  25.255   7.096  1.00  0.00    +0.000 C 
ATOM     57  C40 UNL A   1       7.685  25.096   7.053  1.00  0.00    +0.000 C 
ATOM     58  F11 UNL A   1       7.090  24.722   5.911  1.00  0.00    +0.000 F 
ATOM     59  C41 UNL A   1       6.899  25.342   8.176  1.00  0.00    +0.000 C 
ATOM     60  F12 UNL A   1       5.567  25.205   8.102  1.00  0.00    +0.000 F 
ATOM     61  C42 UNL A   1       7.490  25.730   9.369  1.00  0.00    +0.000 C 
ATOM     62  F13 UNL A   1       6.734  25.951  10.453  1.00  0.00    +0.000 F 
ATOM     63  C43 UNL A   1       8.867  25.889   9.436  1.00  0.00    +0.000 C 
ATOM     64  F14 UNL A   1       9.443  26.249  10.590  1.00  0.00    +0.000 F 
ENDBRANCH   55   56
TORSDOF 19
ENDMDL
MODEL 7
REMARK VINA RESULT:      -8.5      1.476      2.326
ROOT
ATOM     19  C15 UNL A   1      29.200 -13.817  31.193  1.00  0.00    +0.000 C 
ATOM     20  C16 UNL A   1      28.896 -13.919  32.660  1.00  0.00    +0.000 C 
ATOM     21  N3  UNL A   1      27.844 -13.510  33.320  1.00  0.00    +0.000 N 
ATOM     22  C17 UNL A   1      28.037 -13.930  34.629  1.00  0.00    +0.000 C 
ATOM     23  C18 UNL A   1      27.246 -13.719  35.707  1.00  0.00    +0.000 C 
ATOM     35  C25 UNL A   1      26.026 -12.958  35.676  1.00  0.00    +0.000 C 
ATOM     36  C26 UNL A   1      25.190 -12.623  36.727  1.00  0.00    +0.000 C 
ATOM     37  C27 UNL A   1      24.108 -11.902  36.209  1.00  0.00    +0.000 C 
ATOM     38  C28 UNL A   1      24.292 -11.752  34.843  1.00  0.00    +0.000 C 
ATOM     39  N4  UNL A   1      25.470 -12.409  34.530  1.00  0.00    +0.000 N 
ATOM     40  C29 UNL A   1      23.456 -11.060  33.897  1.00  0.00    +0.000 C 
ATOM     52  C36 UNL A   1      23.698 -10.959  32.567  1.00  0.00    +0.000 C 
ATOM     53  N5  UNL A   1      24.770 -11.456  31.838  1.00  0.00    +0.000 N 
ATOM     54  C37 UNL A   1      24.561 -11.092  30.596  1.00  0.00    +0.000 C 
ATOM     55  C38 UNL A   1      25.414 -11.340  29.383  1.00  0.00    +0.000 C 
ATOM     67  C45 UNL A   1      26.607 -11.949  29.525  1.00  0.00    +0.000 C 
ATOM     68  C46 UNL A   1      27.527 -12.272  28.439  1.00  0.00    +0.000 C 
ATOM     69  C47 UNL A   1      28.557 -12.979  28.933  1.00  0.00    +0.000 C 
ATOM     70  C48 UNL A   1      28.387 -13.120  30.379  1.00  0.00    +0.000 C 
ATOM     71  N6  UNL A   1      27.231 -12.429  30.650  1.00  0.00    +0.000 N 
ATOM     72  C49 UNL A   1      23.310 -10.348  30.391  1.00  0.00    +0.000 C 
ATOM     73  C50 UNL A   1      22.836 -10.272  31.627  1.00  0.00    +0.000 C 
ATOM     74  C51 UNL A   1      29.288 -14.658  34.661  1.00  0.00    +0.000 C 
ATOM     75  C52 UNL A   1      29.895 -14.614  33.485  1.00  0.00    +0.000 C 
ATOM    112  H21 UNL A   1      25.339 -12.862  37.719  1.00  0.00    +0.000 H 
ATOM    113  H22 UNL A   1      23.307 -11.543  36.752  1.00  0.00    +0.000 H 
ATOM    114  H23 UNL A   1      25.857 -12.477  33.626  1.00  0.00    +0.000 H 
ATOM    115  H24 UNL A   1      27.408 -12.002  27.450  1.00  0.00    +0.000 H 
ATOM    116  H25 UNL A   1      29.342 -13.359  28.382  1.00  0.00    +0.000 H 
ATOM    117  H26 UNL A   1      26.884 -12.293  31.562  1.00  0.00    +0.000 H 
ATOM    118  H27 UNL A   1      22.907  -9.981  29.514  1.00  0.00    +0.000 H 
ATOM    119  H28 UNL A   1      21.965  -9.785  31.887  1.00  0.00    +0.000 H 
ATOM    120  H29 UNL A   1      29.659 -15.146  35.492  1.00  0.00    +0.000 H 
ATOM    121  H30 UNL A   1      30.825 -14.975  33.218  1.00  0.00    +0.000 H 
ENDROOT
BRANCH   19   18
ATOM     76  C53 UNL A   1      31.598 -13.985  30.572  1.00  0.00    +0.000 C 
ATOM     77  C54 UNL A   1      32.681 -14.668  30.031  1.00  0.00    +0.000 C 
ATOM    110  H19 UNL A   1      31.155 -17.571  29.307  1.00  0.00    +0.000 H 
ATOM     15  C11 UNL A   1      32.529 -15.997  29.629  1.00  0.00    +0.000 C 
ATOM     16  C12 UNL A   1      31.270 -16.604  29.650  1.00  0.00    +0.000 C 
ATOM     17  C13 UNL A   1      30.169 -15.896  30.137  1.00  0.00    +0.000 C 
ATOM    111  H20 UNL A   1      29.235 -16.333  30.135  1.00  0.00    +0.000 H 
ATOM     18  C14 UNL A   1      30.333 -14.593  30.630  1.00  0.00    +0.000 C 
ATOM    122  H31 UNL A   1      31.724 -13.026  30.933  1.00  0.00    +0.000 H 
ATOM    123  H32 UNL A   1      33.594 -14.195  29.928  1.00  0.00    +0.000 H 
BRANCH   15   13
ATOM     13  C10 UNL A   1      33.703 -16.783  29.199  1.00  0.00    +0.000 C 
ATOM     14  O2  UNL A   1      34.175 -17.637  29.944  1.00  0.00    +0.000 O 
BRANCH   13   12
ATOM     12  N2  UNL A   1      34.266 -16.532  27.972  1.00  0.00    +0.000 N 
ATOM    109  H18 UNL A   1      35.236 -16.358  27.972  1.00  0.00    +0.000 H 
BRANCH   12   11
ATOM     11  C9  UNL A   1      33.615 -16.487  26.671  1.00  0.00    +0.000 C 
ATOM    108  H17 UNL A   1      32.568 -16.644  26.825  1.00  0.00    +0.000 H 
ATOM    107  H16 UNL A   1      34.038 -17.249  26.050  1.00  0.00    +0.000 H 
BRANCH   11   10
ATOM    105  H14 UNL A   1      34.835 -14.926  25.924  1.00  0.00    +0.000 H 
ATOM     10  C8  UNL A   1      33.788 -15.139  25.981  1.00  0.00    +0.000 C 
ATOM    106  H15 UNL A   1      33.324 -15.229  25.022  1.00  0.00    +0.000 H 
BRANCH   10    9
ATOM      9  C7  UNL A   1      33.101 -13.970  26.688  1.00  0.00    +0.000 C 
ATOM    103  H12 UNL A   1      32.048 -14.052  26.518  1.00  0.00    +0.000 H 
ATOM    104  H13 UNL A   1      33.372 -14.044  27.720  1.00  0.00    +0.000 H 
BRANCH    9    8
ATOM    101  H10 UNL A   1      33.697 -11.976  27.099  1.00  0.00    +0.000 H 
ATOM    102  H11 UNL A   1      34.440 -12.732  25.655  1.00  0.00    +0.000 H 
ATOM      8  C6  UNL A   1      33.551 -12.580  26.228  1.00  0.00    +0.000 C 
BRANCH    8    7
ATOM     99  H8  UNL A   1      32.604 -10.801  25.540  1.00  0.00    +0.000 H 
ATOM    100  H9  UNL A   1      32.883 -12.054  24.299  1.00  0.00    +0.000 H 
ATOM      7  C5  UNL A   1      32.571 -11.844  25.301  1.00  0.00    +0.000 C 
BRANCH    7    6
ATOM     97  H6  UNL A   1      31.089 -13.383  25.367  1.00  0.00    +0.000 H 
ATOM     98  H7  UNL A   1      30.715 -11.975  26.347  1.00  0.00    +0.000 H 
ATOM      6  C4  UNL A   1      31.116 -12.315  25.415  1.00  0.00    +0.000 C 
BRANCH    6    5
ATOM      5  N1  UNL A   1      30.318 -11.769  24.336  1.00  0.00    +0.000 N 
ATOM     96  H5  UNL A   1      30.700 -10.989  23.874  1.00  0.00    +0.000 H 
BRANCH    5    3
ATOM      3  C3  UNL A   1      29.103 -12.194  23.876  1.00  0.00    +0.000 C 
ATOM      4  O1  UNL A   1      29.117 -13.022  22.961  1.00  0.00    +0.000 O 
BRANCH    3    2
ATOM      2  C2  UNL A   1      27.803 -11.588  24.450  1.00  0.00    +0.000 C 
ATOM     95  H4  UNL A   1      27.602 -12.020  25.408  1.00  0.00    +0.000 H 
BRANCH    2    1
ATOM      1  C1  UNL A   1      26.621 -11.939  23.540  1.00  0.00    +0.000 C 
ATOM     92  H1  UNL A   1      25.719 -11.945  24.115  1.00  0.00    +0.000 H 
ATOM     93  H2  UNL A   1      26.776 -12.907  23.111  1.00  0.00    +0.000 H 
ATOM     94  H3  UNL A   1      26.542 -11.212  22.760  1.00  0.00    +0.000 H 
ENDBRANCH    2    1
BRANCH    2   78
ATOM    132  H41 UNL A   1      28.425 -10.331  26.762  1.00  0.00    +0.000 H 
ATOM     78  C55 UNL A   1      27.952 -10.081  24.715  1.00  0.00    +0.000 C 
ATOM     79  C56 UNL A   1      27.723  -9.104  23.733  1.00  0.00    +0.000 C 
ATOM     80  C57 UNL A   1      27.939  -7.750  24.000  1.00  0.00    +0.000 C 
ATOM     81  C58 UNL A   1      28.406  -7.349  25.250  1.00  0.00    +0.000 C 
ATOM     82  C59 UNL A   1      28.626  -8.295  26.254  1.00  0.00    +0.000 C 
ATOM     91  C67 UNL A   1      28.344  -9.644  25.997  1.00  0.00    +0.000 C 
ATOM    124  H33 UNL A   1      27.390  -9.391  22.799  1.00  0.00    +0.000 H 
ATOM    125  H34 UNL A   1      27.753  -7.046  23.270  1.00  0.00    +0.000 H 
ATOM    126  H35 UNL A   1      28.589  -6.350  25.434  1.00  0.00    +0.000 H 
BRANCH   82   83
ATOM     83  C60 UNL A   1      29.134  -7.817  27.572  1.00  0.00    +0.000 C 
ATOM     84  O3  UNL A   1      29.013  -6.631  27.875  1.00  0.00    +0.000 O 
BRANCH   83   85
ATOM    129  H38 UNL A   1      31.222 -11.082  31.196  1.00  0.00    +0.000 H 
ATOM    130  H39 UNL A   1      32.246 -10.933  29.003  1.00  0.00    +0.000 H 
ATOM    131  H40 UNL A   1      31.333  -9.424  27.331  1.00  0.00    +0.000 H 
ATOM     85  C61 UNL A   1      29.757  -8.731  28.561  1.00  0.00    +0.000 C 
ATOM     86  C62 UNL A   1      29.191  -8.793  29.840  1.00  0.00    +0.000 C 
ATOM     87  C63 UNL A   1      29.726  -9.650  30.800  1.00  0.00    +0.000 C 
ATOM     88  C64 UNL A   1      30.835 -10.438  30.490  1.00  0.00    +0.000 C 
ATOM     89  C65 UNL A   1      31.421 -10.356  29.226  1.00  0.00    +0.000 C 
ATOM     90  C66 UNL A   1      30.890  -9.496  28.261  1.00  0.00    +0.000 C 
ATOM    127  H36 UNL A   1      28.377  -8.202  30.072  1.00  0.00    +0.000 H 
ATOM    128  H37 UNL A   1      29.302  -9.704  31.739  1.00  0.00    +0.000 H 
ENDBRANCH   83   85
ENDBRANCH   82   83
ENDBRANCH    2   78
ENDBRANCH    3    2
ENDBRANCH    5    3
ENDBRANCH    6    5
ENDBRANCH    7    6
ENDBRANCH    8    7
ENDBRANCH    9    8
ENDBRANCH   10    9
ENDBRANCH   11   10
ENDBRANCH   12   11
ENDBRANCH   13   12
ENDBRANCH   15   13
ENDBRANCH   19   18
BRANCH   23   24
ATOM     33  C24 UNL A   1      28.679 -13.727  37.780  1.00  0.00    +0.000 C 
ATOM     34  F5  UNL A   1      29.265 -12.596  37.361  1.00  0.00    +0.000 F 
ATOM     24  C19 UNL A   1      27.676 -14.333  37.007  1.00  0.00    +0.000 C 
ATOM     25  C20 UNL A   1      27.101 -15.518  37.491  1.00  0.00    +0.000 C 
ATOM     26  F1  UNL A   1      26.130 -16.129  36.797  1.00  0.00    +0.000 F 
ATOM     27  C21 UNL A   1      27.485 -16.051  38.719  1.00  0.00    +0.000 C 
ATOM     28  F2  UNL A   1      26.878 -17.149  39.190  1.00  0.00    +0.000 F 
ATOM     29  C22 UNL A   1      28.478 -15.434  39.466  1.00  0.00    +0.000 C 
ATOM     30  F3  UNL A   1      28.844 -15.946  40.649  1.00  0.00    +0.000 F 
ATOM     31  C23 UNL A   1      29.082 -14.280  38.992  1.00  0.00    +0.000 C 
ATOM     32  F4  UNL A   1      30.049 -13.689  39.708  1.00  0.00    +0.000 F 
ENDBRANCH   23   24
BRANCH   40   41
ATOM     41  C30 UNL A   1      22.232 -10.379  34.431  1.00  0.00    +0.000 C 
ATOM     42  C31 UNL A   1      20.973 -10.992  34.390  1.00  0.00    +0.000 C 
ATOM     43  F6  UNL A   1      20.819 -12.177  33.780  1.00  0.00    +0.000 F 
ATOM     44  C32 UNL A   1      19.861 -10.379  34.962  1.00  0.00    +0.000 C 
ATOM     45  F7  UNL A   1      18.661 -10.970  34.892  1.00  0.00    +0.000 F 
ATOM     46  C33 UNL A   1      19.994  -9.156  35.604  1.00  0.00    +0.000 C 
ATOM     47  F8  UNL A   1      18.927  -8.575  36.169  1.00  0.00    +0.000 F 
ATOM     48  C34 UNL A   1      21.232  -8.534  35.658  1.00  0.00    +0.000 C 
ATOM     49  F9  UNL A   1      21.364  -7.357  36.287  1.00  0.00    +0.000 F 
ATOM     50  C35 UNL A   1      22.340  -9.133  35.068  1.00  0.00    +0.000 C 
ATOM     51  F10 UNL A   1      23.526  -8.510  35.137  1.00  0.00    +0.000 F 
ENDBRANCH   40   41
BRANCH   55   56
ATOM     65  C44 UNL A   1      25.275  -9.620  27.550  1.00  0.00    +0.000 C 
ATOM     66  F15 UNL A   1      25.997  -8.771  28.296  1.00  0.00    +0.000 F 
ATOM     56  C39 UNL A   1      24.977 -10.902  28.033  1.00  0.00    +0.000 C 
ATOM     57  C40 UNL A   1      24.211 -11.747  27.220  1.00  0.00    +0.000 C 
ATOM     58  F11 UNL A   1      23.917 -12.988  27.635  1.00  0.00    +0.000 F 
ATOM     59  C41 UNL A   1      23.762 -11.328  25.970  1.00  0.00    +0.000 C 
ATOM     60  F12 UNL A   1      23.050 -12.164  25.201  1.00  0.00    +0.000 F 
ATOM     61  C42 UNL A   1      24.053 -10.049  25.518  1.00  0.00    +0.000 C 
ATOM     62  F13 UNL A   1      23.606  -9.641  24.322  1.00  0.00    +0.000 F 
ATOM     63  C43 UNL A   1      24.806  -9.194  26.309  1.00  0.00    +0.000 C 
ATOM     64  F14 UNL A   1      25.076  -7.953  25.883  1.00  0.00    +0.000 F 
ENDBRANCH   55   56
TORSDOF 19
ENDMDL
MODEL 8
REMARK VINA RESULT:      -8.4      3.364      8.006
ROOT
ATOM     19  C15 UNL A   1      24.529 -12.473  30.239  1.00  0.00    +0.000 C 
ATOM     20  C16 UNL A   1      25.626 -13.456  30.530  1.00  0.00    +0.000 C 
ATOM     21  N3  UNL A   1      26.057 -13.903  31.682  1.00  0.00    +0.000 N 
ATOM     22  C17 UNL A   1      27.023 -14.852  31.377  1.00  0.00    +0.000 C 
ATOM     23  C18 UNL A   1      27.792 -15.574  32.225  1.00  0.00    +0.000 C 
ATOM     35  C25 UNL A   1      27.752 -15.447  33.657  1.00  0.00    +0.000 C 
ATOM     36  C26 UNL A   1      28.540 -16.079  34.603  1.00  0.00    +0.000 C 
ATOM     37  C27 UNL A   1      28.113 -15.667  35.871  1.00  0.00    +0.000 C 
ATOM     38  C28 UNL A   1      27.088 -14.748  35.712  1.00  0.00    +0.000 C 
ATOM     39  N4  UNL A   1      26.873 -14.627  34.350  1.00  0.00    +0.000 N 
ATOM     40  C29 UNL A   1      26.359 -14.034  36.729  1.00  0.00    +0.000 C 
ATOM     52  C36 UNL A   1      25.359 -13.149  36.499  1.00  0.00    +0.000 C 
ATOM     53  N5  UNL A   1      24.836 -12.723  35.285  1.00  0.00    +0.000 N 
ATOM     54  C37 UNL A   1      23.896 -11.859  35.580  1.00  0.00    +0.000 C 
ATOM     55  C38 UNL A   1      23.015 -11.068  34.653  1.00  0.00    +0.000 C 
ATOM     67  C45 UNL A   1      23.210 -11.151  33.323  1.00  0.00    +0.000 C 
ATOM     68  C46 UNL A   1      22.422 -10.460  32.307  1.00  0.00    +0.000 C 
ATOM     69  C47 UNL A   1      22.821 -10.868  31.091  1.00  0.00    +0.000 C 
ATOM     70  C48 UNL A   1      23.921 -11.818  31.245  1.00  0.00    +0.000 C 
ATOM     71  N6  UNL A   1      24.122 -11.883  32.602  1.00  0.00    +0.000 N 
ATOM     72  C49 UNL A   1      23.692 -11.663  37.022  1.00  0.00    +0.000 C 
ATOM     73  C50 UNL A   1      24.626 -12.452  37.536  1.00  0.00    +0.000 C 
ATOM     74  C51 UNL A   1      27.089 -14.942  29.933  1.00  0.00    +0.000 C 
ATOM     75  C52 UNL A   1      26.299 -14.045  29.363  1.00  0.00    +0.000 C 
ATOM    112  H21 UNL A   1      29.309 -16.737  34.408  1.00  0.00    +0.000 H 
ATOM    113  H22 UNL A   1      28.497 -15.994  36.771  1.00  0.00    +0.000 H 
ATOM    114  H23 UNL A   1      26.196 -14.044  33.933  1.00  0.00    +0.000 H 
ATOM    115  H24 UNL A   1      21.679  -9.769  32.492  1.00  0.00    +0.000 H 
ATOM    116  H25 UNL A   1      22.416 -10.559  30.193  1.00  0.00    +0.000 H 
ATOM    117  H26 UNL A   1      24.848 -12.403  33.017  1.00  0.00    +0.000 H 
ATOM    118  H27 UNL A   1      23.003 -11.067  37.508  1.00  0.00    +0.000 H 
ATOM    119  H28 UNL A   1      24.809 -12.556  38.546  1.00  0.00    +0.000 H 
ATOM    120  H29 UNL A   1      27.675 -15.617  29.417  1.00  0.00    +0.000 H 
ATOM    121  H30 UNL A   1      26.185 -13.820  28.362  1.00  0.00    +0.000 H 
ENDROOT
BRANCH   19   18
ATOM     76  C53 UNL A   1      23.266 -13.358  28.293  1.00  0.00    +0.000 C 
ATOM     77  C54 UNL A   1      22.806 -13.268  26.985  1.00  0.00    +0.000 C 
ATOM    110  H19 UNL A   1      24.034 -10.239  26.210  1.00  0.00    +0.000 H 
ATOM     15  C11 UNL A   1      23.035 -12.102  26.251  1.00  0.00    +0.000 C 
ATOM     16  C12 UNL A   1      23.829 -11.078  26.776  1.00  0.00    +0.000 C 
ATOM     17  C13 UNL A   1      24.343 -11.196  28.069  1.00  0.00    +0.000 C 
ATOM    111  H20 UNL A   1      24.947 -10.453  28.453  1.00  0.00    +0.000 H 
ATOM     18  C14 UNL A   1      24.038 -12.324  28.847  1.00  0.00    +0.000 C 
ATOM    122  H31 UNL A   1      23.040 -14.190  28.861  1.00  0.00    +0.000 H 
ATOM    123  H32 UNL A   1      22.297 -14.058  26.558  1.00  0.00    +0.000 H 
BRANCH   15   13
ATOM     13  C10 UNL A   1      22.420 -11.928  24.919  1.00  0.00    +0.000 C 
ATOM     14  O2  UNL A   1      21.230 -12.178  24.756  1.00  0.00    +0.000 O 
BRANCH   13   12
ATOM     12  N2  UNL A   1      23.200 -11.506  23.870  1.00  0.00    +0.000 N 
ATOM    109  H18 UNL A   1      22.828 -10.774  23.326  1.00  0.00    +0.000 H 
BRANCH   12   11
ATOM     11  C9  UNL A   1      24.505 -12.001  23.458  1.00  0.00    +0.000 C 
ATOM    108  H17 UNL A   1      24.446 -12.247  22.418  1.00  0.00    +0.000 H 
ATOM    107  H16 UNL A   1      24.750 -12.858  24.050  1.00  0.00    +0.000 H 
BRANCH   11   10
ATOM    105  H14 UNL A   1      26.066 -10.802  22.675  1.00  0.00    +0.000 H 
ATOM     10  C8  UNL A   1      25.602 -10.956  23.627  1.00  0.00    +0.000 C 
ATOM    106  H15 UNL A   1      25.126 -10.078  24.010  1.00  0.00    +0.000 H 
BRANCH   10    9
ATOM      9  C7  UNL A   1      26.691 -11.333  24.633  1.00  0.00    +0.000 C 
ATOM    103  H12 UNL A   1      26.261 -11.305  25.613  1.00  0.00    +0.000 H 
ATOM    104  H13 UNL A   1      27.036 -12.305  24.347  1.00  0.00    +0.000 H 
BRANCH    9    8
ATOM    101  H10 UNL A   1      28.775 -11.025  24.389  1.00  0.00    +0.000 H 
ATOM    102  H11 UNL A   1      27.721  -9.659  23.907  1.00  0.00    +0.000 H 
ATOM      8  C6  UNL A   1      27.923 -10.424  24.626  1.00  0.00    +0.000 C 
BRANCH    8    7
ATOM     99  H8  UNL A   1      27.965 -10.356  26.754  1.00  0.00    +0.000 H 
ATOM    100  H9  UNL A   1      29.247  -9.427  25.929  1.00  0.00    +0.000 H 
ATOM      7  C5  UNL A   1      28.211  -9.696  25.948  1.00  0.00    +0.000 C 
BRANCH    7    6
ATOM     97  H6  UNL A   1      28.111  -7.579  26.236  1.00  0.00    +0.000 H 
ATOM     98  H7  UNL A   1      26.792  -8.244  25.288  1.00  0.00    +0.000 H 
ATOM      6  C4  UNL A   1      27.424  -8.394  26.139  1.00  0.00    +0.000 C 
BRANCH    6    5
ATOM      5  N1  UNL A   1      26.599  -8.465  27.327  1.00  0.00    +0.000 N 
ATOM     96  H5  UNL A   1      25.654  -8.697  27.178  1.00  0.00    +0.000 H 
BRANCH    5    3
ATOM      3  C3  UNL A   1      26.959  -8.252  28.628  1.00  0.00    +0.000 C 
ATOM      4  O1  UNL A   1      27.827  -7.398  28.829  1.00  0.00    +0.000 O 
BRANCH    3    2
ATOM      2  C2  UNL A   1      26.339  -9.109  29.754  1.00  0.00    +0.000 C 
ATOM     95  H4  UNL A   1      25.518  -9.673  29.361  1.00  0.00    +0.000 H 
BRANCH    2    1
ATOM      1  C1  UNL A   1      25.776  -8.198  30.850  1.00  0.00    +0.000 C 
ATOM     92  H1  UNL A   1      24.880  -7.729  30.499  1.00  0.00    +0.000 H 
ATOM     93  H2  UNL A   1      26.498  -7.448  31.096  1.00  0.00    +0.000 H 
ATOM     94  H3  UNL A   1      25.556  -8.780  31.720  1.00  0.00    +0.000 H 
ENDBRANCH    2    1
BRANCH    2   78
ATOM    132  H41 UNL A   1      28.063 -10.648  28.350  1.00  0.00    +0.000 H 
ATOM     78  C55 UNL A   1      27.332 -10.161  30.275  1.00  0.00    +0.000 C 
ATOM     79  C56 UNL A   1      27.440 -10.507  31.631  1.00  0.00    +0.000 C 
ATOM     80  C57 UNL A   1      28.405 -11.417  32.066  1.00  0.00    +0.000 C 
ATOM     81  C58 UNL A   1      29.294 -11.985  31.156  1.00  0.00    +0.000 C 
ATOM     82  C59 UNL A   1      29.201 -11.675  29.797  1.00  0.00    +0.000 C 
ATOM     91  C67 UNL A   1      28.187 -10.811  29.361  1.00  0.00    +0.000 C 
ATOM    124  H33 UNL A   1      26.796 -10.082  32.316  1.00  0.00    +0.000 H 
ATOM    125  H34 UNL A   1      28.462 -11.669  33.065  1.00  0.00    +0.000 H 
ATOM    126  H35 UNL A   1      30.023 -12.636  31.487  1.00  0.00    +0.000 H 
BRANCH   82   83
ATOM     83  C60 UNL A   1      30.180 -12.301  28.864  1.00  0.00    +0.000 C 
ATOM     84  O3  UNL A   1      31.344 -11.902  28.848  1.00  0.00    +0.000 O 
BRANCH   83   85
ATOM    129  H38 UNL A   1      28.919 -16.422  25.768  1.00  0.00    +0.000 H 
ATOM    130  H39 UNL A   1      28.004 -14.233  25.263  1.00  0.00    +0.000 H 
ATOM    131  H40 UNL A   1      28.587 -12.320  26.642  1.00  0.00    +0.000 H 
ATOM     85  C61 UNL A   1      29.815 -13.423  27.966  1.00  0.00    +0.000 C 
ATOM     86  C62 UNL A   1      30.370 -14.681  28.232  1.00  0.00    +0.000 C 
ATOM     87  C63 UNL A   1      30.042 -15.773  27.430  1.00  0.00    +0.000 C 
ATOM     88  C64 UNL A   1      29.171 -15.610  26.353  1.00  0.00    +0.000 C 
ATOM     89  C65 UNL A   1      28.640 -14.352  26.065  1.00  0.00    +0.000 C 
ATOM     90  C66 UNL A   1      28.968 -13.253  26.864  1.00  0.00    +0.000 C 
ATOM    127  H36 UNL A   1      31.023 -14.799  29.022  1.00  0.00    +0.000 H 
ATOM    128  H37 UNL A   1      30.443 -16.702  27.634  1.00  0.00    +0.000 H 
ENDBRANCH   83   85
ENDBRANCH   82   83
ENDBRANCH    2   78
ENDBRANCH    3    2
ENDBRANCH    5    3
ENDBRANCH    6    5
ENDBRANCH    7    6
ENDBRANCH    8    7
ENDBRANCH    9    8
ENDBRANCH   10    9
ENDBRANCH   11   10
ENDBRANCH   12   11
ENDBRANCH   13   12
ENDBRANCH   15   13
ENDBRANCH   19   18
BRANCH   23   24
ATOM     33  C24 UNL A   1      30.075 -16.234  31.387  1.00  0.00    +0.000 C 
ATOM     34  F5  UNL A   1      30.527 -15.011  31.700  1.00  0.00    +0.000 F 
ATOM     24  C19 UNL A   1      28.732 -16.574  31.620  1.00  0.00    +0.000 C 
ATOM     25  C20 UNL A   1      28.313 -17.866  31.268  1.00  0.00    +0.000 C 
ATOM     26  F1  UNL A   1      27.044 -18.245  31.482  1.00  0.00    +0.000 F 
ATOM     27  C21 UNL A   1      29.210 -18.793  30.744  1.00  0.00    +0.000 C 
ATOM     28  F2  UNL A   1      28.800 -20.041  30.475  1.00  0.00    +0.000 F 
ATOM     29  C22 UNL A   1      30.532 -18.435  30.524  1.00  0.00    +0.000 C 
ATOM     30  F3  UNL A   1      31.395 -19.329  30.023  1.00  0.00    +0.000 F 
ATOM     31  C23 UNL A   1      30.962 -17.154  30.834  1.00  0.00    +0.000 C 
ATOM     32  F4  UNL A   1      32.236 -16.803  30.612  1.00  0.00    +0.000 F 
ENDBRANCH   23   24
BRANCH   40   41
ATOM     41  C30 UNL A   1      26.757 -14.274  38.155  1.00  0.00    +0.000 C 
ATOM     42  C31 UNL A   1      26.000 -15.097  39.000  1.00  0.00    +0.000 C 
ATOM     43  F6  UNL A   1      24.841 -15.619  38.572  1.00  0.00    +0.000 F 
ATOM     44  C32 UNL A   1      26.427 -15.372  40.297  1.00  0.00    +0.000 C 
ATOM     45  F7  UNL A   1      25.678 -16.142  41.097  1.00  0.00    +0.000 F 
ATOM     46  C33 UNL A   1      27.625 -14.849  40.761  1.00  0.00    +0.000 C 
ATOM     47  F8  UNL A   1      28.043 -15.128  42.004  1.00  0.00    +0.000 F 
ATOM     48  C34 UNL A   1      28.390 -14.035  39.940  1.00  0.00    +0.000 C 
ATOM     49  F9  UNL A   1      29.553 -13.537  40.384  1.00  0.00    +0.000 F 
ATOM     50  C35 UNL A   1      27.955 -13.739  38.652  1.00  0.00    +0.000 C 
ATOM     51  F10 UNL A   1      28.715 -12.951  37.877  1.00  0.00    +0.000 F 
ENDBRANCH   40   41
BRANCH   55   56
ATOM     65  C44 UNL A   1      20.640 -10.639  35.368  1.00  0.00    +0.000 C 
ATOM     66  F15 UNL A   1      20.334 -11.918  35.108  1.00  0.00    +0.000 F 
ATOM     56  C39 UNL A   1      21.950 -10.177  35.178  1.00  0.00    +0.000 C 
ATOM     57  C40 UNL A   1      22.216  -8.830  35.454  1.00  0.00    +0.000 C 
ATOM     58  F11 UNL A   1      23.460  -8.350  35.303  1.00  0.00    +0.000 F 
ATOM     59  C41 UNL A   1      21.213  -7.977  35.908  1.00  0.00    +0.000 C 
ATOM     60  F12 UNL A   1      21.499  -6.698  36.187  1.00  0.00    +0.000 F 
ATOM     61  C42 UNL A   1      19.919  -8.450  36.073  1.00  0.00    +0.000 C 
ATOM     62  F13 UNL A   1      18.951  -7.625  36.494  1.00  0.00    +0.000 F 
ATOM     63  C43 UNL A   1      19.632  -9.780  35.801  1.00  0.00    +0.000 C 
ATOM     64  F14 UNL A   1      18.381 -10.236  35.944  1.00  0.00    +0.000 F 
ENDBRANCH   55   56
TORSDOF 19
ENDMDL
MODEL 9
REMARK VINA RESULT:      -8.3     46.445     52.388
ROOT
ATOM     19  C15 UNL A   1      11.251  27.511   1.984  1.00  0.00    +0.000 C 
ATOM     20  C16 UNL A   1      12.036  26.514   1.182  1.00  0.00    +0.000 C 
ATOM     21  N3  UNL A   1      12.255  25.246   1.419  1.00  0.00    +0.000 N 
ATOM     22  C17 UNL A   1      12.966  24.778   0.321  1.00  0.00    +0.000 C 
ATOM     23  C18 UNL A   1      13.462  23.537   0.106  1.00  0.00    +0.000 C 
ATOM     35  C25 UNL A   1      13.354  22.451   1.043  1.00  0.00    +0.000 C 
ATOM     36  C26 UNL A   1      13.885  21.177   0.953  1.00  0.00    +0.000 C 
ATOM     37  C27 UNL A   1      13.489  20.458   2.086  1.00  0.00    +0.000 C 
ATOM     38  C28 UNL A   1      12.747  21.298   2.902  1.00  0.00    +0.000 C 
ATOM     39  N4  UNL A   1      12.668  22.516   2.247  1.00  0.00    +0.000 N 
ATOM     40  C29 UNL A   1      12.154  21.011   4.183  1.00  0.00    +0.000 C 
ATOM     52  C36 UNL A   1      11.433  21.886   4.925  1.00  0.00    +0.000 C 
ATOM     53  N5  UNL A   1      11.125  23.212   4.651  1.00  0.00    +0.000 N 
ATOM     54  C37 UNL A   1      10.418  23.636   5.671  1.00  0.00    +0.000 C 
ATOM     55  C38 UNL A   1       9.837  25.001   5.914  1.00  0.00    +0.000 C 
ATOM     67  C45 UNL A   1      10.098  25.996   5.046  1.00  0.00    +0.000 C 
ATOM     68  C46 UNL A   1       9.587  27.361   5.143  1.00  0.00    +0.000 C 
ATOM     69  C47 UNL A   1       9.954  28.045   4.047  1.00  0.00    +0.000 C 
ATOM     70  C48 UNL A   1      10.761  27.176   3.191  1.00  0.00    +0.000 C 
ATOM     71  N6  UNL A   1      10.842  25.996   3.891  1.00  0.00    +0.000 N 
ATOM     72  C49 UNL A   1      10.169  22.612   6.696  1.00  0.00    +0.000 C 
ATOM     73  C50 UNL A   1      10.832  21.573   6.205  1.00  0.00    +0.000 C 
ATOM     74  C51 UNL A   1      13.108  25.888  -0.596  1.00  0.00    +0.000 C 
ATOM     75  C52 UNL A   1      12.617  27.003  -0.077  1.00  0.00    +0.000 C 
ATOM    112  H21 UNL A   1      14.472  20.818   0.184  1.00  0.00    +0.000 H 
ATOM    113  H22 UNL A   1      13.711  19.470   2.282  1.00  0.00    +0.000 H 
ATOM    114  H23 UNL A   1      12.194  23.311   2.585  1.00  0.00    +0.000 H 
ATOM    115  H24 UNL A   1       9.035  27.740   5.928  1.00  0.00    +0.000 H 
ATOM    116  H25 UNL A   1       9.707  29.025   3.842  1.00  0.00    +0.000 H 
ATOM    117  H26 UNL A   1      11.379  25.226   3.593  1.00  0.00    +0.000 H 
ATOM    118  H27 UNL A   1       9.623  22.684   7.568  1.00  0.00    +0.000 H 
ATOM    119  H28 UNL A   1      10.910  20.658   6.676  1.00  0.00    +0.000 H 
ATOM    120  H29 UNL A   1      13.538  25.820  -1.533  1.00  0.00    +0.000 H 
ATOM    121  H30 UNL A   1      12.636  27.963  -0.457  1.00  0.00    +0.000 H 
ENDROOT
BRANCH   19   18
ATOM     76  C53 UNL A   1      11.794  29.901   1.585  1.00  0.00    +0.000 C 
ATOM     77  C54 UNL A   1      11.505  31.154   1.057  1.00  0.00    +0.000 C 
ATOM    110  H19 UNL A   1       8.627  30.407  -0.506  1.00  0.00    +0.000 H 
ATOM     15  C11 UNL A   1      10.382  31.318   0.243  1.00  0.00    +0.000 C 
ATOM     16  C12 UNL A   1       9.481  30.266   0.058  1.00  0.00    +0.000 C 
ATOM     17  C13 UNL A   1       9.740  29.023   0.640  1.00  0.00    +0.000 C 
ATOM    111  H20 UNL A   1       9.067  28.250   0.523  1.00  0.00    +0.000 H 
ATOM     18  C14 UNL A   1      10.915  28.825   1.381  1.00  0.00    +0.000 C 
ATOM    122  H31 UNL A   1      12.659  29.760   2.131  1.00  0.00    +0.000 H 
ATOM    123  H32 UNL A   1      12.118  31.958   1.266  1.00  0.00    +0.000 H 
BRANCH   15   13
ATOM     13  C10 UNL A   1      10.147  32.601  -0.450  1.00  0.00    +0.000 C 
ATOM     14  O2  UNL A   1       9.076  33.184  -0.314  1.00  0.00    +0.000 O 
BRANCH   13   12
ATOM     12  N2  UNL A   1      11.129  33.115  -1.259  1.00  0.00    +0.000 N 
ATOM    109  H18 UNL A   1      11.054  32.899  -2.217  1.00  0.00    +0.000 H 
BRANCH   12   11
ATOM     11  C9  UNL A   1      12.270  33.939  -0.885  1.00  0.00    +0.000 C 
ATOM    108  H17 UNL A   1      12.641  33.576   0.050  1.00  0.00    +0.000 H 
ATOM    107  H16 UNL A   1      11.948  34.957  -0.810  1.00  0.00    +0.000 H 
BRANCH   11   10
ATOM    105  H14 UNL A   1      13.651  34.852  -2.206  1.00  0.00    +0.000 H 
ATOM     10  C8  UNL A   1      13.404  33.856  -1.900  1.00  0.00    +0.000 C 
ATOM    106  H15 UNL A   1      14.212  33.354  -1.411  1.00  0.00    +0.000 H 
BRANCH   10    9
ATOM      9  C7  UNL A   1      13.080  33.040  -3.152  1.00  0.00    +0.000 C 
ATOM    103  H12 UNL A   1      12.048  32.758  -3.106  1.00  0.00    +0.000 H 
ATOM    104  H13 UNL A   1      13.312  33.668  -3.986  1.00  0.00    +0.000 H 
BRANCH    9    8
ATOM    101  H10 UNL A   1      13.452  31.175  -4.093  1.00  0.00    +0.000 H 
ATOM    102  H11 UNL A   1      14.901  32.095  -3.578  1.00  0.00    +0.000 H 
ATOM      8  C6  UNL A   1      13.914  31.768  -3.331  1.00  0.00    +0.000 C 
BRANCH    8    7
ATOM     99  H8  UNL A   1      14.980  31.152  -1.594  1.00  0.00    +0.000 H 
ATOM    100  H9  UNL A   1      13.201  31.088  -1.467  1.00  0.00    +0.000 H 
ATOM      7  C5  UNL A   1      14.060  30.894  -2.075  1.00  0.00    +0.000 C 
BRANCH    7    6
ATOM     97  H6  UNL A   1      15.081  29.036  -2.352  1.00  0.00    +0.000 H 
ATOM     98  H7  UNL A   1      13.509  28.892  -1.584  1.00  0.00    +0.000 H 
ATOM      6  C4  UNL A   1      14.070  29.386  -2.350  1.00  0.00    +0.000 C 
BRANCH    6    5
ATOM      5  N1  UNL A   1      13.464  29.097  -3.634  1.00  0.00    +0.000 N 
ATOM     96  H5  UNL A   1      14.016  29.300  -4.422  1.00  0.00    +0.000 H 
BRANCH    5    3
ATOM      3  C3  UNL A   1      12.225  28.582  -3.894  1.00  0.00    +0.000 C 
ATOM      4  O1  UNL A   1      12.166  27.684  -4.738  1.00  0.00    +0.000 O 
BRANCH    3    2
ATOM      2  C2  UNL A   1      10.979  29.174  -3.199  1.00  0.00    +0.000 C 
ATOM     95  H4  UNL A   1      11.264  29.605  -2.262  1.00  0.00    +0.000 H 
BRANCH    2    1
ATOM      1  C1  UNL A   1       9.974  28.057  -2.894  1.00  0.00    +0.000 C 
ATOM     92  H1  UNL A   1      10.466  27.273  -2.357  1.00  0.00    +0.000 H 
ATOM     93  H2  UNL A   1       9.583  27.670  -3.811  1.00  0.00    +0.000 H 
ATOM     94  H3  UNL A   1       9.175  28.448  -2.301  1.00  0.00    +0.000 H 
ENDBRANCH    2    1
BRANCH    2   78
ATOM    132  H41 UNL A   1       8.763  30.633  -2.675  1.00  0.00    +0.000 H 
ATOM     78  C55 UNL A   1      10.381  30.338  -4.007  1.00  0.00    +0.000 C 
ATOM     79  C56 UNL A   1      10.923  30.786  -5.221  1.00  0.00    +0.000 C 
ATOM     80  C57 UNL A   1      10.388  31.893  -5.884  1.00  0.00    +0.000 C 
ATOM     81  C58 UNL A   1       9.310  32.584  -5.335  1.00  0.00    +0.000 C 
ATOM     82  C59 UNL A   1       8.735  32.152  -4.136  1.00  0.00    +0.000 C 
ATOM     91  C67 UNL A   1       9.239  31.002  -3.513  1.00  0.00    +0.000 C 
ATOM    124  H33 UNL A   1      11.731  30.290  -5.630  1.00  0.00    +0.000 H 
ATOM    125  H34 UNL A   1      10.792  32.200  -6.782  1.00  0.00    +0.000 H 
ATOM    126  H35 UNL A   1       8.934  33.417  -5.815  1.00  0.00    +0.000 H 
BRANCH   82   83
ATOM     83  C60 UNL A   1       7.590  32.930  -3.585  1.00  0.00    +0.000 C 
ATOM     84  O3  UNL A   1       6.905  32.445  -2.684  1.00  0.00    +0.000 O 
BRANCH   83   85
ATOM    129  H38 UNL A   1       6.555  37.857  -5.259  1.00  0.00    +0.000 H 
ATOM    130  H39 UNL A   1       4.952  36.092  -5.703  1.00  0.00    +0.000 H 
ATOM    131  H40 UNL A   1       5.382  33.831  -4.921  1.00  0.00    +0.000 H 
ATOM     85  C61 UNL A   1       7.257  34.295  -4.057  1.00  0.00    +0.000 C 
ATOM     86  C62 UNL A   1       8.161  35.325  -3.771  1.00  0.00    +0.000 C 
ATOM     87  C63 UNL A   1       7.905  36.623  -4.210  1.00  0.00    +0.000 C 
ATOM     88  C64 UNL A   1       6.738  36.899  -4.923  1.00  0.00    +0.000 C 
ATOM     89  C65 UNL A   1       5.818  35.882  -5.183  1.00  0.00    +0.000 C 
ATOM     90  C66 UNL A   1       6.069  34.580  -4.742  1.00  0.00    +0.000 C 
ATOM    127  H36 UNL A   1       9.019  35.122  -3.234  1.00  0.00    +0.000 H 
ATOM    128  H37 UNL A   1       8.578  37.379  -4.009  1.00  0.00    +0.000 H 
ENDBRANCH   83   85
ENDBRANCH   82   83
ENDBRANCH    2   78
ENDBRANCH    3    2
ENDBRANCH    5    3
ENDBRANCH    6    5
ENDBRANCH    7    6
ENDBRANCH    8    7
ENDBRANCH    9    8
ENDBRANCH   10    9
ENDBRANCH   11   10
ENDBRANCH   12   11
ENDBRANCH   13   12
ENDBRANCH   15   13
ENDBRANCH   19   18
BRANCH   23   24
ATOM     33  C24 UNL A   1      15.525  23.569  -1.340  1.00  0.00    +0.000 C 
ATOM     34  F5  UNL A   1      16.223  24.062  -0.307  1.00  0.00    +0.000 F 
ATOM     24  C19 UNL A   1      14.156  23.291  -1.201  1.00  0.00    +0.000 C 
ATOM     25  C20 UNL A   1      13.473  22.783  -2.317  1.00  0.00    +0.000 C 
ATOM     26  F1  UNL A   1      12.168  22.487  -2.232  1.00  0.00    +0.000 F 
ATOM     27  C21 UNL A   1      14.143  22.523  -3.510  1.00  0.00    +0.000 C 
ATOM     28  F2  UNL A   1      13.483  21.978  -4.541  1.00  0.00    +0.000 F 
ATOM     29  C22 UNL A   1      15.497  22.805  -3.623  1.00  0.00    +0.000 C 
ATOM     30  F3  UNL A   1      16.141  22.551  -4.771  1.00  0.00    +0.000 F 
ATOM     31  C23 UNL A   1      16.185  23.338  -2.544  1.00  0.00    +0.000 C 
ATOM     32  F4  UNL A   1      17.490  23.621  -2.656  1.00  0.00    +0.000 F 
ENDBRANCH   23   24
BRANCH   40   41
ATOM     41  C30 UNL A   1      12.376  19.640   4.749  1.00  0.00    +0.000 C 
ATOM     42  C31 UNL A   1      11.526  18.570   4.436  1.00  0.00    +0.000 C 
ATOM     43  F6  UNL A   1      10.431  18.775   3.688  1.00  0.00    +0.000 F 
ATOM     44  C32 UNL A   1      11.792  17.287   4.907  1.00  0.00    +0.000 C 
ATOM     45  F7  UNL A   1      10.955  16.282   4.616  1.00  0.00    +0.000 F 
ATOM     46  C33 UNL A   1      12.920  17.048   5.677  1.00  0.00    +0.000 C 
ATOM     47  F8  UNL A   1      13.184  15.809   6.116  1.00  0.00    +0.000 F 
ATOM     48  C34 UNL A   1      13.775  18.092   5.996  1.00  0.00    +0.000 C 
ATOM     49  F9  UNL A   1      14.871  17.861   6.732  1.00  0.00    +0.000 F 
ATOM     50  C35 UNL A   1      13.501  19.380   5.547  1.00  0.00    +0.000 C 
ATOM     51  F10 UNL A   1      14.345  20.371   5.868  1.00  0.00    +0.000 F 
ENDBRANCH   40   41
BRANCH   55   56
ATOM     65  C44 UNL A   1       9.578  25.659   8.330  1.00  0.00    +0.000 C 
ATOM     66  F15 UNL A   1      10.906  25.814   8.427  1.00  0.00    +0.000 F 
ATOM     56  C39 UNL A   1       9.002  25.279   7.110  1.00  0.00    +0.000 C 
ATOM     57  C40 UNL A   1       7.611  25.120   7.063  1.00  0.00    +0.000 C 
ATOM     58  F11 UNL A   1       7.016  24.774   5.912  1.00  0.00    +0.000 F 
ATOM     59  C41 UNL A   1       6.825  25.339   8.191  1.00  0.00    +0.000 C 
ATOM     60  F12 UNL A   1       5.493  25.203   8.114  1.00  0.00    +0.000 F 
ATOM     61  C42 UNL A   1       7.416  25.698   9.394  1.00  0.00    +0.000 C 
ATOM     62  F13 UNL A   1       6.660  25.892  10.483  1.00  0.00    +0.000 F 
ATOM     63  C43 UNL A   1       8.792  25.856   9.464  1.00  0.00    +0.000 C 
ATOM     64  F14 UNL A   1       9.369  26.188  10.627  1.00  0.00    +0.000 F 
ENDBRANCH   55   56
TORSDOF 19
ENDMDL
MODEL 10
REMARK VINA RESULT:      -8.3     67.031     72.335
ROOT
ATOM     19  C15 UNL A   1      15.172  54.925   4.522  1.00  0.00    +0.000 C 
ATOM     20  C16 UNL A   1      15.671  55.202   3.134  1.00  0.00    +0.000 C 
ATOM     21  N3  UNL A   1      15.906  54.367   2.154  1.00  0.00    +0.000 N 
ATOM     22  C17 UNL A   1      16.270  55.156   1.071  1.00  0.00    +0.000 C 
ATOM     23  C18 UNL A   1      16.646  54.763  -0.169  1.00  0.00    +0.000 C 
ATOM     35  C25 UNL A   1      16.766  53.389  -0.578  1.00  0.00    +0.000 C 
ATOM     36  C26 UNL A   1      17.209  52.884  -1.787  1.00  0.00    +0.000 C 
ATOM     37  C27 UNL A   1      17.119  51.488  -1.735  1.00  0.00    +0.000 C 
ATOM     38  C28 UNL A   1      16.658  51.124  -0.479  1.00  0.00    +0.000 C 
ATOM     39  N4  UNL A   1      16.442  52.300   0.218  1.00  0.00    +0.000 N 
ATOM     40  C29 UNL A   1      16.434  49.801   0.044  1.00  0.00    +0.000 C 
ATOM     52  C36 UNL A   1      15.975  49.519   1.288  1.00  0.00    +0.000 C 
ATOM     53  N5  UNL A   1      15.647  50.396   2.313  1.00  0.00    +0.000 N 
ATOM     54  C37 UNL A   1      15.264  49.648   3.319  1.00  0.00    +0.000 C 
ATOM     55  C38 UNL A   1      14.818  50.068   4.692  1.00  0.00    +0.000 C 
ATOM     67  C45 UNL A   1      14.862  51.369   5.034  1.00  0.00    +0.000 C 
ATOM     68  C46 UNL A   1      14.442  51.923   6.318  1.00  0.00    +0.000 C 
ATOM     69  C47 UNL A   1      14.514  53.263   6.262  1.00  0.00    +0.000 C 
ATOM     70  C48 UNL A   1      15.024  53.658   4.950  1.00  0.00    +0.000 C 
ATOM     71  N6  UNL A   1      15.257  52.466   4.307  1.00  0.00    +0.000 N 
ATOM     72  C49 UNL A   1      15.275  48.206   3.033  1.00  0.00    +0.000 C 
ATOM     73  C50 UNL A   1      15.741  48.181   1.791  1.00  0.00    +0.000 C 
ATOM     74  C51 UNL A   1      16.190  56.535   1.504  1.00  0.00    +0.000 C 
ATOM     75  C52 UNL A   1      15.898  56.614   2.793  1.00  0.00    +0.000 C 
ATOM    112  H21 UNL A   1      17.549  53.439  -2.587  1.00  0.00    +0.000 H 
ATOM    113  H22 UNL A   1      17.353  50.840  -2.503  1.00  0.00    +0.000 H 
ATOM    114  H23 UNL A   1      16.106  52.356   1.143  1.00  0.00    +0.000 H 
ATOM    115  H24 UNL A   1      14.141  51.373   7.138  1.00  0.00    +0.000 H 
ATOM    116  H25 UNL A   1      14.252  53.909   7.023  1.00  0.00    +0.000 H 
ATOM    117  H26 UNL A   1      15.664  52.405   3.413  1.00  0.00    +0.000 H 
ATOM    118  H27 UNL A   1      14.994  47.420   3.639  1.00  0.00    +0.000 H 
ATOM    119  H28 UNL A   1      15.916  47.319   1.253  1.00  0.00    +0.000 H 
ATOM    120  H29 UNL A   1      16.341  57.350   0.888  1.00  0.00    +0.000 H 
ATOM    121  H30 UNL A   1      15.842  57.448   3.399  1.00  0.00    +0.000 H 
ENDROOT
BRANCH   19   18
ATOM     76  C53 UNL A   1      15.641  56.615   6.279  1.00  0.00    +0.000 C 
ATOM     77  C54 UNL A   1      15.257  57.661   7.111  1.00  0.00    +0.000 C 
ATOM    110  H19 UNL A   1      12.094  58.036   6.044  1.00  0.00    +0.000 H 
ATOM     15  C11 UNL A   1      13.982  58.217   6.978  1.00  0.00    +0.000 C 
ATOM     16  C12 UNL A   1      13.049  57.651   6.104  1.00  0.00    +0.000 C 
ATOM     17  C13 UNL A   1      13.418  56.560   5.312  1.00  0.00    +0.000 C 
ATOM    111  H20 UNL A   1      12.726  56.125   4.682  1.00  0.00    +0.000 H 
ATOM     18  C14 UNL A   1      14.725  56.056   5.373  1.00  0.00    +0.000 C 
ATOM    122  H31 UNL A   1      16.604  56.248   6.329  1.00  0.00    +0.000 H 
ATOM    123  H32 UNL A   1      15.910  58.025   7.823  1.00  0.00    +0.000 H 
BRANCH   15   13
ATOM     13  C10 UNL A   1      13.614  59.425   7.743  1.00  0.00    +0.000 C 
ATOM     14  O2  UNL A   1      13.939  60.534   7.330  1.00  0.00    +0.000 O 
BRANCH   13   12
ATOM     12  N2  UNL A   1      12.925  59.288   8.922  1.00  0.00    +0.000 N 
ATOM    109  H18 UNL A   1      13.340  59.706   9.713  1.00  0.00    +0.000 H 
BRANCH   12   11
ATOM     11  C9  UNL A   1      11.662  58.605   9.158  1.00  0.00    +0.000 C 
ATOM    108  H17 UNL A   1      11.411  58.730  10.191  1.00  0.00    +0.000 H 
ATOM    107  H16 UNL A   1      11.779  57.571   8.907  1.00  0.00    +0.000 H 
BRANCH   11   10
ATOM    105  H14 UNL A   1      10.203  60.096   8.792  1.00  0.00    +0.000 H 
ATOM     10  C8  UNL A   1      10.524  59.187   8.328  1.00  0.00    +0.000 C 
ATOM    106  H15 UNL A   1      10.912  59.332   7.342  1.00  0.00    +0.000 H 
BRANCH   10    9
ATOM      9  C7  UNL A   1       9.307  58.271   8.185  1.00  0.00    +0.000 C 
ATOM    103  H12 UNL A   1       8.459  58.781   8.591  1.00  0.00    +0.000 H 
ATOM    104  H13 UNL A   1       9.216  58.058   7.140  1.00  0.00    +0.000 H 
BRANCH    9    8
ATOM    101  H10 UNL A   1       9.924  56.242   8.220  1.00  0.00    +0.000 H 
ATOM    102  H11 UNL A   1       9.969  57.100   9.792  1.00  0.00    +0.000 H 
ATOM      8  C6  UNL A   1       9.429  56.916   8.888  1.00  0.00    +0.000 C 
BRANCH    8    7
ATOM     99  H8  UNL A   1       8.126  56.120  10.371  1.00  0.00    +0.000 H 
ATOM    100  H9  UNL A   1       7.325  56.942   9.004  1.00  0.00    +0.000 H 
ATOM      7  C5  UNL A   1       8.101  56.272   9.312  1.00  0.00    +0.000 C 
BRANCH    7    6
ATOM     97  H6  UNL A   1       6.752  54.747   8.659  1.00  0.00    +0.000 H 
ATOM     98  H7  UNL A   1       8.161  54.956   7.633  1.00  0.00    +0.000 H 
ATOM      6  C4  UNL A   1       7.807  54.924   8.643  1.00  0.00    +0.000 C 
BRANCH    6    5
ATOM      5  N1  UNL A   1       8.482  53.849   9.342  1.00  0.00    +0.000 N 
ATOM     96  H5  UNL A   1       8.327  53.809  10.313  1.00  0.00    +0.000 H 
BRANCH    5    3
ATOM      3  C3  UNL A   1       9.306  52.886   8.831  1.00  0.00    +0.000 C 
ATOM      4  O1  UNL A   1       9.107  51.730   9.212  1.00  0.00    +0.000 O 
BRANCH    3    2
ATOM      2  C2  UNL A   1      10.460  53.279   7.883  1.00  0.00    +0.000 C 
ATOM     95  H4  UNL A   1      10.184  54.150   7.326  1.00  0.00    +0.000 H 
BRANCH    2    1
ATOM      1  C1  UNL A   1      10.705  52.155   6.870  1.00  0.00    +0.000 C 
ATOM     92  H1  UNL A   1       9.773  51.695   6.616  1.00  0.00    +0.000 H 
ATOM     93  H2  UNL A   1      11.359  51.424   7.299  1.00  0.00    +0.000 H 
ATOM     94  H3  UNL A   1      11.154  52.562   5.988  1.00  0.00    +0.000 H 
ENDBRANCH    2    1
BRANCH    2   78
ATOM    132  H41 UNL A   1      11.776  51.907   9.806  1.00  0.00    +0.000 H 
ATOM     78  C55 UNL A   1      11.719  53.689   8.666  1.00  0.00    +0.000 C 
ATOM     79  C56 UNL A   1      12.355  54.928   8.499  1.00  0.00    +0.000 C 
ATOM     80  C57 UNL A   1      13.537  55.228   9.180  1.00  0.00    +0.000 C 
ATOM     81  C58 UNL A   1      14.115  54.287  10.029  1.00  0.00    +0.000 C 
ATOM     82  C59 UNL A   1      13.496  53.050  10.231  1.00  0.00    +0.000 C 
ATOM     91  C67 UNL A   1      12.276  52.784   9.593  1.00  0.00    +0.000 C 
ATOM    124  H33 UNL A   1      11.944  55.628   7.862  1.00  0.00    +0.000 H 
ATOM    125  H34 UNL A   1      13.984  56.149   9.054  1.00  0.00    +0.000 H 
ATOM    126  H35 UNL A   1      15.001  54.503  10.510  1.00  0.00    +0.000 H 
BRANCH   82   83
ATOM     83  C60 UNL A   1      14.157  52.072  11.141  1.00  0.00    +0.000 C 
ATOM     84  O3  UNL A   1      13.615  51.770  12.203  1.00  0.00    +0.000 O 
BRANCH   83   85
ATOM    129  H38 UNL A   1      18.777  49.688  10.082  1.00  0.00    +0.000 H 
ATOM    130  H39 UNL A   1      17.145  49.955   8.308  1.00  0.00    +0.000 H 
ATOM    131  H40 UNL A   1      15.032  51.071   8.753  1.00  0.00    +0.000 H 
ATOM     85  C61 UNL A   1      15.441  51.414  10.801  1.00  0.00    +0.000 C 
ATOM     86  C62 UNL A   1      16.402  51.290  11.812  1.00  0.00    +0.000 C 
ATOM     87  C63 UNL A   1      17.617  50.661  11.549  1.00  0.00    +0.000 C 
ATOM     88  C64 UNL A   1      17.883  50.165  10.272  1.00  0.00    +0.000 C 
ATOM     89  C65 UNL A   1      16.941  50.314   9.253  1.00  0.00    +0.000 C 
ATOM     90  C66 UNL A   1      15.722  50.947   9.511  1.00  0.00    +0.000 C 
ATOM    127  H36 UNL A   1      16.209  51.666  12.754  1.00  0.00    +0.000 H 
ATOM    128  H37 UNL A   1      18.320  50.560  12.298  1.00  0.00    +0.000 H 
ENDBRANCH   83   85
ENDBRANCH   82   83
ENDBRANCH    2   78
ENDBRANCH    3    2
ENDBRANCH    5    3
ENDBRANCH    6    5
ENDBRANCH    7    6
ENDBRANCH    8    7
ENDBRANCH    9    8
ENDBRANCH   10    9
ENDBRANCH   11   10
ENDBRANCH   12   11
ENDBRANCH   13   12
ENDBRANCH   15   13
ENDBRANCH   19   18
BRANCH   23   24
ATOM     33  C24 UNL A   1      18.242  56.358  -1.290  1.00  0.00    +0.000 C 
ATOM     34  F5  UNL A   1      19.228  55.899  -0.505  1.00  0.00    +0.000 F 
ATOM     24  C19 UNL A   1      16.943  55.839  -1.171  1.00  0.00    +0.000 C 
ATOM     25  C20 UNL A   1      15.949  56.359  -2.014  1.00  0.00    +0.000 C 
ATOM     26  F1  UNL A   1      14.696  55.888  -1.950  1.00  0.00    +0.000 F 
ATOM     27  C21 UNL A   1      16.253  57.330  -2.966  1.00  0.00    +0.000 C 
ATOM     28  F2  UNL A   1      15.301  57.766  -3.802  1.00  0.00    +0.000 F 
ATOM     29  C22 UNL A   1      17.544  57.826  -3.066  1.00  0.00    +0.000 C 
ATOM     30  F3  UNL A   1      17.836  58.757  -3.985  1.00  0.00    +0.000 F 
ATOM     31  C23 UNL A   1      18.536  57.350  -2.222  1.00  0.00    +0.000 C 
ATOM     32  F4  UNL A   1      19.781  57.837  -2.309  1.00  0.00    +0.000 F 
ENDBRANCH   23   24
BRANCH   40   41
ATOM     41  C30 UNL A   1      16.758  48.644  -0.853  1.00  0.00    +0.000 C 
ATOM     42  C31 UNL A   1      15.878  48.227  -1.861  1.00  0.00    +0.000 C 
ATOM     43  F6  UNL A   1      14.673  48.803  -1.984  1.00  0.00    +0.000 F 
ATOM     44  C32 UNL A   1      16.229  47.202  -2.735  1.00  0.00    +0.000 C 
ATOM     45  F7  UNL A   1      15.365  46.802  -3.677  1.00  0.00    +0.000 F 
ATOM     46  C33 UNL A   1      17.472  46.594  -2.632  1.00  0.00    +0.000 C 
ATOM     47  F8  UNL A   1      17.815  45.619  -3.485  1.00  0.00    +0.000 F 
ATOM     48  C34 UNL A   1      18.359  46.993  -1.644  1.00  0.00    +0.000 C 
ATOM     49  F9  UNL A   1      19.563  46.414  -1.549  1.00  0.00    +0.000 F 
ATOM     50  C35 UNL A   1      18.002  48.001  -0.754  1.00  0.00    +0.000 C 
ATOM     51  F10 UNL A   1      18.879  48.370   0.192  1.00  0.00    +0.000 F 
ENDBRANCH   40   41
BRANCH   55   56
ATOM     65  C44 UNL A   1      15.252  48.446   6.568  1.00  0.00    +0.000 C 
ATOM     66  F15 UNL A   1      16.552  48.772   6.545  1.00  0.00    +0.000 F 
ATOM     56  C39 UNL A   1      14.355  49.069   5.689  1.00  0.00    +0.000 C 
ATOM     57  C40 UNL A   1      13.009  48.686   5.746  1.00  0.00    +0.000 C 
ATOM     58  F11 UNL A   1      12.114  49.269   4.935  1.00  0.00    +0.000 F 
ATOM     59  C41 UNL A   1      12.574  47.720   6.649  1.00  0.00    +0.000 C 
ATOM     60  F12 UNL A   1      11.277  47.387   6.699  1.00  0.00    +0.000 F 
ATOM     61  C42 UNL A   1      13.481  47.103   7.499  1.00  0.00    +0.000 C 
ATOM     62  F13 UNL A   1      13.065  46.161   8.357  1.00  0.00    +0.000 F 
ATOM     63  C43 UNL A   1      14.820  47.463   7.456  1.00  0.00    +0.000 C 
ATOM     64  F14 UNL A   1      15.701  46.859   8.264  1.00  0.00    +0.000 F 
ENDBRANCH   55   56
TORSDOF 19
ENDMDL
