MODEL 1
REMARK VINA RESULT:     -10.0      0.000      0.000
ROOT
ATOM    129  H37 UNL A   1      53.397  19.347   8.924  1.00  0.00    +0.000 H 
ATOM     34  C27 UNL A   1      52.617  20.533  11.404  1.00  0.00    +0.000 C 
ATOM     35  C28 UNL A   1      53.923  19.868  11.068  1.00  0.00    +0.000 C 
ATOM     36  N3  UNL A   1      54.983  19.699  11.821  1.00  0.00    +0.000 N 
ATOM     37  C29 UNL A   1      55.896  18.997  11.047  1.00  0.00    +0.000 C 
ATOM     38  C30 UNL A   1      57.151  18.600  11.372  1.00  0.00    +0.000 C 
ATOM     50  C37 UNL A   1      57.790  18.871  12.634  1.00  0.00    +0.000 C 
ATOM     51  C38 UNL A   1      59.078  18.556  13.035  1.00  0.00    +0.000 C 
ATOM     52  C39 UNL A   1      59.241  18.981  14.359  1.00  0.00    +0.000 C 
ATOM     53  C40 UNL A   1      58.071  19.599  14.768  1.00  0.00    +0.000 C 
ATOM     54  N4  UNL A   1      57.188  19.521  13.700  1.00  0.00    +0.000 N 
ATOM     55  C41 UNL A   1      57.777  20.215  16.036  1.00  0.00    +0.000 C 
ATOM     67  C48 UNL A   1      56.604  20.814  16.355  1.00  0.00    +0.000 C 
ATOM     68  N5  UNL A   1      55.465  20.970  15.580  1.00  0.00    +0.000 N 
ATOM     69  C49 UNL A   1      54.596  21.590  16.339  1.00  0.00    +0.000 C 
ATOM     70  C50 UNL A   1      53.199  22.034  16.011  1.00  0.00    +0.000 C 
ATOM     82  C57 UNL A   1      52.688  21.753  14.798  1.00  0.00    +0.000 C 
ATOM     83  C58 UNL A   1      51.355  22.129  14.341  1.00  0.00    +0.000 C 
ATOM     84  C59 UNL A   1      51.181  21.679  13.089  1.00  0.00    +0.000 C 
ATOM     85  C60 UNL A   1      52.412  21.028  12.639  1.00  0.00    +0.000 C 
ATOM     86  N6  UNL A   1      53.238  21.084  13.733  1.00  0.00    +0.000 N 
ATOM     87  C61 UNL A   1      55.080  21.885  17.693  1.00  0.00    +0.000 C 
ATOM     88  C62 UNL A   1      56.322  21.425  17.639  1.00  0.00    +0.000 C 
ATOM     89  C63 UNL A   1      55.264  18.753   9.768  1.00  0.00    +0.000 C 
ATOM     90  C64 UNL A   1      54.062  19.311   9.713  1.00  0.00    +0.000 C 
ATOM    120  H28 UNL A   1      59.793  18.088  12.457  1.00  0.00    +0.000 H 
ATOM    121  H29 UNL A   1      60.089  18.855  14.933  1.00  0.00    +0.000 H 
ATOM    122  H30 UNL A   1      56.269  19.875  13.701  1.00  0.00    +0.000 H 
ATOM    123  H31 UNL A   1      50.658  22.656  14.891  1.00  0.00    +0.000 H 
ATOM    124  H32 UNL A   1      50.318  21.777  12.533  1.00  0.00    +0.000 H 
ATOM    125  H33 UNL A   1      54.137  20.684  13.752  1.00  0.00    +0.000 H 
ATOM    126  H34 UNL A   1      54.584  22.332  18.480  1.00  0.00    +0.000 H 
ATOM    127  H35 UNL A   1      57.002  21.493  18.413  1.00  0.00    +0.000 H 
ATOM    128  H36 UNL A   1      55.691  18.214   9.000  1.00  0.00    +0.000 H 
ENDROOT
BRANCH   34   33
ATOM     33  C26 UNL A   1      51.553  20.700  10.379  1.00  0.00    +0.000 C 
ATOM    130  H38 UNL A   1      50.637  18.814  10.665  1.00  0.00    +0.000 H 
ATOM    131  H39 UNL A   1      49.012  19.087   8.881  1.00  0.00    +0.000 H 
ATOM    118  H26 UNL A   1      50.340  23.031   8.284  1.00  0.00    +0.000 H 
ATOM    119  H27 UNL A   1      52.137  22.668   9.866  1.00  0.00    +0.000 H 
ATOM     91  C65 UNL A   1      50.622  19.685  10.112  1.00  0.00    +0.000 C 
ATOM     92  C66 UNL A   1      49.672  19.850   9.099  1.00  0.00    +0.000 C 
ATOM     30  C23 UNL A   1      49.617  21.049   8.383  1.00  0.00    +0.000 C 
ATOM     31  C24 UNL A   1      50.459  22.108   8.729  1.00  0.00    +0.000 C 
ATOM     32  C25 UNL A   1      51.459  21.914   9.677  1.00  0.00    +0.000 C 
BRANCH   30    2
ATOM      1  O1  UNL A   1      48.152  22.255   7.004  1.00  0.00    +0.000 O 
ATOM      2  C1  UNL A   1      48.666  21.169   7.254  1.00  0.00    +0.000 C 
BRANCH    2    3
ATOM      3  N1  UNL A   1      48.334  20.058   6.516  1.00  0.00    +0.000 N 
ATOM     93  H1  UNL A   1      47.645  19.478   6.914  1.00  0.00    +0.000 H 
BRANCH    3    4
ATOM      4  C2  UNL A   1      48.852  19.615   5.232  1.00  0.00    +0.000 C 
ATOM     94  H2  UNL A   1      49.129  20.478   4.663  1.00  0.00    +0.000 H 
ATOM     95  H3  UNL A   1      48.079  19.049   4.756  1.00  0.00    +0.000 H 
BRANCH    4    5
ATOM     97  H5  UNL A   1      50.083  18.374   6.371  1.00  0.00    +0.000 H 
ATOM      5  C3  UNL A   1      50.068  18.706   5.354  1.00  0.00    +0.000 C 
ATOM     96  H4  UNL A   1      49.962  17.916   4.643  1.00  0.00    +0.000 H 
BRANCH    5    6
ATOM     98  H6  UNL A   1      51.235  20.356   4.726  1.00  0.00    +0.000 H 
ATOM     99  H7  UNL A   1      51.948  18.733   4.443  1.00  0.00    +0.000 H 
ATOM      6  C4  UNL A   1      51.419  19.377   5.115  1.00  0.00    +0.000 C 
BRANCH    6    7
ATOM    100  H8  UNL A   1      51.703  19.454   7.213  1.00  0.00    +0.000 H 
ATOM    101  H9  UNL A   1      52.814  20.466   6.228  1.00  0.00    +0.000 H 
ATOM      7  C5  UNL A   1      52.322  19.523   6.343  1.00  0.00    +0.000 C 
BRANCH    7    8
ATOM    102  H10 UNL A   1      53.039  17.529   6.234  1.00  0.00    +0.000 H 
ATOM    103  H11 UNL A   1      53.786  18.566   7.495  1.00  0.00    +0.000 H 
ATOM      8  C6  UNL A   1      53.443  18.488   6.484  1.00  0.00    +0.000 C 
BRANCH    8    9
ATOM      9  C7  UNL A   1      54.673  18.721   5.611  1.00  0.00    +0.000 C 
ATOM    105  H13 UNL A   1      54.517  19.625   5.060  1.00  0.00    +0.000 H 
ATOM    104  H12 UNL A   1      55.535  18.793   6.241  1.00  0.00    +0.000 H 
BRANCH    9   10
ATOM     10  N2  UNL A   1      54.881  17.650   4.657  1.00  0.00    +0.000 N 
ATOM    106  H14 UNL A   1      55.252  17.917   3.786  1.00  0.00    +0.000 H 
BRANCH   10   11
ATOM     11  C8  UNL A   1      54.625  16.311   4.814  1.00  0.00    +0.000 C 
ATOM     12  O2  UNL A   1      55.253  15.655   5.640  1.00  0.00    +0.000 O 
BRANCH   11   13
ATOM    107  H15 UNL A   1      52.126  16.181   5.560  1.00  0.00    +0.000 H 
ATOM     13  C9  UNL A   1      53.527  15.672   4.064  1.00  0.00    +0.000 C 
ATOM     14  C10 UNL A   1      52.254  15.713   4.650  1.00  0.00    +0.000 C 
ATOM     15  C11 UNL A   1      51.153  15.125   4.014  1.00  0.00    +0.000 C 
ATOM    115  H23 UNL A   1      50.564  14.065   2.286  1.00  0.00    +0.000 H 
ATOM    116  H24 UNL A   1      52.773  13.946   1.298  1.00  0.00    +0.000 H 
ATOM     26  C20 UNL A   1      51.364  14.491   2.779  1.00  0.00    +0.000 C 
ATOM     27  C21 UNL A   1      52.638  14.426   2.202  1.00  0.00    +0.000 C 
ATOM     28  C22 UNL A   1      53.723  15.008   2.851  1.00  0.00    +0.000 C 
BRANCH   15   16
ATOM    108  H16 UNL A   1      49.702  15.320   5.590  1.00  0.00    +0.000 H 
ATOM     16  C12 UNL A   1      49.790  15.128   4.580  1.00  0.00    +0.000 C 
BRANCH   16   17
ATOM     17  C13 UNL A   1      48.654  14.903   3.899  1.00  0.00    +0.000 C 
ATOM    109  H17 UNL A   1      48.702  14.340   3.036  1.00  0.00    +0.000 H 
BRANCH   17   18
ATOM    110  H18 UNL A   1      46.601  13.600   5.107  1.00  0.00    +0.000 H 
ATOM    112  H20 UNL A   1      44.004  16.881   5.519  1.00  0.00    +0.000 H 
ATOM     18  C14 UNL A   1      47.344  15.422   4.323  1.00  0.00    +0.000 C 
ATOM     19  C15 UNL A   1      46.401  14.602   4.958  1.00  0.00    +0.000 C 
ATOM    114  H22 UNL A   1      47.759  17.403   3.701  1.00  0.00    +0.000 H 
ATOM     20  C16 UNL A   1      45.190  15.143   5.389  1.00  0.00    +0.000 C 
ATOM     22  C17 UNL A   1      44.905  16.490   5.203  1.00  0.00    +0.000 C 
ATOM     23  C18 UNL A   1      45.847  17.304   4.588  1.00  0.00    +0.000 C 
ATOM     25  C19 UNL A   1      47.065  16.785   4.150  1.00  0.00    +0.000 C 
BRANCH   20   21
ATOM     21  O3  UNL A   1      44.253  14.374   6.014  1.00  0.00    +0.000 O 
ATOM    111  H19 UNL A   1      43.712  14.745   6.681  1.00  0.00    +0.000 H 
ENDBRANCH   20   21
BRANCH   23   24
ATOM    113  H21 UNL A   1      44.668  18.880   4.210  1.00  0.00    +0.000 H 
ATOM     24  O4  UNL A   1      45.543  18.624   4.430  1.00  0.00    +0.000 O 
ENDBRANCH   23   24
ENDBRANCH   17   18
ENDBRANCH   16   17
ENDBRANCH   15   16
BRANCH   28   29
ATOM    117  H25 UNL A   1      55.698  14.658   2.817  1.00  0.00    +0.000 H 
ATOM     29  O5  UNL A   1      54.968  14.927   2.295  1.00  0.00    +0.000 O 
ENDBRANCH   28   29
ENDBRANCH   11   13
ENDBRANCH   10   11
ENDBRANCH    9   10
ENDBRANCH    8    9
ENDBRANCH    7    8
ENDBRANCH    6    7
ENDBRANCH    5    6
ENDBRANCH    4    5
ENDBRANCH    3    4
ENDBRANCH    2    3
ENDBRANCH   30    2
ENDBRANCH   34   33
BRANCH   38   39
ATOM     39  C31 UNL A   1      57.918  17.813  10.350  1.00  0.00    +0.000 C 
ATOM     40  C32 UNL A   1      57.872  16.412  10.308  1.00  0.00    +0.000 C 
ATOM     41  F1  UNL A   1      57.175  15.732  11.230  1.00  0.00    +0.000 F 
ATOM     42  C33 UNL A   1      58.570  15.700   9.334  1.00  0.00    +0.000 C 
ATOM     43  F2  UNL A   1      58.543  14.361   9.338  1.00  0.00    +0.000 F 
ATOM     44  C34 UNL A   1      59.301  16.375   8.367  1.00  0.00    +0.000 C 
ATOM     45  F3  UNL A   1      59.965  15.689   7.427  1.00  0.00    +0.000 F 
ATOM     46  C35 UNL A   1      59.347  17.760   8.379  1.00  0.00    +0.000 C 
ATOM     47  F4  UNL A   1      60.043  18.415   7.438  1.00  0.00    +0.000 F 
ATOM     48  C36 UNL A   1      58.671  18.474   9.367  1.00  0.00    +0.000 C 
ATOM     49  F5  UNL A   1      58.742  19.813   9.356  1.00  0.00    +0.000 F 
ENDBRANCH   38   39
BRANCH   55   56
ATOM     65  C47 UNL A   1      59.683  21.341  17.239  1.00  0.00    +0.000 C 
ATOM     66  F10 UNL A   1      59.516  22.421  16.462  1.00  0.00    +0.000 F 
ATOM     56  C42 UNL A   1      58.851  20.221  17.082  1.00  0.00    +0.000 C 
ATOM     57  C43 UNL A   1      59.069  19.116  17.917  1.00  0.00    +0.000 C 
ATOM     58  F6  UNL A   1      58.289  18.029  17.815  1.00  0.00    +0.000 F 
ATOM     59  C44 UNL A   1      60.063  19.141  18.892  1.00  0.00    +0.000 C 
ATOM     60  F7  UNL A   1      60.221  18.094  19.712  1.00  0.00    +0.000 F 
ATOM     61  C45 UNL A   1      60.876  20.257  19.027  1.00  0.00    +0.000 C 
ATOM     62  F8  UNL A   1      61.831  20.281  19.968  1.00  0.00    +0.000 F 
ATOM     63  C46 UNL A   1      60.692  21.352  18.197  1.00  0.00    +0.000 C 
ATOM     64  F9  UNL A   1      61.483  22.427  18.322  1.00  0.00    +0.000 F 
ENDBRANCH   55   56
BRANCH   70   71
ATOM     71  C51 UNL A   1      52.386  22.792  16.995  1.00  0.00    +0.000 C 
ATOM     72  C52 UNL A   1      52.380  24.192  16.997  1.00  0.00    +0.000 C 
ATOM     73  F11 UNL A   1      53.143  24.866  16.124  1.00  0.00    +0.000 F 
ATOM     74  C53 UNL A   1      51.615  24.906  17.916  1.00  0.00    +0.000 C 
ATOM     75  F12 UNL A   1      51.654  26.246  17.921  1.00  0.00    +0.000 F 
ATOM     76  C54 UNL A   1      50.821  24.233  18.832  1.00  0.00    +0.000 C 
ATOM     77  F13 UNL A   1      50.078  24.920  19.710  1.00  0.00    +0.000 F 
ATOM     78  C55 UNL A   1      50.803  22.846  18.841  1.00  0.00    +0.000 C 
ATOM     79  F14 UNL A   1      50.024  22.192  19.715  1.00  0.00    +0.000 F 
ATOM     80  C56 UNL A   1      51.588  22.132  17.941  1.00  0.00    +0.000 C 
ATOM     81  F15 UNL A   1      51.557  20.792  17.976  1.00  0.00    +0.000 F 
ENDBRANCH   70   71
TORSDOF 21
ENDMDL
MODEL 2
REMARK VINA RESULT:      -9.8     47.250     52.263
ROOT
ATOM    129  H37 UNL A   1      15.051  56.360   4.656  1.00  0.00    +0.000 H 
ATOM     34  C27 UNL A   1      13.840  53.784   4.910  1.00  0.00    +0.000 C 
ATOM     35  C28 UNL A   1      14.846  54.236   3.888  1.00  0.00    +0.000 C 
ATOM     36  N3  UNL A   1      15.393  53.556   2.909  1.00  0.00    +0.000 N 
ATOM     37  C29 UNL A   1      16.223  54.446   2.240  1.00  0.00    +0.000 C 
ATOM     38  C30 UNL A   1      17.021  54.215   1.170  1.00  0.00    +0.000 C 
ATOM     50  C37 UNL A   1      17.168  52.936   0.523  1.00  0.00    +0.000 C 
ATOM     51  C38 UNL A   1      17.994  52.592  -0.534  1.00  0.00    +0.000 C 
ATOM     52  C39 UNL A   1      17.767  51.248  -0.849  1.00  0.00    +0.000 C 
ATOM     53  C40 UNL A   1      16.832  50.741   0.040  1.00  0.00    +0.000 C 
ATOM     54  N4  UNL A   1      16.471  51.789   0.873  1.00  0.00    +0.000 N 
ATOM     55  C41 UNL A   1      16.306  49.404   0.123  1.00  0.00    +0.000 C 
ATOM     67  C48 UNL A   1      15.397  48.982   1.035  1.00  0.00    +0.000 C 
ATOM     68  N5  UNL A   1      14.787  49.699   2.054  1.00  0.00    +0.000 N 
ATOM     69  C49 UNL A   1      13.972  48.861   2.644  1.00  0.00    +0.000 C 
ATOM     70  C50 UNL A   1      13.070  49.089   3.823  1.00  0.00    +0.000 C 
ATOM     82  C57 UNL A   1      13.009  50.314   4.377  1.00  0.00    +0.000 C 
ATOM     83  C58 UNL A   1      12.187  50.677   5.527  1.00  0.00    +0.000 C 
ATOM     84  C59 UNL A   1      12.369  51.978   5.798  1.00  0.00    +0.000 C 
ATOM     85  C60 UNL A   1      13.359  52.527   4.871  1.00  0.00    +0.000 C 
ATOM     86  N6  UNL A   1      13.655  51.478   4.039  1.00  0.00    +0.000 N 
ATOM     87  C61 UNL A   1      13.959  47.516   2.056  1.00  0.00    +0.000 C 
ATOM     88  C62 UNL A   1      14.873  47.633   1.102  1.00  0.00    +0.000 C 
ATOM     89  C63 UNL A   1      16.097  55.722   2.910  1.00  0.00    +0.000 C 
ATOM     90  C64 UNL A   1      15.295  55.635   3.963  1.00  0.00    +0.000 C 
ATOM    120  H28 UNL A   1      18.662  53.220  -1.008  1.00  0.00    +0.000 H 
ATOM    121  H29 UNL A   1      18.219  50.722  -1.613  1.00  0.00    +0.000 H 
ATOM    122  H30 UNL A   1      15.815  51.728   1.605  1.00  0.00    +0.000 H 
ATOM    123  H31 UNL A   1      11.568  50.037   6.047  1.00  0.00    +0.000 H 
ATOM    124  H32 UNL A   1      11.887  52.507   6.541  1.00  0.00    +0.000 H 
ATOM    125  H33 UNL A   1      14.270  51.551   3.274  1.00  0.00    +0.000 H 
ATOM    126  H34 UNL A   1      13.389  46.695   2.316  1.00  0.00    +0.000 H 
ATOM    127  H35 UNL A   1      15.172  46.860   0.487  1.00  0.00    +0.000 H 
ATOM    128  H36 UNL A   1      16.569  56.588   2.608  1.00  0.00    +0.000 H 
ENDROOT
BRANCH   34   33
ATOM     33  C26 UNL A   1      13.395  54.689   6.003  1.00  0.00    +0.000 C 
ATOM    130  H38 UNL A   1      14.975  54.252   7.342  1.00  0.00    +0.000 H 
ATOM    131  H39 UNL A   1      14.121  55.638   9.145  1.00  0.00    +0.000 H 
ATOM    118  H26 UNL A   1      11.048  57.012   6.626  1.00  0.00    +0.000 H 
ATOM    119  H27 UNL A   1      11.732  55.428   4.925  1.00  0.00    +0.000 H 
ATOM     91  C65 UNL A   1      14.099  54.784   7.212  1.00  0.00    +0.000 C 
ATOM     92  C66 UNL A   1      13.621  55.599   8.243  1.00  0.00    +0.000 C 
ATOM     30  C23 UNL A   1      12.463  56.359   8.051  1.00  0.00    +0.000 C 
ATOM     31  C24 UNL A   1      11.829  56.362   6.807  1.00  0.00    +0.000 C 
ATOM     32  C25 UNL A   1      12.256  55.489   5.812  1.00  0.00    +0.000 C 
BRANCH   30    2
ATOM      1  O1  UNL A   1      12.056  58.361   9.202  1.00  0.00    +0.000 O 
ATOM      2  C1  UNL A   1      11.922  57.141   9.185  1.00  0.00    +0.000 C 
BRANCH    2    3
ATOM      3  N1  UNL A   1      11.306  56.497  10.232  1.00  0.00    +0.000 N 
ATOM     93  H1  UNL A   1      11.398  56.935  11.109  1.00  0.00    +0.000 H 
BRANCH    3    4
ATOM      4  C2  UNL A   1      10.538  55.262  10.232  1.00  0.00    +0.000 C 
ATOM     94  H2  UNL A   1      10.324  54.998   9.218  1.00  0.00    +0.000 H 
ATOM     95  H3  UNL A   1       9.649  55.442  10.799  1.00  0.00    +0.000 H 
BRANCH    4    5
ATOM     97  H5  UNL A   1      10.536  53.592  11.481  1.00  0.00    +0.000 H 
ATOM      5  C3  UNL A   1      11.268  54.100  10.891  1.00  0.00    +0.000 C 
ATOM     96  H4  UNL A   1      11.695  53.497  10.118  1.00  0.00    +0.000 H 
BRANCH    5    6
ATOM     98  H6  UNL A   1      12.103  54.160  12.835  1.00  0.00    +0.000 H 
ATOM     99  H7  UNL A   1      12.498  55.546  11.764  1.00  0.00    +0.000 H 
ATOM      6  C4  UNL A   1      12.388  54.486  11.856  1.00  0.00    +0.000 C 
BRANCH    6    7
ATOM    100  H8  UNL A   1      14.205  53.592  12.477  1.00  0.00    +0.000 H 
ATOM    101  H9  UNL A   1      14.306  54.676  11.048  1.00  0.00    +0.000 H 
ATOM      7  C5  UNL A   1      13.768  53.899  11.550  1.00  0.00    +0.000 C 
BRANCH    7    8
ATOM    102  H10 UNL A   1      13.458  53.032   9.640  1.00  0.00    +0.000 H 
ATOM    103  H11 UNL A   1      13.169  51.957  11.048  1.00  0.00    +0.000 H 
ATOM      8  C6  UNL A   1      13.796  52.699  10.599  1.00  0.00    +0.000 C 
BRANCH    8    9
ATOM      9  C7  UNL A   1      15.157  52.033  10.412  1.00  0.00    +0.000 C 
ATOM    105  H13 UNL A   1      15.883  52.619  10.936  1.00  0.00    +0.000 H 
ATOM    104  H12 UNL A   1      15.109  51.036  10.797  1.00  0.00    +0.000 H 
BRANCH    9   10
ATOM     10  N2  UNL A   1      15.554  51.976   9.019  1.00  0.00    +0.000 N 
ATOM    106  H14 UNL A   1      16.033  52.764   8.677  1.00  0.00    +0.000 H 
BRANCH   10   11
ATOM     11  C8  UNL A   1      15.346  50.964   8.116  1.00  0.00    +0.000 C 
ATOM     12  O2  UNL A   1      15.621  51.128   6.931  1.00  0.00    +0.000 O 
BRANCH   11   13
ATOM    107  H15 UNL A   1      12.863  50.196   8.369  1.00  0.00    +0.000 H 
ATOM     13  C9  UNL A   1      14.889  49.639   8.578  1.00  0.00    +0.000 C 
ATOM     14  C10 UNL A   1      13.503  49.436   8.644  1.00  0.00    +0.000 C 
ATOM     15  C11 UNL A   1      12.979  48.212   9.079  1.00  0.00    +0.000 C 
ATOM    115  H23 UNL A   1      13.514  46.287   9.759  1.00  0.00    +0.000 H 
ATOM    116  H24 UNL A   1      15.909  46.655   9.697  1.00  0.00    +0.000 H 
ATOM     26  C20 UNL A   1      13.879  47.201   9.450  1.00  0.00    +0.000 C 
ATOM     27  C21 UNL A   1      15.264  47.408   9.410  1.00  0.00    +0.000 C 
ATOM     28  C22 UNL A   1      15.769  48.633   8.983  1.00  0.00    +0.000 C 
BRANCH   15   16
ATOM    108  H16 UNL A   1      11.252  47.077   9.674  1.00  0.00    +0.000 H 
ATOM     16  C12 UNL A   1      11.532  47.936   9.176  1.00  0.00    +0.000 C 
BRANCH   16   17
ATOM     17  C13 UNL A   1      10.548  48.701   8.675  1.00  0.00    +0.000 C 
ATOM    109  H17 UNL A   1      10.639  49.726   8.744  1.00  0.00    +0.000 H 
BRANCH   17   18
ATOM    110  H18 UNL A   1       9.122  49.669   6.578  1.00  0.00    +0.000 H 
ATOM    112  H20 UNL A   1       6.289  46.572   6.333  1.00  0.00    +0.000 H 
ATOM     18  C14 UNL A   1       9.345  48.148   8.034  1.00  0.00    +0.000 C 
ATOM     19  C15 UNL A   1       8.744  48.777   6.935  1.00  0.00    +0.000 C 
ATOM    114  H22 UNL A   1       9.279  46.442   9.286  1.00  0.00    +0.000 H 
ATOM     20  C16 UNL A   1       7.634  48.196   6.325  1.00  0.00    +0.000 C 
ATOM     22  C17 UNL A   1       7.115  46.993   6.786  1.00  0.00    +0.000 C 
ATOM     23  C18 UNL A   1       7.721  46.363   7.865  1.00  0.00    +0.000 C 
ATOM     25  C19 UNL A   1       8.833  46.925   8.491  1.00  0.00    +0.000 C 
BRANCH   20   21
ATOM     21  O3  UNL A   1       7.029  48.781   5.251  1.00  0.00    +0.000 O 
ATOM    111  H19 UNL A   1       6.096  48.767   5.174  1.00  0.00    +0.000 H 
ENDBRANCH   20   21
BRANCH   23   24
ATOM    113  H21 UNL A   1       6.417  44.841   7.888  1.00  0.00    +0.000 H 
ATOM     24  O4  UNL A   1       7.195  45.177   8.288  1.00  0.00    +0.000 O 
ENDBRANCH   23   24
ENDBRANCH   17   18
ENDBRANCH   16   17
ENDBRANCH   15   16
BRANCH   28   29
ATOM    117  H25 UNL A   1      17.704  48.126   9.127  1.00  0.00    +0.000 H 
ATOM     29  O5  UNL A   1      17.119  48.839   8.962  1.00  0.00    +0.000 O 
ENDBRANCH   28   29
ENDBRANCH   11   13
ENDBRANCH   10   11
ENDBRANCH    9   10
ENDBRANCH    8    9
ENDBRANCH    7    8
ENDBRANCH    6    7
ENDBRANCH    5    6
ENDBRANCH    4    5
ENDBRANCH    3    4
ENDBRANCH    2    3
ENDBRANCH   30    2
ENDBRANCH   34   33
BRANCH   38   39
ATOM     39  C31 UNL A   1      17.793  55.376   0.614  1.00  0.00    +0.000 C 
ATOM     40  C32 UNL A   1      19.039  55.754   1.136  1.00  0.00    +0.000 C 
ATOM     41  F1  UNL A   1      19.549  55.111   2.197  1.00  0.00    +0.000 F 
ATOM     42  C33 UNL A   1      19.753  56.818   0.588  1.00  0.00    +0.000 C 
ATOM     43  F2  UNL A   1      20.923  57.185   1.128  1.00  0.00    +0.000 F 
ATOM     44  C34 UNL A   1      19.252  57.503  -0.509  1.00  0.00    +0.000 C 
ATOM     45  F3  UNL A   1      19.943  58.521  -1.039  1.00  0.00    +0.000 F 
ATOM     46  C35 UNL A   1      18.029  57.137  -1.051  1.00  0.00    +0.000 C 
ATOM     47  F4  UNL A   1      17.548  57.790  -2.118  1.00  0.00    +0.000 F 
ATOM     48  C36 UNL A   1      17.301  56.090  -0.490  1.00  0.00    +0.000 C 
ATOM     49  F5  UNL A   1      16.119  55.764  -1.033  1.00  0.00    +0.000 F 
ENDBRANCH   38   39
BRANCH   55   56
ATOM     65  C47 UNL A   1      18.060  47.772  -0.657  1.00  0.00    +0.000 C 
ATOM     66  F10 UNL A   1      18.806  48.085   0.413  1.00  0.00    +0.000 F 
ATOM     56  C42 UNL A   1      16.813  48.385  -0.854  1.00  0.00    +0.000 C 
ATOM     57  C43 UNL A   1      16.075  48.026  -1.990  1.00  0.00    +0.000 C 
ATOM     58  F6  UNL A   1      14.870  48.572  -2.212  1.00  0.00    +0.000 F 
ATOM     59  C44 UNL A   1      16.553  47.069  -2.881  1.00  0.00    +0.000 C 
ATOM     60  F7  UNL A   1      15.809  46.704  -3.933  1.00  0.00    +0.000 F 
ATOM     61  C45 UNL A   1      17.791  46.479  -2.669  1.00  0.00    +0.000 C 
ATOM     62  F8  UNL A   1      18.250  45.556  -3.527  1.00  0.00    +0.000 F 
ATOM     63  C46 UNL A   1      18.547  46.836  -1.564  1.00  0.00    +0.000 C 
ATOM     64  F9  UNL A   1      19.747  46.272  -1.363  1.00  0.00    +0.000 F 
ENDBRANCH   55   56
BRANCH   70   71
ATOM     71  C51 UNL A   1      12.263  47.982   4.396  1.00  0.00    +0.000 C 
ATOM     72  C52 UNL A   1      12.730  47.243   5.490  1.00  0.00    +0.000 C 
ATOM     73  F11 UNL A   1      13.935  47.511   6.014  1.00  0.00    +0.000 F 
ATOM     74  C53 UNL A   1      11.973  46.207   6.033  1.00  0.00    +0.000 C 
ATOM     75  F12 UNL A   1      12.457  45.492   7.058  1.00  0.00    +0.000 F 
ATOM     76  C54 UNL A   1      10.725  45.908   5.508  1.00  0.00    +0.000 C 
ATOM     77  F13 UNL A   1       9.994  44.917   6.035  1.00  0.00    +0.000 F 
ATOM     78  C55 UNL A   1      10.239  46.633   4.430  1.00  0.00    +0.000 C 
ATOM     79  F14 UNL A   1       9.026  46.357   3.929  1.00  0.00    +0.000 F 
ATOM     80  C56 UNL A   1      11.006  47.651   3.870  1.00  0.00    +0.000 C 
ATOM     81  F15 UNL A   1      10.514  48.332   2.825  1.00  0.00    +0.000 F 
ENDBRANCH   70   71
TORSDOF 21
ENDMDL
MODEL 3
REMARK VINA RESULT:      -9.6     44.389     52.140
ROOT
ATOM    129  H37 UNL A   1      26.218  36.905  45.477  1.00  0.00    +0.000 H 
ATOM     34  C27 UNL A   1      25.123  39.260  46.667  1.00  0.00    +0.000 C 
ATOM     35  C28 UNL A   1      24.479  37.908  46.530  1.00  0.00    +0.000 C 
ATOM     36  N3  UNL A   1      23.295  37.511  46.933  1.00  0.00    +0.000 N 
ATOM     37  C29 UNL A   1      23.177  36.188  46.529  1.00  0.00    +0.000 C 
ATOM     38  C30 UNL A   1      22.144  35.333  46.729  1.00  0.00    +0.000 C 
ATOM     50  C37 UNL A   1      20.940  35.663  47.449  1.00  0.00    +0.000 C 
ATOM     51  C38 UNL A   1      19.863  34.847  47.749  1.00  0.00    +0.000 C 
ATOM     52  C39 UNL A   1      18.908  35.613  48.427  1.00  0.00    +0.000 C 
ATOM     53  C40 UNL A   1      19.409  36.895  48.589  1.00  0.00    +0.000 C 
ATOM     54  N4  UNL A   1      20.655  36.912  47.980  1.00  0.00    +0.000 N 
ATOM     55  C41 UNL A   1      18.799  38.020  49.247  1.00  0.00    +0.000 C 
ATOM     67  C48 UNL A   1      19.364  39.246  49.375  1.00  0.00    +0.000 C 
ATOM     68  N5  UNL A   1      20.600  39.687  48.926  1.00  0.00    +0.000 N 
ATOM     69  C49 UNL A   1      20.677  40.948  49.270  1.00  0.00    +0.000 C 
ATOM     70  C50 UNL A   1      21.801  41.921  49.056  1.00  0.00    +0.000 C 
ATOM     82  C57 UNL A   1      22.898  41.520  48.387  1.00  0.00    +0.000 C 
ATOM     83  C58 UNL A   1      24.066  42.351  48.114  1.00  0.00    +0.000 C 
ATOM     84  C59 UNL A   1      24.960  41.631  47.420  1.00  0.00    +0.000 C 
ATOM     85  C60 UNL A   1      24.448  40.271  47.246  1.00  0.00    +0.000 C 
ATOM     86  N6  UNL A   1      23.202  40.308  47.817  1.00  0.00    +0.000 N 
ATOM     87  C61 UNL A   1      19.489  41.458  49.965  1.00  0.00    +0.000 C 
ATOM     88  C62 UNL A   1      18.734  40.370  50.037  1.00  0.00    +0.000 C 
ATOM     89  C63 UNL A   1      24.400  35.849  45.834  1.00  0.00    +0.000 C 
ATOM     90  C64 UNL A   1      25.256  36.862  45.847  1.00  0.00    +0.000 C 
ATOM    120  H28 UNL A   1      19.778  33.847  47.512  1.00  0.00    +0.000 H 
ATOM    121  H29 UNL A   1      17.987  35.281  48.752  1.00  0.00    +0.000 H 
ATOM    122  H30 UNL A   1      21.249  37.696  47.933  1.00  0.00    +0.000 H 
ATOM    123  H31 UNL A   1      24.185  43.334  48.406  1.00  0.00    +0.000 H 
ATOM    124  H32 UNL A   1      25.864  41.979  47.067  1.00  0.00    +0.000 H 
ATOM    125  H33 UNL A   1      22.584  39.541  47.820  1.00  0.00    +0.000 H 
ATOM    126  H34 UNL A   1      19.292  42.412  50.308  1.00  0.00    +0.000 H 
ATOM    127  H35 UNL A   1      17.815  40.331  50.505  1.00  0.00    +0.000 H 
ATOM    128  H36 UNL A   1      24.581  34.939  45.384  1.00  0.00    +0.000 H 
ENDROOT
BRANCH   34   33
ATOM     33  C26 UNL A   1      26.519  39.496  46.214  1.00  0.00    +0.000 C 
ATOM    130  H38 UNL A   1      26.047  40.850  44.657  1.00  0.00    +0.000 H 
ATOM    131  H39 UNL A   1      28.333  41.085  43.872  1.00  0.00    +0.000 H 
ATOM    118  H26 UNL A   1      29.672  38.721  47.080  1.00  0.00    +0.000 H 
ATOM    119  H27 UNL A   1      27.376  38.260  47.701  1.00  0.00    +0.000 H 
ATOM     91  C65 UNL A   1      26.809  40.339  45.131  1.00  0.00    +0.000 C 
ATOM     92  C66 UNL A   1      28.127  40.493  44.691  1.00  0.00    +0.000 C 
ATOM     30  C23 UNL A   1      29.166  39.842  45.363  1.00  0.00    +0.000 C 
ATOM     31  C24 UNL A   1      28.896  39.102  46.516  1.00  0.00    +0.000 C 
ATOM     32  C25 UNL A   1      27.578  38.881  46.902  1.00  0.00    +0.000 C 
BRANCH   30    2
ATOM      1  O1  UNL A   1      31.424  40.461  45.505  1.00  0.00    +0.000 O 
ATOM      2  C1  UNL A   1      30.542  39.942  44.826  1.00  0.00    +0.000 C 
BRANCH    2    3
ATOM      3  N1  UNL A   1      30.819  39.490  43.558  1.00  0.00    +0.000 N 
ATOM     93  H1  UNL A   1      30.701  40.153  42.839  1.00  0.00    +0.000 H 
BRANCH    3    4
ATOM      4  C2  UNL A   1      31.261  38.175  43.124  1.00  0.00    +0.000 C 
ATOM     94  H2  UNL A   1      32.200  37.962  43.590  1.00  0.00    +0.000 H 
ATOM     95  H3  UNL A   1      31.338  38.202  42.057  1.00  0.00    +0.000 H 
BRANCH    4    5
ATOM     97  H5  UNL A   1      30.642  36.638  44.392  1.00  0.00    +0.000 H 
ATOM      5  C3  UNL A   1      30.283  37.063  43.479  1.00  0.00    +0.000 C 
ATOM     96  H4  UNL A   1      29.308  37.495  43.556  1.00  0.00    +0.000 H 
BRANCH    5    6
ATOM     98  H6  UNL A   1      31.125  35.889  41.932  1.00  0.00    +0.000 H 
ATOM     99  H7  UNL A   1      29.342  36.098  41.882  1.00  0.00    +0.000 H 
ATOM      6  C4  UNL A   1      30.208  35.908  42.482  1.00  0.00    +0.000 C 
BRANCH    6    7
ATOM    100  H8  UNL A   1      30.326  34.547  44.101  1.00  0.00    +0.000 H 
ATOM    101  H9  UNL A   1      30.548  33.846  42.462  1.00  0.00    +0.000 H 
ATOM      7  C5  UNL A   1      29.994  34.517  43.085  1.00  0.00    +0.000 C 
BRANCH    7    8
ATOM    102  H10 UNL A   1      28.583  32.953  43.337  1.00  0.00    +0.000 H 
ATOM    103  H11 UNL A   1      28.180  34.182  42.093  1.00  0.00    +0.000 H 
ATOM      8  C6  UNL A   1      28.555  33.991  43.077  1.00  0.00    +0.000 C 
BRANCH    8    9
ATOM      9  C7  UNL A   1      27.590  34.688  44.031  1.00  0.00    +0.000 C 
ATOM    105  H13 UNL A   1      28.106  35.513  44.475  1.00  0.00    +0.000 H 
ATOM    104  H12 UNL A   1      26.734  35.015  43.478  1.00  0.00    +0.000 H 
BRANCH    9   10
ATOM     10  N2  UNL A   1      27.148  33.814  45.100  1.00  0.00    +0.000 N 
ATOM    106  H14 UNL A   1      26.240  33.446  45.004  1.00  0.00    +0.000 H 
BRANCH   10   11
ATOM     11  C8  UNL A   1      27.832  33.436  46.228  1.00  0.00    +0.000 C 
ATOM     12  O2  UNL A   1      28.205  32.275  46.364  1.00  0.00    +0.000 O 
BRANCH   11   13
ATOM    107  H15 UNL A   1      26.259  34.473  48.037  1.00  0.00    +0.000 H 
ATOM     13  C9  UNL A   1      28.213  34.443  47.237  1.00  0.00    +0.000 C 
ATOM     14  C10 UNL A   1      27.208  34.870  48.116  1.00  0.00    +0.000 C 
ATOM     15  C11 UNL A   1      27.477  35.828  49.101  1.00  0.00    +0.000 C 
ATOM    115  H23 UNL A   1      29.002  37.047  49.905  1.00  0.00    +0.000 H 
ATOM    116  H24 UNL A   1      30.727  36.350  48.352  1.00  0.00    +0.000 H 
ATOM     26  C20 UNL A   1      28.778  36.351  49.177  1.00  0.00    +0.000 C 
ATOM     27  C21 UNL A   1      29.779  35.946  48.285  1.00  0.00    +0.000 C 
ATOM     28  C22 UNL A   1      29.493  34.998  47.307  1.00  0.00    +0.000 C 
BRANCH   15   16
ATOM    108  H16 UNL A   1      26.540  36.000  51.029  1.00  0.00    +0.000 H 
ATOM     16  C12 UNL A   1      26.463  36.324  50.052  1.00  0.00    +0.000 C 
BRANCH   16   17
ATOM     17  C13 UNL A   1      25.450  37.156  49.762  1.00  0.00    +0.000 C 
ATOM    109  H17 UNL A   1      25.604  37.889  49.053  1.00  0.00    +0.000 H 
BRANCH   17   18
ATOM    110  H18 UNL A   1      24.039  39.092  51.039  1.00  0.00    +0.000 H 
ATOM    112  H20 UNL A   1      20.627  36.809  51.948  1.00  0.00    +0.000 H 
ATOM     18  C14 UNL A   1      24.130  37.074  50.406  1.00  0.00    +0.000 C 
ATOM     19  C15 UNL A   1      23.535  38.191  51.008  1.00  0.00    +0.000 C 
ATOM    114  H22 UNL A   1      23.841  35.039  49.895  1.00  0.00    +0.000 H 
ATOM     20  C16 UNL A   1      22.262  38.084  51.565  1.00  0.00    +0.000 C 
ATOM     22  C17 UNL A   1      21.566  36.882  51.528  1.00  0.00    +0.000 C 
ATOM     23  C18 UNL A   1      22.150  35.780  50.918  1.00  0.00    +0.000 C 
ATOM     25  C19 UNL A   1      23.422  35.864  50.352  1.00  0.00    +0.000 C 
BRANCH   20   21
ATOM     21  O3  UNL A   1      21.654  39.154  52.154  1.00  0.00    +0.000 O 
ATOM    111  H19 UNL A   1      22.023  40.010  52.065  1.00  0.00    +0.000 H 
ENDBRANCH   20   21
BRANCH   23   24
ATOM    113  H21 UNL A   1      21.370  34.129  50.089  1.00  0.00    +0.000 H 
ATOM     24  O4  UNL A   1      21.437  34.617  50.887  1.00  0.00    +0.000 O 
ENDBRANCH   23   24
ENDBRANCH   17   18
ENDBRANCH   16   17
ENDBRANCH   15   16
BRANCH   28   29
ATOM    117  H25 UNL A   1      30.253  34.058  45.706  1.00  0.00    +0.000 H 
ATOM     29  O5  UNL A   1      30.466  34.619  46.427  1.00  0.00    +0.000 O 
ENDBRANCH   28   29
ENDBRANCH   11   13
ENDBRANCH   10   11
ENDBRANCH    9   10
ENDBRANCH    8    9
ENDBRANCH    7    8
ENDBRANCH    6    7
ENDBRANCH    5    6
ENDBRANCH    4    5
ENDBRANCH    3    4
ENDBRANCH    2    3
ENDBRANCH   30    2
ENDBRANCH   34   33
BRANCH   38   39
ATOM     39  C31 UNL A   1      22.260  33.954  46.147  1.00  0.00    +0.000 C 
ATOM     40  C32 UNL A   1      22.976  32.937  46.793  1.00  0.00    +0.000 C 
ATOM     41  F1  UNL A   1      23.632  33.194  47.935  1.00  0.00    +0.000 F 
ATOM     42  C33 UNL A   1      23.049  31.655  46.251  1.00  0.00    +0.000 C 
ATOM     43  F2  UNL A   1      23.772  30.710  46.867  1.00  0.00    +0.000 F 
ATOM     44  C34 UNL A   1      22.383  31.358  45.072  1.00  0.00    +0.000 C 
ATOM     45  F3  UNL A   1      22.447  30.123  44.556  1.00  0.00    +0.000 F 
ATOM     46  C35 UNL A   1      21.655  32.345  44.424  1.00  0.00    +0.000 C 
ATOM     47  F4  UNL A   1      21.000  32.057  43.290  1.00  0.00    +0.000 F 
ATOM     48  C36 UNL A   1      21.601  33.633  44.950  1.00  0.00    +0.000 C 
ATOM     49  F5  UNL A   1      20.895  34.567  44.296  1.00  0.00    +0.000 F 
ENDBRANCH   38   39
BRANCH   55   56
ATOM     65  C47 UNL A   1      17.299  37.803  51.260  1.00  0.00    +0.000 C 
ATOM     66  F10 UNL A   1      18.366  37.963  52.055  1.00  0.00    +0.000 F 
ATOM     56  C42 UNL A   1      17.446  37.827  49.864  1.00  0.00    +0.000 C 
ATOM     57  C43 UNL A   1      16.299  37.651  49.077  1.00  0.00    +0.000 C 
ATOM     58  F6  UNL A   1      16.387  37.684  47.739  1.00  0.00    +0.000 F 
ATOM     59  C44 UNL A   1      15.047  37.486  49.665  1.00  0.00    +0.000 C 
ATOM     60  F7  UNL A   1      13.958  37.369  48.894  1.00  0.00    +0.000 F 
ATOM     61  C45 UNL A   1      14.925  37.461  51.047  1.00  0.00    +0.000 C 
ATOM     62  F8  UNL A   1      13.719  37.303  51.611  1.00  0.00    +0.000 F 
ATOM     63  C46 UNL A   1      16.050  37.611  51.843  1.00  0.00    +0.000 C 
ATOM     64  F9  UNL A   1      15.934  37.578  53.178  1.00  0.00    +0.000 F 
ENDBRANCH   55   56
BRANCH   70   71
ATOM     71  C51 UNL A   1      21.727  43.306  49.585  1.00  0.00    +0.000 C 
ATOM     72  C52 UNL A   1      21.271  44.359  48.782  1.00  0.00    +0.000 C 
ATOM     73  F11 UNL A   1      20.926  44.128  47.507  1.00  0.00    +0.000 F 
ATOM     74  C53 UNL A   1      21.195  45.659  49.277  1.00  0.00    +0.000 C 
ATOM     75  F12 UNL A   1      20.789  46.655  48.478  1.00  0.00    +0.000 F 
ATOM     76  C54 UNL A   1      21.549  45.925  50.591  1.00  0.00    +0.000 C 
ATOM     77  F13 UNL A   1      21.467  47.173  51.070  1.00  0.00    +0.000 F 
ATOM     78  C55 UNL A   1      21.993  44.895  51.408  1.00  0.00    +0.000 C 
ATOM     79  F14 UNL A   1      22.321  45.145  52.683  1.00  0.00    +0.000 F 
ATOM     80  C56 UNL A   1      22.095  43.601  50.906  1.00  0.00    +0.000 C 
ATOM     81  F15 UNL A   1      22.534  42.626  51.715  1.00  0.00    +0.000 F 
ENDBRANCH   70   71
TORSDOF 21
ENDMDL
MODEL 4
REMARK VINA RESULT:      -9.6     21.631     26.576
ROOT
ATOM    129  H37 UNL A   1      37.927  28.223  28.325  1.00  0.00    +0.000 H 
ATOM     34  C27 UNL A   1      40.717  28.009  28.899  1.00  0.00    +0.000 C 
ATOM     35  C28 UNL A   1      39.775  29.115  29.288  1.00  0.00    +0.000 C 
ATOM     36  N3  UNL A   1      40.018  30.203  29.978  1.00  0.00    +0.000 N 
ATOM     37  C29 UNL A   1      38.820  30.904  30.023  1.00  0.00    +0.000 C 
ATOM     38  C30 UNL A   1      38.553  32.082  30.638  1.00  0.00    +0.000 C 
ATOM     50  C37 UNL A   1      39.511  32.835  31.408  1.00  0.00    +0.000 C 
ATOM     51  C38 UNL A   1      39.318  34.011  32.113  1.00  0.00    +0.000 C 
ATOM     52  C39 UNL A   1      40.543  34.395  32.670  1.00  0.00    +0.000 C 
ATOM     53  C40 UNL A   1      41.490  33.434  32.349  1.00  0.00    +0.000 C 
ATOM     54  N4  UNL A   1      40.842  32.486  31.571  1.00  0.00    +0.000 N 
ATOM     55  C41 UNL A   1      42.880  33.385  32.722  1.00  0.00    +0.000 C 
ATOM     67  C48 UNL A   1      43.742  32.398  32.376  1.00  0.00    +0.000 C 
ATOM     68  N5  UNL A   1      43.506  31.259  31.620  1.00  0.00    +0.000 N 
ATOM     69  C49 UNL A   1      44.654  30.634  31.545  1.00  0.00    +0.000 C 
ATOM     70  C50 UNL A   1      44.983  29.336  30.865  1.00  0.00    +0.000 C 
ATOM     82  C57 UNL A   1      44.020  28.689  30.183  1.00  0.00    +0.000 C 
ATOM     83  C58 UNL A   1      44.193  27.420  29.484  1.00  0.00    +0.000 C 
ATOM     84  C59 UNL A   1      43.030  27.078  28.908  1.00  0.00    +0.000 C 
ATOM     85  C60 UNL A   1      42.017  28.080  29.243  1.00  0.00    +0.000 C 
ATOM     86  N6  UNL A   1      42.704  29.020  29.969  1.00  0.00    +0.000 N 
ATOM     87  C61 UNL A   1      45.758  31.314  32.234  1.00  0.00    +0.000 C 
ATOM     88  C62 UNL A   1      45.140  32.365  32.756  1.00  0.00    +0.000 C 
ATOM     89  C63 UNL A   1      37.852  30.130  29.276  1.00  0.00    +0.000 C 
ATOM     90  C64 UNL A   1      38.380  28.994  28.841  1.00  0.00    +0.000 C 
ATOM    120  H28 UNL A   1      38.425  34.519  32.210  1.00  0.00    +0.000 H 
ATOM    121  H29 UNL A   1      40.714  35.247  33.225  1.00  0.00    +0.000 H 
ATOM    122  H30 UNL A   1      41.267  31.683  31.191  1.00  0.00    +0.000 H 
ATOM    123  H31 UNL A   1      45.067  26.874  29.439  1.00  0.00    +0.000 H 
ATOM    124  H32 UNL A   1      42.875  26.243  28.324  1.00  0.00    +0.000 H 
ATOM    125  H33 UNL A   1      42.295  29.849  30.306  1.00  0.00    +0.000 H 
ATOM    126  H34 UNL A   1      46.753  31.046  32.296  1.00  0.00    +0.000 H 
ATOM    127  H35 UNL A   1      45.597  33.070  33.355  1.00  0.00    +0.000 H 
ATOM    128  H36 UNL A   1      36.879  30.426  29.103  1.00  0.00    +0.000 H 
ENDROOT
BRANCH   34   33
ATOM     33  C26 UNL A   1      40.231  26.805  28.176  1.00  0.00    +0.000 C 
ATOM    130  H38 UNL A   1      41.145  27.247  26.319  1.00  0.00    +0.000 H 
ATOM    131  H39 UNL A   1      40.206  25.335  25.153  1.00  0.00    +0.000 H 
ATOM    118  H26 UNL A   1      38.546  23.957  28.762  1.00  0.00    +0.000 H 
ATOM    119  H27 UNL A   1      39.245  25.997  29.864  1.00  0.00    +0.000 H 
ATOM     91  C65 UNL A   1      40.534  26.586  26.824  1.00  0.00    +0.000 C 
ATOM     92  C66 UNL A   1      40.012  25.473  26.157  1.00  0.00    +0.000 C 
ATOM     30  C23 UNL A   1      39.224  24.550  26.851  1.00  0.00    +0.000 C 
ATOM     31  C24 UNL A   1      39.024  24.697  28.225  1.00  0.00    +0.000 C 
ATOM     32  C25 UNL A   1      39.472  25.847  28.869  1.00  0.00    +0.000 C 
BRANCH   30    2
ATOM      1  O1  UNL A   1      38.974  22.280  26.319  1.00  0.00    +0.000 O 
ATOM      2  C1  UNL A   1      38.605  23.431  26.106  1.00  0.00    +0.000 C 
BRANCH    2    3
ATOM      3  N1  UNL A   1      37.647  23.687  25.154  1.00  0.00    +0.000 N 
ATOM     93  H1  UNL A   1      37.964  24.173  24.358  1.00  0.00    +0.000 H 
BRANCH    3    4
ATOM      4  C2  UNL A   1      36.234  23.344  25.151  1.00  0.00    +0.000 C 
ATOM     94  H2  UNL A   1      36.078  22.549  25.850  1.00  0.00    +0.000 H 
ATOM     95  H3  UNL A   1      35.979  23.058  24.152  1.00  0.00    +0.000 H 
BRANCH    4    5
ATOM     97  H5  UNL A   1      34.894  24.243  26.473  1.00  0.00    +0.000 H 
ATOM      5  C3  UNL A   1      35.331  24.508  25.534  1.00  0.00    +0.000 C 
ATOM     96  H4  UNL A   1      35.931  25.393  25.571  1.00  0.00    +0.000 H 
BRANCH    5    6
ATOM     98  H6  UNL A   1      34.174  25.813  24.334  1.00  0.00    +0.000 H 
ATOM     99  H7  UNL A   1      33.284  24.465  25.119  1.00  0.00    +0.000 H 
ATOM      6  C4  UNL A   1      34.161  24.774  24.589  1.00  0.00    +0.000 C 
BRANCH    6    7
ATOM    100  H8  UNL A   1      34.103  22.934  23.540  1.00  0.00    +0.000 H 
ATOM    101  H9  UNL A   1      35.055  24.251  22.773  1.00  0.00    +0.000 H 
ATOM      7  C5  UNL A   1      34.158  23.972  23.285  1.00  0.00    +0.000 C 
BRANCH    7    8
ATOM    102  H10 UNL A   1      32.094  24.186  22.843  1.00  0.00    +0.000 H 
ATOM    103  H11 UNL A   1      33.124  23.571  21.508  1.00  0.00    +0.000 H 
ATOM      8  C6  UNL A   1      33.016  24.274  22.308  1.00  0.00    +0.000 C 
BRANCH    8    9
ATOM      9  C7  UNL A   1      33.051  25.654  21.656  1.00  0.00    +0.000 C 
ATOM    105  H13 UNL A   1      33.681  26.281  22.250  1.00  0.00    +0.000 H 
ATOM    104  H12 UNL A   1      33.428  25.554  20.659  1.00  0.00    +0.000 H 
BRANCH    9   10
ATOM     10  N2  UNL A   1      31.739  26.267  21.599  1.00  0.00    +0.000 N 
ATOM    106  H14 UNL A   1      31.165  25.982  20.852  1.00  0.00    +0.000 H 
BRANCH   10   11
ATOM     11  C8  UNL A   1      31.196  27.194  22.452  1.00  0.00    +0.000 C 
ATOM     12  O2  UNL A   1      30.435  28.057  22.023  1.00  0.00    +0.000 O 
BRANCH   11   13
ATOM    107  H15 UNL A   1      30.124  25.457  24.082  1.00  0.00    +0.000 H 
ATOM     13  C9  UNL A   1      31.440  27.100  23.904  1.00  0.00    +0.000 C 
ATOM     14  C10 UNL A   1      30.755  26.090  24.596  1.00  0.00    +0.000 C 
ATOM     15  C11 UNL A   1      30.919  25.931  25.978  1.00  0.00    +0.000 C 
ATOM    115  H23 UNL A   1      31.929  26.704  27.663  1.00  0.00    +0.000 H 
ATOM    116  H24 UNL A   1      33.071  28.483  26.478  1.00  0.00    +0.000 H 
ATOM     26  C20 UNL A   1      31.782  26.813  26.647  1.00  0.00    +0.000 C 
ATOM     27  C21 UNL A   1      32.449  27.839  25.965  1.00  0.00    +0.000 C 
ATOM     28  C22 UNL A   1      32.268  27.988  24.593  1.00  0.00    +0.000 C 
BRANCH   15   16
ATOM    108  H16 UNL A   1      29.779  25.194  27.646  1.00  0.00    +0.000 H 
ATOM     16  C12 UNL A   1      30.225  24.894  26.765  1.00  0.00    +0.000 C 
BRANCH   16   17
ATOM     17  C13 UNL A   1      30.121  23.595  26.439  1.00  0.00    +0.000 C 
ATOM    109  H17 UNL A   1      29.178  23.183  26.355  1.00  0.00    +0.000 H 
BRANCH   17   18
ATOM    110  H18 UNL A   1      32.303  23.176  28.000  1.00  0.00    +0.000 H 
ATOM    112  H20 UNL A   1      34.223  20.348  25.552  1.00  0.00    +0.000 H 
ATOM     18  C14 UNL A   1      31.285  22.729  26.197  1.00  0.00    +0.000 C 
ATOM     19  C15 UNL A   1      32.324  22.617  27.132  1.00  0.00    +0.000 C 
ATOM    114  H22 UNL A   1      30.550  22.003  24.349  1.00  0.00    +0.000 H 
ATOM     20  C16 UNL A   1      33.386  21.749  26.887  1.00  0.00    +0.000 C 
ATOM     22  C17 UNL A   1      33.429  20.983  25.729  1.00  0.00    +0.000 C 
ATOM     23  C18 UNL A   1      32.392  21.083  24.811  1.00  0.00    +0.000 C 
ATOM     25  C19 UNL A   1      31.318  21.944  25.035  1.00  0.00    +0.000 C 
BRANCH   20   21
ATOM     21  O3  UNL A   1      34.410  21.614  27.779  1.00  0.00    +0.000 O 
ATOM    111  H19 UNL A   1      34.274  21.154  28.583  1.00  0.00    +0.000 H 
ENDBRANCH   20   21
BRANCH   23   24
ATOM    113  H21 UNL A   1      32.011  20.577  22.910  1.00  0.00    +0.000 H 
ATOM     24  O4  UNL A   1      32.457  20.310  23.690  1.00  0.00    +0.000 O 
ENDBRANCH   23   24
ENDBRANCH   17   18
ENDBRANCH   16   17
ENDBRANCH   15   16
BRANCH   28   29
ATOM    117  H25 UNL A   1      32.898  29.868  24.286  1.00  0.00    +0.000 H 
ATOM     29  O5  UNL A   1      32.905  29.000  23.933  1.00  0.00    +0.000 O 
ENDBRANCH   28   29
ENDBRANCH   11   13
ENDBRANCH   10   11
ENDBRANCH    9   10
ENDBRANCH    8    9
ENDBRANCH    7    8
ENDBRANCH    6    7
ENDBRANCH    5    6
ENDBRANCH    4    5
ENDBRANCH    3    4
ENDBRANCH    2    3
ENDBRANCH   30    2
ENDBRANCH   34   33
BRANCH   38   39
ATOM     39  C31 UNL A   1      37.168  32.644  30.495  1.00  0.00    +0.000 C 
ATOM     40  C32 UNL A   1      36.185  32.444  31.474  1.00  0.00    +0.000 C 
ATOM     41  F1  UNL A   1      36.447  31.687  32.550  1.00  0.00    +0.000 F 
ATOM     42  C33 UNL A   1      34.913  32.996  31.336  1.00  0.00    +0.000 C 
ATOM     43  F2  UNL A   1      33.977  32.760  32.266  1.00  0.00    +0.000 F 
ATOM     44  C34 UNL A   1      34.610  33.783  30.235  1.00  0.00    +0.000 C 
ATOM     45  F3  UNL A   1      33.390  34.320  30.108  1.00  0.00    +0.000 F 
ATOM     46  C35 UNL A   1      35.573  34.008  29.262  1.00  0.00    +0.000 C 
ATOM     47  F4  UNL A   1      35.286  34.778  28.203  1.00  0.00    +0.000 F 
ATOM     48  C36 UNL A   1      36.837  33.436  29.385  1.00  0.00    +0.000 C 
ATOM     49  F5  UNL A   1      37.744  33.665  28.424  1.00  0.00    +0.000 F 
ENDBRANCH   38   39
BRANCH   55   56
ATOM     65  C47 UNL A   1      43.960  35.645  32.990  1.00  0.00    +0.000 C 
ATOM     66  F10 UNL A   1      43.988  35.774  31.655  1.00  0.00    +0.000 F 
ATOM     56  C42 UNL A   1      43.420  34.491  33.579  1.00  0.00    +0.000 C 
ATOM     57  C43 UNL A   1      43.417  34.404  34.978  1.00  0.00    +0.000 C 
ATOM     58  F6  UNL A   1      42.896  33.328  35.586  1.00  0.00    +0.000 F 
ATOM     59  C44 UNL A   1      43.911  35.445  35.760  1.00  0.00    +0.000 C 
ATOM     60  F7  UNL A   1      43.853  35.363  37.095  1.00  0.00    +0.000 F 
ATOM     61  C45 UNL A   1      44.444  36.575  35.157  1.00  0.00    +0.000 C 
ATOM     62  F8  UNL A   1      44.918  37.578  35.911  1.00  0.00    +0.000 F 
ATOM     63  C46 UNL A   1      44.476  36.672  33.774  1.00  0.00    +0.000 C 
ATOM     64  F9  UNL A   1      44.999  37.760  33.191  1.00  0.00    +0.000 F 
ENDBRANCH   55   56
BRANCH   70   71
ATOM     71  C51 UNL A   1      46.344  28.750  30.951  1.00  0.00    +0.000 C 
ATOM     72  C52 UNL A   1      46.691  27.889  32.000  1.00  0.00    +0.000 C 
ATOM     73  F11 UNL A   1      45.798  27.611  32.961  1.00  0.00    +0.000 F 
ATOM     74  C53 UNL A   1      47.966  27.333  32.081  1.00  0.00    +0.000 C 
ATOM     75  F12 UNL A   1      48.284  26.540  33.114  1.00  0.00    +0.000 F 
ATOM     76  C54 UNL A   1      48.908  27.607  31.101  1.00  0.00    +0.000 C 
ATOM     77  F13 UNL A   1      50.131  27.065  31.175  1.00  0.00    +0.000 F 
ATOM     78  C55 UNL A   1      48.583  28.449  30.048  1.00  0.00    +0.000 C 
ATOM     79  F14 UNL A   1      49.486  28.704  29.091  1.00  0.00    +0.000 F 
ATOM     80  C56 UNL A   1      47.318  29.026  29.981  1.00  0.00    +0.000 C 
ATOM     81  F15 UNL A   1      47.032  29.841  28.955  1.00  0.00    +0.000 F 
ENDBRANCH   70   71
TORSDOF 21
ENDMDL
MODEL 5
REMARK VINA RESULT:      -9.6      2.471      7.551
ROOT
ATOM    129  H37 UNL A   1      56.176  17.322   9.351  1.00  0.00    +0.000 H 
ATOM     34  C27 UNL A   1      57.504  18.093  11.761  1.00  0.00    +0.000 C 
ATOM     35  C28 UNL A   1      56.099  18.419  11.335  1.00  0.00    +0.000 C 
ATOM     36  N3  UNL A   1      55.181  19.106  11.970  1.00  0.00    +0.000 N 
ATOM     37  C29 UNL A   1      54.078  19.142  11.128  1.00  0.00    +0.000 C 
ATOM     38  C30 UNL A   1      52.869  19.717  11.343  1.00  0.00    +0.000 C 
ATOM     50  C37 UNL A   1      52.497  20.405  12.553  1.00  0.00    +0.000 C 
ATOM     51  C38 UNL A   1      51.279  20.972  12.885  1.00  0.00    +0.000 C 
ATOM     52  C39 UNL A   1      51.399  21.566  14.146  1.00  0.00    +0.000 C 
ATOM     53  C40 UNL A   1      52.680  21.331  14.620  1.00  0.00    +0.000 C 
ATOM     54  N4  UNL A   1      53.344  20.621  13.631  1.00  0.00    +0.000 N 
ATOM     55  C41 UNL A   1      53.257  21.724  15.879  1.00  0.00    +0.000 C 
ATOM     67  C48 UNL A   1      54.522  21.443  16.276  1.00  0.00    +0.000 C 
ATOM     68  N5  UNL A   1      55.513  20.745  15.600  1.00  0.00    +0.000 N 
ATOM     69  C49 UNL A   1      56.561  20.761  16.385  1.00  0.00    +0.000 C 
ATOM     70  C50 UNL A   1      57.913  20.144  16.171  1.00  0.00    +0.000 C 
ATOM     82  C57 UNL A   1      58.167  19.502  15.015  1.00  0.00    +0.000 C 
ATOM     83  C58 UNL A   1      59.427  18.849  14.676  1.00  0.00    +0.000 C 
ATOM     84  C59 UNL A   1      59.327  18.323  13.446  1.00  0.00    +0.000 C 
ATOM     85  C60 UNL A   1      57.977  18.558  12.933  1.00  0.00    +0.000 C 
ATOM     86  N6  UNL A   1      57.371  19.299  13.915  1.00  0.00    +0.000 N 
ATOM     87  C61 UNL A   1      56.361  21.487  17.645  1.00  0.00    +0.000 C 
ATOM     88  C62 UNL A   1      55.089  21.850  17.545  1.00  0.00    +0.000 C 
ATOM     89  C63 UNL A   1      54.442  18.423   9.926  1.00  0.00    +0.000 C 
ATOM     90  C64 UNL A   1      55.664  17.916  10.023  1.00  0.00    +0.000 C 
ATOM    120  H28 UNL A   1      50.428  20.960  12.301  1.00  0.00    +0.000 H 
ATOM    121  H29 UNL A   1      50.661  22.090  14.640  1.00  0.00    +0.000 H 
ATOM    122  H30 UNL A   1      54.278  20.316  13.686  1.00  0.00    +0.000 H 
ATOM    123  H31 UNL A   1      60.260  18.801  15.283  1.00  0.00    +0.000 H 
ATOM    124  H32 UNL A   1      60.081  17.831  12.943  1.00  0.00    +0.000 H 
ATOM    125  H33 UNL A   1      56.454  19.650  13.840  1.00  0.00    +0.000 H 
ATOM    126  H34 UNL A   1      57.033  21.668  18.408  1.00  0.00    +0.000 H 
ATOM    127  H35 UNL A   1      54.571  22.359  18.279  1.00  0.00    +0.000 H 
ATOM    128  H36 UNL A   1      53.832  18.320   9.102  1.00  0.00    +0.000 H 
ENDROOT
BRANCH   34   33
ATOM     33  C26 UNL A   1      58.377  17.223  10.930  1.00  0.00    +0.000 C 
ATOM    130  H38 UNL A   1      59.428  18.783   9.960  1.00  0.00    +0.000 H 
ATOM    131  H39 UNL A   1      60.726  17.313   8.526  1.00  0.00    +0.000 H 
ATOM    118  H26 UNL A   1      59.107  13.971  10.497  1.00  0.00    +0.000 H 
ATOM    119  H27 UNL A   1      57.612  15.422  11.733  1.00  0.00    +0.000 H 
ATOM     91  C65 UNL A   1      59.306  17.760  10.026  1.00  0.00    +0.000 C 
ATOM     92  C66 UNL A   1      60.070  16.914   9.215  1.00  0.00    +0.000 C 
ATOM     30  C23 UNL A   1      59.943  15.527   9.340  1.00  0.00    +0.000 C 
ATOM     31  C24 UNL A   1      59.112  14.988  10.324  1.00  0.00    +0.000 C 
ATOM     32  C25 UNL A   1      58.291  15.827  11.070  1.00  0.00    +0.000 C 
BRANCH   30    2
ATOM      1  O1  UNL A   1      61.649  14.005   8.820  1.00  0.00    +0.000 O 
ATOM      2  C1  UNL A   1      60.690  14.652   8.409  1.00  0.00    +0.000 C 
BRANCH    2    3
ATOM      3  N1  UNL A   1      60.333  14.596   7.083  1.00  0.00    +0.000 N 
ATOM     93  H1  UNL A   1      60.889  15.133   6.473  1.00  0.00    +0.000 H 
BRANCH    3    4
ATOM      4  C2  UNL A   1      59.252  13.858   6.450  1.00  0.00    +0.000 C 
ATOM     94  H2  UNL A   1      58.677  13.377   7.214  1.00  0.00    +0.000 H 
ATOM     95  H3  UNL A   1      59.698  13.155   5.778  1.00  0.00    +0.000 H 
BRANCH    4    5
ATOM     97  H5  UNL A   1      58.708  14.726   4.632  1.00  0.00    +0.000 H 
ATOM      5  C3  UNL A   1      58.321  14.740   5.629  1.00  0.00    +0.000 C 
ATOM     96  H4  UNL A   1      57.331  14.345   5.714  1.00  0.00    +0.000 H 
BRANCH    5    6
ATOM     98  H6  UNL A   1      58.254  16.800   5.144  1.00  0.00    +0.000 H 
ATOM     99  H7  UNL A   1      59.143  16.371   6.644  1.00  0.00    +0.000 H 
ATOM      6  C4  UNL A   1      58.276  16.212   6.037  1.00  0.00    +0.000 C 
BRANCH    6    7
ATOM    100  H8  UNL A   1      56.495  17.319   6.335  1.00  0.00    +0.000 H 
ATOM    101  H9  UNL A   1      57.508  17.045   7.794  1.00  0.00    +0.000 H 
ATOM      7  C5  UNL A   1      57.085  16.630   6.903  1.00  0.00    +0.000 C 
BRANCH    7    8
ATOM    102  H10 UNL A   1      56.147  15.514   8.444  1.00  0.00    +0.000 H 
ATOM    103  H11 UNL A   1      56.564  14.602   6.955  1.00  0.00    +0.000 H 
ATOM      8  C6  UNL A   1      56.162  15.501   7.374  1.00  0.00    +0.000 C 
BRANCH    8    9
ATOM      9  C7  UNL A   1      54.719  15.577   6.883  1.00  0.00    +0.000 C 
ATOM    105  H13 UNL A   1      54.640  14.975   6.003  1.00  0.00    +0.000 H 
ATOM    104  H12 UNL A   1      54.072  15.222   7.659  1.00  0.00    +0.000 H 
BRANCH    9   10
ATOM     10  N2  UNL A   1      54.328  16.928   6.534  1.00  0.00    +0.000 N 
ATOM    106  H14 UNL A   1      54.637  17.635   7.144  1.00  0.00    +0.000 H 
BRANCH   10   11
ATOM     11  C8  UNL A   1      53.581  17.347   5.461  1.00  0.00    +0.000 C 
ATOM     12  O2  UNL A   1      53.834  18.416   4.913  1.00  0.00    +0.000 O 
BRANCH   11   13
ATOM    107  H15 UNL A   1      51.049  17.358   6.102  1.00  0.00    +0.000 H 
ATOM     13  C9  UNL A   1      52.538  16.471   4.895  1.00  0.00    +0.000 C 
ATOM     14  C10 UNL A   1      51.235  16.641   5.385  1.00  0.00    +0.000 C 
ATOM     15  C11 UNL A   1      50.182  15.848   4.912  1.00  0.00    +0.000 C 
ATOM    115  H23 UNL A   1      49.708  14.292   3.566  1.00  0.00    +0.000 H 
ATOM    116  H24 UNL A   1      51.968  13.961   2.757  1.00  0.00    +0.000 H 
ATOM     26  C20 UNL A   1      50.471  14.877   3.939  1.00  0.00    +0.000 C 
ATOM     27  C21 UNL A   1      51.775  14.687   3.465  1.00  0.00    +0.000 C 
ATOM     28  C22 UNL A   1      52.812  15.478   3.952  1.00  0.00    +0.000 C 
BRANCH   15   16
ATOM    108  H16 UNL A   1      48.654  16.103   6.404  1.00  0.00    +0.000 H 
ATOM     16  C12 UNL A   1      48.792  15.972   5.389  1.00  0.00    +0.000 C 
BRANCH   16   17
ATOM     17  C13 UNL A   1      47.689  15.929   4.624  1.00  0.00    +0.000 C 
ATOM    109  H17 UNL A   1      47.356  15.011   4.293  1.00  0.00    +0.000 H 
BRANCH   17   18
ATOM    110  H18 UNL A   1      45.494  16.134   3.039  1.00  0.00    +0.000 H 
ATOM    112  H20 UNL A   1      44.934  20.288   3.371  1.00  0.00    +0.000 H 
ATOM     18  C14 UNL A   1      46.931  17.129   4.234  1.00  0.00    +0.000 C 
ATOM     19  C15 UNL A   1      45.797  17.047   3.415  1.00  0.00    +0.000 C 
ATOM    114  H22 UNL A   1      48.137  18.444   5.375  1.00  0.00    +0.000 H 
ATOM     20  C16 UNL A   1      45.079  18.201   3.108  1.00  0.00    +0.000 C 
ATOM     22  C17 UNL A   1      45.467  19.437   3.609  1.00  0.00    +0.000 C 
ATOM     23  C18 UNL A   1      46.582  19.514   4.433  1.00  0.00    +0.000 C 
ATOM     25  C19 UNL A   1      47.315  18.373   4.755  1.00  0.00    +0.000 C 
BRANCH   20   21
ATOM     21  O3  UNL A   1      43.968  18.155   2.317  1.00  0.00    +0.000 O 
ATOM    111  H19 UNL A   1      44.040  18.322   1.398  1.00  0.00    +0.000 H 
ENDBRANCH   20   21
BRANCH   23   24
ATOM    113  H21 UNL A   1      46.658  21.000   5.777  1.00  0.00    +0.000 H 
ATOM     24  O4  UNL A   1      46.931  20.740   4.919  1.00  0.00    +0.000 O 
ENDBRANCH   23   24
ENDBRANCH   17   18
ENDBRANCH   16   17
ENDBRANCH   15   16
BRANCH   28   29
ATOM    117  H25 UNL A   1      54.757  15.899   3.704  1.00  0.00    +0.000 H 
ATOM     29  O5  UNL A   1      54.085  15.278   3.502  1.00  0.00    +0.000 O 
ENDBRANCH   28   29
ENDBRANCH   11   13
ENDBRANCH   10   11
ENDBRANCH    9   10
ENDBRANCH    8    9
ENDBRANCH    7    8
ENDBRANCH    6    7
ENDBRANCH    5    6
ENDBRANCH    4    5
ENDBRANCH    3    4
ENDBRANCH    2    3
ENDBRANCH   30    2
ENDBRANCH   34   33
BRANCH   38   39
ATOM     39  C31 UNL A   1      51.855  19.640  10.239  1.00  0.00    +0.000 C 
ATOM     40  C32 UNL A   1      51.471  20.773   9.507  1.00  0.00    +0.000 C 
ATOM     41  F1  UNL A   1      51.967  21.979   9.822  1.00  0.00    +0.000 F 
ATOM     42  C33 UNL A   1      50.549  20.677   8.468  1.00  0.00    +0.000 C 
ATOM     43  F2  UNL A   1      50.168  21.779   7.808  1.00  0.00    +0.000 F 
ATOM     44  C34 UNL A   1      50.018  19.444   8.118  1.00  0.00    +0.000 C 
ATOM     45  F3  UNL A   1      49.137  19.351   7.113  1.00  0.00    +0.000 F 
ATOM     46  C35 UNL A   1      50.396  18.307   8.818  1.00  0.00    +0.000 C 
ATOM     47  F4  UNL A   1      49.893  17.113   8.474  1.00  0.00    +0.000 F 
ATOM     48  C36 UNL A   1      51.299  18.404   9.874  1.00  0.00    +0.000 C 
ATOM     49  F5  UNL A   1      51.638  17.288  10.536  1.00  0.00    +0.000 F 
ENDBRANCH   38   39
BRANCH   55   56
ATOM     65  C47 UNL A   1      51.718  21.809  17.872  1.00  0.00    +0.000 C 
ATOM     66  F10 UNL A   1      51.846  20.481  18.009  1.00  0.00    +0.000 F 
ATOM     56  C42 UNL A   1      52.394  22.483  16.844  1.00  0.00    +0.000 C 
ATOM     57  C43 UNL A   1      52.224  23.870  16.741  1.00  0.00    +0.000 C 
ATOM     58  F6  UNL A   1      52.864  24.560  15.785  1.00  0.00    +0.000 F 
ATOM     59  C44 UNL A   1      51.430  24.562  17.652  1.00  0.00    +0.000 C 
ATOM     60  F7  UNL A   1      51.322  25.894  17.567  1.00  0.00    +0.000 F 
ATOM     61  C45 UNL A   1      50.767  23.875  18.659  1.00  0.00    +0.000 C 
ATOM     62  F8  UNL A   1      50.004  24.543  19.536  1.00  0.00    +0.000 F 
ATOM     63  C46 UNL A   1      50.904  22.500  18.764  1.00  0.00    +0.000 C 
ATOM     64  F9  UNL A   1      50.257  21.835  19.732  1.00  0.00    +0.000 F 
ENDBRANCH   55   56
BRANCH   70   71
ATOM     71  C51 UNL A   1      58.962  20.214  17.219  1.00  0.00    +0.000 C 
ATOM     72  C52 UNL A   1      59.715  21.381  17.406  1.00  0.00    +0.000 C 
ATOM     73  F11 UNL A   1      59.515  22.441  16.609  1.00  0.00    +0.000 F 
ATOM     74  C53 UNL A   1      60.696  21.452  18.392  1.00  0.00    +0.000 C 
ATOM     75  F12 UNL A   1      61.427  22.567  18.527  1.00  0.00    +0.000 F 
ATOM     76  C54 UNL A   1      60.925  20.369  19.226  1.00  0.00    +0.000 C 
ATOM     77  F13 UNL A   1      61.862  20.441  20.180  1.00  0.00    +0.000 F 
ATOM     78  C55 UNL A   1      60.184  19.207  19.066  1.00  0.00    +0.000 C 
ATOM     79  F14 UNL A   1      60.391  18.162  19.881  1.00  0.00    +0.000 F 
ATOM     80  C56 UNL A   1      59.222  19.125  18.063  1.00  0.00    +0.000 C 
ATOM     81  F15 UNL A   1      58.525  17.988  17.927  1.00  0.00    +0.000 F 
ENDBRANCH   70   71
TORSDOF 21
ENDMDL
MODEL 6
REMARK VINA RESULT:      -9.5     47.158     52.295
ROOT
ATOM    129  H37 UNL A   1      15.229  56.622   4.170  1.00  0.00    +0.000 H 
ATOM     34  C27 UNL A   1      13.978  54.073   4.488  1.00  0.00    +0.000 C 
ATOM     35  C28 UNL A   1      15.010  54.476   3.470  1.00  0.00    +0.000 C 
ATOM     36  N3  UNL A   1      15.565  53.756   2.526  1.00  0.00    +0.000 N 
ATOM     37  C29 UNL A   1      16.420  54.611   1.844  1.00  0.00    +0.000 C 
ATOM     38  C30 UNL A   1      17.236  54.333   0.798  1.00  0.00    +0.000 C 
ATOM     50  C37 UNL A   1      17.378  53.031   0.198  1.00  0.00    +0.000 C 
ATOM     51  C38 UNL A   1      18.219  52.641  -0.830  1.00  0.00    +0.000 C 
ATOM     52  C39 UNL A   1      17.979  51.290  -1.104  1.00  0.00    +0.000 C 
ATOM     53  C40 UNL A   1      17.020  50.826  -0.218  1.00  0.00    +0.000 C 
ATOM     54  N4  UNL A   1      16.658  51.907   0.573  1.00  0.00    +0.000 N 
ATOM     55  C41 UNL A   1      16.474  49.499  -0.100  1.00  0.00    +0.000 C 
ATOM     67  C48 UNL A   1      15.542  49.121   0.808  1.00  0.00    +0.000 C 
ATOM     68  N5  UNL A   1      14.922  49.880   1.790  1.00  0.00    +0.000 N 
ATOM     69  C49 UNL A   1      14.084  49.074   2.392  1.00  0.00    +0.000 C 
ATOM     70  C50 UNL A   1      13.163  49.354   3.545  1.00  0.00    +0.000 C 
ATOM     82  C57 UNL A   1      13.109  50.598   4.056  1.00  0.00    +0.000 C 
ATOM     83  C58 UNL A   1      12.271  51.010   5.176  1.00  0.00    +0.000 C 
ATOM     84  C59 UNL A   1      12.465  52.317   5.407  1.00  0.00    +0.000 C 
ATOM     85  C60 UNL A   1      13.480  52.821   4.482  1.00  0.00    +0.000 C 
ATOM     86  N6  UNL A   1      13.777  51.740   3.691  1.00  0.00    +0.000 N 
ATOM     87  C61 UNL A   1      14.064  47.710   1.850  1.00  0.00    +0.000 C 
ATOM     88  C62 UNL A   1      14.998  47.782   0.911  1.00  0.00    +0.000 C 
ATOM     89  C63 UNL A   1      16.300  55.911   2.468  1.00  0.00    +0.000 C 
ATOM     90  C64 UNL A   1      15.476  55.870   3.507  1.00  0.00    +0.000 C 
ATOM    120  H28 UNL A   1      18.904  53.243  -1.312  1.00  0.00    +0.000 H 
ATOM    121  H29 UNL A   1      18.438  50.732  -1.841  1.00  0.00    +0.000 H 
ATOM    122  H30 UNL A   1      15.987  51.879   1.293  1.00  0.00    +0.000 H 
ATOM    123  H31 UNL A   1      11.632  50.396   5.706  1.00  0.00    +0.000 H 
ATOM    124  H32 UNL A   1      11.976  52.878   6.122  1.00  0.00    +0.000 H 
ATOM    125  H33 UNL A   1      14.408  51.779   2.936  1.00  0.00    +0.000 H 
ATOM    126  H34 UNL A   1      13.478  46.906   2.126  1.00  0.00    +0.000 H 
ATOM    127  H35 UNL A   1      15.299  46.985   0.328  1.00  0.00    +0.000 H 
ATOM    128  H36 UNL A   1      16.789  56.760   2.146  1.00  0.00    +0.000 H 
ENDROOT
BRANCH   34   33
ATOM     33  C26 UNL A   1      13.525  55.019   5.540  1.00  0.00    +0.000 C 
ATOM    130  H38 UNL A   1      11.784  55.686   4.538  1.00  0.00    +0.000 H 
ATOM    131  H39 UNL A   1      11.171  57.319   6.228  1.00  0.00    +0.000 H 
ATOM    118  H26 UNL A   1      14.333  55.983   8.657  1.00  0.00    +0.000 H 
ATOM    119  H27 UNL A   1      15.108  54.552   6.863  1.00  0.00    +0.000 H 
ATOM     91  C65 UNL A   1      12.368  55.797   5.382  1.00  0.00    +0.000 C 
ATOM     92  C66 UNL A   1      12.002  56.723   6.364  1.00  0.00    +0.000 C 
ATOM     30  C23 UNL A   1      12.764  56.839   7.531  1.00  0.00    +0.000 C 
ATOM     31  C24 UNL A   1      13.844  55.981   7.748  1.00  0.00    +0.000 C 
ATOM     32  C25 UNL A   1      14.257  55.121   6.735  1.00  0.00    +0.000 C 
BRANCH   30    2
ATOM      1  O1  UNL A   1      13.155  58.857   8.660  1.00  0.00    +0.000 O 
ATOM      2  C1  UNL A   1      12.414  57.889   8.515  1.00  0.00    +0.000 C 
BRANCH    2    3
ATOM      3  N1  UNL A   1      11.286  57.757   9.288  1.00  0.00    +0.000 N 
ATOM     93  H1  UNL A   1      10.496  58.251   8.969  1.00  0.00    +0.000 H 
BRANCH    3    4
ATOM      4  C2  UNL A   1      11.089  56.992  10.509  1.00  0.00    +0.000 C 
ATOM     94  H2  UNL A   1      10.083  57.137  10.841  1.00  0.00    +0.000 H 
ATOM     95  H3  UNL A   1      11.805  57.345  11.223  1.00  0.00    +0.000 H 
BRANCH    4    5
ATOM     97  H5  UNL A   1      12.249  55.413   9.792  1.00  0.00    +0.000 H 
ATOM      5  C3  UNL A   1      11.329  55.499  10.330  1.00  0.00    +0.000 C 
ATOM     96  H4  UNL A   1      11.350  55.049  11.300  1.00  0.00    +0.000 H 
BRANCH    5    6
ATOM     98  H6  UNL A   1       9.687  55.493   8.993  1.00  0.00    +0.000 H 
ATOM     99  H7  UNL A   1       9.742  54.147  10.180  1.00  0.00    +0.000 H 
ATOM      6  C4  UNL A   1      10.286  54.760   9.492  1.00  0.00    +0.000 C 
BRANCH    6    7
ATOM    100  H8  UNL A   1      11.502  54.357   7.805  1.00  0.00    +0.000 H 
ATOM    101  H9  UNL A   1       9.978  53.412   7.925  1.00  0.00    +0.000 H 
ATOM      7  C5  UNL A   1      10.836  53.802   8.432  1.00  0.00    +0.000 C 
BRANCH    7    8
ATOM    102  H10 UNL A   1      12.227  52.902   9.756  1.00  0.00    +0.000 H 
ATOM    103  H11 UNL A   1      12.127  52.185   8.114  1.00  0.00    +0.000 H 
ATOM      8  C6  UNL A   1      11.595  52.579   8.955  1.00  0.00    +0.000 C 
BRANCH    8    9
ATOM      9  C7  UNL A   1      10.730  51.433   9.473  1.00  0.00    +0.000 C 
ATOM    105  H13 UNL A   1      11.381  50.630   9.749  1.00  0.00    +0.000 H 
ATOM    104  H12 UNL A   1      10.163  51.781  10.311  1.00  0.00    +0.000 H 
BRANCH    9   10
ATOM     10  N2  UNL A   1       9.815  50.937   8.465  1.00  0.00    +0.000 N 
ATOM    106  H14 UNL A   1       9.004  51.475   8.320  1.00  0.00    +0.000 H 
BRANCH   10   11
ATOM     11  C8  UNL A   1       9.935  49.813   7.686  1.00  0.00    +0.000 C 
ATOM     12  O2  UNL A   1       9.781  49.885   6.470  1.00  0.00    +0.000 O 
BRANCH   11   13
ATOM    107  H15 UNL A   1      12.349  49.193   8.467  1.00  0.00    +0.000 H 
ATOM     13  C9  UNL A   1      10.351  48.533   8.290  1.00  0.00    +0.000 C 
ATOM     14  C10 UNL A   1      11.704  48.406   8.635  1.00  0.00    +0.000 C 
ATOM     15  C11 UNL A   1      12.190  47.223   9.205  1.00  0.00    +0.000 C 
ATOM    115  H23 UNL A   1      11.619  45.295   9.849  1.00  0.00    +0.000 H 
ATOM    116  H24 UNL A   1       9.291  45.493   9.204  1.00  0.00    +0.000 H 
ATOM     26  C20 UNL A   1      11.285  46.170   9.416  1.00  0.00    +0.000 C 
ATOM     27  C21 UNL A   1       9.938  46.283   9.050  1.00  0.00    +0.000 C 
ATOM     28  C22 UNL A   1       9.473  47.463   8.476  1.00  0.00    +0.000 C 
BRANCH   15   16
ATOM    108  H16 UNL A   1      13.788  46.725  10.556  1.00  0.00    +0.000 H 
ATOM     16  C12 UNL A   1      13.602  47.024   9.586  1.00  0.00    +0.000 C 
BRANCH   16   17
ATOM     17  C13 UNL A   1      14.666  47.196   8.785  1.00  0.00    +0.000 C 
ATOM    109  H17 UNL A   1      14.833  46.508   8.035  1.00  0.00    +0.000 H 
BRANCH   17   18
ATOM    110  H18 UNL A   1      15.917  48.121  11.010  1.00  0.00    +0.000 H 
ATOM    112  H20 UNL A   1      18.152  51.178   9.181  1.00  0.00    +0.000 H 
ATOM     18  C14 UNL A   1      15.606  48.319   8.925  1.00  0.00    +0.000 C 
ATOM     19  C15 UNL A   1      16.179  48.648  10.161  1.00  0.00    +0.000 C 
ATOM    114  H22 UNL A   1      15.591  48.785   6.859  1.00  0.00    +0.000 H 
ATOM     20  C16 UNL A   1      17.103  49.688  10.243  1.00  0.00    +0.000 C 
ATOM     22  C17 UNL A   1      17.472  50.404   9.111  1.00  0.00    +0.000 C 
ATOM     23  C18 UNL A   1      16.916  50.067   7.884  1.00  0.00    +0.000 C 
ATOM     25  C19 UNL A   1      15.991  49.030   7.778  1.00  0.00    +0.000 C 
BRANCH   20   21
ATOM     21  O3  UNL A   1      17.681  50.030  11.430  1.00  0.00    +0.000 O 
ATOM    111  H19 UNL A   1      18.187  50.815  11.496  1.00  0.00    +0.000 H 
ENDBRANCH   20   21
BRANCH   23   24
ATOM    113  H21 UNL A   1      17.851  50.382   6.139  1.00  0.00    +0.000 H 
ATOM     24  O4  UNL A   1      17.307  50.782   6.790  1.00  0.00    +0.000 O 
ENDBRANCH   23   24
ENDBRANCH   17   18
ENDBRANCH   16   17
ENDBRANCH   15   16
BRANCH   28   29
ATOM    117  H25 UNL A   1       7.905  48.198   7.463  1.00  0.00    +0.000 H 
ATOM     29  O5  UNL A   1       8.163  47.564   8.103  1.00  0.00    +0.000 O 
ENDBRANCH   28   29
ENDBRANCH   11   13
ENDBRANCH   10   11
ENDBRANCH    9   10
ENDBRANCH    8    9
ENDBRANCH    7    8
ENDBRANCH    6    7
ENDBRANCH    5    6
ENDBRANCH    4    5
ENDBRANCH    3    4
ENDBRANCH    2    3
ENDBRANCH   30    2
ENDBRANCH   34   33
BRANCH   38   39
ATOM     39  C31 UNL A   1      18.035  55.465   0.218  1.00  0.00    +0.000 C 
ATOM     40  C32 UNL A   1      19.254  55.872   0.778  1.00  0.00    +0.000 C 
ATOM     41  F1  UNL A   1      19.713  55.287   1.895  1.00  0.00    +0.000 F 
ATOM     42  C33 UNL A   1      19.994  56.906   0.209  1.00  0.00    +0.000 C 
ATOM     43  F2  UNL A   1      21.137  57.304   0.784  1.00  0.00    +0.000 F 
ATOM     44  C34 UNL A   1      19.546  57.532  -0.945  1.00  0.00    +0.000 C 
ATOM     45  F3  UNL A   1      20.263  58.521  -1.495  1.00  0.00    +0.000 F 
ATOM     46  C35 UNL A   1      18.351  57.135  -1.525  1.00  0.00    +0.000 C 
ATOM     47  F4  UNL A   1      17.922  57.729  -2.647  1.00  0.00    +0.000 F 
ATOM     48  C36 UNL A   1      17.596  56.118  -0.944  1.00  0.00    +0.000 C 
ATOM     49  F5  UNL A   1      16.441  55.762  -1.525  1.00  0.00    +0.000 F 
ENDBRANCH   38   39
BRANCH   55   56
ATOM     65  C47 UNL A   1      18.148  47.720  -0.716  1.00  0.00    +0.000 C 
ATOM     66  F10 UNL A   1      18.806  47.964   0.427  1.00  0.00    +0.000 F 
ATOM     56  C42 UNL A   1      16.985  48.441  -1.031  1.00  0.00    +0.000 C 
ATOM     57  C43 UNL A   1      16.337  48.151  -2.240  1.00  0.00    +0.000 C 
ATOM     58  F6  UNL A   1      15.213  48.802  -2.576  1.00  0.00    +0.000 F 
ATOM     59  C44 UNL A   1      16.817  47.157  -3.088  1.00  0.00    +0.000 C 
ATOM     60  F7  UNL A   1      16.154  46.862  -4.214  1.00  0.00    +0.000 F 
ATOM     61  C45 UNL A   1      17.971  46.459  -2.759  1.00  0.00    +0.000 C 
ATOM     62  F8  UNL A   1      18.431  45.501  -3.576  1.00  0.00    +0.000 F 
ATOM     63  C46 UNL A   1      18.640  46.745  -1.579  1.00  0.00    +0.000 C 
ATOM     64  F9  UNL A   1      19.759  46.078  -1.265  1.00  0.00    +0.000 F 
ENDBRANCH   55   56
BRANCH   70   71
ATOM     71  C51 UNL A   1      12.330  48.277   4.139  1.00  0.00    +0.000 C 
ATOM     72  C52 UNL A   1      10.999  48.098   3.742  1.00  0.00    +0.000 C 
ATOM     73  F11 UNL A   1      10.451  48.925   2.839  1.00  0.00    +0.000 F 
ATOM     74  C53 UNL A   1      10.216  47.086   4.293  1.00  0.00    +0.000 C 
ATOM     75  F12 UNL A   1       8.934  46.957   3.923  1.00  0.00    +0.000 F 
ATOM     76  C54 UNL A   1      10.757  46.220   5.230  1.00  0.00    +0.000 C 
ATOM     77  F13 UNL A   1      10.006  45.241   5.753  1.00  0.00    +0.000 F 
ATOM     78  C55 UNL A   1      12.076  46.373   5.630  1.00  0.00    +0.000 C 
ATOM     79  F14 UNL A   1      12.608  45.528   6.525  1.00  0.00    +0.000 F 
ATOM     80  C56 UNL A   1      12.851  47.400   5.100  1.00  0.00    +0.000 C 
ATOM     81  F15 UNL A   1      14.122  47.529   5.509  1.00  0.00    +0.000 F 
ENDBRANCH   70   71
TORSDOF 21
ENDMDL
MODEL 7
REMARK VINA RESULT:      -9.4     47.188     52.292
ROOT
ATOM    129  H37 UNL A   1      14.963  56.600   4.284  1.00  0.00    +0.000 H 
ATOM     34  C27 UNL A   1      13.809  54.011   4.640  1.00  0.00    +0.000 C 
ATOM     35  C28 UNL A   1      14.806  54.443   3.601  1.00  0.00    +0.000 C 
ATOM     36  N3  UNL A   1      15.369  53.736   2.651  1.00  0.00    +0.000 N 
ATOM     37  C29 UNL A   1      16.181  54.616   1.948  1.00  0.00    +0.000 C 
ATOM     38  C30 UNL A   1      16.986  54.360   0.888  1.00  0.00    +0.000 C 
ATOM     50  C37 UNL A   1      17.162  53.060   0.294  1.00  0.00    +0.000 C 
ATOM     51  C38 UNL A   1      17.998  52.692  -0.747  1.00  0.00    +0.000 C 
ATOM     52  C39 UNL A   1      17.800  51.332  -1.009  1.00  0.00    +0.000 C 
ATOM     53  C40 UNL A   1      16.875  50.841  -0.102  1.00  0.00    +0.000 C 
ATOM     54  N4  UNL A   1      16.489  51.914   0.689  1.00  0.00    +0.000 N 
ATOM     55  C41 UNL A   1      16.377  49.497   0.035  1.00  0.00    +0.000 C 
ATOM     67  C48 UNL A   1      15.476  49.092   0.962  1.00  0.00    +0.000 C 
ATOM     68  N5  UNL A   1      14.848  49.836   1.950  1.00  0.00    +0.000 N 
ATOM     69  C49 UNL A   1      14.051  49.005   2.573  1.00  0.00    +0.000 C 
ATOM     70  C50 UNL A   1      13.142  49.260   3.742  1.00  0.00    +0.000 C 
ATOM     82  C57 UNL A   1      13.054  50.505   4.246  1.00  0.00    +0.000 C 
ATOM     83  C58 UNL A   1      12.222  50.895   5.379  1.00  0.00    +0.000 C 
ATOM     84  C59 UNL A   1      12.375  52.210   5.598  1.00  0.00    +0.000 C 
ATOM     85  C60 UNL A   1      13.355  52.743   4.651  1.00  0.00    +0.000 C 
ATOM     86  N6  UNL A   1      13.675  51.668   3.861  1.00  0.00    +0.000 N 
ATOM     87  C61 UNL A   1      14.068  47.637   2.039  1.00  0.00    +0.000 C 
ATOM     88  C62 UNL A   1      14.981  47.736   1.083  1.00  0.00    +0.000 C 
ATOM     89  C63 UNL A   1      16.027  55.916   2.567  1.00  0.00    +0.000 C 
ATOM     90  C64 UNL A   1      15.224  55.853   3.621  1.00  0.00    +0.000 C 
ATOM    120  H28 UNL A   1      18.652  53.315  -1.245  1.00  0.00    +0.000 H 
ATOM    121  H29 UNL A   1      18.264  50.786  -1.751  1.00  0.00    +0.000 H 
ATOM    122  H30 UNL A   1      15.833  51.867   1.422  1.00  0.00    +0.000 H 
ATOM    123  H31 UNL A   1      11.616  50.263   5.924  1.00  0.00    +0.000 H 
ATOM    124  H32 UNL A   1      11.880  52.758   6.319  1.00  0.00    +0.000 H 
ATOM    125  H33 UNL A   1      14.289  51.723   3.095  1.00  0.00    +0.000 H 
ATOM    126  H34 UNL A   1      13.515  46.815   2.331  1.00  0.00    +0.000 H 
ATOM    127  H35 UNL A   1      15.299  46.946   0.499  1.00  0.00    +0.000 H 
ATOM    128  H36 UNL A   1      16.480  56.779   2.230  1.00  0.00    +0.000 H 
ENDROOT
BRANCH   34   33
ATOM     33  C26 UNL A   1      13.342  54.948   5.695  1.00  0.00    +0.000 C 
ATOM    130  H38 UNL A   1      11.495  55.441   4.787  1.00  0.00    +0.000 H 
ATOM    131  H39 UNL A   1      10.851  57.068   6.472  1.00  0.00    +0.000 H 
ATOM    118  H26 UNL A   1      14.252  56.066   8.731  1.00  0.00    +0.000 H 
ATOM    119  H27 UNL A   1      15.035  54.650   6.929  1.00  0.00    +0.000 H 
ATOM     91  C65 UNL A   1      12.118  55.624   5.590  1.00  0.00    +0.000 C 
ATOM     92  C66 UNL A   1      11.735  56.546   6.570  1.00  0.00    +0.000 C 
ATOM     30  C23 UNL A   1      12.553  56.758   7.684  1.00  0.00    +0.000 C 
ATOM     31  C24 UNL A   1      13.712  55.997   7.855  1.00  0.00    +0.000 C 
ATOM     32  C25 UNL A   1      14.133  55.144   6.840  1.00  0.00    +0.000 C 
BRANCH   30    2
ATOM      1  O1  UNL A   1      12.885  58.799   8.790  1.00  0.00    +0.000 O 
ATOM      2  C1  UNL A   1      12.177  57.804   8.662  1.00  0.00    +0.000 C 
BRANCH    2    3
ATOM      3  N1  UNL A   1      11.063  57.640   9.449  1.00  0.00    +0.000 N 
ATOM     93  H1  UNL A   1      10.236  58.045   9.100  1.00  0.00    +0.000 H 
BRANCH    3    4
ATOM      4  C2  UNL A   1      10.927  56.953  10.724  1.00  0.00    +0.000 C 
ATOM     94  H2  UNL A   1       9.893  56.729  10.880  1.00  0.00    +0.000 H 
ATOM     95  H3  UNL A   1      11.317  57.605  11.478  1.00  0.00    +0.000 H 
BRANCH    4    5
ATOM     97  H5  UNL A   1      12.636  55.842  10.277  1.00  0.00    +0.000 H 
ATOM      5  C3  UNL A   1      11.719  55.654  10.795  1.00  0.00    +0.000 C 
ATOM     96  H4  UNL A   1      11.849  55.404  11.827  1.00  0.00    +0.000 H 
BRANCH    5    6
ATOM     98  H6  UNL A   1      11.119  54.631   9.042  1.00  0.00    +0.000 H 
ATOM     99  H7  UNL A   1      10.091  54.381  10.493  1.00  0.00    +0.000 H 
ATOM      6  C4  UNL A   1      11.082  54.454  10.097  1.00  0.00    +0.000 C 
BRANCH    6    7
ATOM    100  H8  UNL A   1      10.990  52.343  10.237  1.00  0.00    +0.000 H 
ATOM    101  H9  UNL A   1      12.129  53.160  11.360  1.00  0.00    +0.000 H 
ATOM      7  C5  UNL A   1      11.737  53.097  10.367  1.00  0.00    +0.000 C 
BRANCH    7    8
ATOM    102  H10 UNL A   1      12.860  53.314   8.580  1.00  0.00    +0.000 H 
ATOM    103  H11 UNL A   1      12.862  51.677   9.316  1.00  0.00    +0.000 H 
ATOM      8  C6  UNL A   1      12.930  52.733   9.476  1.00  0.00    +0.000 C 
BRANCH    8    9
ATOM      9  C7  UNL A   1      14.309  52.973  10.085  1.00  0.00    +0.000 C 
ATOM    105  H13 UNL A   1      15.012  52.370   9.549  1.00  0.00    +0.000 H 
ATOM    104  H12 UNL A   1      14.545  54.013  10.003  1.00  0.00    +0.000 H 
BRANCH    9   10
ATOM     10  N2  UNL A   1      14.367  52.589  11.481  1.00  0.00    +0.000 N 
ATOM    106  H14 UNL A   1      14.093  53.279  12.127  1.00  0.00    +0.000 H 
BRANCH   10   11
ATOM     11  C8  UNL A   1      14.756  51.388  12.018  1.00  0.00    +0.000 C 
ATOM     12  O2  UNL A   1      14.575  51.157  13.210  1.00  0.00    +0.000 O 
BRANCH   11   13
ATOM    107  H15 UNL A   1      13.402  49.415  10.969  1.00  0.00    +0.000 H 
ATOM     13  C9  UNL A   1      15.299  50.327  11.148  1.00  0.00    +0.000 C 
ATOM     14  C10 UNL A   1      14.394  49.356  10.694  1.00  0.00    +0.000 C 
ATOM     15  C11 UNL A   1      14.822  48.308   9.870  1.00  0.00    +0.000 C 
ATOM    115  H23 UNL A   1      16.515  47.499   8.901  1.00  0.00    +0.000 H 
ATOM    116  H24 UNL A   1      18.089  49.145   9.728  1.00  0.00    +0.000 H 
ATOM     26  C20 UNL A   1      16.181  48.255   9.519  1.00  0.00    +0.000 C 
ATOM     27  C21 UNL A   1      17.093  49.208   9.990  1.00  0.00    +0.000 C 
ATOM     28  C22 UNL A   1      16.652  50.239  10.815  1.00  0.00    +0.000 C 
BRANCH   15   16
ATOM    108  H16 UNL A   1      14.238  46.728   8.532  1.00  0.00    +0.000 H 
ATOM     16  C12 UNL A   1      13.924  47.252   9.364  1.00  0.00    +0.000 C 
BRANCH   16   17
ATOM     17  C13 UNL A   1      12.733  46.913   9.886  1.00  0.00    +0.000 C 
ATOM    109  H17 UNL A   1      12.718  46.328  10.735  1.00  0.00    +0.000 H 
BRANCH   17   18
ATOM    110  H18 UNL A   1      12.053  49.291   8.766  1.00  0.00    +0.000 H 
ATOM    112  H20 UNL A   1       8.109  48.310   7.690  1.00  0.00    +0.000 H 
ATOM     18  C14 UNL A   1      11.449  47.334   9.305  1.00  0.00    +0.000 C 
ATOM     19  C15 UNL A   1      11.279  48.608   8.745  1.00  0.00    +0.000 C 
ATOM    114  H22 UNL A   1      10.514  45.464   9.638  1.00  0.00    +0.000 H 
ATOM     20  C16 UNL A   1      10.061  48.952   8.161  1.00  0.00    +0.000 C 
ATOM     22  C17 UNL A   1       9.010  48.046   8.118  1.00  0.00    +0.000 C 
ATOM     23  C18 UNL A   1       9.185  46.778   8.659  1.00  0.00    +0.000 C 
ATOM     25  C19 UNL A   1      10.395  46.412   9.247  1.00  0.00    +0.000 C 
BRANCH   20   21
ATOM     21  O3  UNL A   1       9.865  50.182   7.605  1.00  0.00    +0.000 O 
ATOM    111  H19 UNL A   1       9.955  50.298   6.680  1.00  0.00    +0.000 H 
ENDBRANCH   20   21
BRANCH   23   24
ATOM    113  H21 UNL A   1       8.289  44.985   8.676  1.00  0.00    +0.000 H 
ATOM     24  O4  UNL A   1       8.138  45.907   8.592  1.00  0.00    +0.000 O 
ENDBRANCH   23   24
ENDBRANCH   17   18
ENDBRANCH   16   17
ENDBRANCH   15   16
BRANCH   28   29
ATOM    117  H25 UNL A   1      18.121  51.601  10.695  1.00  0.00    +0.000 H 
ATOM     29  O5  UNL A   1      17.546  51.157  11.288  1.00  0.00    +0.000 O 
ENDBRANCH   28   29
ENDBRANCH   11   13
ENDBRANCH   10   11
ENDBRANCH    9   10
ENDBRANCH    8    9
ENDBRANCH    7    8
ENDBRANCH    6    7
ENDBRANCH    5    6
ENDBRANCH    4    5
ENDBRANCH    3    4
ENDBRANCH    2    3
ENDBRANCH   30    2
ENDBRANCH   34   33
BRANCH   38   39
ATOM     39  C31 UNL A   1      17.734  55.515   0.288  1.00  0.00    +0.000 C 
ATOM     40  C32 UNL A   1      17.190  56.291  -0.745  1.00  0.00    +0.000 C 
ATOM     41  F1  UNL A   1      15.993  55.979  -1.266  1.00  0.00    +0.000 F 
ATOM     42  C33 UNL A   1      17.888  57.376  -1.271  1.00  0.00    +0.000 C 
ATOM     43  F2  UNL A   1      17.365  58.080  -2.285  1.00  0.00    +0.000 F 
ATOM     44  C34 UNL A   1      19.128  57.724  -0.755  1.00  0.00    +0.000 C 
ATOM     45  F3  UNL A   1      19.795  58.772  -1.257  1.00  0.00    +0.000 F 
ATOM     46  C35 UNL A   1      19.678  56.980   0.277  1.00  0.00    +0.000 C 
ATOM     47  F4  UNL A   1      20.871  57.322   0.786  1.00  0.00    +0.000 F 
ATOM     48  C36 UNL A   1      18.994  55.880   0.788  1.00  0.00    +0.000 C 
ATOM     49  F5  UNL A   1      19.556  55.176   1.782  1.00  0.00    +0.000 F 
ENDBRANCH   38   39
BRANCH   55   56
ATOM     65  C47 UNL A   1      18.118  47.798  -0.620  1.00  0.00    +0.000 C 
ATOM     66  F10 UNL A   1      18.806  48.095   0.492  1.00  0.00    +0.000 F 
ATOM     56  C42 UNL A   1      16.908  48.451  -0.900  1.00  0.00    +0.000 C 
ATOM     57  C43 UNL A   1      16.230  48.107  -2.078  1.00  0.00    +0.000 C 
ATOM     58  F6  UNL A   1      15.062  48.691  -2.379  1.00  0.00    +0.000 F 
ATOM     59  C44 UNL A   1      16.730  47.124  -2.929  1.00  0.00    +0.000 C 
ATOM     60  F7  UNL A   1      16.040  46.775  -4.023  1.00  0.00    +0.000 F 
ATOM     61  C45 UNL A   1      17.930  46.494  -2.635  1.00  0.00    +0.000 C 
ATOM     62  F8  UNL A   1      18.409  45.547  -3.455  1.00  0.00    +0.000 F 
ATOM     63  C46 UNL A   1      18.628  46.835  -1.487  1.00  0.00    +0.000 C 
ATOM     64  F9  UNL A   1      19.792  46.233  -1.207  1.00  0.00    +0.000 F 
ENDBRANCH   55   56
BRANCH   70   71
ATOM     71  C51 UNL A   1      12.358  48.159   4.357  1.00  0.00    +0.000 C 
ATOM     72  C52 UNL A   1      11.053  47.882   3.932  1.00  0.00    +0.000 C 
ATOM     73  F11 UNL A   1      10.484  48.636   2.980  1.00  0.00    +0.000 F 
ATOM     74  C53 UNL A   1      10.316  46.847   4.503  1.00  0.00    +0.000 C 
ATOM     75  F12 UNL A   1       9.056  46.624   4.104  1.00  0.00    +0.000 F 
ATOM     76  C54 UNL A   1      10.880  46.054   5.491  1.00  0.00    +0.000 C 
ATOM     77  F13 UNL A   1      10.175  45.054   6.034  1.00  0.00    +0.000 F 
ATOM     78  C55 UNL A   1      12.175  46.305   5.920  1.00  0.00    +0.000 C 
ATOM     79  F14 UNL A   1      12.730  45.531   6.864  1.00  0.00    +0.000 F 
ATOM     80  C56 UNL A   1      12.902  47.356   5.369  1.00  0.00    +0.000 C 
ATOM     81  F15 UNL A   1      14.150  47.580   5.807  1.00  0.00    +0.000 F 
ENDBRANCH   70   71
TORSDOF 21
ENDMDL
MODEL 8
REMARK VINA RESULT:      -9.4     40.678     47.957
ROOT
ATOM    129  H37 UNL A   1      26.546  34.231  43.478  1.00  0.00    +0.000 H 
ATOM     34  C27 UNL A   1      25.879  36.113  45.522  1.00  0.00    +0.000 C 
ATOM     35  C28 UNL A   1      27.186  35.963  44.795  1.00  0.00    +0.000 C 
ATOM     36  N3  UNL A   1      28.289  36.659  44.925  1.00  0.00    +0.000 N 
ATOM     37  C29 UNL A   1      29.207  36.092  44.050  1.00  0.00    +0.000 C 
ATOM     38  C30 UNL A   1      30.485  36.470  43.805  1.00  0.00    +0.000 C 
ATOM     50  C37 UNL A   1      31.136  37.596  44.425  1.00  0.00    +0.000 C 
ATOM     51  C38 UNL A   1      32.410  38.089  44.199  1.00  0.00    +0.000 C 
ATOM     52  C39 UNL A   1      32.621  39.170  45.063  1.00  0.00    +0.000 C 
ATOM     53  C40 UNL A   1      31.464  39.379  45.795  1.00  0.00    +0.000 C 
ATOM     54  N4  UNL A   1      30.562  38.403  45.396  1.00  0.00    +0.000 N 
ATOM     55  C41 UNL A   1      31.198  40.390  46.785  1.00  0.00    +0.000 C 
ATOM     67  C48 UNL A   1      30.028  40.536  47.452  1.00  0.00    +0.000 C 
ATOM     68  N5  UNL A   1      28.865  39.786  47.347  1.00  0.00    +0.000 N 
ATOM     69  C49 UNL A   1      28.027  40.301  48.211  1.00  0.00    +0.000 C 
ATOM     70  C50 UNL A   1      26.611  39.900  48.513  1.00  0.00    +0.000 C 
ATOM     82  C57 UNL A   1      26.077  38.845  47.870  1.00  0.00    +0.000 C 
ATOM     83  C58 UNL A   1      24.717  38.349  48.055  1.00  0.00    +0.000 C 
ATOM     84  C59 UNL A   1      24.531  37.283  47.263  1.00  0.00    +0.000 C 
ATOM     85  C60 UNL A   1      25.744  37.052  46.478  1.00  0.00    +0.000 C 
ATOM     86  N6  UNL A   1      26.622  38.003  46.933  1.00  0.00    +0.000 N 
ATOM     87  C61 UNL A   1      28.568  41.430  48.978  1.00  0.00    +0.000 C 
ATOM     88  C62 UNL A   1      29.778  41.556  48.449  1.00  0.00    +0.000 C 
ATOM     89  C63 UNL A   1      28.541  34.981  43.405  1.00  0.00    +0.000 C 
ATOM     90  C64 UNL A   1      27.277  34.888  43.795  1.00  0.00    +0.000 C 
ATOM    120  H28 UNL A   1      33.087  37.721  43.513  1.00  0.00    +0.000 H 
ATOM    121  H29 UNL A   1      33.491  39.719  45.141  1.00  0.00    +0.000 H 
ATOM    122  H30 UNL A   1      29.649  38.299  45.751  1.00  0.00    +0.000 H 
ATOM    123  H31 UNL A   1      24.012  38.754  48.692  1.00  0.00    +0.000 H 
ATOM    124  H32 UNL A   1      23.671  36.715  47.216  1.00  0.00    +0.000 H 
ATOM    125  H33 UNL A   1      27.552  38.075  46.618  1.00  0.00    +0.000 H 
ATOM    126  H34 UNL A   1      28.124  41.981  49.730  1.00  0.00    +0.000 H 
ATOM    127  H35 UNL A   1      30.455  42.289  48.715  1.00  0.00    +0.000 H 
ATOM    128  H36 UNL A   1      28.992  34.344  42.730  1.00  0.00    +0.000 H 
ENDROOT
BRANCH   34   33
ATOM     33  C26 UNL A   1      24.705  35.270  45.175  1.00  0.00    +0.000 C 
ATOM    130  H38 UNL A   1      23.805  36.640  43.836  1.00  0.00    +0.000 H 
ATOM    131  H39 UNL A   1      21.839  35.278  43.417  1.00  0.00    +0.000 H 
ATOM    118  H26 UNL A   1      23.501  32.181  45.723  1.00  0.00    +0.000 H 
ATOM    119  H27 UNL A   1      25.327  33.636  46.366  1.00  0.00    +0.000 H 
ATOM     91  C65 UNL A   1      23.709  35.721  44.295  1.00  0.00    +0.000 C 
ATOM     92  C66 UNL A   1      22.587  34.928  44.036  1.00  0.00    +0.000 C 
ATOM     30  C23 UNL A   1      22.479  33.661  44.617  1.00  0.00    +0.000 C 
ATOM     31  C24 UNL A   1      23.525  33.158  45.393  1.00  0.00    +0.000 C 
ATOM     32  C25 UNL A   1      24.600  33.979  45.719  1.00  0.00    +0.000 C 
BRANCH   30    2
ATOM      1  O1  UNL A   1      21.314  31.670  44.194  1.00  0.00    +0.000 O 
ATOM      2  C1  UNL A   1      21.241  32.877  44.405  1.00  0.00    +0.000 C 
BRANCH    2    3
ATOM      3  N1  UNL A   1      20.020  33.508  44.407  1.00  0.00    +0.000 N 
ATOM     93  H1  UNL A   1      19.499  33.421  43.575  1.00  0.00    +0.000 H 
BRANCH    3    4
ATOM      4  C2  UNL A   1      19.385  34.286  45.459  1.00  0.00    +0.000 C 
ATOM     94  H2  UNL A   1      20.000  35.135  45.670  1.00  0.00    +0.000 H 
ATOM     95  H3  UNL A   1      19.279  33.643  46.308  1.00  0.00    +0.000 H 
BRANCH    4    5
ATOM     97  H5  UNL A   1      17.476  34.919  46.013  1.00  0.00    +0.000 H 
ATOM      5  C3  UNL A   1      17.993  34.778  45.087  1.00  0.00    +0.000 C 
ATOM     96  H4  UNL A   1      18.101  35.672  44.512  1.00  0.00    +0.000 H 
BRANCH    5    6
ATOM     98  H6  UNL A   1      17.572  32.826  44.384  1.00  0.00    +0.000 H 
ATOM     99  H7  UNL A   1      17.144  34.172  43.277  1.00  0.00    +0.000 H 
ATOM      6  C4  UNL A   1      17.141  33.800  44.280  1.00  0.00    +0.000 C 
BRANCH    6    7
ATOM    100  H8  UNL A   1      15.354  34.675  45.006  1.00  0.00    +0.000 H 
ATOM    101  H9  UNL A   1      15.624  32.953  45.441  1.00  0.00    +0.000 H 
ATOM      7  C5  UNL A   1      15.667  33.705  44.681  1.00  0.00    +0.000 C 
BRANCH    7    8
ATOM    102  H10 UNL A   1      14.261  34.113  43.146  1.00  0.00    +0.000 H 
ATOM    103  H11 UNL A   1      13.992  32.603  44.078  1.00  0.00    +0.000 H 
ATOM      8  C6  UNL A   1      14.697  33.242  43.589  1.00  0.00    +0.000 C 
BRANCH    8    9
ATOM      9  C7  UNL A   1      15.311  32.404  42.471  1.00  0.00    +0.000 C 
ATOM    105  H13 UNL A   1      14.671  32.479  41.616  1.00  0.00    +0.000 H 
ATOM    104  H12 UNL A   1      16.291  32.778  42.258  1.00  0.00    +0.000 H 
BRANCH    9   10
ATOM     10  N2  UNL A   1      15.413  31.003  42.827  1.00  0.00    +0.000 N 
ATOM    106  H14 UNL A   1      14.567  30.555  43.051  1.00  0.00    +0.000 H 
BRANCH   10   11
ATOM     11  C8  UNL A   1      16.540  30.222  42.893  1.00  0.00    +0.000 C 
ATOM     12  O2  UNL A   1      17.649  30.724  42.731  1.00  0.00    +0.000 O 
BRANCH   11   13
ATOM    107  H15 UNL A   1      14.519  28.649  42.383  1.00  0.00    +0.000 H 
ATOM     13  C9  UNL A   1      16.435  28.797  43.258  1.00  0.00    +0.000 C 
ATOM     14  C10 UNL A   1      15.255  28.135  42.890  1.00  0.00    +0.000 C 
ATOM     15  C11 UNL A   1      15.064  26.783  43.202  1.00  0.00    +0.000 C 
ATOM    115  H23 UNL A   1      15.971  25.115  44.125  1.00  0.00    +0.000 H 
ATOM    116  H24 UNL A   1      17.988  26.271  44.809  1.00  0.00    +0.000 H 
ATOM     26  C20 UNL A   1      16.085  26.115  43.898  1.00  0.00    +0.000 C 
ATOM     27  C21 UNL A   1      17.255  26.778  44.290  1.00  0.00    +0.000 C 
ATOM     28  C22 UNL A   1      17.424  28.124  43.978  1.00  0.00    +0.000 C 
BRANCH   15   16
ATOM    108  H16 UNL A   1      12.991  26.580  42.667  1.00  0.00    +0.000 H 
ATOM     16  C12 UNL A   1      13.845  26.030  42.849  1.00  0.00    +0.000 C 
BRANCH   16   17
ATOM     17  C13 UNL A   1      13.746  24.695  42.744  1.00  0.00    +0.000 C 
ATOM    109  H17 UNL A   1      13.606  24.144  43.604  1.00  0.00    +0.000 H 
BRANCH   17   18
ATOM    110  H18 UNL A   1      15.225  25.279  40.543  1.00  0.00    +0.000 H 
ATOM    112  H20 UNL A   1      14.085  21.982  38.196  1.00  0.00    +0.000 H 
ATOM     18  C14 UNL A   1      13.828  23.980  41.461  1.00  0.00    +0.000 C 
ATOM     19  C15 UNL A   1      14.670  24.416  40.429  1.00  0.00    +0.000 C 
ATOM    114  H22 UNL A   1      12.491  22.450  42.057  1.00  0.00    +0.000 H 
ATOM     20  C16 UNL A   1      14.756  23.683  39.246  1.00  0.00    +0.000 C 
ATOM     22  C17 UNL A   1      14.022  22.516  39.076  1.00  0.00    +0.000 C 
ATOM     23  C18 UNL A   1      13.200  22.076  40.106  1.00  0.00    +0.000 C 
ATOM     25  C19 UNL A   1      13.099  22.792  41.298  1.00  0.00    +0.000 C 
BRANCH   20   21
ATOM     21  O3  UNL A   1      15.568  24.079  38.225  1.00  0.00    +0.000 O 
ATOM    111  H19 UNL A   1      16.427  23.715  38.141  1.00  0.00    +0.000 H 
ENDBRANCH   20   21
BRANCH   23   24
ATOM    113  H21 UNL A   1      11.564  20.926  39.959  1.00  0.00    +0.000 H 
ATOM     24  O4  UNL A   1      12.501  20.921  39.913  1.00  0.00    +0.000 O 
ENDBRANCH   23   24
ENDBRANCH   17   18
ENDBRANCH   16   17
ENDBRANCH   15   16
BRANCH   28   29
ATOM    117  H25 UNL A   1      19.081  29.233  43.750  1.00  0.00    +0.000 H 
ATOM     29  O5  UNL A   1      18.558  28.774  44.377  1.00  0.00    +0.000 O 
ENDBRANCH   28   29
ENDBRANCH   11   13
ENDBRANCH   10   11
ENDBRANCH    9   10
ENDBRANCH    8    9
ENDBRANCH    7    8
ENDBRANCH    6    7
ENDBRANCH    5    6
ENDBRANCH    4    5
ENDBRANCH    3    4
ENDBRANCH    2    3
ENDBRANCH   30    2
ENDBRANCH   34   33
BRANCH   38   39
ATOM     39  C31 UNL A   1      31.278  35.650  42.828  1.00  0.00    +0.000 C 
ATOM     40  C32 UNL A   1      31.417  36.029  41.486  1.00  0.00    +0.000 C 
ATOM     41  F1  UNL A   1      30.787  37.120  41.024  1.00  0.00    +0.000 F 
ATOM     42  C33 UNL A   1      32.179  35.269  40.601  1.00  0.00    +0.000 C 
ATOM     43  F2  UNL A   1      32.266  35.630  39.314  1.00  0.00    +0.000 F 
ATOM     44  C34 UNL A   1      32.842  34.136  41.048  1.00  0.00    +0.000 C 
ATOM     45  F3  UNL A   1      33.581  33.410  40.198  1.00  0.00    +0.000 F 
ATOM     46  C35 UNL A   1      32.731  33.751  42.376  1.00  0.00    +0.000 C 
ATOM     47  F4  UNL A   1      33.380  32.662  42.812  1.00  0.00    +0.000 F 
ATOM     48  C36 UNL A   1      31.949  34.495  43.256  1.00  0.00    +0.000 C 
ATOM     49  F5  UNL A   1      31.856  34.092  44.532  1.00  0.00    +0.000 F 
ENDBRANCH   38   39
BRANCH   55   56
ATOM     65  C47 UNL A   1      33.392  40.997  47.864  1.00  0.00    +0.000 C 
ATOM     66  F10 UNL A   1      33.496  39.742  48.326  1.00  0.00    +0.000 F 
ATOM     56  C42 UNL A   1      32.284  41.378  47.092  1.00  0.00    +0.000 C 
ATOM     57  C43 UNL A   1      32.222  42.702  46.637  1.00  0.00    +0.000 C 
ATOM     58  F6  UNL A   1      31.191  43.108  45.881  1.00  0.00    +0.000 F 
ATOM     59  C44 UNL A   1      33.245  43.604  46.920  1.00  0.00    +0.000 C 
ATOM     60  F7  UNL A   1      33.189  44.851  46.433  1.00  0.00    +0.000 F 
ATOM     61  C45 UNL A   1      34.329  43.207  47.689  1.00  0.00    +0.000 C 
ATOM     62  F8  UNL A   1      35.313  44.077  47.959  1.00  0.00    +0.000 F 
ATOM     63  C46 UNL A   1      34.399  41.908  48.168  1.00  0.00    +0.000 C 
ATOM     64  F9  UNL A   1      35.442  41.527  48.918  1.00  0.00    +0.000 F 
ENDBRANCH   55   56
BRANCH   70   71
ATOM     71  C51 UNL A   1      25.792  40.659  49.490  1.00  0.00    +0.000 C 
ATOM     72  C52 UNL A   1      25.746  40.280  50.838  1.00  0.00    +0.000 C 
ATOM     73  F11 UNL A   1      26.424  39.200  51.253  1.00  0.00    +0.000 F 
ATOM     74  C53 UNL A   1      24.982  40.993  51.759  1.00  0.00    +0.000 C 
ATOM     75  F12 UNL A   1      24.928  40.590  53.036  1.00  0.00    +0.000 F 
ATOM     76  C54 UNL A   1      24.271  42.112  51.355  1.00  0.00    +0.000 C 
ATOM     77  F13 UNL A   1      23.543  42.803  52.242  1.00  0.00    +0.000 F 
ATOM     78  C55 UNL A   1      24.309  42.511  50.027  1.00  0.00    +0.000 C 
ATOM     79  F14 UNL A   1      23.635  43.602  49.635  1.00  0.00    +0.000 F 
ATOM     80  C56 UNL A   1      25.051  41.784  49.101  1.00  0.00    +0.000 C 
ATOM     81  F15 UNL A   1      25.065  42.188  47.822  1.00  0.00    +0.000 F 
ENDBRANCH   70   71
TORSDOF 21
ENDMDL
MODEL 9
REMARK VINA RESULT:      -9.3     47.505     52.603
ROOT
ATOM    129  H37 UNL A   1      14.784  56.137   5.181  1.00  0.00    +0.000 H 
ATOM     34  C27 UNL A   1      13.642  53.525   5.365  1.00  0.00    +0.000 C 
ATOM     35  C28 UNL A   1      14.630  54.033   4.351  1.00  0.00    +0.000 C 
ATOM     36  N3  UNL A   1      15.188  53.396   3.350  1.00  0.00    +0.000 N 
ATOM     37  C29 UNL A   1      15.992  54.327   2.704  1.00  0.00    +0.000 C 
ATOM     38  C30 UNL A   1      16.789  54.148   1.623  1.00  0.00    +0.000 C 
ATOM     50  C37 UNL A   1      16.966  52.893   0.938  1.00  0.00    +0.000 C 
ATOM     51  C38 UNL A   1      17.795  52.602  -0.133  1.00  0.00    +0.000 C 
ATOM     52  C39 UNL A   1      17.600  51.263  -0.487  1.00  0.00    +0.000 C 
ATOM     53  C40 UNL A   1      16.684  50.706   0.391  1.00  0.00    +0.000 C 
ATOM     54  N4  UNL A   1      16.300  51.719   1.257  1.00  0.00    +0.000 N 
ATOM     55  C41 UNL A   1      16.192  49.354   0.437  1.00  0.00    +0.000 C 
ATOM     67  C48 UNL A   1      15.299  48.882   1.341  1.00  0.00    +0.000 C 
ATOM     68  N5  UNL A   1      14.677  49.552   2.383  1.00  0.00    +0.000 N 
ATOM     69  C49 UNL A   1      13.887  48.676   2.952  1.00  0.00    +0.000 C 
ATOM     70  C50 UNL A   1      12.987  48.845   4.142  1.00  0.00    +0.000 C 
ATOM     82  C57 UNL A   1      12.897  50.052   4.733  1.00  0.00    +0.000 C 
ATOM     83  C58 UNL A   1      12.073  50.359   5.897  1.00  0.00    +0.000 C 
ATOM     84  C59 UNL A   1      12.222  51.656   6.205  1.00  0.00    +0.000 C 
ATOM     85  C60 UNL A   1      13.193  52.257   5.291  1.00  0.00    +0.000 C 
ATOM     86  N6  UNL A   1      13.511  51.241   4.426  1.00  0.00    +0.000 N 
ATOM     87  C61 UNL A   1      13.906  47.349   2.324  1.00  0.00    +0.000 C 
ATOM     88  C62 UNL A   1      14.811  47.518   1.370  1.00  0.00    +0.000 C 
ATOM     89  C63 UNL A   1      15.837  55.579   3.412  1.00  0.00    +0.000 C 
ATOM     90  C64 UNL A   1      15.043  55.439   4.466  1.00  0.00    +0.000 C 
ATOM    120  H28 UNL A   1      18.443  53.261  -0.591  1.00  0.00    +0.000 H 
ATOM    121  H29 UNL A   1      18.061  50.772  -1.269  1.00  0.00    +0.000 H 
ATOM    122  H30 UNL A   1      15.650  51.619   1.990  1.00  0.00    +0.000 H 
ATOM    123  H31 UNL A   1      11.473  49.687   6.401  1.00  0.00    +0.000 H 
ATOM    124  H32 UNL A   1      11.731  52.150   6.966  1.00  0.00    +0.000 H 
ATOM    125  H33 UNL A   1      14.120  51.353   3.660  1.00  0.00    +0.000 H 
ATOM    126  H34 UNL A   1      13.358  46.506   2.563  1.00  0.00    +0.000 H 
ATOM    127  H35 UNL A   1      15.127  46.772   0.731  1.00  0.00    +0.000 H 
ATOM    128  H36 UNL A   1      16.285  56.465   3.133  1.00  0.00    +0.000 H 
ENDROOT
BRANCH   34   33
ATOM     33  C26 UNL A   1      13.180  54.385   6.486  1.00  0.00    +0.000 C 
ATOM    130  H38 UNL A   1      14.901  54.157   7.696  1.00  0.00    +0.000 H 
ATOM    131  H39 UNL A   1      14.034  55.456   9.556  1.00  0.00    +0.000 H 
ATOM    118  H26 UNL A   1      10.629  56.420   7.286  1.00  0.00    +0.000 H 
ATOM    119  H27 UNL A   1      11.360  54.907   5.543  1.00  0.00    +0.000 H 
ATOM     91  C65 UNL A   1      13.961  54.579   7.635  1.00  0.00    +0.000 C 
ATOM     92  C66 UNL A   1      13.472  55.345   8.698  1.00  0.00    +0.000 C 
ATOM     30  C23 UNL A   1      12.220  55.959   8.596  1.00  0.00    +0.000 C 
ATOM     31  C24 UNL A   1      11.494  55.871   7.407  1.00  0.00    +0.000 C 
ATOM     32  C25 UNL A   1      11.942  55.041   6.384  1.00  0.00    +0.000 C 
BRANCH   30    2
ATOM      1  O1  UNL A   1      11.308  57.850   9.641  1.00  0.00    +0.000 O 
ATOM      2  C1  UNL A   1      11.681  56.687   9.767  1.00  0.00    +0.000 C 
BRANCH    2    3
ATOM      3  N1  UNL A   1      11.636  56.074  10.996  1.00  0.00    +0.000 N 
ATOM     93  H1  UNL A   1      11.770  56.669  11.769  1.00  0.00    +0.000 H 
BRANCH    3    4
ATOM      4  C2  UNL A   1      11.419  54.673  11.320  1.00  0.00    +0.000 C 
ATOM     94  H2  UNL A   1      11.032  54.611  12.315  1.00  0.00    +0.000 H 
ATOM     95  H3  UNL A   1      12.361  54.175  11.221  1.00  0.00    +0.000 H 
BRANCH    4    5
ATOM     97  H5  UNL A   1       9.652  53.610  10.997  1.00  0.00    +0.000 H 
ATOM      5  C3  UNL A   1      10.442  53.982  10.378  1.00  0.00    +0.000 C 
ATOM     96  H4  UNL A   1      10.121  54.697   9.651  1.00  0.00    +0.000 H 
BRANCH    5    6
ATOM     98  H6  UNL A   1      11.721  52.299  10.259  1.00  0.00    +0.000 H 
ATOM     99  H7  UNL A   1      11.387  53.147   8.712  1.00  0.00    +0.000 H 
ATOM      6  C4  UNL A   1      10.992  52.768   9.631  1.00  0.00    +0.000 C 
BRANCH    6    7
ATOM    100  H8  UNL A   1       9.480  51.369  10.124  1.00  0.00    +0.000 H 
ATOM    101  H9  UNL A   1      10.520  50.946   8.722  1.00  0.00    +0.000 H 
ATOM      7  C5  UNL A   1       9.965  51.705   9.232  1.00  0.00    +0.000 C 
BRANCH    7    8
ATOM    102  H10 UNL A   1       9.318  52.199   7.273  1.00  0.00    +0.000 H 
ATOM    103  H11 UNL A   1       8.525  53.093   8.612  1.00  0.00    +0.000 H 
ATOM      8  C6  UNL A   1       8.879  52.151   8.248  1.00  0.00    +0.000 C 
BRANCH    8    9
ATOM      9  C7  UNL A   1       7.649  51.250   8.165  1.00  0.00    +0.000 C 
ATOM    105  H13 UNL A   1       7.712  50.536   8.959  1.00  0.00    +0.000 H 
ATOM    104  H12 UNL A   1       6.772  51.856   8.254  1.00  0.00    +0.000 H 
BRANCH    9   10
ATOM     10  N2  UNL A   1       7.587  50.520   6.915  1.00  0.00    +0.000 N 
ATOM    106  H14 UNL A   1       6.881  50.801   6.289  1.00  0.00    +0.000 H 
BRANCH   10   11
ATOM     11  C8  UNL A   1       8.385  49.487   6.492  1.00  0.00    +0.000 C 
ATOM     12  O2  UNL A   1       8.865  49.500   5.362  1.00  0.00    +0.000 O 
BRANCH   11   13
ATOM    107  H15 UNL A   1      10.536  49.401   7.970  1.00  0.00    +0.000 H 
ATOM     13  C9  UNL A   1       8.755  48.406   7.425  1.00  0.00    +0.000 C 
ATOM     14  C10 UNL A   1       9.963  48.558   8.122  1.00  0.00    +0.000 C 
ATOM     15  C11 UNL A   1      10.399  47.578   9.022  1.00  0.00    +0.000 C 
ATOM    115  H23 UNL A   1       9.891  45.712   9.870  1.00  0.00    +0.000 H 
ATOM    116  H24 UNL A   1       7.831  45.423   8.627  1.00  0.00    +0.000 H 
ATOM     26  C20 UNL A   1       9.596  46.440   9.200  1.00  0.00    +0.000 C 
ATOM     27  C21 UNL A   1       8.401  46.272   8.488  1.00  0.00    +0.000 C 
ATOM     28  C22 UNL A   1       7.987  47.252   7.591  1.00  0.00    +0.000 C 
BRANCH   15   16
ATOM    108  H16 UNL A   1      11.612  47.489  10.796  1.00  0.00    +0.000 H 
ATOM     16  C12 UNL A   1      11.660  47.674   9.782  1.00  0.00    +0.000 C 
BRANCH   16   17
ATOM     17  C13 UNL A   1      12.865  47.983   9.274  1.00  0.00    +0.000 C 
ATOM    109  H17 UNL A   1      13.359  47.271   8.714  1.00  0.00    +0.000 H 
BRANCH   17   18
ATOM    110  H18 UNL A   1      12.784  49.623  11.436  1.00  0.00    +0.000 H 
ATOM    112  H20 UNL A   1      15.353  52.616   9.980  1.00  0.00    +0.000 H 
ATOM     18  C14 UNL A   1      13.516  49.286   9.478  1.00  0.00    +0.000 C 
ATOM     19  C15 UNL A   1      13.380  49.994  10.680  1.00  0.00    +0.000 C 
ATOM    114  H22 UNL A   1      14.471  49.272   7.588  1.00  0.00    +0.000 H 
ATOM     20  C16 UNL A   1      14.053  51.203  10.851  1.00  0.00    +0.000 C 
ATOM     22  C17 UNL A   1      14.864  51.717   9.848  1.00  0.00    +0.000 C 
ATOM     23  C18 UNL A   1      15.010  51.006   8.664  1.00  0.00    +0.000 C 
ATOM     25  C19 UNL A   1      14.348  49.794   8.470  1.00  0.00    +0.000 C 
BRANCH   20   21
ATOM     21  O3  UNL A   1      13.945  51.915  12.010  1.00  0.00    +0.000 O 
ATOM    111  H19 UNL A   1      13.349  52.635  12.064  1.00  0.00    +0.000 H 
ENDBRANCH   20   21
BRANCH   23   24
ATOM    113  H21 UNL A   1      15.658  51.347   6.798  1.00  0.00    +0.000 H 
ATOM     24  O4  UNL A   1      15.823  51.530   7.702  1.00  0.00    +0.000 O 
ENDBRANCH   23   24
ENDBRANCH   17   18
ENDBRANCH   16   17
ENDBRANCH   15   16
BRANCH   28   29
ATOM    117  H25 UNL A   1       6.563  46.216   6.630  1.00  0.00    +0.000 H 
ATOM     29  O5  UNL A   1       6.832  47.077   6.884  1.00  0.00    +0.000 O 
ENDBRANCH   28   29
ENDBRANCH   11   13
ENDBRANCH   10   11
ENDBRANCH    9   10
ENDBRANCH    8    9
ENDBRANCH    7    8
ENDBRANCH    6    7
ENDBRANCH    5    6
ENDBRANCH    4    5
ENDBRANCH    3    4
ENDBRANCH    2    3
ENDBRANCH   30    2
ENDBRANCH   34   33
BRANCH   38   39
ATOM     39  C31 UNL A   1      17.528  55.345   1.098  1.00  0.00    +0.000 C 
ATOM     40  C32 UNL A   1      18.809  55.683   1.557  1.00  0.00    +0.000 C 
ATOM     41  F1  UNL A   1      19.389  54.965   2.531  1.00  0.00    +0.000 F 
ATOM     42  C33 UNL A   1      19.490  56.782   1.037  1.00  0.00    +0.000 C 
ATOM     43  F2  UNL A   1      20.698  57.108   1.519  1.00  0.00    +0.000 F 
ATOM     44  C34 UNL A   1      18.918  57.545   0.030  1.00  0.00    +0.000 C 
ATOM     45  F3  UNL A   1      19.577  58.597  -0.474  1.00  0.00    +0.000 F 
ATOM     46  C35 UNL A   1      17.658  57.220  -0.450  1.00  0.00    +0.000 C 
ATOM     47  F4  UNL A   1      17.108  57.948  -1.432  1.00  0.00    +0.000 F 
ATOM     48  C36 UNL A   1      16.965  56.136   0.085  1.00  0.00    +0.000 C 
ATOM     49  F5  UNL A   1      15.745  55.852  -0.395  1.00  0.00    +0.000 F 
ENDBRANCH   38   39
BRANCH   55   56
ATOM     65  C47 UNL A   1      15.932  47.995  -1.669  1.00  0.00    +0.000 C 
ATOM     66  F10 UNL A   1      14.703  48.507  -1.831  1.00  0.00    +0.000 F 
ATOM     56  C42 UNL A   1      16.720  48.377  -0.572  1.00  0.00    +0.000 C 
ATOM     57  C43 UNL A   1      17.995  47.809  -0.447  1.00  0.00    +0.000 C 
ATOM     58  F6  UNL A   1      18.791  48.157   0.575  1.00  0.00    +0.000 F 
ATOM     59  C44 UNL A   1      18.476  46.914  -1.399  1.00  0.00    +0.000 C 
ATOM     60  F7  UNL A   1      19.717  46.422  -1.286  1.00  0.00    +0.000 F 
ATOM     61  C45 UNL A   1      17.679  46.546  -2.473  1.00  0.00    +0.000 C 
ATOM     62  F8  UNL A   1      18.144  45.685  -3.390  1.00  0.00    +0.000 F 
ATOM     63  C46 UNL A   1      16.406  47.079  -2.604  1.00  0.00    +0.000 C 
ATOM     64  F9  UNL A   1      15.632  46.718  -3.637  1.00  0.00    +0.000 F 
ENDBRANCH   55   56
BRANCH   70   71
ATOM     71  C51 UNL A   1      12.212  47.701   4.685  1.00  0.00    +0.000 C 
ATOM     72  C52 UNL A   1      12.689  46.962   5.775  1.00  0.00    +0.000 C 
ATOM     73  F11 UNL A   1      13.876  47.264   6.321  1.00  0.00    +0.000 F 
ATOM     74  C53 UNL A   1      11.962  45.891   6.290  1.00  0.00    +0.000 C 
ATOM     75  F12 UNL A   1      12.457  45.178   7.311  1.00  0.00    +0.000 F 
ATOM     76  C54 UNL A   1      10.734  45.556   5.742  1.00  0.00    +0.000 C 
ATOM     77  F13 UNL A   1      10.031  44.532   6.243  1.00  0.00    +0.000 F 
ATOM     78  C55 UNL A   1      10.237  46.281   4.669  1.00  0.00    +0.000 C 
ATOM     79  F14 UNL A   1       9.042  45.970   4.146  1.00  0.00    +0.000 F 
ATOM     80  C56 UNL A   1      10.975  47.334   4.136  1.00  0.00    +0.000 C 
ATOM     81  F15 UNL A   1      10.474  48.014   3.094  1.00  0.00    +0.000 F 
ENDBRANCH   70   71
TORSDOF 21
ENDMDL
MODEL 10
REMARK VINA RESULT:      -9.2     32.040     39.087
ROOT
ATOM    129  H37 UNL A   1      41.635  14.362  48.771  1.00  0.00    +0.000 H 
ATOM     34  C27 UNL A   1      42.989  16.821  49.299  1.00  0.00    +0.000 C 
ATOM     35  C28 UNL A   1      43.191  15.886  48.140  1.00  0.00    +0.000 C 
ATOM     36  N3  UNL A   1      44.010  15.995  47.122  1.00  0.00    +0.000 N 
ATOM     37  C29 UNL A   1      43.829  14.849  46.359  1.00  0.00    +0.000 C 
ATOM     38  C30 UNL A   1      44.433  14.505  45.196  1.00  0.00    +0.000 C 
ATOM     50  C37 UNL A   1      45.400  15.321  44.506  1.00  0.00    +0.000 C 
ATOM     51  C38 UNL A   1      46.026  15.081  43.294  1.00  0.00    +0.000 C 
ATOM     52  C39 UNL A   1      46.916  16.131  43.045  1.00  0.00    +0.000 C 
ATOM     53  C40 UNL A   1      46.813  17.048  44.078  1.00  0.00    +0.000 C 
ATOM     54  N4  UNL A   1      45.882  16.536  44.970  1.00  0.00    +0.000 N 
ATOM     55  C41 UNL A   1      47.510  18.297  44.244  1.00  0.00    +0.000 C 
ATOM     67  C48 UNL A   1      47.343  19.149  45.284  1.00  0.00    +0.000 C 
ATOM     68  N5  UNL A   1      46.505  19.029  46.382  1.00  0.00    +0.000 N 
ATOM     69  C49 UNL A   1      46.721  20.092  47.117  1.00  0.00    +0.000 C 
ATOM     70  C50 UNL A   1      46.076  20.496  48.412  1.00  0.00    +0.000 C 
ATOM     82  C57 UNL A   1      45.168  19.678  48.976  1.00  0.00    +0.000 C 
ATOM     83  C58 UNL A   1      44.458  19.945  50.223  1.00  0.00    +0.000 C 
ATOM     84  C59 UNL A   1      43.641  18.915  50.487  1.00  0.00    +0.000 C 
ATOM     85  C60 UNL A   1      43.733  17.939  49.400  1.00  0.00    +0.000 C 
ATOM     86  N6  UNL A   1      44.693  18.457  48.567  1.00  0.00    +0.000 N 
ATOM     87  C61 UNL A   1      47.737  21.002  46.575  1.00  0.00    +0.000 C 
ATOM     88  C62 UNL A   1      48.057  20.400  45.438  1.00  0.00    +0.000 C 
ATOM     89  C63 UNL A   1      42.835  14.045  47.037  1.00  0.00    +0.000 C 
ATOM     90  C64 UNL A   1      42.375  14.662  48.117  1.00  0.00    +0.000 C 
ATOM    120  H28 UNL A   1      45.864  14.267  42.682  1.00  0.00    +0.000 H 
ATOM    121  H29 UNL A   1      47.543  16.211  42.229  1.00  0.00    +0.000 H 
ATOM    122  H30 UNL A   1      45.605  16.971  45.809  1.00  0.00    +0.000 H 
ATOM    123  H31 UNL A   1      44.567  20.789  50.806  1.00  0.00    +0.000 H 
ATOM    124  H32 UNL A   1      43.043  18.824  51.322  1.00  0.00    +0.000 H 
ATOM    125  H33 UNL A   1      45.010  17.998  47.756  1.00  0.00    +0.000 H 
ATOM    126  H34 UNL A   1      48.106  21.881  46.974  1.00  0.00    +0.000 H 
ATOM    127  H35 UNL A   1      48.730  20.775  44.751  1.00  0.00    +0.000 H 
ATOM    128  H36 UNL A   1      42.527  13.113  46.722  1.00  0.00    +0.000 H 
ENDROOT
BRANCH   34   33
ATOM     33  C26 UNL A   1      41.944  16.562  50.324  1.00  0.00    +0.000 C 
ATOM    130  H38 UNL A   1      43.229  15.721  51.780  1.00  0.00    +0.000 H 
ATOM    131  H39 UNL A   1      41.458  15.192  53.355  1.00  0.00    +0.000 H 
ATOM    118  H26 UNL A   1      38.674  17.120  50.864  1.00  0.00    +0.000 H 
ATOM    119  H27 UNL A   1      40.383  17.404  49.171  1.00  0.00    +0.000 H 
ATOM     91  C65 UNL A   1      42.250  15.956  51.552  1.00  0.00    +0.000 C 
ATOM     92  C66 UNL A   1      41.234  15.671  52.469  1.00  0.00    +0.000 C 
ATOM     30  C23 UNL A   1      39.914  16.034  52.183  1.00  0.00    +0.000 C 
ATOM     31  C24 UNL A   1      39.623  16.748  51.019  1.00  0.00    +0.000 C 
ATOM     32  C25 UNL A   1      40.619  16.956  50.069  1.00  0.00    +0.000 C 
BRANCH   30    2
ATOM      1  O1  UNL A   1      37.756  16.212  53.083  1.00  0.00    +0.000 O 
ATOM      2  C1  UNL A   1      38.842  15.639  53.124  1.00  0.00    +0.000 C 
BRANCH    2    3
ATOM      3  N1  UNL A   1      39.076  14.664  54.063  1.00  0.00    +0.000 N 
ATOM     93  H1  UNL A   1      39.504  14.972  54.895  1.00  0.00    +0.000 H 
BRANCH    3    4
ATOM      4  C2  UNL A   1      38.783  13.240  54.006  1.00  0.00    +0.000 C 
ATOM     94  H2  UNL A   1      37.722  13.114  53.960  1.00  0.00    +0.000 H 
ATOM     95  H3  UNL A   1      39.205  12.795  54.883  1.00  0.00    +0.000 H 
BRANCH    4    5
ATOM     97  H5  UNL A   1      38.678  11.837  52.465  1.00  0.00    +0.000 H 
ATOM      5  C3  UNL A   1      39.405  12.546  52.802  1.00  0.00    +0.000 C 
ATOM     96  H4  UNL A   1      39.648  13.294  52.078  1.00  0.00    +0.000 H 
BRANCH    5    6
ATOM     98  H6  UNL A   1      40.418  10.965  53.779  1.00  0.00    +0.000 H 
ATOM     99  H7  UNL A   1      41.385  12.444  53.461  1.00  0.00    +0.000 H 
ATOM      6  C4  UNL A   1      40.672  11.740  53.087  1.00  0.00    +0.000 C 
BRANCH    6    7
ATOM    100  H8  UNL A   1      41.793  11.859  51.293  1.00  0.00    +0.000 H 
ATOM    101  H9  UNL A   1      40.553  10.560  51.365  1.00  0.00    +0.000 H 
ATOM      7  C5  UNL A   1      41.336  11.085  51.873  1.00  0.00    +0.000 C 
BRANCH    7    8
ATOM    102  H10 UNL A   1      43.083  10.448  52.893  1.00  0.00    +0.000 H 
ATOM    103  H11 UNL A   1      42.861   9.800  51.234  1.00  0.00    +0.000 H 
ATOM      8  C6  UNL A   1      42.407  10.032  52.175  1.00  0.00    +0.000 C 
BRANCH    8    9
ATOM      9  C7  UNL A   1      41.895   8.705  52.727  1.00  0.00    +0.000 C 
ATOM    105  H13 UNL A   1      41.875   8.779  53.794  1.00  0.00    +0.000 H 
ATOM    104  H12 UNL A   1      40.918   8.521  52.330  1.00  0.00    +0.000 H 
BRANCH    9   10
ATOM     10  N2  UNL A   1      42.756   7.594  52.375  1.00  0.00    +0.000 N 
ATOM    106  H14 UNL A   1      43.197   7.138  53.127  1.00  0.00    +0.000 H 
BRANCH   10   11
ATOM     11  C8  UNL A   1      43.037   7.097  51.127  1.00  0.00    +0.000 C 
ATOM     12  O2  UNL A   1      42.139   6.633  50.431  1.00  0.00    +0.000 O 
BRANCH   11   13
ATOM    107  H15 UNL A   1      43.941   9.059  49.658  1.00  0.00    +0.000 H 
ATOM     13  C9  UNL A   1      44.399   7.211  50.572  1.00  0.00    +0.000 C 
ATOM     14  C10 UNL A   1      44.676   8.351  49.803  1.00  0.00    +0.000 C 
ATOM     15  C11 UNL A   1      45.940   8.539  49.229  1.00  0.00    +0.000 C 
ATOM    115  H23 UNL A   1      47.859   7.678  49.042  1.00  0.00    +0.000 H 
ATOM    116  H24 UNL A   1      47.366   5.682  50.326  1.00  0.00    +0.000 H 
ATOM     26  C20 UNL A   1      46.916   7.552  49.443  1.00  0.00    +0.000 C 
ATOM     27  C21 UNL A   1      46.637   6.400  50.189  1.00  0.00    +0.000 C 
ATOM     28  C22 UNL A   1      45.373   6.225  50.745  1.00  0.00    +0.000 C 
BRANCH   15   16
ATOM    108  H16 UNL A   1      47.225   9.708  47.962  1.00  0.00    +0.000 H 
ATOM     16  C12 UNL A   1      46.293   9.711  48.406  1.00  0.00    +0.000 C 
BRANCH   16   17
ATOM     17  C13 UNL A   1      45.514  10.782  48.184  1.00  0.00    +0.000 C 
ATOM    109  H17 UNL A   1      44.856  10.754  47.389  1.00  0.00    +0.000 H 
BRANCH   17   18
ATOM    110  H18 UNL A   1      46.712  13.168  47.691  1.00  0.00    +0.000 H 
ATOM    112  H20 UNL A   1      45.491  15.155  51.190  1.00  0.00    +0.000 H 
ATOM     18  C14 UNL A   1      45.552  11.994  49.017  1.00  0.00    +0.000 C 
ATOM     19  C15 UNL A   1      46.208  13.157  48.592  1.00  0.00    +0.000 C 
ATOM    114  H22 UNL A   1      44.348  11.160  50.547  1.00  0.00    +0.000 H 
ATOM     20  C16 UNL A   1      46.180  14.300  49.390  1.00  0.00    +0.000 C 
ATOM     22  C17 UNL A   1      45.502  14.307  50.602  1.00  0.00    +0.000 C 
ATOM     23  C18 UNL A   1      44.838  13.158  51.014  1.00  0.00    +0.000 C 
ATOM     25  C19 UNL A   1      44.852  12.004  50.233  1.00  0.00    +0.000 C 
BRANCH   20   21
ATOM     21  O3  UNL A   1      46.805  15.449  49.003  1.00  0.00    +0.000 O 
ATOM    111  H19 UNL A   1      46.321  16.122  48.568  1.00  0.00    +0.000 H 
ENDBRANCH   20   21
BRANCH   23   24
ATOM    113  H21 UNL A   1      43.548  12.533  52.415  1.00  0.00    +0.000 H 
ATOM     24  O4  UNL A   1      44.172  13.200  52.204  1.00  0.00    +0.000 O 
ENDBRANCH   23   24
ENDBRANCH   17   18
ENDBRANCH   16   17
ENDBRANCH   15   16
BRANCH   28   29
ATOM    117  H25 UNL A   1      45.510   4.947  52.286  1.00  0.00    +0.000 H 
ATOM     29  O5  UNL A   1      45.097   5.092  51.457  1.00  0.00    +0.000 O 
ENDBRANCH   28   29
ENDBRANCH   11   13
ENDBRANCH   10   11
ENDBRANCH    9   10
ENDBRANCH    8    9
ENDBRANCH    7    8
ENDBRANCH    6    7
ENDBRANCH    5    6
ENDBRANCH    4    5
ENDBRANCH    3    4
ENDBRANCH    2    3
ENDBRANCH   30    2
ENDBRANCH   34   33
BRANCH   38   39
ATOM     39  C31 UNL A   1      44.079  13.176  44.594  1.00  0.00    +0.000 C 
ATOM     40  C32 UNL A   1      42.903  12.990  43.853  1.00  0.00    +0.000 C 
ATOM     41  F1  UNL A   1      42.028  13.997  43.711  1.00  0.00    +0.000 F 
ATOM     42  C33 UNL A   1      42.605  11.756  43.279  1.00  0.00    +0.000 C 
ATOM     43  F2  UNL A   1      41.457  11.591  42.608  1.00  0.00    +0.000 F 
ATOM     44  C34 UNL A   1      43.489  10.695  43.408  1.00  0.00    +0.000 C 
ATOM     45  F3  UNL A   1      43.204   9.511  42.849  1.00  0.00    +0.000 F 
ATOM     46  C35 UNL A   1      44.665  10.861  44.123  1.00  0.00    +0.000 C 
ATOM     47  F4  UNL A   1      45.527   9.840  44.239  1.00  0.00    +0.000 F 
ATOM     48  C36 UNL A   1      44.954  12.086  44.719  1.00  0.00    +0.000 C 
ATOM     49  F5  UNL A   1      46.096  12.213  45.411  1.00  0.00    +0.000 F 
ENDBRANCH   38   39
BRANCH   55   56
ATOM     65  C47 UNL A   1      49.863  18.626  43.405  1.00  0.00    +0.000 C 
ATOM     66  F10 UNL A   1      50.330  18.167  44.576  1.00  0.00    +0.000 F 
ATOM     56  C42 UNL A   1      48.481  18.708  43.177  1.00  0.00    +0.000 C 
ATOM     57  C43 UNL A   1      48.046  19.198  41.937  1.00  0.00    +0.000 C 
ATOM     58  F6  UNL A   1      46.734  19.279  41.667  1.00  0.00    +0.000 F 
ATOM     59  C44 UNL A   1      48.959  19.564  40.952  1.00  0.00    +0.000 C 
ATOM     60  F7  UNL A   1      48.521  19.981  39.757  1.00  0.00    +0.000 F 
ATOM     61  C45 UNL A   1      50.322  19.478  41.200  1.00  0.00    +0.000 C 
ATOM     62  F8  UNL A   1      51.200  19.829  40.250  1.00  0.00    +0.000 F 
ATOM     63  C46 UNL A   1      50.773  19.017  42.427  1.00  0.00    +0.000 C 
ATOM     64  F9  UNL A   1      52.090  18.942  42.671  1.00  0.00    +0.000 F 
ENDBRANCH   55   56
BRANCH   70   71
ATOM     71  C51 UNL A   1      46.412  21.786  49.064  1.00  0.00    +0.000 C 
ATOM     72  C52 UNL A   1      45.626  22.926  48.850  1.00  0.00    +0.000 C 
ATOM     73  F11 UNL A   1      44.574  22.867  48.020  1.00  0.00    +0.000 F 
ATOM     74  C53 UNL A   1      45.935  24.137  49.464  1.00  0.00    +0.000 C 
ATOM     75  F12 UNL A   1      45.188  25.222  49.215  1.00  0.00    +0.000 F 
ATOM     76  C54 UNL A   1      47.019  24.225  50.324  1.00  0.00    +0.000 C 
ATOM     77  F13 UNL A   1      47.310  25.388  50.922  1.00  0.00    +0.000 F 
ATOM     78  C55 UNL A   1      47.805  23.106  50.559  1.00  0.00    +0.000 C 
ATOM     79  F14 UNL A   1      48.844  23.183  51.402  1.00  0.00    +0.000 F 
ATOM     80  C56 UNL A   1      47.513  21.903  49.924  1.00  0.00    +0.000 C 
ATOM     81  F15 UNL A   1      48.293  20.838  50.165  1.00  0.00    +0.000 F 
ENDBRANCH   70   71
TORSDOF 21
ENDMDL
