MODEL 1
REMARK VINA RESULT:     -11.0      0.000      0.000
ROOT
ATOM     19  C15 UNL A   1      25.801  36.448  45.570  1.00  0.00    +0.000 C 
ATOM     20  C16 UNL A   1      25.748  37.618  46.512  1.00  0.00    +0.000 C 
ATOM     21  N3  UNL A   1      26.686  38.478  46.821  1.00  0.00    +0.000 N 
ATOM     22  C17 UNL A   1      26.097  39.382  47.695  1.00  0.00    +0.000 C 
ATOM     23  C18 UNL A   1      26.667  40.424  48.345  1.00  0.00    +0.000 C 
ATOM     35  C25 UNL A   1      28.057  40.783  48.237  1.00  0.00    +0.000 C 
ATOM     36  C26 UNL A   1      28.749  41.777  48.906  1.00  0.00    +0.000 C 
ATOM     37  C27 UNL A   1      30.070  41.778  48.444  1.00  0.00    +0.000 C 
ATOM     38  C28 UNL A   1      30.213  40.756  47.521  1.00  0.00    +0.000 C 
ATOM     39  N4  UNL A   1      28.969  40.156  47.400  1.00  0.00    +0.000 N 
ATOM     40  C29 UNL A   1      31.395  40.355  46.801  1.00  0.00    +0.000 C 
ATOM     52  C36 UNL A   1      31.455  39.334  45.912  1.00  0.00    +0.000 C 
ATOM     53  N5  UNL A   1      30.448  38.467  45.509  1.00  0.00    +0.000 N 
ATOM     54  C37 UNL A   1      30.995  37.663  44.629  1.00  0.00    +0.000 C 
ATOM     55  C38 UNL A   1      30.383  36.504  43.889  1.00  0.00    +0.000 C 
ATOM     67  C45 UNL A   1      29.094  36.190  44.111  1.00  0.00    +0.000 C 
ATOM     68  C46 UNL A   1      28.368  35.090  43.482  1.00  0.00    +0.000 C 
ATOM     69  C47 UNL A   1      27.101  35.089  43.930  1.00  0.00    +0.000 C 
ATOM     70  C48 UNL A   1      26.936  36.170  44.902  1.00  0.00    +0.000 C 
ATOM     71  N6  UNL A   1      28.166  36.778  44.935  1.00  0.00    +0.000 N 
ATOM     72  C49 UNL A   1      32.409  37.953  44.350  1.00  0.00    +0.000 C 
ATOM     73  C50 UNL A   1      32.649  38.951  45.187  1.00  0.00    +0.000 C 
ATOM     74  C51 UNL A   1      24.708  38.997  47.829  1.00  0.00    +0.000 C 
ATOM     75  C52 UNL A   1      24.459  37.873  47.175  1.00  0.00    +0.000 C 
ATOM    112  H21 UNL A   1      28.357  42.409  49.622  1.00  0.00    +0.000 H 
ATOM    113  H22 UNL A   1      30.811  42.432  48.741  1.00  0.00    +0.000 H 
ATOM    114  H23 UNL A   1      28.764  39.397  46.808  1.00  0.00    +0.000 H 
ATOM    115  H24 UNL A   1      28.764  34.422  42.804  1.00  0.00    +0.000 H 
ATOM    116  H25 UNL A   1      26.363  34.430  43.635  1.00  0.00    +0.000 H 
ATOM    117  H26 UNL A   1      28.365  37.562  45.498  1.00  0.00    +0.000 H 
ATOM    118  H27 UNL A   1      33.046  37.498  43.678  1.00  0.00    +0.000 H 
ATOM    119  H28 UNL A   1      33.571  39.399  45.309  1.00  0.00    +0.000 H 
ATOM    120  H29 UNL A   1      24.004  39.531  48.364  1.00  0.00    +0.000 H 
ATOM    121  H30 UNL A   1      23.589  37.320  47.140  1.00  0.00    +0.000 H 
ENDROOT
BRANCH   19   18
ATOM     76  C53 UNL A   1      24.420  34.416  46.012  1.00  0.00    +0.000 C 
ATOM     77  C54 UNL A   1      23.308  33.615  45.764  1.00  0.00    +0.000 C 
ATOM    110  H19 UNL A   1      21.729  35.592  43.557  1.00  0.00    +0.000 H 
ATOM     15  C11 UNL A   1      22.300  34.069  44.907  1.00  0.00    +0.000 C 
ATOM     16  C12 UNL A   1      22.458  35.273  44.214  1.00  0.00    +0.000 C 
ATOM     17  C13 UNL A   1      23.606  36.041  44.412  1.00  0.00    +0.000 C 
ATOM    111  H20 UNL A   1      23.736  36.917  43.880  1.00  0.00    +0.000 H 
ATOM     18  C14 UNL A   1      24.587  35.630  45.330  1.00  0.00    +0.000 C 
ATOM    122  H31 UNL A   1      25.126  34.115  46.702  1.00  0.00    +0.000 H 
ATOM    123  H32 UNL A   1      23.229  32.689  46.210  1.00  0.00    +0.000 H 
BRANCH   15   13
ATOM     13  C10 UNL A   1      21.068  33.280  44.690  1.00  0.00    +0.000 C 
ATOM     14  O2  UNL A   1      21.064  32.077  44.936  1.00  0.00    +0.000 O 
BRANCH   13   12
ATOM     12  N2  UNL A   1      19.939  33.887  44.203  1.00  0.00    +0.000 N 
ATOM    109  H18 UNL A   1      19.900  34.864  44.319  1.00  0.00    +0.000 H 
BRANCH   12   11
ATOM     11  C9  UNL A   1      18.791  33.292  43.540  1.00  0.00    +0.000 C 
ATOM    108  H17 UNL A   1      19.102  32.359  43.118  1.00  0.00    +0.000 H 
ATOM    107  H16 UNL A   1      18.442  33.963  42.783  1.00  0.00    +0.000 H 
BRANCH   11   10
ATOM    105  H14 UNL A   1      17.949  33.336  45.484  1.00  0.00    +0.000 H 
ATOM     10  C8  UNL A   1      17.649  33.010  44.510  1.00  0.00    +0.000 C 
ATOM    106  H15 UNL A   1      16.796  33.535  44.136  1.00  0.00    +0.000 H 
BRANCH   10    9
ATOM      9  C7  UNL A   1      17.243  31.537  44.605  1.00  0.00    +0.000 C 
ATOM    103  H12 UNL A   1      18.042  30.946  44.207  1.00  0.00    +0.000 H 
ATOM    104  H13 UNL A   1      17.050  31.345  45.640  1.00  0.00    +0.000 H 
BRANCH    9    8
ATOM    101  H10 UNL A   1      15.128  31.520  44.428  1.00  0.00    +0.000 H 
ATOM    102  H11 UNL A   1      16.037  31.627  42.890  1.00  0.00    +0.000 H 
ATOM      8  C6  UNL A   1      15.960  31.169  43.853  1.00  0.00    +0.000 C 
BRANCH    8    7
ATOM     99  H8  UNL A   1      16.339  29.126  44.318  1.00  0.00    +0.000 H 
ATOM    100  H9  UNL A   1      14.713  29.474  43.681  1.00  0.00    +0.000 H 
ATOM      7  C5  UNL A   1      15.762  29.668  43.598  1.00  0.00    +0.000 C 
BRANCH    7    6
ATOM     97  H6  UNL A   1      15.549  29.672  41.473  1.00  0.00    +0.000 H 
ATOM     98  H7  UNL A   1      17.204  29.508  42.037  1.00  0.00    +0.000 H 
ATOM      6  C4  UNL A   1      16.188  29.215  42.200  1.00  0.00    +0.000 C 
BRANCH    6    5
ATOM      5  N1  UNL A   1      16.094  27.776  42.077  1.00  0.00    +0.000 N 
ATOM     96  H5  UNL A   1      16.928  27.284  42.253  1.00  0.00    +0.000 H 
BRANCH    5    3
ATOM      3  C3  UNL A   1      15.018  26.999  41.756  1.00  0.00    +0.000 C 
ATOM      4  O1  UNL A   1      14.735  26.910  40.560  1.00  0.00    +0.000 O 
BRANCH    3    2
ATOM      2  C2  UNL A   1      14.185  26.357  42.872  1.00  0.00    +0.000 C 
ATOM     95  H4  UNL A   1      13.240  26.859  42.864  1.00  0.00    +0.000 H 
BRANCH    2    1
ATOM      1  C1  UNL A   1      14.766  26.581  44.274  1.00  0.00    +0.000 C 
ATOM     92  H1  UNL A   1      14.238  25.974  44.979  1.00  0.00    +0.000 H 
ATOM     93  H2  UNL A   1      14.662  27.612  44.542  1.00  0.00    +0.000 H 
ATOM     94  H3  UNL A   1      15.801  26.315  44.277  1.00  0.00    +0.000 H 
ENDBRANCH    2    1
BRANCH    2   78
ATOM    137  H46 UNL A   1      11.492  22.609  42.256  1.00  0.00    +0.000 H 
ATOM     78  C55 UNL A   1      13.945  24.879  42.600  1.00  0.00    +0.000 C 
ATOM     79  C56 UNL A   1      15.034  24.025  42.379  1.00  0.00    +0.000 C 
ATOM     80  C57 UNL A   1      14.827  22.679  42.064  1.00  0.00    +0.000 C 
ATOM     81  C58 UNL A   1      13.531  22.164  41.939  1.00  0.00    +0.000 C 
ATOM     89  C65 UNL A   1      12.450  22.992  42.260  1.00  0.00    +0.000 C 
ATOM     90  C66 UNL A   1      12.661  24.327  42.587  1.00  0.00    +0.000 C 
ATOM     91  F16 UNL A   1      11.590  25.088  42.848  1.00  0.00    +0.000 F 
ATOM    124  H33 UNL A   1      15.995  24.391  42.450  1.00  0.00    +0.000 H 
ATOM    125  H34 UNL A   1      15.638  22.058  41.923  1.00  0.00    +0.000 H 
BRANCH   81   82
ATOM     82  C59 UNL A   1      13.289  20.761  41.446  1.00  0.00    +0.000 C 
ATOM    126  H35 UNL A   1      12.974  20.176  42.285  1.00  0.00    +0.000 H 
ATOM    127  H36 UNL A   1      14.215  20.463  41.002  1.00  0.00    +0.000 H 
BRANCH   82   83
ATOM    129  H38 UNL A   1      10.203  19.868  40.300  1.00  0.00    +0.000 H 
ATOM    130  H39 UNL A   1      11.103  19.310  41.668  1.00  0.00    +0.000 H 
ATOM    131  H40 UNL A   1      10.720  17.928  39.240  1.00  0.00    +0.000 H 
ATOM    132  H41 UNL A   1      11.807  17.457  40.498  1.00  0.00    +0.000 H 
ATOM    133  H42 UNL A   1      12.580  18.254  37.953  1.00  0.00    +0.000 H 
ATOM    134  H43 UNL A   1      13.644  18.224  39.298  1.00  0.00    +0.000 H 
ATOM    135  H44 UNL A   1      12.099  20.549  38.171  1.00  0.00    +0.000 H 
ATOM     83  C60 UNL A   1      12.237  20.569  40.327  1.00  0.00    +0.000 C 
ATOM     84  C61 UNL A   1      11.162  19.514  40.621  1.00  0.00    +0.000 C 
ATOM     85  C62 UNL A   1      11.545  18.255  39.837  1.00  0.00    +0.000 C 
ATOM     86  C63 UNL A   1      12.722  18.634  38.943  1.00  0.00    +0.000 C 
ATOM     87  C64 UNL A   1      12.734  20.158  38.937  1.00  0.00    +0.000 C 
ATOM    128  H37 UNL A   1      11.870  21.574  40.319  1.00  0.00    +0.000 H 
BRANCH   87   88
ATOM    136  H45 UNL A   1      14.664  20.390  39.207  1.00  0.00    +0.000 H 
ATOM     88  O3  UNL A   1      13.987  20.711  38.590  1.00  0.00    +0.000 O 
ENDBRANCH   87   88
ENDBRANCH   82   83
ENDBRANCH   81   82
ENDBRANCH    2   78
ENDBRANCH    3    2
ENDBRANCH    5    3
ENDBRANCH    6    5
ENDBRANCH    7    6
ENDBRANCH    8    7
ENDBRANCH    9    8
ENDBRANCH   10    9
ENDBRANCH   11   10
ENDBRANCH   12   11
ENDBRANCH   13   12
ENDBRANCH   15   13
ENDBRANCH   19   18
BRANCH   23   24
ATOM     33  C24 UNL A   1      25.613  40.907  50.584  1.00  0.00    +0.000 C 
ATOM     34  F5  UNL A   1      26.247  39.843  51.098  1.00  0.00    +0.000 F 
ATOM     24  C19 UNL A   1      25.786  41.251  49.235  1.00  0.00    +0.000 C 
ATOM     25  C20 UNL A   1      25.094  42.372  48.750  1.00  0.00    +0.000 C 
ATOM     26  F1  UNL A   1      25.234  42.750  47.471  1.00  0.00    +0.000 F 
ATOM     27  C21 UNL A   1      24.290  43.137  49.591  1.00  0.00    +0.000 C 
ATOM     28  F2  UNL A   1      23.683  44.235  49.118  1.00  0.00    +0.000 F 
ATOM     29  C22 UNL A   1      24.131  42.776  50.920  1.00  0.00    +0.000 C 
ATOM     30  F3  UNL A   1      23.355  43.512  51.728  1.00  0.00    +0.000 F 
ATOM     31  C23 UNL A   1      24.784  41.658  51.415  1.00  0.00    +0.000 C 
ATOM     32  F4  UNL A   1      24.622  41.301  52.697  1.00  0.00    +0.000 F 
ENDBRANCH   23   24
BRANCH   40   41
ATOM     41  C30 UNL A   1      32.666  41.103  47.073  1.00  0.00    +0.000 C 
ATOM     42  C31 UNL A   1      33.655  40.590  47.925  1.00  0.00    +0.000 C 
ATOM     43  F6  UNL A   1      33.461  39.423  48.558  1.00  0.00    +0.000 F 
ATOM     44  C32 UNL A   1      34.831  41.297  48.162  1.00  0.00    +0.000 C 
ATOM     45  F7  UNL A   1      35.741  40.812  49.018  1.00  0.00    +0.000 F 
ATOM     46  C33 UNL A   1      35.055  42.510  47.527  1.00  0.00    +0.000 C 
ATOM     47  F8  UNL A   1      36.189  43.186  47.754  1.00  0.00    +0.000 F 
ATOM     48  C34 UNL A   1      34.099  43.026  46.665  1.00  0.00    +0.000 C 
ATOM     49  F9  UNL A   1      34.319  44.192  46.042  1.00  0.00    +0.000 F 
ATOM     50  C35 UNL A   1      32.910  42.336  46.448  1.00  0.00    +0.000 C 
ATOM     51  F10 UNL A   1      31.999  42.866  45.620  1.00  0.00    +0.000 F 
ENDBRANCH   40   41
BRANCH   55   56
ATOM     65  C44 UNL A   1      31.805  34.489  43.372  1.00  0.00    +0.000 C 
ATOM     66  F15 UNL A   1      31.666  34.069  44.638  1.00  0.00    +0.000 F 
ATOM     56  C39 UNL A   1      31.197  35.683  42.958  1.00  0.00    +0.000 C 
ATOM     57  C40 UNL A   1      31.377  36.080  41.625  1.00  0.00    +0.000 C 
ATOM     58  F11 UNL A   1      30.797  37.203  41.177  1.00  0.00    +0.000 F 
ATOM     59  C41 UNL A   1      32.120  35.305  40.738  1.00  0.00    +0.000 C 
ATOM     60  F12 UNL A   1      32.241  35.686  39.458  1.00  0.00    +0.000 F 
ATOM     61  C42 UNL A   1      32.721  34.133  41.172  1.00  0.00    +0.000 C 
ATOM     62  F13 UNL A   1      33.438  33.388  40.319  1.00  0.00    +0.000 F 
ATOM     63  C43 UNL A   1      32.569  33.729  42.491  1.00  0.00    +0.000 C 
ATOM     64  F14 UNL A   1      33.159  32.603  42.917  1.00  0.00    +0.000 F 
ENDBRANCH   55   56
TORSDOF 20
ENDMDL
MODEL 2
REMARK VINA RESULT:     -11.0      5.208      7.093
ROOT
ATOM     19  C15 UNL A   1      25.887  34.997  45.537  1.00  0.00    +0.000 C 
ATOM     20  C16 UNL A   1      25.603  36.152  46.456  1.00  0.00    +0.000 C 
ATOM     21  N3  UNL A   1      26.353  37.187  46.744  1.00  0.00    +0.000 N 
ATOM     22  C17 UNL A   1      25.597  37.974  47.602  1.00  0.00    +0.000 C 
ATOM     23  C18 UNL A   1      25.950  39.121  48.229  1.00  0.00    +0.000 C 
ATOM     35  C25 UNL A   1      27.242  39.745  48.108  1.00  0.00    +0.000 C 
ATOM     36  C26 UNL A   1      27.723  40.870  48.755  1.00  0.00    +0.000 C 
ATOM     37  C27 UNL A   1      29.018  41.123  48.288  1.00  0.00    +0.000 C 
ATOM     38  C28 UNL A   1      29.360  40.130  47.385  1.00  0.00    +0.000 C 
ATOM     39  N4  UNL A   1      28.260  39.294  47.280  1.00  0.00    +0.000 N 
ATOM     40  C29 UNL A   1      30.598  39.956  46.668  1.00  0.00    +0.000 C 
ATOM     52  C36 UNL A   1      30.859  38.950  45.799  1.00  0.00    +0.000 C 
ATOM     53  N5  UNL A   1      30.044  37.893  45.417  1.00  0.00    +0.000 N 
ATOM     54  C37 UNL A   1      30.738  37.195  44.552  1.00  0.00    +0.000 C 
ATOM     55  C38 UNL A   1      30.368  35.924  43.837  1.00  0.00    +0.000 C 
ATOM     67  C45 UNL A   1      29.166  35.366  44.070  1.00  0.00    +0.000 C 
ATOM     68  C46 UNL A   1      28.672  34.131  43.466  1.00  0.00    +0.000 C 
ATOM     69  C47 UNL A   1      27.430  33.889  43.919  1.00  0.00    +0.000 C 
ATOM     70  C48 UNL A   1      27.055  34.935  44.870  1.00  0.00    +0.000 C 
ATOM     71  N6  UNL A   1      28.140  35.775  44.887  1.00  0.00    +0.000 N 
ATOM     72  C49 UNL A   1      32.067  37.753  44.261  1.00  0.00    +0.000 C 
ATOM     73  C50 UNL A   1      32.105  38.796  45.078  1.00  0.00    +0.000 C 
ATOM     74  C51 UNL A   1      24.312  37.325  47.749  1.00  0.00    +0.000 C 
ATOM     75  C52 UNL A   1      24.289  36.161  47.119  1.00  0.00    +0.000 C 
ATOM    112  H21 UNL A   1      27.214  41.426  49.460  1.00  0.00    +0.000 H 
ATOM    113  H22 UNL A   1      29.615  41.916  48.569  1.00  0.00    +0.000 H 
ATOM    114  H23 UNL A   1      28.209  38.498  46.704  1.00  0.00    +0.000 H 
ATOM    115  H24 UNL A   1      29.192  33.541  42.800  1.00  0.00    +0.000 H 
ATOM    116  H25 UNL A   1      26.837  33.091  43.640  1.00  0.00    +0.000 H 
ATOM    117  H26 UNL A   1      28.180  36.594  45.433  1.00  0.00    +0.000 H 
ATOM    118  H27 UNL A   1      32.782  37.420  43.595  1.00  0.00    +0.000 H 
ATOM    119  H28 UNL A   1      32.920  39.419  45.186  1.00  0.00    +0.000 H 
ATOM    120  H29 UNL A   1      23.516  37.720  48.276  1.00  0.00    +0.000 H 
ATOM    121  H30 UNL A   1      23.546  35.446  47.098  1.00  0.00    +0.000 H 
ENDROOT
BRANCH   19   18
ATOM     76  C53 UNL A   1      24.723  32.905  46.242  1.00  0.00    +0.000 C 
ATOM     77  C54 UNL A   1      23.794  31.890  46.027  1.00  0.00    +0.000 C 
ATOM    110  H19 UNL A   1      22.424  33.037  43.185  1.00  0.00    +0.000 H 
ATOM     15  C11 UNL A   1      22.918  31.966  44.939  1.00  0.00    +0.000 C 
ATOM     16  C12 UNL A   1      23.049  32.998  44.005  1.00  0.00    +0.000 C 
ATOM     17  C13 UNL A   1      24.028  33.977  44.186  1.00  0.00    +0.000 C 
ATOM    111  H20 UNL A   1      24.142  34.724  43.483  1.00  0.00    +0.000 H 
ATOM     18  C14 UNL A   1      24.859  33.950  45.318  1.00  0.00    +0.000 C 
ATOM    122  H31 UNL A   1      25.316  32.886  47.087  1.00  0.00    +0.000 H 
ATOM    123  H32 UNL A   1      23.751  31.084  46.669  1.00  0.00    +0.000 H 
BRANCH   15   13
ATOM     13  C10 UNL A   1      21.864  30.950  44.732  1.00  0.00    +0.000 C 
ATOM     14  O2  UNL A   1      22.151  29.757  44.774  1.00  0.00    +0.000 O 
BRANCH   13   12
ATOM     12  N2  UNL A   1      20.573  31.338  44.482  1.00  0.00    +0.000 N 
ATOM    109  H18 UNL A   1      20.362  31.518  43.537  1.00  0.00    +0.000 H 
BRANCH   12   11
ATOM     11  C9  UNL A   1      19.473  31.521  45.413  1.00  0.00    +0.000 C 
ATOM    108  H17 UNL A   1      19.344  30.607  45.956  1.00  0.00    +0.000 H 
ATOM    107  H16 UNL A   1      18.591  31.772  44.861  1.00  0.00    +0.000 H 
BRANCH   11   10
ATOM    105  H14 UNL A   1      18.896  32.730  47.056  1.00  0.00    +0.000 H 
ATOM     10  C8  UNL A   1      19.753  32.629  46.422  1.00  0.00    +0.000 C 
ATOM    106  H15 UNL A   1      20.635  32.340  46.953  1.00  0.00    +0.000 H 
BRANCH   10    9
ATOM      9  C7  UNL A   1      20.050  33.996  45.801  1.00  0.00    +0.000 C 
ATOM    103  H12 UNL A   1      20.485  33.835  44.837  1.00  0.00    +0.000 H 
ATOM    104  H13 UNL A   1      19.116  34.517  45.762  1.00  0.00    +0.000 H 
BRANCH    9    8
ATOM    101  H10 UNL A   1      21.925  34.952  46.077  1.00  0.00    +0.000 H 
ATOM    102  H11 UNL A   1      20.504  35.822  46.730  1.00  0.00    +0.000 H 
ATOM      8  C6  UNL A   1      21.001  34.882  46.611  1.00  0.00    +0.000 C 
BRANCH    8    7
ATOM     99  H8  UNL A   1      21.401  33.315  47.997  1.00  0.00    +0.000 H 
ATOM    100  H9  UNL A   1      22.213  34.862  48.340  1.00  0.00    +0.000 H 
ATOM      7  C5  UNL A   1      21.309  34.380  48.030  1.00  0.00    +0.000 C 
BRANCH    7    6
ATOM     97  H6  UNL A   1      19.283  34.772  48.580  1.00  0.00    +0.000 H 
ATOM     98  H7  UNL A   1      20.240  33.999  49.833  1.00  0.00    +0.000 H 
ATOM      6  C4  UNL A   1      20.238  34.741  49.062  1.00  0.00    +0.000 C 
BRANCH    6    5
ATOM      5  N1  UNL A   1      20.513  36.030  49.656  1.00  0.00    +0.000 N 
ATOM     96  H5  UNL A   1      20.951  36.002  50.537  1.00  0.00    +0.000 H 
BRANCH    5    3
ATOM      3  C3  UNL A   1      20.258  37.282  49.175  1.00  0.00    +0.000 C 
ATOM      4  O1  UNL A   1      21.234  37.986  48.912  1.00  0.00    +0.000 O 
BRANCH    3    2
ATOM      2  C2  UNL A   1      18.808  37.772  49.062  1.00  0.00    +0.000 C 
ATOM     95  H4  UNL A   1      18.860  38.837  48.971  1.00  0.00    +0.000 H 
BRANCH    2    1
ATOM      1  C1  UNL A   1      17.973  37.500  50.320  1.00  0.00    +0.000 C 
ATOM     92  H1  UNL A   1      17.266  38.292  50.455  1.00  0.00    +0.000 H 
ATOM     93  H2  UNL A   1      18.618  37.448  51.172  1.00  0.00    +0.000 H 
ATOM     94  H3  UNL A   1      17.453  36.572  50.209  1.00  0.00    +0.000 H 
ENDBRANCH    2    1
BRANCH    2   78
ATOM    137  H46 UNL A   1      18.373  37.173  44.466  1.00  0.00    +0.000 H 
ATOM     78  C55 UNL A   1      18.134  37.216  47.817  1.00  0.00    +0.000 C 
ATOM     79  C56 UNL A   1      17.002  36.399  47.942  1.00  0.00    +0.000 C 
ATOM     80  C57 UNL A   1      16.410  35.829  46.811  1.00  0.00    +0.000 C 
ATOM     81  C58 UNL A   1      16.950  36.041  45.537  1.00  0.00    +0.000 C 
ATOM     89  C65 UNL A   1      18.015  36.938  45.404  1.00  0.00    +0.000 C 
ATOM     90  C66 UNL A   1      18.592  37.514  46.530  1.00  0.00    +0.000 C 
ATOM     91  F16 UNL A   1      19.636  38.336  46.353  1.00  0.00    +0.000 F 
ATOM    124  H33 UNL A   1      16.602  36.217  48.875  1.00  0.00    +0.000 H 
ATOM    125  H34 UNL A   1      15.567  35.245  46.917  1.00  0.00    +0.000 H 
BRANCH   81   82
ATOM     82  C59 UNL A   1      16.423  35.309  44.330  1.00  0.00    +0.000 C 
ATOM    126  H35 UNL A   1      16.797  35.810  43.462  1.00  0.00    +0.000 H 
ATOM    127  H36 UNL A   1      15.359  35.323  44.444  1.00  0.00    +0.000 H 
BRANCH   82   83
ATOM    129  H38 UNL A   1      18.457  32.754  43.348  1.00  0.00    +0.000 H 
ATOM    130  H39 UNL A   1      18.258  34.348  42.705  1.00  0.00    +0.000 H 
ATOM    131  H40 UNL A   1      17.269  31.955  41.586  1.00  0.00    +0.000 H 
ATOM    132  H41 UNL A   1      16.865  33.550  41.055  1.00  0.00    +0.000 H 
ATOM    133  H42 UNL A   1      15.075  31.758  42.194  1.00  0.00    +0.000 H 
ATOM    134  H43 UNL A   1      14.785  33.445  42.089  1.00  0.00    +0.000 H 
ATOM    135  H44 UNL A   1      15.874  31.862  44.407  1.00  0.00    +0.000 H 
ATOM     83  C60 UNL A   1      16.783  33.810  44.190  1.00  0.00    +0.000 C 
ATOM     84  C61 UNL A   1      17.733  33.476  43.032  1.00  0.00    +0.000 C 
ATOM     85  C62 UNL A   1      16.874  32.898  41.903  1.00  0.00    +0.000 C 
ATOM     86  C63 UNL A   1      15.469  32.714  42.467  1.00  0.00    +0.000 C 
ATOM     87  C64 UNL A   1      15.638  32.814  43.979  1.00  0.00    +0.000 C 
ATOM    128  H37 UNL A   1      17.220  33.690  45.159  1.00  0.00    +0.000 H 
BRANCH   87   88
ATOM    136  H45 UNL A   1      13.830  33.574  44.039  1.00  0.00    +0.000 H 
ATOM     88  O3  UNL A   1      14.448  33.155  44.659  1.00  0.00    +0.000 O 
ENDBRANCH   87   88
ENDBRANCH   82   83
ENDBRANCH   81   82
ENDBRANCH    2   78
ENDBRANCH    3    2
ENDBRANCH    5    3
ENDBRANCH    6    5
ENDBRANCH    7    6
ENDBRANCH    8    7
ENDBRANCH    9    8
ENDBRANCH   10    9
ENDBRANCH   11   10
ENDBRANCH   12   11
ENDBRANCH   13   12
ENDBRANCH   15   13
ENDBRANCH   19   18
BRANCH   23   24
ATOM     33  C24 UNL A   1      24.042  40.732  48.579  1.00  0.00    +0.000 C 
ATOM     34  F5  UNL A   1      24.099  41.061  47.280  1.00  0.00    +0.000 F 
ATOM     24  C19 UNL A   1      24.923  39.775  49.106  1.00  0.00    +0.000 C 
ATOM     25  C20 UNL A   1      24.821  39.473  50.473  1.00  0.00    +0.000 C 
ATOM     26  F1  UNL A   1      25.631  38.558  51.025  1.00  0.00    +0.000 F 
ATOM     27  C21 UNL A   1      23.854  40.080  51.271  1.00  0.00    +0.000 C 
ATOM     28  F2  UNL A   1      23.740  39.735  52.562  1.00  0.00    +0.000 F 
ATOM     29  C22 UNL A   1      22.997  41.025  50.729  1.00  0.00    +0.000 C 
ATOM     30  F3  UNL A   1      22.068  41.610  51.498  1.00  0.00    +0.000 F 
ATOM     31  C23 UNL A   1      23.096  41.358  49.386  1.00  0.00    +0.000 C 
ATOM     32  F4  UNL A   1      22.276  42.280  48.864  1.00  0.00    +0.000 F 
ENDBRANCH   23   24
BRANCH   40   41
ATOM     41  C30 UNL A   1      31.697  40.946  46.920  1.00  0.00    +0.000 C 
ATOM     42  C31 UNL A   1      31.672  42.232  46.359  1.00  0.00    +0.000 C 
ATOM     43  F6  UNL A   1      30.673  42.591  45.539  1.00  0.00    +0.000 F 
ATOM     44  C32 UNL A   1      32.698  43.139  46.607  1.00  0.00    +0.000 C 
ATOM     45  F7  UNL A   1      32.679  44.345  46.022  1.00  0.00    +0.000 F 
ATOM     46  C33 UNL A   1      33.749  42.793  47.445  1.00  0.00    +0.000 C 
ATOM     47  F8  UNL A   1      34.732  43.669  47.685  1.00  0.00    +0.000 F 
ATOM     48  C34 UNL A   1      33.782  41.534  48.026  1.00  0.00    +0.000 C 
ATOM     49  F9  UNL A   1      34.789  41.201  48.845  1.00  0.00    +0.000 F 
ATOM     50  C35 UNL A   1      32.772  40.614  47.757  1.00  0.00    +0.000 C 
ATOM     51  F10 UNL A   1      32.839  39.400  48.322  1.00  0.00    +0.000 F 
ENDBRANCH   40   41
BRANCH   55   56
ATOM     65  C44 UNL A   1      32.176  34.235  43.360  1.00  0.00    +0.000 C 
ATOM     66  F15 UNL A   1      32.139  33.836  44.640  1.00  0.00    +0.000 F 
ATOM     56  C39 UNL A   1      31.328  35.260  42.919  1.00  0.00    +0.000 C 
ATOM     57  C40 UNL A   1      31.410  35.643  41.572  1.00  0.00    +0.000 C 
ATOM     58  F11 UNL A   1      30.604  36.605  41.099  1.00  0.00    +0.000 F 
ATOM     59  C41 UNL A   1      32.292  35.012  40.698  1.00  0.00    +0.000 C 
ATOM     60  F12 UNL A   1      32.319  35.367  39.406  1.00  0.00    +0.000 F 
ATOM     61  C42 UNL A   1      33.128  34.006  41.158  1.00  0.00    +0.000 C 
ATOM     62  F13 UNL A   1      33.978  33.401  40.318  1.00  0.00    +0.000 F 
ATOM     63  C43 UNL A   1      33.075  33.622  42.491  1.00  0.00    +0.000 C 
ATOM     64  F14 UNL A   1      33.891  32.660  42.942  1.00  0.00    +0.000 F 
ENDBRANCH   55   56
TORSDOF 20
ENDMDL
MODEL 3
REMARK VINA RESULT:     -10.9     33.494     39.938
ROOT
ATOM     19  C15 UNL A   1      46.507  50.708  18.211  1.00  0.00    +0.000 C 
ATOM     20  C16 UNL A   1      46.847  51.990  17.502  1.00  0.00    +0.000 C 
ATOM     21  N3  UNL A   1      47.897  52.760  17.640  1.00  0.00    +0.000 N 
ATOM     22  C17 UNL A   1      47.738  53.784  16.716  1.00  0.00    +0.000 C 
ATOM     23  C18 UNL A   1      48.526  54.866  16.509  1.00  0.00    +0.000 C 
ATOM     35  C25 UNL A   1      49.721  55.153  17.258  1.00  0.00    +0.000 C 
ATOM     36  C26 UNL A   1      50.552  56.256  17.173  1.00  0.00    +0.000 C 
ATOM     37  C27 UNL A   1      51.612  56.076  18.069  1.00  0.00    +0.000 C 
ATOM     38  C28 UNL A   1      51.418  54.883  18.744  1.00  0.00    +0.000 C 
ATOM     39  N4  UNL A   1      50.256  54.324  18.234  1.00  0.00    +0.000 N 
ATOM     40  C29 UNL A   1      52.230  54.293  19.778  1.00  0.00    +0.000 C 
ATOM     52  C36 UNL A   1      51.969  53.116  20.396  1.00  0.00    +0.000 C 
ATOM     53  N5  UNL A   1      50.906  52.245  20.202  1.00  0.00    +0.000 N 
ATOM     54  C37 UNL A   1      51.102  51.246  21.027  1.00  0.00    +0.000 C 
ATOM     55  C38 UNL A   1      50.248  50.032  21.272  1.00  0.00    +0.000 C 
ATOM     67  C45 UNL A   1      49.104  49.882  20.579  1.00  0.00    +0.000 C 
ATOM     68  C46 UNL A   1      48.168  48.770  20.716  1.00  0.00    +0.000 C 
ATOM     69  C47 UNL A   1      47.149  48.947  19.858  1.00  0.00    +0.000 C 
ATOM     70  C48 UNL A   1      47.347  50.203  19.134  1.00  0.00    +0.000 C 
ATOM     71  N6  UNL A   1      48.538  50.682  19.617  1.00  0.00    +0.000 N 
ATOM     72  C49 UNL A   1      52.336  51.356  21.819  1.00  0.00    +0.000 C 
ATOM     73  C50 UNL A   1      52.803  52.532  21.426  1.00  0.00    +0.000 C 
ATOM     74  C51 UNL A   1      46.518  53.511  15.988  1.00  0.00    +0.000 C 
ATOM     75  C52 UNL A   1      45.893  52.454  16.483  1.00  0.00    +0.000 C 
ATOM    112  H21 UNL A   1      50.413  57.071  16.555  1.00  0.00    +0.000 H 
ATOM    113  H22 UNL A   1      52.404  56.724  18.202  1.00  0.00    +0.000 H 
ATOM    114  H23 UNL A   1      49.869  53.467  18.522  1.00  0.00    +0.000 H 
ATOM    115  H24 UNL A   1      48.272  47.977  21.367  1.00  0.00    +0.000 H 
ATOM    116  H25 UNL A   1      46.355  48.301  19.731  1.00  0.00    +0.000 H 
ATOM    117  H26 UNL A   1      48.949  51.521  19.304  1.00  0.00    +0.000 H 
ATOM    118  H27 UNL A   1      52.734  50.691  22.500  1.00  0.00    +0.000 H 
ATOM    119  H28 UNL A   1      53.654  52.976  21.806  1.00  0.00    +0.000 H 
ATOM    120  H29 UNL A   1      46.180  54.068  15.187  1.00  0.00    +0.000 H 
ATOM    121  H30 UNL A   1      44.976  52.059  16.222  1.00  0.00    +0.000 H 
ENDROOT
BRANCH   19   18
ATOM     76  C53 UNL A   1      45.326  48.959  16.878  1.00  0.00    +0.000 C 
ATOM     77  C54 UNL A   1      44.168  48.284  16.499  1.00  0.00    +0.000 C 
ATOM    110  H19 UNL A   1      42.001  49.754  18.600  1.00  0.00    +0.000 H 
ATOM     15  C11 UNL A   1      42.964  48.537  17.165  1.00  0.00    +0.000 C 
ATOM     16  C12 UNL A   1      42.896  49.545  18.132  1.00  0.00    +0.000 C 
ATOM     17  C13 UNL A   1      44.044  50.268  18.462  1.00  0.00    +0.000 C 
ATOM    111  H20 UNL A   1      43.989  51.030  19.156  1.00  0.00    +0.000 H 
ATOM     18  C14 UNL A   1      45.273  49.966  17.853  1.00  0.00    +0.000 C 
ATOM    122  H31 UNL A   1      46.228  48.716  16.439  1.00  0.00    +0.000 H 
ATOM    123  H32 UNL A   1      44.198  47.599  15.729  1.00  0.00    +0.000 H 
BRANCH   15   13
ATOM     13  C10 UNL A   1      41.738  47.777  16.843  1.00  0.00    +0.000 C 
ATOM     14  O2  UNL A   1      40.648  48.184  17.233  1.00  0.00    +0.000 O 
BRANCH   13   12
ATOM     12  N2  UNL A   1      41.819  46.612  16.123  1.00  0.00    +0.000 N 
ATOM    109  H18 UNL A   1      41.973  46.722  15.157  1.00  0.00    +0.000 H 
BRANCH   12   11
ATOM     11  C9  UNL A   1      41.710  45.238  16.585  1.00  0.00    +0.000 C 
ATOM    108  H17 UNL A   1      40.984  44.742  15.975  1.00  0.00    +0.000 H 
ATOM    107  H16 UNL A   1      41.415  45.242  17.614  1.00  0.00    +0.000 H 
BRANCH   11   10
ATOM    105  H14 UNL A   1      42.981  43.879  15.572  1.00  0.00    +0.000 H 
ATOM     10  C8  UNL A   1      43.027  44.482  16.454  1.00  0.00    +0.000 C 
ATOM    106  H15 UNL A   1      43.800  45.221  16.418  1.00  0.00    +0.000 H 
BRANCH   10    9
ATOM      9  C7  UNL A   1      43.358  43.569  17.638  1.00  0.00    +0.000 C 
ATOM    103  H12 UNL A   1      42.976  42.593  17.421  1.00  0.00    +0.000 H 
ATOM    104  H13 UNL A   1      44.422  43.593  17.746  1.00  0.00    +0.000 H 
BRANCH    9    8
ATOM    101  H10 UNL A   1      43.517  44.615  19.478  1.00  0.00    +0.000 H 
ATOM    102  H11 UNL A   1      41.880  44.552  18.758  1.00  0.00    +0.000 H 
ATOM      8  C6  UNL A   1      42.779  44.019  18.983  1.00  0.00    +0.000 C 
BRANCH    8    7
ATOM     99  H8  UNL A   1      41.396  43.089  20.309  1.00  0.00    +0.000 H 
ATOM    100  H9  UNL A   1      42.411  41.975  19.361  1.00  0.00    +0.000 H 
ATOM      7  C5  UNL A   1      42.375  42.880  19.931  1.00  0.00    +0.000 C 
BRANCH    7    6
ATOM     97  H6  UNL A   1      42.763  42.774  22.029  1.00  0.00    +0.000 H 
ATOM     98  H7  UNL A   1      43.778  41.730  21.048  1.00  0.00    +0.000 H 
ATOM      6  C4  UNL A   1      43.322  42.695  21.119  1.00  0.00    +0.000 C 
BRANCH    6    5
ATOM      5  N1  UNL A   1      44.359  43.703  21.109  1.00  0.00    +0.000 N 
ATOM     96  H5  UNL A   1      44.059  44.616  21.322  1.00  0.00    +0.000 H 
BRANCH    5    3
ATOM      3  C3  UNL A   1      45.693  43.576  20.849  1.00  0.00    +0.000 C 
ATOM      4  O1  UNL A   1      46.089  42.461  20.506  1.00  0.00    +0.000 O 
BRANCH    3    2
ATOM      2  C2  UNL A   1      46.627  44.774  21.067  1.00  0.00    +0.000 C 
ATOM     95  H4  UNL A   1      47.416  44.424  21.699  1.00  0.00    +0.000 H 
BRANCH    2    1
ATOM      1  C1  UNL A   1      45.966  45.932  21.825  1.00  0.00    +0.000 C 
ATOM     92  H1  UNL A   1      45.643  45.591  22.786  1.00  0.00    +0.000 H 
ATOM     93  H2  UNL A   1      45.122  46.286  21.270  1.00  0.00    +0.000 H 
ATOM     94  H3  UNL A   1      46.671  46.727  21.946  1.00  0.00    +0.000 H 
ENDBRANCH    2    1
BRANCH    2   78
ATOM    137  H46 UNL A   1      50.180  45.961  18.304  1.00  0.00    +0.000 H 
ATOM     78  C55 UNL A   1      47.236  45.244  19.755  1.00  0.00    +0.000 C 
ATOM     79  C56 UNL A   1      46.408  45.502  18.654  1.00  0.00    +0.000 C 
ATOM     80  C57 UNL A   1      46.959  45.872  17.424  1.00  0.00    +0.000 C 
ATOM     81  C58 UNL A   1      48.345  45.968  17.260  1.00  0.00    +0.000 C 
ATOM     89  C65 UNL A   1      49.163  45.812  18.385  1.00  0.00    +0.000 C 
ATOM     90  C66 UNL A   1      48.610  45.457  19.610  1.00  0.00    +0.000 C 
ATOM     91  F16 UNL A   1      49.439  45.280  20.648  1.00  0.00    +0.000 F 
ATOM    124  H33 UNL A   1      45.385  45.418  18.752  1.00  0.00    +0.000 H 
ATOM    125  H34 UNL A   1      46.336  46.076  16.627  1.00  0.00    +0.000 H 
BRANCH   81   82
ATOM     82  C59 UNL A   1      48.961  46.209  15.906  1.00  0.00    +0.000 C 
ATOM    126  H35 UNL A   1      48.178  46.135  15.180  1.00  0.00    +0.000 H 
ATOM    127  H36 UNL A   1      49.734  45.475  15.822  1.00  0.00    +0.000 H 
BRANCH   82   83
ATOM    129  H38 UNL A   1      49.519  49.503  16.592  1.00  0.00    +0.000 H 
ATOM    130  H39 UNL A   1      48.098  48.536  16.786  1.00  0.00    +0.000 H 
ATOM    131  H40 UNL A   1      48.553  50.457  14.772  1.00  0.00    +0.000 H 
ATOM    132  H41 UNL A   1      47.231  49.344  14.813  1.00  0.00    +0.000 H 
ATOM    133  H42 UNL A   1      49.240  49.348  12.896  1.00  0.00    +0.000 H 
ATOM    134  H43 UNL A   1      48.214  48.004  13.186  1.00  0.00    +0.000 H 
ATOM    135  H44 UNL A   1      50.982  48.523  14.249  1.00  0.00    +0.000 H 
ATOM     83  C60 UNL A   1      49.676  47.563  15.677  1.00  0.00    +0.000 C 
ATOM     84  C61 UNL A   1      48.876  48.800  16.103  1.00  0.00    +0.000 C 
ATOM     85  C62 UNL A   1      48.297  49.419  14.826  1.00  0.00    +0.000 C 
ATOM     86  C63 UNL A   1      48.914  48.665  13.653  1.00  0.00    +0.000 C 
ATOM     87  C64 UNL A   1      50.101  47.917  14.248  1.00  0.00    +0.000 C 
ATOM    128  H37 UNL A   1      50.530  47.364  16.291  1.00  0.00    +0.000 H 
BRANCH   87   88
ATOM    136  H45 UNL A   1      50.570  46.022  14.049  1.00  0.00    +0.000 H 
ATOM     88  O3  UNL A   1      50.511  46.805  13.479  1.00  0.00    +0.000 O 
ENDBRANCH   87   88
ENDBRANCH   82   83
ENDBRANCH   81   82
ENDBRANCH    2   78
ENDBRANCH    3    2
ENDBRANCH    5    3
ENDBRANCH    6    5
ENDBRANCH    7    6
ENDBRANCH    8    7
ENDBRANCH    9    8
ENDBRANCH   10    9
ENDBRANCH   11   10
ENDBRANCH   12   11
ENDBRANCH   13   12
ENDBRANCH   15   13
ENDBRANCH   19   18
BRANCH   23   24
ATOM     33  C24 UNL A   1      48.603  55.668  14.119  1.00  0.00    +0.000 C 
ATOM     34  F5  UNL A   1      49.426  54.652  13.818  1.00  0.00    +0.000 F 
ATOM     24  C19 UNL A   1      48.118  55.823  15.426  1.00  0.00    +0.000 C 
ATOM     25  C20 UNL A   1      47.263  56.906  15.685  1.00  0.00    +0.000 C 
ATOM     26  F1  UNL A   1      46.762  57.093  16.915  1.00  0.00    +0.000 F 
ATOM     27  C21 UNL A   1      46.883  57.777  14.667  1.00  0.00    +0.000 C 
ATOM     28  F2  UNL A   1      46.023  58.773  14.926  1.00  0.00    +0.000 F 
ATOM     29  C22 UNL A   1      47.378  57.607  13.384  1.00  0.00    +0.000 C 
ATOM     30  F3  UNL A   1      47.014  58.448  12.405  1.00  0.00    +0.000 F 
ATOM     31  C23 UNL A   1      48.244  56.559  13.110  1.00  0.00    +0.000 C 
ATOM     32  F4  UNL A   1      48.733  56.400  11.873  1.00  0.00    +0.000 F 
ENDBRANCH   23   24
BRANCH   40   41
ATOM     41  C30 UNL A   1      53.446  55.049  20.228  1.00  0.00    +0.000 C 
ATOM     42  C31 UNL A   1      54.710  54.809  19.671  1.00  0.00    +0.000 C 
ATOM     43  F6  UNL A   1      54.868  53.854  18.742  1.00  0.00    +0.000 F 
ATOM     44  C32 UNL A   1      55.826  55.523  20.097  1.00  0.00    +0.000 C 
ATOM     45  F7  UNL A   1      57.033  55.244  19.586  1.00  0.00    +0.000 F 
ATOM     46  C33 UNL A   1      55.695  56.511  21.062  1.00  0.00    +0.000 C 
ATOM     47  F8  UNL A   1      56.770  57.200  21.468  1.00  0.00    +0.000 F 
ATOM     48  C34 UNL A   1      54.450  56.779  21.612  1.00  0.00    +0.000 C 
ATOM     49  F9  UNL A   1      54.318  57.741  22.535  1.00  0.00    +0.000 F 
ATOM     50  C35 UNL A   1      53.337  56.047  21.208  1.00  0.00    +0.000 C 
ATOM     51  F10 UNL A   1      52.149  56.319  21.768  1.00  0.00    +0.000 F 
ENDBRANCH   40   41
BRANCH   55   56
ATOM     65  C44 UNL A   1      51.378  47.888  21.963  1.00  0.00    +0.000 C 
ATOM     66  F15 UNL A   1      51.756  47.681  20.693  1.00  0.00    +0.000 F 
ATOM     56  C39 UNL A   1      50.631  49.027  22.296  1.00  0.00    +0.000 C 
ATOM     57  C40 UNL A   1      50.257  49.194  23.637  1.00  0.00    +0.000 C 
ATOM     58  F11 UNL A   1      49.560  50.279  24.008  1.00  0.00    +0.000 F 
ATOM     59  C41 UNL A   1      50.630  48.269  24.609  1.00  0.00    +0.000 C 
ATOM     60  F12 UNL A   1      50.296  48.474  25.890  1.00  0.00    +0.000 F 
ATOM     61  C42 UNL A   1      51.361  47.144  24.255  1.00  0.00    +0.000 C 
ATOM     62  F13 UNL A   1      51.718  46.252  25.189  1.00  0.00    +0.000 F 
ATOM     63  C43 UNL A   1      51.728  46.950  22.931  1.00  0.00    +0.000 C 
ATOM     64  F14 UNL A   1      52.423  45.858  22.583  1.00  0.00    +0.000 F 
ENDBRANCH   55   56
TORSDOF 20
ENDMDL
MODEL 4
REMARK VINA RESULT:     -10.9      1.421      2.176
ROOT
ATOM     19  C15 UNL A   1      26.063  36.296  45.520  1.00  0.00    +0.000 C 
ATOM     20  C16 UNL A   1      25.990  37.455  46.474  1.00  0.00    +0.000 C 
ATOM     21  N3  UNL A   1      26.912  38.331  46.786  1.00  0.00    +0.000 N 
ATOM     22  C17 UNL A   1      26.310  39.214  47.672  1.00  0.00    +0.000 C 
ATOM     23  C18 UNL A   1      26.862  40.261  48.330  1.00  0.00    +0.000 C 
ATOM     35  C25 UNL A   1      28.244  40.650  48.218  1.00  0.00    +0.000 C 
ATOM     36  C26 UNL A   1      28.918  41.651  48.893  1.00  0.00    +0.000 C 
ATOM     37  C27 UNL A   1      30.237  41.684  48.425  1.00  0.00    +0.000 C 
ATOM     38  C28 UNL A   1      30.396  40.674  47.491  1.00  0.00    +0.000 C 
ATOM     39  N4  UNL A   1      29.164  40.050  47.370  1.00  0.00    +0.000 N 
ATOM     40  C29 UNL A   1      31.582  40.304  46.761  1.00  0.00    +0.000 C 
ATOM     52  C36 UNL A   1      31.658  39.294  45.861  1.00  0.00    +0.000 C 
ATOM     53  N5  UNL A   1      30.667  38.410  45.455  1.00  0.00    +0.000 N 
ATOM     54  C37 UNL A   1      31.226  37.626  44.565  1.00  0.00    +0.000 C 
ATOM     55  C38 UNL A   1      30.634  36.463  43.816  1.00  0.00    +0.000 C 
ATOM     67  C45 UNL A   1      29.352  36.120  44.041  1.00  0.00    +0.000 C 
ATOM     68  C46 UNL A   1      28.646  35.012  43.405  1.00  0.00    +0.000 C 
ATOM     69  C47 UNL A   1      27.382  34.980  43.860  1.00  0.00    +0.000 C 
ATOM     70  C48 UNL A   1      27.200  36.048  44.843  1.00  0.00    +0.000 C 
ATOM     71  N6  UNL A   1      28.417  36.680  44.877  1.00  0.00    +0.000 N 
ATOM     72  C49 UNL A   1      32.632  37.948  44.281  1.00  0.00    +0.000 C 
ATOM     73  C50 UNL A   1      32.856  38.942  45.127  1.00  0.00    +0.000 C 
ATOM     74  C51 UNL A   1      24.930  38.800  47.810  1.00  0.00    +0.000 C 
ATOM     75  C52 UNL A   1      24.700  37.677  47.146  1.00  0.00    +0.000 C 
ATOM    112  H21 UNL A   1      28.518  42.268  49.618  1.00  0.00    +0.000 H 
ATOM    113  H22 UNL A   1      30.966  42.350  48.725  1.00  0.00    +0.000 H 
ATOM    114  H23 UNL A   1      28.971  39.293  46.772  1.00  0.00    +0.000 H 
ATOM    115  H24 UNL A   1      29.052  34.359  42.718  1.00  0.00    +0.000 H 
ATOM    116  H25 UNL A   1      26.656  34.309  43.562  1.00  0.00    +0.000 H 
ATOM    117  H26 UNL A   1      28.602  37.463  45.446  1.00  0.00    +0.000 H 
ATOM    118  H27 UNL A   1      33.274  37.513  43.601  1.00  0.00    +0.000 H 
ATOM    119  H28 UNL A   1      33.769  39.408  45.248  1.00  0.00    +0.000 H 
ATOM    120  H29 UNL A   1      24.218  39.314  48.353  1.00  0.00    +0.000 H 
ATOM    121  H30 UNL A   1      23.841  37.107  47.110  1.00  0.00    +0.000 H 
ENDROOT
BRANCH   19   18
ATOM     76  C53 UNL A   1      23.948  35.823  44.281  1.00  0.00    +0.000 C 
ATOM     77  C54 UNL A   1      22.795  35.070  44.072  1.00  0.00    +0.000 C 
ATOM    110  H19 UNL A   1      23.336  32.654  46.340  1.00  0.00    +0.000 H 
ATOM     15  C11 UNL A   1      22.598  33.884  44.788  1.00  0.00    +0.000 C 
ATOM     16  C12 UNL A   1      23.498  33.512  45.790  1.00  0.00    +0.000 C 
ATOM     17  C13 UNL A   1      24.619  34.305  46.045  1.00  0.00    +0.000 C 
ATOM    111  H20 UNL A   1      25.270  34.046  46.803  1.00  0.00    +0.000 H 
ATOM     18  C14 UNL A   1      24.864  35.456  45.278  1.00  0.00    +0.000 C 
ATOM    122  H31 UNL A   1      24.129  36.656  43.699  1.00  0.00    +0.000 H 
ATOM    123  H32 UNL A   1      22.087  35.387  43.392  1.00  0.00    +0.000 H 
BRANCH   15   13
ATOM     13  C10 UNL A   1      21.426  33.020  44.528  1.00  0.00    +0.000 C 
ATOM     14  O2  UNL A   1      21.495  32.141  43.674  1.00  0.00    +0.000 O 
BRANCH   13   12
ATOM     12  N2  UNL A   1      20.262  33.209  45.228  1.00  0.00    +0.000 N 
ATOM    109  H18 UNL A   1      20.012  32.477  45.837  1.00  0.00    +0.000 H 
BRANCH   12   11
ATOM     11  C9  UNL A   1      19.347  34.337  45.198  1.00  0.00    +0.000 C 
ATOM    108  H17 UNL A   1      19.804  35.118  44.626  1.00  0.00    +0.000 H 
ATOM    107  H16 UNL A   1      19.155  34.653  46.202  1.00  0.00    +0.000 H 
BRANCH   11   10
ATOM    105  H14 UNL A   1      17.264  33.957  45.287  1.00  0.00    +0.000 H 
ATOM     10  C8  UNL A   1      18.021  33.984  44.532  1.00  0.00    +0.000 C 
ATOM    106  H15 UNL A   1      17.847  34.734  43.789  1.00  0.00    +0.000 H 
BRANCH   10    9
ATOM      9  C7  UNL A   1      18.015  32.639  43.801  1.00  0.00    +0.000 C 
ATOM    103  H12 UNL A   1      17.360  32.722  42.959  1.00  0.00    +0.000 H 
ATOM    104  H13 UNL A   1      19.031  32.441  43.530  1.00  0.00    +0.000 H 
BRANCH    9    8
ATOM    101  H10 UNL A   1      18.117  30.589  44.339  1.00  0.00    +0.000 H 
ATOM    102  H11 UNL A   1      17.720  31.722  45.666  1.00  0.00    +0.000 H 
ATOM      8  C6  UNL A   1      17.556  31.446  44.646  1.00  0.00    +0.000 C 
BRANCH    8    7
ATOM     99  H8  UNL A   1      15.829  30.368  45.271  1.00  0.00    +0.000 H 
ATOM    100  H9  UNL A   1      15.523  32.016  44.673  1.00  0.00    +0.000 H 
ATOM      7  C5  UNL A   1      16.063  31.103  44.531  1.00  0.00    +0.000 C 
BRANCH    7    6
ATOM     97  H6  UNL A   1      14.666  30.153  43.224  1.00  0.00    +0.000 H 
ATOM     98  H7  UNL A   1      15.687  31.352  42.448  1.00  0.00    +0.000 H 
ATOM      6  C4  UNL A   1      15.656  30.555  43.161  1.00  0.00    +0.000 C 
BRANCH    6    5
ATOM      5  N1  UNL A   1      16.566  29.514  42.735  1.00  0.00    +0.000 N 
ATOM     96  H5  UNL A   1      17.149  29.750  41.978  1.00  0.00    +0.000 H 
BRANCH    5    3
ATOM      3  C3  UNL A   1      16.737  28.252  43.230  1.00  0.00    +0.000 C 
ATOM      4  O1  UNL A   1      17.873  27.780  43.166  1.00  0.00    +0.000 O 
BRANCH    3    2
ATOM      2  C2  UNL A   1      15.524  27.471  43.753  1.00  0.00    +0.000 C 
ATOM     95  H4  UNL A   1      14.740  28.189  43.878  1.00  0.00    +0.000 H 
BRANCH    2    1
ATOM      1  C1  UNL A   1      15.749  26.850  45.137  1.00  0.00    +0.000 C 
ATOM     92  H1  UNL A   1      15.371  27.511  45.889  1.00  0.00    +0.000 H 
ATOM     93  H2  UNL A   1      16.797  26.695  45.292  1.00  0.00    +0.000 H 
ATOM     94  H3  UNL A   1      15.237  25.913  45.195  1.00  0.00    +0.000 H 
ENDBRANCH    2    1
BRANCH    2   78
ATOM    137  H46 UNL A   1      14.040  26.087  39.563  1.00  0.00    +0.000 H 
ATOM     78  C55 UNL A   1      15.063  26.429  42.744  1.00  0.00    +0.000 C 
ATOM     79  C56 UNL A   1      15.000  25.079  43.116  1.00  0.00    +0.000 C 
ATOM     80  C57 UNL A   1      14.641  24.103  42.183  1.00  0.00    +0.000 C 
ATOM     81  C58 UNL A   1      14.362  24.449  40.855  1.00  0.00    +0.000 C 
ATOM     89  C65 UNL A   1      14.325  25.806  40.513  1.00  0.00    +0.000 C 
ATOM     90  C66 UNL A   1      14.670  26.775  41.449  1.00  0.00    +0.000 C 
ATOM     91  F16 UNL A   1      14.657  28.058  41.060  1.00  0.00    +0.000 F 
ATOM    124  H33 UNL A   1      15.220  24.804  44.085  1.00  0.00    +0.000 H 
ATOM    125  H34 UNL A   1      14.581  23.116  42.475  1.00  0.00    +0.000 H 
BRANCH   81   82
ATOM     82  C59 UNL A   1      14.130  23.397  39.802  1.00  0.00    +0.000 C 
ATOM    126  H35 UNL A   1      13.347  23.750  39.163  1.00  0.00    +0.000 H 
ATOM    127  H36 UNL A   1      13.906  22.506  40.350  1.00  0.00    +0.000 H 
BRANCH   82   83
ATOM    129  H38 UNL A   1      17.009  24.102  38.117  1.00  0.00    +0.000 H 
ATOM    130  H39 UNL A   1      15.673  25.117  38.540  1.00  0.00    +0.000 H 
ATOM    131  H40 UNL A   1      16.237  24.072  35.982  1.00  0.00    +0.000 H 
ATOM    132  H41 UNL A   1      14.781  24.888  36.431  1.00  0.00    +0.000 H 
ATOM    133  H42 UNL A   1      14.936  22.217  35.686  1.00  0.00    +0.000 H 
ATOM    134  H43 UNL A   1      13.607  22.885  36.540  1.00  0.00    +0.000 H 
ATOM    135  H44 UNL A   1      15.989  21.399  37.626  1.00  0.00    +0.000 H 
ATOM     83  C60 UNL A   1      15.327  23.014  38.899  1.00  0.00    +0.000 C 
ATOM     84  C61 UNL A   1      15.941  24.177  38.108  1.00  0.00    +0.000 C 
ATOM     85  C62 UNL A   1      15.420  24.065  36.672  1.00  0.00    +0.000 C 
ATOM     86  C63 UNL A   1      14.666  22.742  36.578  1.00  0.00    +0.000 C 
ATOM     87  C64 UNL A   1      15.097  21.958  37.812  1.00  0.00    +0.000 C 
ATOM    128  H37 UNL A   1      15.958  22.634  39.674  1.00  0.00    +0.000 H 
BRANCH   87   88
ATOM    136  H45 UNL A   1      13.843  21.126  39.072  1.00  0.00    +0.000 H 
ATOM     88  O3  UNL A   1      14.186  20.944  38.183  1.00  0.00    +0.000 O 
ENDBRANCH   87   88
ENDBRANCH   82   83
ENDBRANCH   81   82
ENDBRANCH    2   78
ENDBRANCH    3    2
ENDBRANCH    5    3
ENDBRANCH    6    5
ENDBRANCH    7    6
ENDBRANCH    8    7
ENDBRANCH    9    8
ENDBRANCH   10    9
ENDBRANCH   11   10
ENDBRANCH   12   11
ENDBRANCH   13   12
ENDBRANCH   15   13
ENDBRANCH   19   18
BRANCH   23   24
ATOM     33  C24 UNL A   1      25.258  42.164  48.736  1.00  0.00    +0.000 C 
ATOM     34  F5  UNL A   1      25.358  42.507  47.443  1.00  0.00    +0.000 F 
ATOM     24  C19 UNL A   1      25.969  41.061  49.233  1.00  0.00    +0.000 C 
ATOM     25  C20 UNL A   1      25.830  40.752  50.595  1.00  0.00    +0.000 C 
ATOM     26  F1  UNL A   1      26.478  39.700  51.118  1.00  0.00    +0.000 F 
ATOM     27  C21 UNL A   1      24.987  41.496  51.417  1.00  0.00    +0.000 C 
ATOM     28  F2  UNL A   1      24.829  41.147  52.702  1.00  0.00    +0.000 F 
ATOM     29  C22 UNL A   1      24.298  42.584  50.905  1.00  0.00    +0.000 C 
ATOM     30  F3  UNL A   1      23.489  43.301  51.697  1.00  0.00    +0.000 F 
ATOM     31  C23 UNL A   1      24.439  42.924  49.567  1.00  0.00    +0.000 C 
ATOM     32  F4  UNL A   1      23.783  43.983  49.073  1.00  0.00    +0.000 F 
ENDBRANCH   23   24
BRANCH   40   41
ATOM     41  C30 UNL A   1      32.839  41.076  47.033  1.00  0.00    +0.000 C 
ATOM     42  C31 UNL A   1      33.837  40.580  47.885  1.00  0.00    +0.000 C 
ATOM     43  F6  UNL A   1      33.666  39.409  48.516  1.00  0.00    +0.000 F 
ATOM     44  C32 UNL A   1      35.000  41.309  48.123  1.00  0.00    +0.000 C 
ATOM     45  F7  UNL A   1      35.919  40.839  48.978  1.00  0.00    +0.000 F 
ATOM     46  C33 UNL A   1      35.201  42.527  47.490  1.00  0.00    +0.000 C 
ATOM     47  F8  UNL A   1      36.322  43.224  47.717  1.00  0.00    +0.000 F 
ATOM     48  C34 UNL A   1      34.236  43.025  46.628  1.00  0.00    +0.000 C 
ATOM     49  F9  UNL A   1      34.433  44.196  46.007  1.00  0.00    +0.000 F 
ATOM     50  C35 UNL A   1      33.060  42.314  46.411  1.00  0.00    +0.000 C 
ATOM     51  F10 UNL A   1      32.138  42.828  45.583  1.00  0.00    +0.000 F 
ENDBRANCH   40   41
BRANCH   55   56
ATOM     65  C44 UNL A   1      32.215  34.569  43.306  1.00  0.00    +0.000 C 
ATOM     66  F15 UNL A   1      32.211  34.219  44.600  1.00  0.00    +0.000 F 
ATOM     56  C39 UNL A   1      31.459  35.667  42.872  1.00  0.00    +0.000 C 
ATOM     57  C40 UNL A   1      31.501  35.994  41.509  1.00  0.00    +0.000 C 
ATOM     58  F11 UNL A   1      30.778  37.023  41.045  1.00  0.00    +0.000 F 
ATOM     59  C41 UNL A   1      32.255  35.240  40.612  1.00  0.00    +0.000 C 
ATOM     60  F12 UNL A   1      32.244  35.548  39.308  1.00  0.00    +0.000 F 
ATOM     61  C42 UNL A   1      33.003  34.163  41.065  1.00  0.00    +0.000 C 
ATOM     62  F13 UNL A   1      33.730  33.440  40.202  1.00  0.00    +0.000 F 
ATOM     63  C43 UNL A   1      32.989  33.832  42.412  1.00  0.00    +0.000 C 
ATOM     64  F14 UNL A   1      33.720  32.800  42.855  1.00  0.00    +0.000 F 
ENDBRANCH   55   56
TORSDOF 20
ENDMDL
MODEL 5
REMARK VINA RESULT:     -10.9     33.023     40.576
ROOT
ATOM     19  C15 UNL A   1       7.368   2.969  26.103  1.00  0.00    +0.000 C 
ATOM     20  C16 UNL A   1       8.557   3.284  26.967  1.00  0.00    +0.000 C 
ATOM     21  N3  UNL A   1       9.048   4.448  27.311  1.00  0.00    +0.000 N 
ATOM     22  C17 UNL A   1      10.114   4.174  28.157  1.00  0.00    +0.000 C 
ATOM     23  C18 UNL A   1      10.984   5.039  28.730  1.00  0.00    +0.000 C 
ATOM     35  C25 UNL A   1      10.947   6.466  28.543  1.00  0.00    +0.000 C 
ATOM     36  C26 UNL A   1      11.822   7.424  29.023  1.00  0.00    +0.000 C 
ATOM     37  C27 UNL A   1      11.360   8.682  28.618  1.00  0.00    +0.000 C 
ATOM     38  C28 UNL A   1      10.223   8.504  27.848  1.00  0.00    +0.000 C 
ATOM     39  N4  UNL A   1       9.978   7.140  27.813  1.00  0.00    +0.000 N 
ATOM     40  C29 UNL A   1       9.417   9.503  27.192  1.00  0.00    +0.000 C 
ATOM     52  C36 UNL A   1       8.314   9.246  26.448  1.00  0.00    +0.000 C 
ATOM     53  N5  UNL A   1       7.731   8.023  26.144  1.00  0.00    +0.000 N 
ATOM     54  C37 UNL A   1       6.683   8.297  25.406  1.00  0.00    +0.000 C 
ATOM     55  C38 UNL A   1       5.700   7.357  24.763  1.00  0.00    +0.000 C 
ATOM     67  C45 UNL A   1       5.855   6.030  24.927  1.00  0.00    +0.000 C 
ATOM     68  C46 UNL A   1       4.995   4.997  24.356  1.00  0.00    +0.000 C 
ATOM     69  C47 UNL A   1       5.444   3.791  24.743  1.00  0.00    +0.000 C 
ATOM     70  C48 UNL A   1       6.642   3.967  25.564  1.00  0.00    +0.000 C 
ATOM     71  N6  UNL A   1       6.804   5.328  25.630  1.00  0.00    +0.000 N 
ATOM     72  C49 UNL A   1       6.465   9.734  25.184  1.00  0.00    +0.000 C 
ATOM     73  C50 UNL A   1       7.509  10.263  25.804  1.00  0.00    +0.000 C 
ATOM     74  C51 UNL A   1      10.170   2.736  28.315  1.00  0.00    +0.000 C 
ATOM     75  C52 UNL A   1       9.274   2.136  27.546  1.00  0.00    +0.000 C 
ATOM    112  H21 UNL A   1      12.670   7.243  29.583  1.00  0.00    +0.000 H 
ATOM    113  H22 UNL A   1      11.794   9.588  28.856  1.00  0.00    +0.000 H 
ATOM    114  H23 UNL A   1       9.228   6.714  27.341  1.00  0.00    +0.000 H 
ATOM    115  H24 UNL A   1       4.176   5.167  23.753  1.00  0.00    +0.000 H 
ATOM    116  H25 UNL A   1       5.011   2.886  24.500  1.00  0.00    +0.000 H 
ATOM    117  H26 UNL A   1       7.531   5.761  26.134  1.00  0.00    +0.000 H 
ATOM    118  H27 UNL A   1       5.698  10.205  24.679  1.00  0.00    +0.000 H 
ATOM    119  H28 UNL A   1       7.721  11.273  25.826  1.00  0.00    +0.000 H 
ATOM    120  H29 UNL A   1      10.821   2.244  28.947  1.00  0.00    +0.000 H 
ATOM    121  H30 UNL A   1       9.121   1.128  27.391  1.00  0.00    +0.000 H 
ENDROOT
BRANCH   19   18
ATOM     76  C53 UNL A   1       5.949   1.001  26.686  1.00  0.00    +0.000 C 
ATOM     77  C54 UNL A   1       5.583  -0.333  26.527  1.00  0.00    +0.000 C 
ATOM    110  H19 UNL A   1       7.600  -1.121  23.963  1.00  0.00    +0.000 H 
ATOM     15  C11 UNL A   1       6.148  -1.093  25.498  1.00  0.00    +0.000 C 
ATOM     16  C12 UNL A   1       7.161  -0.550  24.701  1.00  0.00    +0.000 C 
ATOM     17  C13 UNL A   1       7.575   0.767  24.907  1.00  0.00    +0.000 C 
ATOM    111  H20 UNL A   1       8.340   1.160  24.337  1.00  0.00    +0.000 H 
ATOM     18  C14 UNL A   1       6.957   1.560  25.887  1.00  0.00    +0.000 C 
ATOM    122  H31 UNL A   1       5.475   1.582  27.396  1.00  0.00    +0.000 H 
ATOM    123  H32 UNL A   1       4.896  -0.761  27.168  1.00  0.00    +0.000 H 
BRANCH   15   13
ATOM     13  C10 UNL A   1       5.718  -2.486  25.251  1.00  0.00    +0.000 C 
ATOM     14  O2  UNL A   1       4.827  -2.980  25.936  1.00  0.00    +0.000 O 
BRANCH   13   12
ATOM     12  N2  UNL A   1       6.322  -3.229  24.268  1.00  0.00    +0.000 N 
ATOM    109  H18 UNL A   1       6.164  -2.920  23.347  1.00  0.00    +0.000 H 
BRANCH   12   11
ATOM     11  C9  UNL A   1       7.163  -4.407  24.395  1.00  0.00    +0.000 C 
ATOM    108  H17 UNL A   1       7.633  -4.580  23.449  1.00  0.00    +0.000 H 
ATOM    107  H16 UNL A   1       6.553  -5.238  24.683  1.00  0.00    +0.000 H 
BRANCH   11   10
ATOM    105  H14 UNL A   1       7.892  -3.567  26.199  1.00  0.00    +0.000 H 
ATOM     10  C8  UNL A   1       8.261  -4.220  25.436  1.00  0.00    +0.000 C 
ATOM    106  H15 UNL A   1       8.504  -5.197  25.800  1.00  0.00    +0.000 H 
BRANCH   10    9
ATOM      9  C7  UNL A   1       9.562  -3.627  24.889  1.00  0.00    +0.000 C 
ATOM    103  H12 UNL A   1      10.057  -4.383  24.317  1.00  0.00    +0.000 H 
ATOM    104  H13 UNL A   1       9.281  -2.773  24.308  1.00  0.00    +0.000 H 
BRANCH    9    8
ATOM    101  H10 UNL A   1      10.736  -3.921  26.633  1.00  0.00    +0.000 H 
ATOM    102  H11 UNL A   1      11.408  -2.784  25.426  1.00  0.00    +0.000 H 
ATOM      8  C6  UNL A   1      10.539  -3.118  25.954  1.00  0.00    +0.000 C 
BRANCH    8    7
ATOM     99  H8  UNL A   1       9.338  -1.374  26.176  1.00  0.00    +0.000 H 
ATOM    100  H9  UNL A   1       9.616  -2.305  27.668  1.00  0.00    +0.000 H 
ATOM      7  C5  UNL A   1      10.045  -1.915  26.769  1.00  0.00    +0.000 C 
BRANCH    7    6
ATOM     97  H6  UNL A   1      11.095  -0.062  26.596  1.00  0.00    +0.000 H 
ATOM     98  H7  UNL A   1      11.033  -0.714  28.226  1.00  0.00    +0.000 H 
ATOM      6  C4  UNL A   1      11.157  -0.951  27.190  1.00  0.00    +0.000 C 
BRANCH    6    5
ATOM      5  N1  UNL A   1      12.457  -1.557  27.003  1.00  0.00    +0.000 N 
ATOM     96  H5  UNL A   1      12.559  -2.459  27.385  1.00  0.00    +0.000 H 
BRANCH    5    3
ATOM      3  C3  UNL A   1      13.564  -1.065  26.373  1.00  0.00    +0.000 C 
ATOM      4  O1  UNL A   1      14.198  -0.190  26.966  1.00  0.00    +0.000 O 
BRANCH    3    2
ATOM      2  C2  UNL A   1      13.913  -1.551  24.961  1.00  0.00    +0.000 C 
ATOM     95  H4  UNL A   1      13.545  -2.554  24.892  1.00  0.00    +0.000 H 
BRANCH    2    1
ATOM      1  C1  UNL A   1      15.422  -1.642  24.702  1.00  0.00    +0.000 C 
ATOM     92  H1  UNL A   1      15.718  -2.670  24.674  1.00  0.00    +0.000 H 
ATOM     93  H2  UNL A   1      15.949  -1.140  25.487  1.00  0.00    +0.000 H 
ATOM     94  H3  UNL A   1      15.652  -1.179  23.766  1.00  0.00    +0.000 H 
ENDBRANCH    2    1
BRANCH    2   78
ATOM    137  H46 UNL A   1      10.911  -0.893  21.464  1.00  0.00    +0.000 H 
ATOM     78  C55 UNL A   1      13.217  -0.711  23.901  1.00  0.00    +0.000 C 
ATOM     79  C56 UNL A   1      13.527   0.650  23.775  1.00  0.00    +0.000 C 
ATOM     80  C57 UNL A   1      12.849   1.449  22.849  1.00  0.00    +0.000 C 
ATOM     81  C58 UNL A   1      11.833   0.913  22.050  1.00  0.00    +0.000 C 
ATOM     89  C65 UNL A   1      11.597  -0.465  22.104  1.00  0.00    +0.000 C 
ATOM     90  C66 UNL A   1      12.283  -1.259  23.017  1.00  0.00    +0.000 C 
ATOM     91  F16 UNL A   1      11.993  -2.567  23.057  1.00  0.00    +0.000 F 
ATOM    124  H33 UNL A   1      14.261   1.065  24.368  1.00  0.00    +0.000 H 
ATOM    125  H34 UNL A   1      13.101   2.445  22.755  1.00  0.00    +0.000 H 
BRANCH   81   82
ATOM     82  C59 UNL A   1      10.986   1.791  21.164  1.00  0.00    +0.000 C 
ATOM    126  H35 UNL A   1      10.066   1.274  20.986  1.00  0.00    +0.000 H 
ATOM    127  H36 UNL A   1      11.588   1.965  20.297  1.00  0.00    +0.000 H 
BRANCH   82   83
ATOM    129  H38 UNL A   1       9.992   3.966  23.595  1.00  0.00    +0.000 H 
ATOM    130  H39 UNL A   1       9.657   2.282  23.383  1.00  0.00    +0.000 H 
ATOM    131  H40 UNL A   1       7.883   4.417  22.885  1.00  0.00    +0.000 H 
ATOM    132  H41 UNL A   1       7.609   2.767  22.451  1.00  0.00    +0.000 H 
ATOM    133  H42 UNL A   1       7.928   4.850  20.642  1.00  0.00    +0.000 H 
ATOM    134  H43 UNL A   1       8.104   3.197  20.220  1.00  0.00    +0.000 H 
ATOM    135  H44 UNL A   1      10.238   5.193  20.945  1.00  0.00    +0.000 H 
ATOM     83  C60 UNL A   1      10.631   3.203  21.688  1.00  0.00    +0.000 C 
ATOM     84  C61 UNL A   1       9.674   3.229  22.887  1.00  0.00    +0.000 C 
ATOM     85  C62 UNL A   1       8.287   3.587  22.344  1.00  0.00    +0.000 C 
ATOM     86  C63 UNL A   1       8.471   3.958  20.876  1.00  0.00    +0.000 C 
ATOM     87  C64 UNL A   1       9.970   4.184  20.714  1.00  0.00    +0.000 C 
ATOM    128  H37 UNL A   1      11.628   3.510  21.921  1.00  0.00    +0.000 H 
BRANCH   87   88
ATOM    136  H45 UNL A   1       9.743   4.407  18.777  1.00  0.00    +0.000 H 
ATOM     88  O3  UNL A   1      10.419   4.058  19.380  1.00  0.00    +0.000 O 
ENDBRANCH   87   88
ENDBRANCH   82   83
ENDBRANCH   81   82
ENDBRANCH    2   78
ENDBRANCH    3    2
ENDBRANCH    5    3
ENDBRANCH    6    5
ENDBRANCH    7    6
ENDBRANCH    8    7
ENDBRANCH    9    8
ENDBRANCH   10    9
ENDBRANCH   11   10
ENDBRANCH   12   11
ENDBRANCH   13   12
ENDBRANCH   15   13
ENDBRANCH   19   18
BRANCH   23   24
ATOM     33  C24 UNL A   1      11.970   4.604  31.010  1.00  0.00    +0.000 C 
ATOM     34  F5  UNL A   1      10.929   5.239  31.567  1.00  0.00    +0.000 F 
ATOM     24  C19 UNL A   1      12.051   4.465  29.616  1.00  0.00    +0.000 C 
ATOM     25  C20 UNL A   1      13.165   3.794  29.087  1.00  0.00    +0.000 C 
ATOM     26  F1  UNL A   1      13.284   3.624  27.762  1.00  0.00    +0.000 F 
ATOM     27  C21 UNL A   1      14.140   3.255  29.923  1.00  0.00    +0.000 C 
ATOM     28  F2  UNL A   1      15.167   2.572  29.397  1.00  0.00    +0.000 F 
ATOM     29  C22 UNL A   1      14.041   3.408  31.296  1.00  0.00    +0.000 C 
ATOM     30  F3  UNL A   1      14.982   2.891  32.100  1.00  0.00    +0.000 F 
ATOM     31  C23 UNL A   1      12.962   4.089  31.841  1.00  0.00    +0.000 C 
ATOM     32  F4  UNL A   1      12.872   4.248  33.168  1.00  0.00    +0.000 F 
ENDBRANCH   23   24
BRANCH   40   41
ATOM     41  C30 UNL A   1       9.843  10.936  27.316  1.00  0.00    +0.000 C 
ATOM     42  C31 UNL A   1      10.893  11.462  26.550  1.00  0.00    +0.000 C 
ATOM     43  F6  UNL A   1      11.576  10.670  25.709  1.00  0.00    +0.000 F 
ATOM     44  C32 UNL A   1      11.271  12.795  26.675  1.00  0.00    +0.000 C 
ATOM     45  F7  UNL A   1      12.309  13.265  25.969  1.00  0.00    +0.000 F 
ATOM     46  C33 UNL A   1      10.587  13.636  27.542  1.00  0.00    +0.000 C 
ATOM     47  F8  UNL A   1      10.950  14.920  27.658  1.00  0.00    +0.000 F 
ATOM     48  C34 UNL A   1       9.533  13.141  28.294  1.00  0.00    +0.000 C 
ATOM     49  F9  UNL A   1       8.863  13.953  29.124  1.00  0.00    +0.000 F 
ATOM     50  C35 UNL A   1       9.170  11.801  28.193  1.00  0.00    +0.000 C 
ATOM     51  F10 UNL A   1       8.156  11.349  28.944  1.00  0.00    +0.000 F 
ENDBRANCH   40   41
BRANCH   55   56
ATOM     65  C44 UNL A   1       4.730   7.997  22.527  1.00  0.00    +0.000 C 
ATOM     66  F15 UNL A   1       5.881   7.651  21.931  1.00  0.00    +0.000 F 
ATOM     56  C39 UNL A   1       4.594   7.874  23.917  1.00  0.00    +0.000 C 
ATOM     57  C40 UNL A   1       3.373   8.253  24.491  1.00  0.00    +0.000 C 
ATOM     58  F11 UNL A   1       3.189   8.134  25.814  1.00  0.00    +0.000 F 
ATOM     59  C41 UNL A   1       2.322   8.719  23.704  1.00  0.00    +0.000 C 
ATOM     60  F12 UNL A   1       1.150   9.034  24.273  1.00  0.00    +0.000 F 
ATOM     61  C42 UNL A   1       2.482   8.841  22.332  1.00  0.00    +0.000 C 
ATOM     62  F13 UNL A   1       1.472   9.292  21.575  1.00  0.00    +0.000 F 
ATOM     63  C43 UNL A   1       3.688   8.487  21.744  1.00  0.00    +0.000 C 
ATOM     64  F14 UNL A   1       3.850   8.616  20.420  1.00  0.00    +0.000 F 
ENDBRANCH   55   56
TORSDOF 20
ENDMDL
MODEL 6
REMARK VINA RESULT:     -10.9      1.139      2.094
ROOT
ATOM     19  C15 UNL A   1      25.971  36.532  45.697  1.00  0.00    +0.000 C 
ATOM     20  C16 UNL A   1      25.957  37.697  46.647  1.00  0.00    +0.000 C 
ATOM     21  N3  UNL A   1      26.911  38.547  46.933  1.00  0.00    +0.000 N 
ATOM     22  C17 UNL A   1      26.357  39.450  47.829  1.00  0.00    +0.000 C 
ATOM     23  C18 UNL A   1      26.956  40.483  48.468  1.00  0.00    +0.000 C 
ATOM     35  C25 UNL A   1      28.346  40.830  48.320  1.00  0.00    +0.000 C 
ATOM     36  C26 UNL A   1      29.066  41.814  48.973  1.00  0.00    +0.000 C 
ATOM     37  C27 UNL A   1      30.372  41.807  48.472  1.00  0.00    +0.000 C 
ATOM     38  C28 UNL A   1      30.478  40.789  47.539  1.00  0.00    +0.000 C 
ATOM     39  N4  UNL A   1      29.226  40.200  47.452  1.00  0.00    +0.000 N 
ATOM     40  C29 UNL A   1      31.634  40.381  46.782  1.00  0.00    +0.000 C 
ATOM     52  C36 UNL A   1      31.658  39.366  45.885  1.00  0.00    +0.000 C 
ATOM     53  N5  UNL A   1      30.632  38.510  45.508  1.00  0.00    +0.000 N 
ATOM     54  C37 UNL A   1      31.145  37.707  44.607  1.00  0.00    +0.000 C 
ATOM     55  C38 UNL A   1      30.501  36.558  43.880  1.00  0.00    +0.000 C 
ATOM     67  C45 UNL A   1      29.216  36.254  44.138  1.00  0.00    +0.000 C 
ATOM     68  C46 UNL A   1      28.462  35.164  43.525  1.00  0.00    +0.000 C 
ATOM     69  C47 UNL A   1      27.209  35.171  44.011  1.00  0.00    +0.000 C 
ATOM     70  C48 UNL A   1      27.083  36.248  44.994  1.00  0.00    +0.000 C 
ATOM     71  N6  UNL A   1      28.318  36.845  44.994  1.00  0.00    +0.000 N 
ATOM     72  C49 UNL A   1      32.553  37.985  44.288  1.00  0.00    +0.000 C 
ATOM     73  C50 UNL A   1      32.827  38.976  45.123  1.00  0.00    +0.000 C 
ATOM     74  C51 UNL A   1      24.970  39.077  48.003  1.00  0.00    +0.000 C 
ATOM     75  C52 UNL A   1      24.690  37.959  47.350  1.00  0.00    +0.000 C 
ATOM    112  H21 UNL A   1      28.702  42.445  49.705  1.00  0.00    +0.000 H 
ATOM    113  H22 UNL A   1      31.128  42.453  48.751  1.00  0.00    +0.000 H 
ATOM    114  H23 UNL A   1      28.997  39.447  46.862  1.00  0.00    +0.000 H 
ATOM    115  H24 UNL A   1      28.831  34.497  42.831  1.00  0.00    +0.000 H 
ATOM    116  H25 UNL A   1      26.457  34.521  43.735  1.00  0.00    +0.000 H 
ATOM    117  H26 UNL A   1      28.541  37.624  45.555  1.00  0.00    +0.000 H 
ATOM    118  H27 UNL A   1      33.165  37.529  43.594  1.00  0.00    +0.000 H 
ATOM    119  H28 UNL A   1      33.756  39.416  45.219  1.00  0.00    +0.000 H 
ATOM    120  H29 UNL A   1      24.287  39.614  48.562  1.00  0.00    +0.000 H 
ATOM    121  H30 UNL A   1      23.815  37.414  47.338  1.00  0.00    +0.000 H 
ENDROOT
BRANCH   19   18
ATOM     76  C53 UNL A   1      24.564  34.534  46.206  1.00  0.00    +0.000 C 
ATOM     77  C54 UNL A   1      23.438  33.744  45.988  1.00  0.00    +0.000 C 
ATOM    110  H19 UNL A   1      21.870  35.683  43.741  1.00  0.00    +0.000 H 
ATOM     15  C11 UNL A   1      22.429  34.189  45.128  1.00  0.00    +0.000 C 
ATOM     16  C12 UNL A   1      22.600  35.371  44.400  1.00  0.00    +0.000 C 
ATOM     17  C13 UNL A   1      23.761  36.127  44.568  1.00  0.00    +0.000 C 
ATOM    111  H20 UNL A   1      23.900  36.986  44.012  1.00  0.00    +0.000 H 
ATOM     18  C14 UNL A   1      24.743  35.726  45.489  1.00  0.00    +0.000 C 
ATOM    122  H31 UNL A   1      25.270  34.241  46.899  1.00  0.00    +0.000 H 
ATOM    123  H32 UNL A   1      23.348  32.831  46.460  1.00  0.00    +0.000 H 
BRANCH   15   13
ATOM     13  C10 UNL A   1      21.184  33.413  44.942  1.00  0.00    +0.000 C 
ATOM     14  O2  UNL A   1      21.183  32.203  45.149  1.00  0.00    +0.000 O 
BRANCH   13   12
ATOM     12  N2  UNL A   1      20.037  34.041  44.526  1.00  0.00    +0.000 N 
ATOM    109  H18 UNL A   1      19.853  34.909  44.951  1.00  0.00    +0.000 H 
BRANCH   12   11
ATOM     11  C9  UNL A   1      19.056  33.605  43.547  1.00  0.00    +0.000 C 
ATOM    108  H17 UNL A   1      19.581  33.130  42.744  1.00  0.00    +0.000 H 
ATOM    107  H16 UNL A   1      18.509  34.457  43.203  1.00  0.00    +0.000 H 
BRANCH   11   10
ATOM    105  H14 UNL A   1      18.478  32.226  45.049  1.00  0.00    +0.000 H 
ATOM     10  C8  UNL A   1      18.075  32.592  44.128  1.00  0.00    +0.000 C 
ATOM    106  H15 UNL A   1      17.146  33.107  44.252  1.00  0.00    +0.000 H 
BRANCH   10    9
ATOM      9  C7  UNL A   1      17.788  31.392  43.223  1.00  0.00    +0.000 C 
ATOM    103  H12 UNL A   1      16.825  31.533  42.779  1.00  0.00    +0.000 H 
ATOM    104  H13 UNL A   1      18.583  31.361  42.506  1.00  0.00    +0.000 H 
BRANCH    9    8
ATOM    101  H10 UNL A   1      18.803  29.682  43.965  1.00  0.00    +0.000 H 
ATOM    102  H11 UNL A   1      17.363  30.197  44.894  1.00  0.00    +0.000 H 
ATOM      8  C6  UNL A   1      17.793  30.033  43.929  1.00  0.00    +0.000 C 
BRANCH    8    7
ATOM     99  H8  UNL A   1      16.501  29.363  42.374  1.00  0.00    +0.000 H 
ATOM    100  H9  UNL A   1      17.588  28.124  43.049  1.00  0.00    +0.000 H 
ATOM      7  C5  UNL A   1      16.937  28.948  43.258  1.00  0.00    +0.000 C 
BRANCH    7    6
ATOM     97  H6  UNL A   1      16.237  27.943  45.008  1.00  0.00    +0.000 H 
ATOM     98  H7  UNL A   1      15.184  29.227  44.436  1.00  0.00    +0.000 H 
ATOM      6  C4  UNL A   1      15.811  28.410  44.145  1.00  0.00    +0.000 C 
BRANCH    6    5
ATOM      5  N1  UNL A   1      15.012  27.442  43.426  1.00  0.00    +0.000 N 
ATOM     96  H5  UNL A   1      14.057  27.665  43.343  1.00  0.00    +0.000 H 
BRANCH    5    3
ATOM      3  C3  UNL A   1      15.387  26.266  42.842  1.00  0.00    +0.000 C 
ATOM      4  O1  UNL A   1      15.771  25.370  43.595  1.00  0.00    +0.000 O 
BRANCH    3    2
ATOM      2  C2  UNL A   1      15.391  26.145  41.313  1.00  0.00    +0.000 C 
ATOM     95  H4  UNL A   1      16.400  25.920  41.035  1.00  0.00    +0.000 H 
BRANCH    2    1
ATOM      1  C1  UNL A   1      15.042  27.456  40.595  1.00  0.00    +0.000 C 
ATOM     92  H1  UNL A   1      14.899  27.263  39.553  1.00  0.00    +0.000 H 
ATOM     93  H2  UNL A   1      15.842  28.155  40.723  1.00  0.00    +0.000 H 
ATOM     94  H3  UNL A   1      14.145  27.861  41.011  1.00  0.00    +0.000 H 
ENDBRANCH    2    1
BRANCH    2   78
ATOM    137  H46 UNL A   1      14.206  22.677  38.442  1.00  0.00    +0.000 H 
ATOM     78  C55 UNL A   1      14.499  25.004  40.848  1.00  0.00    +0.000 C 
ATOM     79  C56 UNL A   1      13.357  24.665  41.587  1.00  0.00    +0.000 C 
ATOM     80  C57 UNL A   1      12.564  23.579  41.208  1.00  0.00    +0.000 C 
ATOM     81  C58 UNL A   1      12.907  22.792  40.102  1.00  0.00    +0.000 C 
ATOM     89  C65 UNL A   1      13.987  23.193  39.308  1.00  0.00    +0.000 C 
ATOM     90  C66 UNL A   1      14.765  24.283  39.680  1.00  0.00    +0.000 C 
ATOM     91  F16 UNL A   1      15.813  24.603  38.907  1.00  0.00    +0.000 F 
ATOM    124  H33 UNL A   1      13.099  25.223  42.415  1.00  0.00    +0.000 H 
ATOM    125  H34 UNL A   1      11.716  23.353  41.751  1.00  0.00    +0.000 H 
BRANCH   81   82
ATOM     82  C59 UNL A   1      12.157  21.527  39.776  1.00  0.00    +0.000 C 
ATOM    126  H35 UNL A   1      11.975  21.525  38.721  1.00  0.00    +0.000 H 
ATOM    127  H36 UNL A   1      11.282  21.561  40.391  1.00  0.00    +0.000 H 
BRANCH   82   83
ATOM    129  H38 UNL A   1      14.253  18.919  39.122  1.00  0.00    +0.000 H 
ATOM    130  H39 UNL A   1      13.374  19.954  38.051  1.00  0.00    +0.000 H 
ATOM    131  H40 UNL A   1      12.734  17.285  38.699  1.00  0.00    +0.000 H 
ATOM    132  H41 UNL A   1      11.721  18.369  37.813  1.00  0.00    +0.000 H 
ATOM    133  H42 UNL A   1      11.122  17.329  40.318  1.00  0.00    +0.000 H 
ATOM    134  H43 UNL A   1      10.353  18.715  39.661  1.00  0.00    +0.000 H 
ATOM    135  H44 UNL A   1      12.677  18.578  41.569  1.00  0.00    +0.000 H 
ATOM     83  C60 UNL A   1      12.836  20.182  40.131  1.00  0.00    +0.000 C 
ATOM     84  C61 UNL A   1      13.292  19.347  38.927  1.00  0.00    +0.000 C 
ATOM     85  C62 UNL A   1      12.252  18.239  38.732  1.00  0.00    +0.000 C 
ATOM     86  C63 UNL A   1      11.306  18.308  39.926  1.00  0.00    +0.000 C 
ATOM     87  C64 UNL A   1      12.033  19.168  40.953  1.00  0.00    +0.000 C 
ATOM    128  H37 UNL A   1      13.639  20.590  40.707  1.00  0.00    +0.000 H 
BRANCH   87   88
ATOM    136  H45 UNL A   1      10.304  19.326  41.869  1.00  0.00    +0.000 H 
ATOM     88  O3  UNL A   1      11.172  19.757  41.907  1.00  0.00    +0.000 O 
ENDBRANCH   87   88
ENDBRANCH   82   83
ENDBRANCH   81   82
ENDBRANCH    2   78
ENDBRANCH    3    2
ENDBRANCH    5    3
ENDBRANCH    6    5
ENDBRANCH    7    6
ENDBRANCH    8    7
ENDBRANCH    9    8
ENDBRANCH   10    9
ENDBRANCH   11   10
ENDBRANCH   12   11
ENDBRANCH   13   12
ENDBRANCH   15   13
ENDBRANCH   19   18
BRANCH   23   24
ATOM     33  C24 UNL A   1      25.965  40.956  50.738  1.00  0.00    +0.000 C 
ATOM     34  F5  UNL A   1      26.596  39.877  51.224  1.00  0.00    +0.000 F 
ATOM     24  C19 UNL A   1      26.109  41.313  49.389  1.00  0.00    +0.000 C 
ATOM     25  C20 UNL A   1      25.422  42.449  48.934  1.00  0.00    +0.000 C 
ATOM     26  F1  UNL A   1      25.536  42.840  47.656  1.00  0.00    +0.000 F 
ATOM     27  C21 UNL A   1      24.651  43.216  49.803  1.00  0.00    +0.000 C 
ATOM     28  F2  UNL A   1      24.048  44.328  49.358  1.00  0.00    +0.000 F 
ATOM     29  C22 UNL A   1      24.520  42.842  51.132  1.00  0.00    +0.000 C 
ATOM     30  F3  UNL A   1      23.775  43.580  51.967  1.00  0.00    +0.000 F 
ATOM     31  C23 UNL A   1      25.169  41.709  51.598  1.00  0.00    +0.000 C 
ATOM     32  F4  UNL A   1      25.033  41.339  52.879  1.00  0.00    +0.000 F 
ENDBRANCH   23   24
BRANCH   40   41
ATOM     41  C30 UNL A   1      32.920  41.117  47.019  1.00  0.00    +0.000 C 
ATOM     42  C31 UNL A   1      33.211  42.322  46.364  1.00  0.00    +0.000 C 
ATOM     43  F6  UNL A   1      32.352  42.825  45.464  1.00  0.00    +0.000 F 
ATOM     44  C32 UNL A   1      34.408  42.993  46.599  1.00  0.00    +0.000 C 
ATOM     45  F7  UNL A   1      34.687  44.117  45.925  1.00  0.00    +0.000 F 
ATOM     46  C33 UNL A   1      35.319  42.492  47.518  1.00  0.00    +0.000 C 
ATOM     47  F8  UNL A   1      36.468  43.141  47.746  1.00  0.00    +0.000 F 
ATOM     48  C34 UNL A   1      35.042  41.313  48.193  1.00  0.00    +0.000 C 
ATOM     49  F9  UNL A   1      35.915  40.833  49.089  1.00  0.00    +0.000 F 
ATOM     50  C35 UNL A   1      33.859  40.624  47.938  1.00  0.00    +0.000 C 
ATOM     51  F10 UNL A   1      33.626  39.479  48.595  1.00  0.00    +0.000 F 
ENDBRANCH   40   41
BRANCH   55   56
ATOM     65  C44 UNL A   1      31.409  36.105  41.573  1.00  0.00    +0.000 C 
ATOM     66  F15 UNL A   1      30.817  37.221  41.124  1.00  0.00    +0.000 F 
ATOM     56  C39 UNL A   1      31.279  35.735  42.919  1.00  0.00    +0.000 C 
ATOM     57  C40 UNL A   1      31.914  34.557  43.338  1.00  0.00    +0.000 C 
ATOM     58  F11 UNL A   1      31.836  34.173  44.621  1.00  0.00    +0.000 F 
ATOM     59  C41 UNL A   1      32.664  33.789  42.450  1.00  0.00    +0.000 C 
ATOM     60  F12 UNL A   1      33.296  32.691  42.886  1.00  0.00    +0.000 F 
ATOM     61  C42 UNL A   1      32.772  34.170  41.120  1.00  0.00    +0.000 C 
ATOM     62  F13 UNL A   1      33.491  33.430  40.266  1.00  0.00    +0.000 F 
ATOM     63  C43 UNL A   1      32.138  35.323  40.681  1.00  0.00    +0.000 C 
ATOM     64  F14 UNL A   1      32.228  35.687  39.394  1.00  0.00    +0.000 F 
ENDBRANCH   55   56
TORSDOF 20
ENDMDL
MODEL 7
REMARK VINA RESULT:     -10.8      5.165     10.003
ROOT
ATOM     19  C15 UNL A   1      26.052  35.339  45.679  1.00  0.00    +0.000 C 
ATOM     20  C16 UNL A   1      27.360  35.344  44.937  1.00  0.00    +0.000 C 
ATOM     21  N3  UNL A   1      28.379  36.157  45.058  1.00  0.00    +0.000 N 
ATOM     22  C17 UNL A   1      29.343  35.688  44.176  1.00  0.00    +0.000 C 
ATOM     23  C18 UNL A   1      30.554  36.220  43.886  1.00  0.00    +0.000 C 
ATOM     35  C25 UNL A   1      31.069  37.430  44.473  1.00  0.00    +0.000 C 
ATOM     36  C26 UNL A   1      32.253  38.090  44.196  1.00  0.00    +0.000 C 
ATOM     37  C27 UNL A   1      32.344  39.199  45.044  1.00  0.00    +0.000 C 
ATOM     38  C28 UNL A   1      31.196  39.256  45.817  1.00  0.00    +0.000 C 
ATOM     39  N4  UNL A   1      30.424  38.163  45.459  1.00  0.00    +0.000 N 
ATOM     40  C29 UNL A   1      30.829  40.235  46.810  1.00  0.00    +0.000 C 
ATOM     52  C36 UNL A   1      29.678  40.223  47.525  1.00  0.00    +0.000 C 
ATOM     53  N5  UNL A   1      28.625  39.320  47.469  1.00  0.00    +0.000 N 
ATOM     54  C37 UNL A   1      27.752  39.729  48.358  1.00  0.00    +0.000 C 
ATOM     55  C38 UNL A   1      26.405  39.154  48.703  1.00  0.00    +0.000 C 
ATOM     67  C45 UNL A   1      25.969  38.063  48.048  1.00  0.00    +0.000 C 
ATOM     68  C46 UNL A   1      24.684  37.402  48.261  1.00  0.00    +0.000 C 
ATOM     69  C47 UNL A   1      24.598  36.339  47.443  1.00  0.00    +0.000 C 
ATOM     70  C48 UNL A   1      25.809  36.265  46.625  1.00  0.00    +0.000 C 
ATOM     71  N6  UNL A   1      26.570  37.319  47.062  1.00  0.00    +0.000 N 
ATOM     72  C49 UNL A   1      28.171  40.925  49.103  1.00  0.00    +0.000 C 
ATOM     73  C50 UNL A   1      29.330  41.208  48.527  1.00  0.00    +0.000 C 
ATOM     74  C51 UNL A   1      28.809  34.492  43.562  1.00  0.00    +0.000 C 
ATOM     75  C52 UNL A   1      27.559  34.276  43.945  1.00  0.00    +0.000 C 
ATOM    112  H21 UNL A   1      32.949  37.811  43.487  1.00  0.00    +0.000 H 
ATOM    113  H22 UNL A   1      33.135  39.861  45.087  1.00  0.00    +0.000 H 
ATOM    114  H23 UNL A   1      29.548  37.939  45.848  1.00  0.00    +0.000 H 
ATOM    115  H24 UNL A   1      23.961  37.702  48.931  1.00  0.00    +0.000 H 
ATOM    116  H25 UNL A   1      23.803  35.682  47.398  1.00  0.00    +0.000 H 
ATOM    117  H26 UNL A   1      27.465  37.524  46.703  1.00  0.00    +0.000 H 
ATOM    118  H27 UNL A   1      27.688  41.414  49.872  1.00  0.00    +0.000 H 
ATOM    119  H28 UNL A   1      29.911  42.027  48.764  1.00  0.00    +0.000 H 
ATOM    120  H29 UNL A   1      29.334  33.886  42.912  1.00  0.00    +0.000 H 
ATOM    121  H30 UNL A   1      26.899  33.549  43.629  1.00  0.00    +0.000 H 
ENDROOT
BRANCH   19   18
ATOM     76  C53 UNL A   1      24.977  33.162  46.260  1.00  0.00    +0.000 C 
ATOM     77  C54 UNL A   1      24.072  32.137  45.997  1.00  0.00    +0.000 C 
ATOM    110  H19 UNL A   1      22.577  33.445  43.291  1.00  0.00    +0.000 H 
ATOM     15  C11 UNL A   1      23.160  32.264  44.943  1.00  0.00    +0.000 C 
ATOM     16  C12 UNL A   1      23.229  33.367  44.086  1.00  0.00    +0.000 C 
ATOM     17  C13 UNL A   1      24.183  34.361  44.311  1.00  0.00    +0.000 C 
ATOM    111  H20 UNL A   1      24.252  35.162  43.664  1.00  0.00    +0.000 H 
ATOM     18  C14 UNL A   1      25.050  34.278  45.413  1.00  0.00    +0.000 C 
ATOM    122  H31 UNL A   1      25.596  33.101  47.083  1.00  0.00    +0.000 H 
ATOM    123  H32 UNL A   1      24.075  31.284  46.577  1.00  0.00    +0.000 H 
BRANCH   15   13
ATOM     13  C10 UNL A   1      22.132  31.231  44.692  1.00  0.00    +0.000 C 
ATOM     14  O2  UNL A   1      22.457  30.049  44.638  1.00  0.00    +0.000 O 
BRANCH   13   12
ATOM     12  N2  UNL A   1      20.822  31.594  44.507  1.00  0.00    +0.000 N 
ATOM    109  H18 UNL A   1      20.614  31.993  43.631  1.00  0.00    +0.000 H 
BRANCH   12   11
ATOM     11  C9  UNL A   1      19.699  31.474  45.421  1.00  0.00    +0.000 C 
ATOM    108  H17 UNL A   1      19.808  30.554  45.957  1.00  0.00    +0.000 H 
ATOM    107  H16 UNL A   1      18.791  31.489  44.855  1.00  0.00    +0.000 H 
BRANCH   11   10
ATOM    105  H14 UNL A   1      18.668  32.676  46.829  1.00  0.00    +0.000 H 
ATOM     10  C8  UNL A   1      19.662  32.608  46.439  1.00  0.00    +0.000 C 
ATOM    106  H15 UNL A   1      20.390  32.369  47.186  1.00  0.00    +0.000 H 
BRANCH   10    9
ATOM      9  C7  UNL A   1      20.050  33.979  45.880  1.00  0.00    +0.000 C 
ATOM    103  H12 UNL A   1      20.439  33.837  44.893  1.00  0.00    +0.000 H 
ATOM    104  H13 UNL A   1      19.161  34.574  45.903  1.00  0.00    +0.000 H 
BRANCH    9    8
ATOM    101  H10 UNL A   1      21.998  34.785  46.125  1.00  0.00    +0.000 H 
ATOM    102  H11 UNL A   1      20.673  35.700  46.906  1.00  0.00    +0.000 H 
ATOM      8  C6  UNL A   1      21.097  34.740  46.699  1.00  0.00    +0.000 C 
BRANCH    8    7
ATOM     99  H8  UNL A   1      21.167  33.083  48.036  1.00  0.00    +0.000 H 
ATOM    100  H9  UNL A   1      22.480  34.271  48.223  1.00  0.00    +0.000 H 
ATOM      7  C5  UNL A   1      21.433  34.119  48.063  1.00  0.00    +0.000 C 
BRANCH    7    6
ATOM     97  H6  UNL A   1      19.910  34.131  49.560  1.00  0.00    +0.000 H 
ATOM     98  H7  UNL A   1      21.403  34.924  50.035  1.00  0.00    +0.000 H 
ATOM      6  C4  UNL A   1      20.704  34.773  49.239  1.00  0.00    +0.000 C 
BRANCH    6    5
ATOM      5  N1  UNL A   1      20.154  36.053  48.852  1.00  0.00    +0.000 N 
ATOM     96  H5  UNL A   1      20.167  36.241  47.886  1.00  0.00    +0.000 H 
BRANCH    5    3
ATOM      3  C3  UNL A   1      19.617  37.040  49.628  1.00  0.00    +0.000 C 
ATOM      4  O1  UNL A   1      20.227  37.330  50.659  1.00  0.00    +0.000 O 
BRANCH    3    2
ATOM      2  C2  UNL A   1      18.275  37.670  49.235  1.00  0.00    +0.000 C 
ATOM     95  H4  UNL A   1      18.460  38.718  49.122  1.00  0.00    +0.000 H 
BRANCH    2    1
ATOM      1  C1  UNL A   1      17.202  37.550  50.325  1.00  0.00    +0.000 C 
ATOM     92  H1  UNL A   1      16.589  36.695  50.127  1.00  0.00    +0.000 H 
ATOM     93  H2  UNL A   1      16.595  38.431  50.325  1.00  0.00    +0.000 H 
ATOM     94  H3  UNL A   1      17.672  37.440  51.278  1.00  0.00    +0.000 H 
ENDBRANCH    2    1
BRANCH    2   78
ATOM    137  H46 UNL A   1      18.471  37.116  44.617  1.00  0.00    +0.000 H 
ATOM     78  C55 UNL A   1      17.779  37.124  47.905  1.00  0.00    +0.000 C 
ATOM     79  C56 UNL A   1      16.645  36.301  47.867  1.00  0.00    +0.000 C 
ATOM     80  C57 UNL A   1      16.215  35.740  46.661  1.00  0.00    +0.000 C 
ATOM     81  C58 UNL A   1      16.921  35.967  45.474  1.00  0.00    +0.000 C 
ATOM     89  C65 UNL A   1      17.990  36.870  45.495  1.00  0.00    +0.000 C 
ATOM     90  C66 UNL A   1      18.406  37.437  46.695  1.00  0.00    +0.000 C 
ATOM     91  F16 UNL A   1      19.460  38.265  46.669  1.00  0.00    +0.000 F 
ATOM    124  H33 UNL A   1      16.123  36.108  48.735  1.00  0.00    +0.000 H 
ATOM    125  H34 UNL A   1      15.368  35.151  46.646  1.00  0.00    +0.000 H 
BRANCH   81   82
ATOM     82  C59 UNL A   1      16.567  35.245  44.200  1.00  0.00    +0.000 C 
ATOM    126  H35 UNL A   1      17.077  35.738  43.399  1.00  0.00    +0.000 H 
ATOM    127  H36 UNL A   1      15.499  35.281  44.153  1.00  0.00    +0.000 H 
BRANCH   82   83
ATOM    129  H38 UNL A   1      18.571  32.640  43.292  1.00  0.00    +0.000 H 
ATOM    130  H39 UNL A   1      18.377  34.210  42.592  1.00  0.00    +0.000 H 
ATOM    131  H40 UNL A   1      17.358  31.785  41.574  1.00  0.00    +0.000 H 
ATOM    132  H41 UNL A   1      16.961  33.362  40.988  1.00  0.00    +0.000 H 
ATOM    133  H42 UNL A   1      15.170  31.628  42.212  1.00  0.00    +0.000 H 
ATOM    134  H43 UNL A   1      14.891  33.313  42.048  1.00  0.00    +0.000 H 
ATOM    135  H44 UNL A   1      15.993  31.808  44.411  1.00  0.00    +0.000 H 
ATOM     83  C60 UNL A   1      16.915  33.739  44.112  1.00  0.00    +0.000 C 
ATOM     84  C61 UNL A   1      17.849  33.355  42.957  1.00  0.00    +0.000 C 
ATOM     85  C62 UNL A   1      16.974  32.742  41.859  1.00  0.00    +0.000 C 
ATOM     86  C63 UNL A   1      15.573  32.591  42.445  1.00  0.00    +0.000 C 
ATOM     87  C64 UNL A   1      15.760  32.745  43.950  1.00  0.00    +0.000 C 
ATOM    128  H37 UNL A   1      17.361  33.652  45.080  1.00  0.00    +0.000 H 
BRANCH   87   88
ATOM    136  H45 UNL A   1      14.459  34.081  44.561  1.00  0.00    +0.000 H 
ATOM     88  O3  UNL A   1      14.580  33.121  44.630  1.00  0.00    +0.000 O 
ENDBRANCH   87   88
ENDBRANCH   82   83
ENDBRANCH   81   82
ENDBRANCH    2   78
ENDBRANCH    3    2
ENDBRANCH    5    3
ENDBRANCH    6    5
ENDBRANCH    7    6
ENDBRANCH    8    7
ENDBRANCH    9    8
ENDBRANCH   10    9
ENDBRANCH   11   10
ENDBRANCH   12   11
ENDBRANCH   13   12
ENDBRANCH   15   13
ENDBRANCH   19   18
BRANCH   23   24
ATOM     33  C24 UNL A   1      31.399  35.874  41.535  1.00  0.00    +0.000 C 
ATOM     34  F5  UNL A   1      30.639  36.900  41.125  1.00  0.00    +0.000 F 
ATOM     24  C19 UNL A   1      31.408  35.495  42.886  1.00  0.00    +0.000 C 
ATOM     25  C20 UNL A   1      32.218  34.411  43.258  1.00  0.00    +0.000 C 
ATOM     26  F1  UNL A   1      32.271  34.017  44.539  1.00  0.00    +0.000 F 
ATOM     27  C21 UNL A   1      33.014  33.757  42.322  1.00  0.00    +0.000 C 
ATOM     28  F2  UNL A   1      33.822  32.760  42.711  1.00  0.00    +0.000 F 
ATOM     29  C22 UNL A   1      32.987  34.146  40.992  1.00  0.00    +0.000 C 
ATOM     30  F3  UNL A   1      33.752  33.514  40.090  1.00  0.00    +0.000 F 
ATOM     31  C23 UNL A   1      32.174  35.198  40.596  1.00  0.00    +0.000 C 
ATOM     32  F4  UNL A   1      32.138  35.567  39.308  1.00  0.00    +0.000 F 
ENDBRANCH   23   24
BRANCH   40   41
ATOM     41  C30 UNL A   1      31.778  41.371  47.055  1.00  0.00    +0.000 C 
ATOM     42  C31 UNL A   1      31.517  42.664  46.579  1.00  0.00    +0.000 C 
ATOM     43  F6  UNL A   1      30.420  42.904  45.846  1.00  0.00    +0.000 F 
ATOM     44  C32 UNL A   1      32.407  43.707  46.820  1.00  0.00    +0.000 C 
ATOM     45  F7  UNL A   1      32.162  44.924  46.314  1.00  0.00    +0.000 F 
ATOM     46  C33 UNL A   1      33.554  43.486  47.569  1.00  0.00    +0.000 C 
ATOM     47  F8  UNL A   1      34.406  44.492  47.803  1.00  0.00    +0.000 F 
ATOM     48  C34 UNL A   1      33.821  42.220  48.067  1.00  0.00    +0.000 C 
ATOM     49  F9  UNL A   1      34.922  42.006  48.800  1.00  0.00    +0.000 F 
ATOM     50  C35 UNL A   1      32.948  41.168  47.803  1.00  0.00    +0.000 C 
ATOM     51  F10 UNL A   1      33.240  39.951  48.285  1.00  0.00    +0.000 F 
ENDBRANCH   40   41
BRANCH   55   56
ATOM     65  C44 UNL A   1      25.589  39.427  51.071  1.00  0.00    +0.000 C 
ATOM     66  F15 UNL A   1      26.423  38.455  51.468  1.00  0.00    +0.000 F 
ATOM     56  C39 UNL A   1      25.540  39.803  49.721  1.00  0.00    +0.000 C 
ATOM     57  C40 UNL A   1      24.647  40.821  49.357  1.00  0.00    +0.000 C 
ATOM     58  F11 UNL A   1      24.581  41.229  48.081  1.00  0.00    +0.000 F 
ATOM     59  C41 UNL A   1      23.848  41.450  50.308  1.00  0.00    +0.000 C 
ATOM     60  F12 UNL A   1      23.034  42.450  49.941  1.00  0.00    +0.000 F 
ATOM     61  C42 UNL A   1      23.906  41.056  51.637  1.00  0.00    +0.000 C 
ATOM     62  F13 UNL A   1      23.135  41.659  52.552  1.00  0.00    +0.000 F 
ATOM     63  C43 UNL A   1      24.770  40.039  52.017  1.00  0.00    +0.000 C 
ATOM     64  F14 UNL A   1      24.819  39.647  53.297  1.00  0.00    +0.000 F 
ENDBRANCH   55   56
TORSDOF 20
ENDMDL
MODEL 8
REMARK VINA RESULT:     -10.7     36.534     48.070
ROOT
ATOM     19  C15 UNL A   1      22.585   8.842   7.428  1.00  0.00    +0.000 C 
ATOM     20  C16 UNL A   1      23.643   8.145   6.618  1.00  0.00    +0.000 C 
ATOM     21  N3  UNL A   1      23.947   6.872   6.570  1.00  0.00    +0.000 N 
ATOM     22  C17 UNL A   1      24.962   6.762   5.629  1.00  0.00    +0.000 C 
ATOM     23  C18 UNL A   1      25.658   5.660   5.262  1.00  0.00    +0.000 C 
ATOM     35  C25 UNL A   1      25.453   4.349   5.821  1.00  0.00    +0.000 C 
ATOM     36  C26 UNL A   1      26.151   3.182   5.568  1.00  0.00    +0.000 C 
ATOM     37  C27 UNL A   1      25.567   2.151   6.313  1.00  0.00    +0.000 C 
ATOM     38  C28 UNL A   1      24.534   2.686   7.065  1.00  0.00    +0.000 C 
ATOM     39  N4  UNL A   1      24.472   4.034   6.751  1.00  0.00    +0.000 N 
ATOM     40  C29 UNL A   1      23.666   2.018   8.001  1.00  0.00    +0.000 C 
ATOM     52  C36 UNL A   1      22.675   2.616   8.706  1.00  0.00    +0.000 C 
ATOM     53  N5  UNL A   1      22.284   3.947   8.705  1.00  0.00    +0.000 N 
ATOM     54  C37 UNL A   1      21.277   4.029   9.541  1.00  0.00    +0.000 C 
ATOM     55  C38 UNL A   1      20.485   5.237   9.962  1.00  0.00    +0.000 C 
ATOM     67  C45 UNL A   1      20.796   6.440   9.445  1.00  0.00    +0.000 C 
ATOM     68  C46 UNL A   1      20.130   7.699   9.765  1.00  0.00    +0.000 C 
ATOM     69  C47 UNL A   1      20.696   8.687   9.051  1.00  0.00    +0.000 C 
ATOM     70  C48 UNL A   1      21.786   8.133   8.247  1.00  0.00    +0.000 C 
ATOM     71  N6  UNL A   1      21.763   6.792   8.534  1.00  0.00    +0.000 N 
ATOM     72  C49 UNL A   1      20.895   2.745  10.145  1.00  0.00    +0.000 C 
ATOM     73  C50 UNL A   1      21.803   1.926   9.635  1.00  0.00    +0.000 C 
ATOM     74  C51 UNL A   1      25.189   8.087   5.094  1.00  0.00    +0.000 C 
ATOM     75  C52 UNL A   1      24.450   8.989   5.722  1.00  0.00    +0.000 C 
ATOM    112  H21 UNL A   1      26.963   3.087   4.937  1.00  0.00    +0.000 H 
ATOM    113  H22 UNL A   1      25.857   1.161   6.301  1.00  0.00    +0.000 H 
ATOM    114  H23 UNL A   1      23.828   4.673   7.131  1.00  0.00    +0.000 H 
ATOM    115  H24 UNL A   1      19.352   7.812  10.432  1.00  0.00    +0.000 H 
ATOM    116  H25 UNL A   1      20.408   9.678   9.068  1.00  0.00    +0.000 H 
ATOM    117  H26 UNL A   1      22.381   6.142   8.126  1.00  0.00    +0.000 H 
ATOM    118  H27 UNL A   1      20.121   2.536  10.795  1.00  0.00    +0.000 H 
ATOM    119  H28 UNL A   1      21.880   0.924   9.870  1.00  0.00    +0.000 H 
ATOM    120  H29 UNL A   1      25.841   8.300   4.323  1.00  0.00    +0.000 H 
ATOM    121  H30 UNL A   1      24.442  10.014   5.612  1.00  0.00    +0.000 H 
ENDROOT
BRANCH   19   18
ATOM     76  C53 UNL A   1      23.095  11.190   8.102  1.00  0.00    +0.000 C 
ATOM     77  C54 UNL A   1      22.881  12.563   8.011  1.00  0.00    +0.000 C 
ATOM    110  H19 UNL A   1      20.643  12.572   5.508  1.00  0.00    +0.000 H 
ATOM     15  C11 UNL A   1      22.025  13.071   7.028  1.00  0.00    +0.000 C 
ATOM     16  C12 UNL A   1      21.299  12.198   6.212  1.00  0.00    +0.000 C 
ATOM     17  C13 UNL A   1      21.464  10.819   6.352  1.00  0.00    +0.000 C 
ATOM    111  H20 UNL A   1      20.908  10.173   5.768  1.00  0.00    +0.000 H 
ATOM     18  C14 UNL A   1      22.380  10.304   7.284  1.00  0.00    +0.000 C 
ATOM    122  H31 UNL A   1      23.785  10.823   8.777  1.00  0.00    +0.000 H 
ATOM    123  H32 UNL A   1      23.352  13.205   8.667  1.00  0.00    +0.000 H 
BRANCH   15   13
ATOM     13  C10 UNL A   1      21.843  14.527   6.850  1.00  0.00    +0.000 C 
ATOM     14  O2  UNL A   1      21.138  15.154   7.635  1.00  0.00    +0.000 O 
BRANCH   13   12
ATOM     12  N2  UNL A   1      22.449  15.174   5.803  1.00  0.00    +0.000 N 
ATOM    109  H18 UNL A   1      22.090  14.962   4.911  1.00  0.00    +0.000 H 
BRANCH   12   11
ATOM     11  C9  UNL A   1      23.545  16.127   5.824  1.00  0.00    +0.000 C 
ATOM    108  H17 UNL A   1      23.128  17.107   5.938  1.00  0.00    +0.000 H 
ATOM    107  H16 UNL A   1      24.094  16.043   4.909  1.00  0.00    +0.000 H 
BRANCH   11   10
ATOM    105  H14 UNL A   1      24.231  14.955   7.451  1.00  0.00    +0.000 H 
ATOM     10  C8  UNL A   1      24.495  15.885   6.991  1.00  0.00    +0.000 C 
ATOM    106  H15 UNL A   1      25.484  15.884   6.582  1.00  0.00    +0.000 H 
BRANCH   10    9
ATOM      9  C7  UNL A   1      24.473  16.973   8.067  1.00  0.00    +0.000 C 
ATOM    103  H12 UNL A   1      25.387  17.525   8.000  1.00  0.00    +0.000 H 
ATOM    104  H13 UNL A   1      23.604  17.567   7.873  1.00  0.00    +0.000 H 
BRANCH    9    8
ATOM    101  H10 UNL A   1      24.546  15.412   9.504  1.00  0.00    +0.000 H 
ATOM    102  H11 UNL A   1      25.011  17.036  10.095  1.00  0.00    +0.000 H 
ATOM      8  C6  UNL A   1      24.331  16.460   9.503  1.00  0.00    +0.000 C 
BRANCH    8    7
ATOM     99  H8  UNL A   1      22.592  17.635   9.867  1.00  0.00    +0.000 H 
ATOM    100  H9  UNL A   1      22.316  15.880   9.752  1.00  0.00    +0.000 H 
ATOM      7  C5  UNL A   1      22.943  16.660  10.131  1.00  0.00    +0.000 C 
BRANCH    7    6
ATOM     97  H6  UNL A   1      22.239  15.772  11.941  1.00  0.00    +0.000 H 
ATOM     98  H7  UNL A   1      23.915  16.291  11.991  1.00  0.00    +0.000 H 
ATOM      6  C4  UNL A   1      22.929  16.538  11.657  1.00  0.00    +0.000 C 
BRANCH    6    5
ATOM      5  N1  UNL A   1      22.530  17.788  12.266  1.00  0.00    +0.000 N 
ATOM     96  H5  UNL A   1      21.862  18.307  11.761  1.00  0.00    +0.000 H 
BRANCH    5    3
ATOM      3  C3  UNL A   1      22.941  18.355  13.438  1.00  0.00    +0.000 C 
ATOM      4  O1  UNL A   1      22.589  17.796  14.478  1.00  0.00    +0.000 O 
BRANCH    3    2
ATOM      2  C2  UNL A   1      23.730  19.670  13.410  1.00  0.00    +0.000 C 
ATOM     95  H4  UNL A   1      24.078  19.829  14.409  1.00  0.00    +0.000 H 
BRANCH    2    1
ATOM      1  C1  UNL A   1      22.869  20.892  13.068  1.00  0.00    +0.000 C 
ATOM     92  H1  UNL A   1      22.545  21.363  13.972  1.00  0.00    +0.000 H 
ATOM     93  H2  UNL A   1      22.015  20.580  12.502  1.00  0.00    +0.000 H 
ATOM     94  H3  UNL A   1      23.445  21.584  12.491  1.00  0.00    +0.000 H 
ENDBRANCH    2    1
BRANCH    2   78
ATOM    137  H46 UNL A   1      28.126  18.507  12.409  1.00  0.00    +0.000 H 
ATOM     78  C55 UNL A   1      24.939  19.568  12.491  1.00  0.00    +0.000 C 
ATOM     79  C56 UNL A   1      24.851  20.023  11.169  1.00  0.00    +0.000 C 
ATOM     80  C57 UNL A   1      25.931  19.877  10.295  1.00  0.00    +0.000 C 
ATOM     81  C58 UNL A   1      27.112  19.252  10.714  1.00  0.00    +0.000 C 
ATOM     89  C65 UNL A   1      27.235  18.892  12.061  1.00  0.00    +0.000 C 
ATOM     90  C66 UNL A   1      26.161  19.052  12.931  1.00  0.00    +0.000 C 
ATOM     91  F16 UNL A   1      26.316  18.656  14.201  1.00  0.00    +0.000 F 
ATOM    124  H33 UNL A   1      23.982  20.470  10.838  1.00  0.00    +0.000 H 
ATOM    125  H34 UNL A   1      25.858  20.233   9.329  1.00  0.00    +0.000 H 
BRANCH   81   82
ATOM     82  C59 UNL A   1      28.223  18.943   9.745  1.00  0.00    +0.000 C 
ATOM    126  H35 UNL A   1      28.926  18.316  10.252  1.00  0.00    +0.000 H 
ATOM    127  H36 UNL A   1      28.597  19.899   9.444  1.00  0.00    +0.000 H 
BRANCH   82   83
ATOM    129  H38 UNL A   1      27.736  16.176   7.812  1.00  0.00    +0.000 H 
ATOM    130  H39 UNL A   1      28.789  16.439   9.160  1.00  0.00    +0.000 H 
ATOM    131  H40 UNL A   1      29.543  16.325   6.445  1.00  0.00    +0.000 H 
ATOM    132  H41 UNL A   1      30.567  16.815   7.748  1.00  0.00    +0.000 H 
ATOM    133  H42 UNL A   1      29.727  18.471   5.683  1.00  0.00    +0.000 H 
ATOM    134  H43 UNL A   1      30.351  19.057   7.169  1.00  0.00    +0.000 H 
ATOM    135  H44 UNL A   1      27.479  18.699   6.343  1.00  0.00    +0.000 H 
ATOM     83  C60 UNL A   1      27.842  18.236   8.422  1.00  0.00    +0.000 C 
ATOM     84  C61 UNL A   1      28.461  16.846   8.227  1.00  0.00    +0.000 C 
ATOM     85  C62 UNL A   1      29.637  17.012   7.259  1.00  0.00    +0.000 C 
ATOM     86  C63 UNL A   1      29.583  18.446   6.742  1.00  0.00    +0.000 C 
ATOM     87  C64 UNL A   1      28.188  18.942   7.106  1.00  0.00    +0.000 C 
ATOM    128  H37 UNL A   1      26.784  18.223   8.581  1.00  0.00    +0.000 H 
BRANCH   87   88
ATOM    136  H45 UNL A   1      28.129  20.637   8.092  1.00  0.00    +0.000 H 
ATOM     88  O3  UNL A   1      28.086  20.349   7.166  1.00  0.00    +0.000 O 
ENDBRANCH   87   88
ENDBRANCH   82   83
ENDBRANCH   81   82
ENDBRANCH    2   78
ENDBRANCH    3    2
ENDBRANCH    5    3
ENDBRANCH    6    5
ENDBRANCH    7    6
ENDBRANCH    8    7
ENDBRANCH    9    8
ENDBRANCH   10    9
ENDBRANCH   11   10
ENDBRANCH   12   11
ENDBRANCH   13   12
ENDBRANCH   15   13
ENDBRANCH   19   18
BRANCH   23   24
ATOM     33  C24 UNL A   1      28.018   6.192   4.550  1.00  0.00    +0.000 C 
ATOM     34  F5  UNL A   1      28.349   6.382   5.836  1.00  0.00    +0.000 F 
ATOM     24  C19 UNL A   1      26.709   5.826   4.203  1.00  0.00    +0.000 C 
ATOM     25  C20 UNL A   1      26.418   5.644   2.842  1.00  0.00    +0.000 C 
ATOM     26  F1  UNL A   1      25.185   5.283   2.457  1.00  0.00    +0.000 F 
ATOM     27  C21 UNL A   1      27.407   5.789   1.872  1.00  0.00    +0.000 C 
ATOM     28  F2  UNL A   1      27.119   5.557   0.584  1.00  0.00    +0.000 F 
ATOM     29  C22 UNL A   1      28.693   6.155   2.238  1.00  0.00    +0.000 C 
ATOM     30  F3  UNL A   1      29.644   6.297   1.304  1.00  0.00    +0.000 F 
ATOM     31  C23 UNL A   1      28.997   6.365   3.575  1.00  0.00    +0.000 C 
ATOM     32  F4  UNL A   1      30.237   6.730   3.930  1.00  0.00    +0.000 F 
ENDBRANCH   23   24
BRANCH   40   41
ATOM     41  C30 UNL A   1      23.889   0.553   8.239  1.00  0.00    +0.000 C 
ATOM     42  C31 UNL A   1      23.269  -0.424   7.448  1.00  0.00    +0.000 C 
ATOM     43  F6  UNL A   1      22.416  -0.065   6.476  1.00  0.00    +0.000 F 
ATOM     44  C32 UNL A   1      23.491  -1.779   7.680  1.00  0.00    +0.000 C 
ATOM     45  F7  UNL A   1      22.850  -2.697   6.943  1.00  0.00    +0.000 F 
ATOM     46  C33 UNL A   1      24.361  -2.181   8.683  1.00  0.00    +0.000 C 
ATOM     47  F8  UNL A   1      24.577  -3.484   8.902  1.00  0.00    +0.000 F 
ATOM     48  C34 UNL A   1      25.001  -1.230   9.464  1.00  0.00    +0.000 C 
ATOM     49  F9  UNL A   1      25.852  -1.615  10.425  1.00  0.00    +0.000 F 
ATOM     50  C35 UNL A   1      24.759   0.124   9.253  1.00  0.00    +0.000 C 
ATOM     51  F10 UNL A   1      25.381   1.020  10.034  1.00  0.00    +0.000 F 
ENDBRANCH   40   41
BRANCH   55   56
ATOM     65  C44 UNL A   1      19.675   5.089  12.343  1.00  0.00    +0.000 C 
ATOM     66  F15 UNL A   1      20.942   5.155  12.776  1.00  0.00    +0.000 F 
ATOM     56  C39 UNL A   1      19.400   5.121  10.969  1.00  0.00    +0.000 C 
ATOM     57  C40 UNL A   1      18.058   5.044  10.568  1.00  0.00    +0.000 C 
ATOM     58  F11 UNL A   1      17.744   5.092   9.265  1.00  0.00    +0.000 F 
ATOM     59  C41 UNL A   1      17.031   4.957  11.505  1.00  0.00    +0.000 C 
ATOM     60  F12 UNL A   1      15.755   4.928  11.097  1.00  0.00    +0.000 F 
ATOM     61  C42 UNL A   1      17.327   4.918  12.860  1.00  0.00    +0.000 C 
ATOM     62  F13 UNL A   1      16.340   4.832  13.761  1.00  0.00    +0.000 F 
ATOM     63  C43 UNL A   1      18.649   4.976  13.278  1.00  0.00    +0.000 C 
ATOM     64  F14 UNL A   1      18.939   4.925  14.585  1.00  0.00    +0.000 F 
ENDBRANCH   55   56
TORSDOF 20
ENDMDL
MODEL 9
REMARK VINA RESULT:     -10.7     35.572     40.805
ROOT
ATOM     19  C15 UNL A   1      46.386  50.877  18.118  1.00  0.00    +0.000 C 
ATOM     20  C16 UNL A   1      46.653  52.170  17.399  1.00  0.00    +0.000 C 
ATOM     21  N3  UNL A   1      47.671  52.986  17.510  1.00  0.00    +0.000 N 
ATOM     22  C17 UNL A   1      47.446  53.998  16.587  1.00  0.00    +0.000 C 
ATOM     23  C18 UNL A   1      48.180  55.113  16.358  1.00  0.00    +0.000 C 
ATOM     35  C25 UNL A   1      49.379  55.455  17.078  1.00  0.00    +0.000 C 
ATOM     36  C26 UNL A   1      50.157  56.593  16.971  1.00  0.00    +0.000 C 
ATOM     37  C27 UNL A   1      51.245  56.463  17.842  1.00  0.00    +0.000 C 
ATOM     38  C28 UNL A   1      51.120  55.265  18.525  1.00  0.00    +0.000 C 
ATOM     39  N4  UNL A   1      49.972  54.654  18.044  1.00  0.00    +0.000 N 
ATOM     40  C29 UNL A   1      51.981  54.716  19.541  1.00  0.00    +0.000 C 
ATOM     52  C36 UNL A   1      51.786  53.531  20.168  1.00  0.00    +0.000 C 
ATOM     53  N5  UNL A   1      50.758  52.613  20.001  1.00  0.00    +0.000 N 
ATOM     54  C37 UNL A   1      51.018  51.626  20.824  1.00  0.00    +0.000 C 
ATOM     55  C38 UNL A   1      50.224  50.377  21.093  1.00  0.00    +0.000 C 
ATOM     67  C45 UNL A   1      49.072  50.174  20.427  1.00  0.00    +0.000 C 
ATOM     68  C46 UNL A   1      48.189  49.023  20.589  1.00  0.00    +0.000 C 
ATOM     69  C47 UNL A   1      47.143  49.152  19.755  1.00  0.00    +0.000 C 
ATOM     70  C48 UNL A   1      47.269  50.413  19.023  1.00  0.00    +0.000 C 
ATOM     71  N6  UNL A   1      48.448  50.945  19.477  1.00  0.00    +0.000 N 
ATOM     72  C49 UNL A   1      52.264  51.793  21.586  1.00  0.00    +0.000 C 
ATOM     73  C50 UNL A   1      52.669  52.987  21.180  1.00  0.00    +0.000 C 
ATOM     74  C51 UNL A   1      46.222  53.669  15.888  1.00  0.00    +0.000 C 
ATOM     75  C52 UNL A   1      45.655  52.587  16.401  1.00  0.00    +0.000 C 
ATOM    112  H21 UNL A   1      49.968  57.399  16.354  1.00  0.00    +0.000 H 
ATOM    113  H22 UNL A   1      52.011  57.146  17.954  1.00  0.00    +0.000 H 
ATOM    114  H23 UNL A   1      49.630  53.781  18.343  1.00  0.00    +0.000 H 
ATOM    115  H24 UNL A   1      48.343  48.238  21.240  1.00  0.00    +0.000 H 
ATOM    116  H25 UNL A   1      46.375  48.471  19.649  1.00  0.00    +0.000 H 
ATOM    117  H26 UNL A   1      48.815  51.801  19.151  1.00  0.00    +0.000 H 
ATOM    118  H27 UNL A   1      52.706  51.149  22.260  1.00  0.00    +0.000 H 
ATOM    119  H28 UNL A   1      53.508  53.469  21.539  1.00  0.00    +0.000 H 
ATOM    120  H29 UNL A   1      45.841  54.208  15.094  1.00  0.00    +0.000 H 
ATOM    121  H30 UNL A   1      44.751  52.152  16.163  1.00  0.00    +0.000 H 
ENDROOT
BRANCH   19   18
ATOM     76  C53 UNL A   1      43.969  50.351  18.448  1.00  0.00    +0.000 C 
ATOM     77  C54 UNL A   1      42.838  49.582  18.186  1.00  0.00    +0.000 C 
ATOM    110  H19 UNL A   1      44.115  47.568  15.824  1.00  0.00    +0.000 H 
ATOM     15  C11 UNL A   1      42.877  48.600  17.190  1.00  0.00    +0.000 C 
ATOM     16  C12 UNL A   1      44.079  48.314  16.536  1.00  0.00    +0.000 C 
ATOM     17  C13 UNL A   1      45.229  49.040  16.849  1.00  0.00    +0.000 C 
ATOM    111  H20 UNL A   1      46.123  48.811  16.386  1.00  0.00    +0.000 H 
ATOM     18  C14 UNL A   1      45.178  50.079  17.792  1.00  0.00    +0.000 C 
ATOM    122  H31 UNL A   1      43.916  51.125  19.129  1.00  0.00    +0.000 H 
ATOM    123  H32 UNL A   1      41.972  49.735  18.726  1.00  0.00    +0.000 H 
BRANCH   15   13
ATOM     13  C10 UNL A   1      41.669  47.826  16.831  1.00  0.00    +0.000 C 
ATOM     14  O2  UNL A   1      40.557  48.286  17.070  1.00  0.00    +0.000 O 
BRANCH   13   12
ATOM     12  N2  UNL A   1      41.792  46.592  16.245  1.00  0.00    +0.000 N 
ATOM    109  H18 UNL A   1      41.921  46.598  15.269  1.00  0.00    +0.000 H 
BRANCH   12   11
ATOM     11  C9  UNL A   1      41.758  45.277  16.861  1.00  0.00    +0.000 C 
ATOM    108  H17 UNL A   1      40.908  44.753  16.474  1.00  0.00    +0.000 H 
ATOM    107  H16 UNL A   1      41.691  45.394  17.923  1.00  0.00    +0.000 H 
BRANCH   11   10
ATOM    105  H14 UNL A   1      42.698  43.445  16.359  1.00  0.00    +0.000 H 
ATOM     10  C8  UNL A   1      43.001  44.456  16.534  1.00  0.00    +0.000 C 
ATOM    106  H15 UNL A   1      43.450  44.915  15.679  1.00  0.00    +0.000 H 
BRANCH   10    9
ATOM      9  C7  UNL A   1      44.067  44.451  17.633  1.00  0.00    +0.000 C 
ATOM    103  H12 UNL A   1      44.119  43.463  18.040  1.00  0.00    +0.000 H 
ATOM    104  H13 UNL A   1      44.978  44.765  17.167  1.00  0.00    +0.000 H 
BRANCH    9    8
ATOM    101  H10 UNL A   1      43.271  46.264  18.397  1.00  0.00    +0.000 H 
ATOM    102  H11 UNL A   1      43.278  44.880  19.530  1.00  0.00    +0.000 H 
ATOM      8  C6  UNL A   1      43.814  45.429  18.785  1.00  0.00    +0.000 C 
BRANCH    8    7
ATOM     99  H8  UNL A   1      45.353  46.885  19.007  1.00  0.00    +0.000 H 
ATOM    100  H9  UNL A   1      44.840  46.081  20.511  1.00  0.00    +0.000 H 
ATOM      7  C5  UNL A   1      45.079  45.962  19.474  1.00  0.00    +0.000 C 
BRANCH    7    6
ATOM     97  H6  UNL A   1      46.010  44.078  19.855  1.00  0.00    +0.000 H 
ATOM     98  H7  UNL A   1      46.532  44.860  18.373  1.00  0.00    +0.000 H 
ATOM      6  C4  UNL A   1      46.275  45.010  19.400  1.00  0.00    +0.000 C 
BRANCH    6    5
ATOM      5  N1  UNL A   1      47.417  45.569  20.090  1.00  0.00    +0.000 N 
ATOM     96  H5  UNL A   1      47.203  46.135  20.867  1.00  0.00    +0.000 H 
BRANCH    5    3
ATOM      3  C3  UNL A   1      48.749  45.427  19.825  1.00  0.00    +0.000 C 
ATOM      4  O1  UNL A   1      49.524  45.591  20.768  1.00  0.00    +0.000 O 
BRANCH    3    2
ATOM      2  C2  UNL A   1      49.212  45.156  18.388  1.00  0.00    +0.000 C 
ATOM     95  H4  UNL A   1      48.537  44.427  17.990  1.00  0.00    +0.000 H 
BRANCH    2    1
ATOM      1  C1  UNL A   1      50.607  44.524  18.304  1.00  0.00    +0.000 C 
ATOM     92  H1  UNL A   1      50.809  44.241  17.293  1.00  0.00    +0.000 H 
ATOM     93  H2  UNL A   1      50.644  43.658  18.932  1.00  0.00    +0.000 H 
ATOM     94  H3  UNL A   1      51.339  45.232  18.630  1.00  0.00    +0.000 H 
ENDBRANCH    2    1
BRANCH    2   78
ATOM    137  H46 UNL A   1      47.355  47.790  15.027  1.00  0.00    +0.000 H 
ATOM     78  C55 UNL A   1      49.119  46.411  17.533  1.00  0.00    +0.000 C 
ATOM     79  C56 UNL A   1      50.007  47.473  17.753  1.00  0.00    +0.000 C 
ATOM     80  C57 UNL A   1      49.893  48.657  17.020  1.00  0.00    +0.000 C 
ATOM     81  C58 UNL A   1      48.876  48.817  16.071  1.00  0.00    +0.000 C 
ATOM     89  C65 UNL A   1      48.056  47.721  15.781  1.00  0.00    +0.000 C 
ATOM     90  C66 UNL A   1      48.182  46.539  16.503  1.00  0.00    +0.000 C 
ATOM     91  F16 UNL A   1      47.347  45.532  16.214  1.00  0.00    +0.000 F 
ATOM    124  H33 UNL A   1      50.752  47.379  18.461  1.00  0.00    +0.000 H 
ATOM    125  H34 UNL A   1      50.566  49.422  17.180  1.00  0.00    +0.000 H 
BRANCH   81   82
ATOM     82  C59 UNL A   1      48.640  50.139  15.389  1.00  0.00    +0.000 C 
ATOM    126  H35 UNL A   1      48.922  50.910  16.075  1.00  0.00    +0.000 H 
ATOM    127  H36 UNL A   1      47.606  50.125  15.116  1.00  0.00    +0.000 H 
BRANCH   82   83
ATOM    129  H38 UNL A   1      49.856  49.189  12.348  1.00  0.00    +0.000 H 
ATOM    130  H39 UNL A   1      49.552  48.266  13.779  1.00  0.00    +0.000 H 
ATOM    131  H40 UNL A   1      52.074  49.088  12.821  1.00  0.00    +0.000 H 
ATOM    132  H41 UNL A   1      51.775  48.369  14.364  1.00  0.00    +0.000 H 
ATOM    133  H42 UNL A   1      52.677  50.966  13.974  1.00  0.00    +0.000 H 
ATOM    134  H43 UNL A   1      51.970  50.422  15.439  1.00  0.00    +0.000 H 
ATOM    135  H44 UNL A   1      50.672  51.887  13.152  1.00  0.00    +0.000 H 
ATOM     83  C60 UNL A   1      49.393  50.402  14.062  1.00  0.00    +0.000 C 
ATOM     84  C61 UNL A   1      50.008  49.159  13.407  1.00  0.00    +0.000 C 
ATOM     85  C62 UNL A   1      51.506  49.181  13.723  1.00  0.00    +0.000 C 
ATOM     86  C63 UNL A   1      51.796  50.523  14.388  1.00  0.00    +0.000 C 
ATOM     87  C64 UNL A   1      50.572  51.381  14.089  1.00  0.00    +0.000 C 
ATOM    128  H37 UNL A   1      48.566  50.815  13.523  1.00  0.00    +0.000 H 
BRANCH   87   88
ATOM    136  H45 UNL A   1      50.111  53.244  14.500  1.00  0.00    +0.000 H 
ATOM     88  O3  UNL A   1      50.404  52.458  14.988  1.00  0.00    +0.000 O 
ENDBRANCH   87   88
ENDBRANCH   82   83
ENDBRANCH   81   82
ENDBRANCH    2   78
ENDBRANCH    3    2
ENDBRANCH    5    3
ENDBRANCH    6    5
ENDBRANCH    7    6
ENDBRANCH    8    7
ENDBRANCH    9    8
ENDBRANCH   10    9
ENDBRANCH   11   10
ENDBRANCH   12   11
ENDBRANCH   13   12
ENDBRANCH   15   13
ENDBRANCH   19   18
BRANCH   23   24
ATOM     33  C24 UNL A   1      47.989  55.784  13.935  1.00  0.00    +0.000 C 
ATOM     34  F5  UNL A   1      48.677  54.684  13.590  1.00  0.00    +0.000 F 
ATOM     24  C19 UNL A   1      47.705  56.047  15.283  1.00  0.00    +0.000 C 
ATOM     25  C20 UNL A   1      46.986  57.214  15.586  1.00  0.00    +0.000 C 
ATOM     26  F1  UNL A   1      46.678  57.506  16.858  1.00  0.00    +0.000 F 
ATOM     27  C21 UNL A   1      46.541  58.063  14.576  1.00  0.00    +0.000 C 
ATOM     28  F2  UNL A   1      45.809  59.143  14.887  1.00  0.00    +0.000 F 
ATOM     29  C22 UNL A   1      46.837  57.785  13.251  1.00  0.00    +0.000 C 
ATOM     30  F3  UNL A   1      46.410  58.605  12.280  1.00  0.00    +0.000 F 
ATOM     31  C23 UNL A   1      47.568  56.651  12.930  1.00  0.00    +0.000 C 
ATOM     32  F4  UNL A   1      47.865  56.387  11.650  1.00  0.00    +0.000 F 
ENDBRANCH   23   24
BRANCH   40   41
ATOM     41  C30 UNL A   1      53.173  55.526  19.960  1.00  0.00    +0.000 C 
ATOM     42  C31 UNL A   1      54.444  55.304  19.411  1.00  0.00    +0.000 C 
ATOM     43  F6  UNL A   1      54.631  54.320  18.519  1.00  0.00    +0.000 F 
ATOM     44  C32 UNL A   1      55.537  56.069  19.808  1.00  0.00    +0.000 C 
ATOM     45  F7  UNL A   1      56.752  55.808  19.307  1.00  0.00    +0.000 F 
ATOM     46  C33 UNL A   1      55.375  57.089  20.735  1.00  0.00    +0.000 C 
ATOM     47  F8  UNL A   1      56.428  57.825  21.113  1.00  0.00    +0.000 F 
ATOM     48  C34 UNL A   1      54.122  57.338  21.275  1.00  0.00    +0.000 C 
ATOM     49  F9  UNL A   1      53.961  58.330  22.161  1.00  0.00    +0.000 F 
ATOM     50  C35 UNL A   1      53.033  56.556  20.901  1.00  0.00    +0.000 C 
ATOM     51  F10 UNL A   1      51.837  56.812  21.452  1.00  0.00    +0.000 F 
ENDBRANCH   40   41
BRANCH   55   56
ATOM     65  C44 UNL A   1      50.316  49.518  23.460  1.00  0.00    +0.000 C 
ATOM     66  F15 UNL A   1      49.556  50.547  23.860  1.00  0.00    +0.000 F 
ATOM     56  C39 UNL A   1      50.675  49.393  22.110  1.00  0.00    +0.000 C 
ATOM     57  C40 UNL A   1      51.475  48.301  21.744  1.00  0.00    +0.000 C 
ATOM     58  F11 UNL A   1      51.825  48.128  20.461  1.00  0.00    +0.000 F 
ATOM     59  C41 UNL A   1      51.884  47.362  22.687  1.00  0.00    +0.000 C 
ATOM     60  F12 UNL A   1      52.613  46.304  22.303  1.00  0.00    +0.000 F 
ATOM     61  C42 UNL A   1      51.526  47.510  24.018  1.00  0.00    +0.000 C 
ATOM     62  F13 UNL A   1      51.922  46.607  24.926  1.00  0.00    +0.000 F 
ATOM     63  C43 UNL A   1      50.748  48.592  24.406  1.00  0.00    +0.000 C 
ATOM     64  F14 UNL A   1      50.410  48.745  25.694  1.00  0.00    +0.000 F 
ENDBRANCH   55   56
TORSDOF 20
ENDMDL
MODEL 10
REMARK VINA RESULT:     -10.7      7.675     13.707
ROOT
ATOM     19  C15 UNL A   1      24.560  39.176  46.973  1.00  0.00    +0.000 C 
ATOM     20  C16 UNL A   1      23.767  40.207  47.728  1.00  0.00    +0.000 C 
ATOM     21  N3  UNL A   1      22.570  40.114  48.250  1.00  0.00    +0.000 N 
ATOM     22  C17 UNL A   1      22.335  41.331  48.875  1.00  0.00    +0.000 C 
ATOM     23  C18 UNL A   1      21.215  41.755  49.507  1.00  0.00    +0.000 C 
ATOM     35  C25 UNL A   1      20.014  40.973  49.637  1.00  0.00    +0.000 C 
ATOM     36  C26 UNL A   1      18.802  41.335  50.198  1.00  0.00    +0.000 C 
ATOM     37  C27 UNL A   1      17.943  40.232  50.135  1.00  0.00    +0.000 C 
ATOM     38  C28 UNL A   1      18.604  39.197  49.495  1.00  0.00    +0.000 C 
ATOM     39  N4  UNL A   1      19.875  39.664  49.198  1.00  0.00    +0.000 N 
ATOM     40  C29 UNL A   1      18.115  37.880  49.176  1.00  0.00    +0.000 C 
ATOM     52  C36 UNL A   1      18.827  36.919  48.540  1.00  0.00    +0.000 C 
ATOM     53  N5  UNL A   1      20.127  36.972  48.056  1.00  0.00    +0.000 N 
ATOM     54  C37 UNL A   1      20.366  35.794  47.532  1.00  0.00    +0.000 C 
ATOM     55  C38 UNL A   1      21.601  35.296  46.831  1.00  0.00    +0.000 C 
ATOM     67  C45 UNL A   1      22.652  36.123  46.686  1.00  0.00    +0.000 C 
ATOM     68  C46 UNL A   1      23.908  35.791  46.019  1.00  0.00    +0.000 C 
ATOM     69  C47 UNL A   1      24.729  36.853  46.077  1.00  0.00    +0.000 C 
ATOM     70  C48 UNL A   1      24.043  37.951  46.758  1.00  0.00    +0.000 C 
ATOM     71  N6  UNL A   1      22.823  37.424  47.095  1.00  0.00    +0.000 N 
ATOM     72  C49 UNL A   1      19.249  34.846  47.655  1.00  0.00    +0.000 C 
ATOM     73  C50 UNL A   1      18.324  35.594  48.238  1.00  0.00    +0.000 C 
ATOM     74  C51 UNL A   1      23.532  42.129  48.712  1.00  0.00    +0.000 C 
ATOM     75  C52 UNL A   1      24.419  41.507  47.950  1.00  0.00    +0.000 C 
ATOM    112  H21 UNL A   1      18.571  42.260  50.594  1.00  0.00    +0.000 H 
ATOM    113  H22 UNL A   1      16.980  40.197  50.506  1.00  0.00    +0.000 H 
ATOM    114  H23 UNL A   1      20.575  39.143  48.744  1.00  0.00    +0.000 H 
ATOM    115  H24 UNL A   1      24.129  34.887  45.575  1.00  0.00    +0.000 H 
ATOM    116  H25 UNL A   1      25.690  36.888  45.701  1.00  0.00    +0.000 H 
ATOM    117  H26 UNL A   1      22.133  37.929  47.585  1.00  0.00    +0.000 H 
ATOM    118  H27 UNL A   1      19.200  33.857  47.364  1.00  0.00    +0.000 H 
ATOM    119  H28 UNL A   1      17.366  35.275  48.449  1.00  0.00    +0.000 H 
ATOM    120  H29 UNL A   1      23.675  43.059  49.135  1.00  0.00    +0.000 H 
ATOM    121  H30 UNL A   1      25.329  41.846  47.603  1.00  0.00    +0.000 H 
ENDROOT
BRANCH   19   18
ATOM     76  C53 UNL A   1      27.035  38.948  47.199  1.00  0.00    +0.000 C 
ATOM     77  C54 UNL A   1      28.333  39.265  46.808  1.00  0.00    +0.000 C 
ATOM    110  H19 UNL A   1      27.618  41.187  44.150  1.00  0.00    +0.000 H 
ATOM     15  C11 UNL A   1      28.546  40.040  45.663  1.00  0.00    +0.000 C 
ATOM     16  C12 UNL A   1      27.459  40.589  44.976  1.00  0.00    +0.000 C 
ATOM     17  C13 UNL A   1      26.159  40.326  45.411  1.00  0.00    +0.000 C 
ATOM    111  H20 UNL A   1      25.358  40.752  44.920  1.00  0.00    +0.000 H 
ATOM     18  C14 UNL A   1      25.936  39.485  46.513  1.00  0.00    +0.000 C 
ATOM    122  H31 UNL A   1      26.881  38.314  47.999  1.00  0.00    +0.000 H 
ATOM    123  H32 UNL A   1      29.136  38.931  47.362  1.00  0.00    +0.000 H 
BRANCH   15   13
ATOM     13  C10 UNL A   1      29.913  40.323  45.174  1.00  0.00    +0.000 C 
ATOM     14  O2  UNL A   1      30.629  41.109  45.786  1.00  0.00    +0.000 O 
BRANCH   13   12
ATOM     12  N2  UNL A   1      30.374  39.719  44.031  1.00  0.00    +0.000 N 
ATOM    109  H18 UNL A   1      30.324  40.266  43.215  1.00  0.00    +0.000 H 
BRANCH   12   11
ATOM     11  C9  UNL A   1      30.925  38.386  43.856  1.00  0.00    +0.000 C 
ATOM    108  H17 UNL A   1      31.422  38.114  44.764  1.00  0.00    +0.000 H 
ATOM    107  H16 UNL A   1      31.604  38.399  43.030  1.00  0.00    +0.000 H 
BRANCH   11   10
ATOM    105  H14 UNL A   1      28.945  37.862  43.313  1.00  0.00    +0.000 H 
ATOM     10  C8  UNL A   1      29.842  37.347  43.586  1.00  0.00    +0.000 C 
ATOM    106  H15 UNL A   1      30.216  36.714  42.809  1.00  0.00    +0.000 H 
BRANCH   10    9
ATOM      9  C7  UNL A   1      29.525  36.435  44.773  1.00  0.00    +0.000 C 
ATOM    103  H12 UNL A   1      30.042  35.509  44.628  1.00  0.00    +0.000 H 
ATOM    104  H13 UNL A   1      29.841  36.963  45.649  1.00  0.00    +0.000 H 
BRANCH    9    8
ATOM    101  H10 UNL A   1      27.912  35.725  45.957  1.00  0.00    +0.000 H 
ATOM    102  H11 UNL A   1      27.517  37.045  44.815  1.00  0.00    +0.000 H 
ATOM      8  C6  UNL A   1      28.038  36.124  44.972  1.00  0.00    +0.000 C 
BRANCH    8    7
ATOM     99  H8  UNL A   1      26.494  34.798  44.345  1.00  0.00    +0.000 H 
ATOM    100  H9  UNL A   1      27.366  35.629  43.033  1.00  0.00    +0.000 H 
ATOM      7  C5  UNL A   1      27.443  35.121  43.973  1.00  0.00    +0.000 C 
BRANCH    7    6
ATOM     97  H6  UNL A   1      27.756  33.161  43.185  1.00  0.00    +0.000 H 
ATOM     98  H7  UNL A   1      29.187  34.179  43.191  1.00  0.00    +0.000 H 
ATOM      6  C4  UNL A   1      28.316  33.886  43.739  1.00  0.00    +0.000 C 
BRANCH    6    5
ATOM      5  N1  UNL A   1      28.730  33.307  44.998  1.00  0.00    +0.000 N 
ATOM     96  H5  UNL A   1      29.662  33.490  45.258  1.00  0.00    +0.000 H 
BRANCH    5    3
ATOM      3  C3  UNL A   1      28.020  32.545  45.881  1.00  0.00    +0.000 C 
ATOM      4  O1  UNL A   1      27.131  31.833  45.411  1.00  0.00    +0.000 O 
BRANCH    3    2
ATOM      2  C2  UNL A   1      28.299  32.668  47.384  1.00  0.00    +0.000 C 
ATOM     95  H4  UNL A   1      29.333  32.925  47.475  1.00  0.00    +0.000 H 
BRANCH    2    1
ATOM      1  C1  UNL A   1      28.127  31.348  48.147  1.00  0.00    +0.000 C 
ATOM     92  H1  UNL A   1      29.090  30.954  48.396  1.00  0.00    +0.000 H 
ATOM     93  H2  UNL A   1      27.603  30.647  47.532  1.00  0.00    +0.000 H 
ATOM     94  H3  UNL A   1      27.570  31.523  49.042  1.00  0.00    +0.000 H 
ENDBRANCH    2    1
BRANCH    2   78
ATOM    137  H46 UNL A   1      24.319  34.607  48.825  1.00  0.00    +0.000 H 
ATOM     78  C55 UNL A   1      27.472  33.782  48.009  1.00  0.00    +0.000 C 
ATOM     79  C56 UNL A   1      28.104  34.943  48.474  1.00  0.00    +0.000 C 
ATOM     80  C57 UNL A   1      27.366  35.946  49.108  1.00  0.00    +0.000 C 
ATOM     81  C58 UNL A   1      25.989  35.802  49.314  1.00  0.00    +0.000 C 
ATOM     89  C65 UNL A   1      25.344  34.691  48.758  1.00  0.00    +0.000 C 
ATOM     90  C66 UNL A   1      26.080  33.701  48.115  1.00  0.00    +0.000 C 
ATOM     91  F16 UNL A   1      25.421  32.638  47.635  1.00  0.00    +0.000 F 
ATOM    124  H33 UNL A   1      29.121  35.058  48.348  1.00  0.00    +0.000 H 
ATOM    125  H34 UNL A   1      27.842  36.804  49.429  1.00  0.00    +0.000 H 
BRANCH   81   82
ATOM     82  C59 UNL A   1      25.209  36.797  50.133  1.00  0.00    +0.000 C 
ATOM    126  H35 UNL A   1      25.165  37.708  49.575  1.00  0.00    +0.000 H 
ATOM    127  H36 UNL A   1      25.733  36.855  51.064  1.00  0.00    +0.000 H 
BRANCH   82   83
ATOM    129  H38 UNL A   1      21.833  37.279  50.092  1.00  0.00    +0.000 H 
ATOM    130  H39 UNL A   1      23.135  38.408  49.944  1.00  0.00    +0.000 H 
ATOM    131  H40 UNL A   1      21.511  38.014  52.216  1.00  0.00    +0.000 H 
ATOM    132  H41 UNL A   1      22.945  38.977  52.166  1.00  0.00    +0.000 H 
ATOM    133  H42 UNL A   1      22.648  36.652  53.656  1.00  0.00    +0.000 H 
ATOM    134  H43 UNL A   1      24.172  37.336  53.265  1.00  0.00    +0.000 H 
ATOM    135  H44 UNL A   1      22.692  35.115  51.873  1.00  0.00    +0.000 H 
ATOM     83  C60 UNL A   1      23.758  36.421  50.521  1.00  0.00    +0.000 C 
ATOM     84  C61 UNL A   1      22.763  37.589  50.522  1.00  0.00    +0.000 C 
ATOM     85  C62 UNL A   1      22.555  37.999  51.983  1.00  0.00    +0.000 C 
ATOM     86  C63 UNL A   1      23.268  36.956  52.839  1.00  0.00    +0.000 C 
ATOM     87  C64 UNL A   1      23.525  35.786  51.896  1.00  0.00    +0.000 C 
ATOM    128  H37 UNL A   1      23.594  35.710  49.739  1.00  0.00    +0.000 H 
BRANCH   87   88
ATOM    136  H45 UNL A   1      24.915  35.250  53.174  1.00  0.00    +0.000 H 
ATOM     88  O3  UNL A   1      24.573  34.938  52.321  1.00  0.00    +0.000 O 
ENDBRANCH   87   88
ENDBRANCH   82   83
ENDBRANCH   81   82
ENDBRANCH    2   78
ENDBRANCH    3    2
ENDBRANCH    5    3
ENDBRANCH    6    5
ENDBRANCH    7    6
ENDBRANCH    8    7
ENDBRANCH    9    8
ENDBRANCH   10    9
ENDBRANCH   11   10
ENDBRANCH   12   11
ENDBRANCH   13   12
ENDBRANCH   15   13
ENDBRANCH   19   18
BRANCH   23   24
ATOM     33  C24 UNL A   1      20.876  44.249  49.337  1.00  0.00    +0.000 C 
ATOM     34  F5  UNL A   1      20.493  44.097  48.061  1.00  0.00    +0.000 F 
ATOM     24  C19 UNL A   1      21.237  43.131  50.106  1.00  0.00    +0.000 C 
ATOM     25  C20 UNL A   1      21.634  43.350  51.434  1.00  0.00    +0.000 C 
ATOM     26  F1  UNL A   1      21.977  42.315  52.215  1.00  0.00    +0.000 F 
ATOM     27  C21 UNL A   1      21.637  44.631  51.980  1.00  0.00    +0.000 C 
ATOM     28  F2  UNL A   1      21.968  44.809  53.267  1.00  0.00    +0.000 F 
ATOM     29  C22 UNL A   1      21.281  45.721  51.200  1.00  0.00    +0.000 C 
ATOM     30  F3  UNL A   1      21.285  46.954  51.726  1.00  0.00    +0.000 F 
ATOM     31  C23 UNL A   1      20.909  45.532  49.877  1.00  0.00    +0.000 C 
ATOM     32  F4  UNL A   1      20.576  46.585  49.119  1.00  0.00    +0.000 F 
ENDBRANCH   23   24
BRANCH   40   41
ATOM     41  C30 UNL A   1      16.701  37.550  49.552  1.00  0.00    +0.000 C 
ATOM     42  C31 UNL A   1      15.715  37.321  48.581  1.00  0.00    +0.000 C 
ATOM     43  F6  UNL A   1      16.012  37.437  47.278  1.00  0.00    +0.000 F 
ATOM     44  C32 UNL A   1      14.408  37.011  48.947  1.00  0.00    +0.000 C 
ATOM     45  F7  UNL A   1      13.471  36.845  48.004  1.00  0.00    +0.000 F 
ATOM     46  C33 UNL A   1      14.070  36.892  50.288  1.00  0.00    +0.000 C 
ATOM     47  F8  UNL A   1      12.813  36.591  50.638  1.00  0.00    +0.000 F 
ATOM     48  C34 UNL A   1      15.034  37.094  51.264  1.00  0.00    +0.000 C 
ATOM     49  F9  UNL A   1      14.712  36.968  52.559  1.00  0.00    +0.000 F 
ATOM     50  C35 UNL A   1      16.335  37.432  50.901  1.00  0.00    +0.000 C 
ATOM     51  F10 UNL A   1      17.241  37.636  51.868  1.00  0.00    +0.000 F 
ENDBRANCH   40   41
BRANCH   55   56
ATOM     65  C44 UNL A   1      22.135  32.840  47.009  1.00  0.00    +0.000 C 
ATOM     66  F15 UNL A   1      22.573  33.028  48.262  1.00  0.00    +0.000 F 
ATOM     56  C39 UNL A   1      21.652  33.925  46.264  1.00  0.00    +0.000 C 
ATOM     57  C40 UNL A   1      21.210  33.676  44.956  1.00  0.00    +0.000 C 
ATOM     58  F11 UNL A   1      20.720  34.678  44.212  1.00  0.00    +0.000 F 
ATOM     59  C41 UNL A   1      21.234  32.389  44.422  1.00  0.00    +0.000 C 
ATOM     60  F12 UNL A   1      20.766  32.171  43.186  1.00  0.00    +0.000 F 
ATOM     61  C42 UNL A   1      21.725  31.332  45.175  1.00  0.00    +0.000 C 
ATOM     62  F13 UNL A   1      21.750  30.095  44.660  1.00  0.00    +0.000 F 
ATOM     63  C43 UNL A   1      22.182  31.559  46.465  1.00  0.00    +0.000 C 
ATOM     64  F14 UNL A   1      22.670  30.543  47.190  1.00  0.00    +0.000 F 
ENDBRANCH   55   56
TORSDOF 20
ENDMDL
