MODEL 1
REMARK VINA RESULT:      -8.8      0.000      0.000
ROOT
ATOM    129  H37 UNL A   1      10.111  22.751   7.892  1.00  0.00    +0.000 H 
ATOM    130  H38 UNL A   1      11.643  20.842   7.150  1.00  0.00    +0.000 H 
ATOM    131  H39 UNL A   1      13.469  25.570  -1.527  1.00  0.00    +0.000 H 
ATOM    132  H40 UNL A   1      12.325  27.674  -0.620  1.00  0.00    +0.000 H 
ATOM     31  C26 UNL A   1      11.123  27.311   1.940  1.00  0.00    +0.000 C 
ATOM     32  C27 UNL A   1      11.969  26.332   1.174  1.00  0.00    +0.000 C 
ATOM     33  N3  UNL A   1      12.337  25.120   1.506  1.00  0.00    +0.000 N 
ATOM     34  C28 UNL A   1      13.067  24.638   0.427  1.00  0.00    +0.000 C 
ATOM     35  C29 UNL A   1      13.704  23.449   0.303  1.00  0.00    +0.000 C 
ATOM     47  C36 UNL A   1      13.745  22.439   1.327  1.00  0.00    +0.000 C 
ATOM     48  C37 UNL A   1      14.426  21.233   1.324  1.00  0.00    +0.000 C 
ATOM     49  C38 UNL A   1      14.137  20.564   2.519  1.00  0.00    +0.000 C 
ATOM     50  C39 UNL A   1      13.311  21.370   3.284  1.00  0.00    +0.000 C 
ATOM     51  N4  UNL A   1      13.075  22.515   2.539  1.00  0.00    +0.000 N 
ATOM     52  C40 UNL A   1      12.774  21.116   4.595  1.00  0.00    +0.000 C 
ATOM     64  C47 UNL A   1      11.977  21.966   5.287  1.00  0.00    +0.000 C 
ATOM     65  N5  UNL A   1      11.514  23.223   4.918  1.00  0.00    +0.000 N 
ATOM     66  C48 UNL A   1      10.770  23.638   5.913  1.00  0.00    +0.000 C 
ATOM     67  C49 UNL A   1      10.036  24.942   6.069  1.00  0.00    +0.000 C 
ATOM     79  C56 UNL A   1      10.136  25.874   5.102  1.00  0.00    +0.000 C 
ATOM     80  C57 UNL A   1       9.492  27.184   5.120  1.00  0.00    +0.000 C 
ATOM     81  C58 UNL A   1       9.776  27.827   3.976  1.00  0.00    +0.000 C 
ATOM     82  C59 UNL A   1      10.647  26.984   3.156  1.00  0.00    +0.000 C 
ATOM     83  N6  UNL A   1      10.817  25.849   3.910  1.00  0.00    +0.000 N 
ATOM     84  C60 UNL A   1      10.657  22.678   7.020  1.00  0.00    +0.000 C 
ATOM     85  C61 UNL A   1      11.441  21.694   6.604  1.00  0.00    +0.000 C 
ATOM     86  C62 UNL A   1      13.055  25.670  -0.586  1.00  0.00    +0.000 C 
ATOM     87  C63 UNL A   1      12.441  26.761  -0.150  1.00  0.00    +0.000 C 
ATOM    123  H31 UNL A   1      15.042  20.888   0.571  1.00  0.00    +0.000 H 
ATOM    124  H32 UNL A   1      14.482  19.628   2.784  1.00  0.00    +0.000 H 
ATOM    125  H33 UNL A   1      12.516  23.272   2.829  1.00  0.00    +0.000 H 
ATOM    126  H34 UNL A   1       8.913  27.556   5.889  1.00  0.00    +0.000 H 
ATOM    127  H35 UNL A   1       9.433  28.765   3.716  1.00  0.00    +0.000 H 
ATOM    128  H36 UNL A   1      11.375  25.091   3.623  1.00  0.00    +0.000 H 
ENDROOT
BRANCH   31   30
ATOM    133  H41 UNL A   1       9.018  27.862   0.372  1.00  0.00    +0.000 H 
ATOM    134  H42 UNL A   1       8.415  29.964  -0.674  1.00  0.00    +0.000 H 
ATOM     29  C24 UNL A   1      11.518  29.765   1.551  1.00  0.00    +0.000 C 
ATOM     88  C64 UNL A   1       9.594  28.702   0.537  1.00  0.00    +0.000 C 
ATOM     89  C65 UNL A   1       9.224  29.919  -0.035  1.00  0.00    +0.000 C 
ATOM    122  H30 UNL A   1      12.390  29.703   2.100  1.00  0.00    +0.000 H 
ATOM     27  C22 UNL A   1       9.949  31.078   0.258  1.00  0.00    +0.000 C 
ATOM     28  C23 UNL A   1      11.113  30.996   1.028  1.00  0.00    +0.000 C 
ATOM    121  H29 UNL A   1      11.672  31.844   1.211  1.00  0.00    +0.000 H 
ATOM     30  C25 UNL A   1      10.746  28.613   1.334  1.00  0.00    +0.000 C 
BRANCH   27   25
ATOM     25  C21 UNL A   1       9.541  32.397  -0.278  1.00  0.00    +0.000 C 
ATOM     26  O2  UNL A   1       8.669  33.040   0.293  1.00  0.00    +0.000 O 
BRANCH   25   24
ATOM    120  H28 UNL A   1       9.537  33.402  -2.010  1.00  0.00    +0.000 H 
ATOM     24  N2  UNL A   1      10.136  32.904  -1.409  1.00  0.00    +0.000 N 
BRANCH   24   23
ATOM    119  H27 UNL A   1      11.531  32.873  -2.916  1.00  0.00    +0.000 H 
ATOM    118  H26 UNL A   1      11.926  31.882  -1.509  1.00  0.00    +0.000 H 
ATOM     23  C20 UNL A   1      11.520  32.811  -1.848  1.00  0.00    +0.000 C 
BRANCH   23   22
ATOM    116  H24 UNL A   1      13.251  34.032  -1.907  1.00  0.00    +0.000 H 
ATOM    117  H25 UNL A   1      11.757  34.828  -1.329  1.00  0.00    +0.000 H 
ATOM     22  C19 UNL A   1      12.374  33.953  -1.299  1.00  0.00    +0.000 C 
BRANCH   22   21
ATOM    114  H22 UNL A   1      12.586  34.695   0.677  1.00  0.00    +0.000 H 
ATOM    115  H23 UNL A   1      12.294  32.931   0.526  1.00  0.00    +0.000 H 
ATOM     21  C18 UNL A   1      12.817  33.788   0.158  1.00  0.00    +0.000 C 
BRANCH   21   20
ATOM    113  H21 UNL A   1      14.817  34.423   0.246  1.00  0.00    +0.000 H 
ATOM     20  C17 UNL A   1      14.307  33.491   0.372  1.00  0.00    +0.000 C 
ATOM    112  H20 UNL A   1      14.600  32.743  -0.336  1.00  0.00    +0.000 H 
BRANCH   20   19
ATOM     19  C16 UNL A   1      14.683  32.989   1.771  1.00  0.00    +0.000 C 
ATOM    110  H18 UNL A   1      14.257  33.654   2.492  1.00  0.00    +0.000 H 
ATOM    111  H19 UNL A   1      14.304  31.993   1.855  1.00  0.00    +0.000 H 
BRANCH   19   18
ATOM     18  C15 UNL A   1      16.190  32.912   2.019  1.00  0.00    +0.000 C 
ATOM    108  H16 UNL A   1      16.662  33.749   1.547  1.00  0.00    +0.000 H 
ATOM    109  H17 UNL A   1      16.354  32.924   3.077  1.00  0.00    +0.000 H 
BRANCH   18   17
ATOM     17  N1  UNL A   1      16.764  31.693   1.492  1.00  0.00    +0.000 N 
ATOM    107  H15 UNL A   1      16.368  30.867   1.849  1.00  0.00    +0.000 H 
BRANCH   17   15
ATOM     15  C14 UNL A   1      17.759  31.494   0.584  1.00  0.00    +0.000 C 
ATOM     16  O1  UNL A   1      18.597  32.399   0.477  1.00  0.00    +0.000 O 
BRANCH   15   13
ATOM     13  C12 UNL A   1      17.865  30.243  -0.301  1.00  0.00    +0.000 C 
ATOM    103  H11 UNL A   1      17.939  29.417   0.376  1.00  0.00    +0.000 H 
BRANCH   13   12
ATOM    101  H9  UNL A   1      13.461  31.011  -1.648  1.00  0.00    +0.000 H 
ATOM    102  H10 UNL A   1      15.506  31.666  -0.553  1.00  0.00    +0.000 H 
ATOM    135  H43 UNL A   1      17.344  28.146  -1.891  1.00  0.00    +0.000 H 
ATOM    136  H44 UNL A   1      15.351  27.573  -3.120  1.00  0.00    +0.000 H 
ATOM      9  C8  UNL A   1      14.199  29.219  -2.475  1.00  0.00    +0.000 C 
ATOM     10  C9  UNL A   1      14.289  30.398  -1.719  1.00  0.00    +0.000 C 
ATOM     11  C10 UNL A   1      15.469  30.769  -1.061  1.00  0.00    +0.000 C 
ATOM     12  C11 UNL A   1      16.595  29.944  -1.081  1.00  0.00    +0.000 C 
ATOM     90  C66 UNL A   1      16.523  28.770  -1.843  1.00  0.00    +0.000 C 
ATOM     91  C67 UNL A   1      15.358  28.427  -2.541  1.00  0.00    +0.000 C 
BRANCH    9    8
ATOM     98  H6  UNL A   1       9.653  27.712  -4.863  1.00  0.00    +0.000 H 
ATOM     99  H7  UNL A   1       9.581  29.085  -2.866  1.00  0.00    +0.000 H 
ATOM      4  C3  UNL A   1      11.759  27.619  -4.939  1.00  0.00    +0.000 C 
ATOM      5  C4  UNL A   1      10.531  28.009  -4.408  1.00  0.00    +0.000 C 
ATOM      6  C5  UNL A   1      10.490  28.798  -3.261  1.00  0.00    +0.000 C 
ATOM      7  C6  UNL A   1      11.678  29.203  -2.645  1.00  0.00    +0.000 C 
ATOM      8  C7  UNL A   1      12.936  28.820  -3.146  1.00  0.00    +0.000 C 
ATOM    137  H45 UNL A   1      13.849  27.737  -4.713  1.00  0.00    +0.000 H 
ATOM    100  H8  UNL A   1      11.632  29.797  -1.803  1.00  0.00    +0.000 H 
ATOM     92  C68 UNL A   1      12.944  28.026  -4.311  1.00  0.00    +0.000 C 
BRANCH    4    3
ATOM      3  S1  UNL A   1      11.822  26.681  -6.452  1.00  0.00    +0.000 S 
BRANCH    3    2
ATOM     97  H5  UNL A   1      12.424  28.890  -7.097  1.00  0.00    +0.000 H 
ATOM      2  C2  UNL A   1      12.197  28.003  -7.652  1.00  0.00    +0.000 C 
ATOM     96  H4  UNL A   1      11.347  28.142  -8.286  1.00  0.00    +0.000 H 
BRANCH    2    1
ATOM      1  C1  UNL A   1      13.403  27.682  -8.518  1.00  0.00    +0.000 C 
ATOM     93  H1  UNL A   1      13.927  28.586  -8.749  1.00  0.00    +0.000 H 
ATOM     94  H2  UNL A   1      13.077  27.218  -9.425  1.00  0.00    +0.000 H 
ATOM     95  H3  UNL A   1      14.054  27.016  -7.991  1.00  0.00    +0.000 H 
ENDBRANCH    2    1
ENDBRANCH    3    2
ENDBRANCH    4    3
ENDBRANCH    9    8
ENDBRANCH   13   12
BRANCH   13   14
ATOM    105  H13 UNL A   1      19.005  30.386  -2.106  1.00  0.00    +0.000 H 
ATOM    106  H14 UNL A   1      19.542  29.126  -1.021  1.00  0.00    +0.000 H 
ATOM     14  C13 UNL A   1      19.177  30.130  -1.081  1.00  0.00    +0.000 C 
ATOM    104  H12 UNL A   1      19.899  30.798  -0.663  1.00  0.00    +0.000 H 
ENDBRANCH   13   14
ENDBRANCH   15   13
ENDBRANCH   17   15
ENDBRANCH   18   17
ENDBRANCH   19   18
ENDBRANCH   20   19
ENDBRANCH   21   20
ENDBRANCH   22   21
ENDBRANCH   23   22
ENDBRANCH   24   23
ENDBRANCH   25   24
ENDBRANCH   27   25
ENDBRANCH   31   30
BRANCH   35   36
ATOM     36  C30 UNL A   1      14.419  23.174  -0.988  1.00  0.00    +0.000 C 
ATOM     37  C31 UNL A   1      13.761  22.594  -2.082  1.00  0.00    +0.000 C 
ATOM     38  F1  UNL A   1      12.478  22.219  -1.977  1.00  0.00    +0.000 F 
ATOM     39  C32 UNL A   1      14.430  22.366  -3.282  1.00  0.00    +0.000 C 
ATOM     40  F2  UNL A   1      13.793  21.773  -4.301  1.00  0.00    +0.000 F 
ATOM     41  C33 UNL A   1      15.758  22.742  -3.421  1.00  0.00    +0.000 C 
ATOM     42  F3  UNL A   1      16.399  22.530  -4.578  1.00  0.00    +0.000 F 
ATOM     43  C34 UNL A   1      16.424  23.334  -2.357  1.00  0.00    +0.000 C 
ATOM     44  F4  UNL A   1      17.703  23.708  -2.493  1.00  0.00    +0.000 F 
ATOM     45  C35 UNL A   1      15.765  23.538  -1.147  1.00  0.00    +0.000 C 
ATOM     46  F5  UNL A   1      16.438  24.102  -0.134  1.00  0.00    +0.000 F 
ENDBRANCH   35   36
BRANCH   52   53
ATOM     53  C41 UNL A   1      13.135  19.822   5.261  1.00  0.00    +0.000 C 
ATOM     54  C42 UNL A   1      14.257  19.715   6.095  1.00  0.00    +0.000 C 
ATOM     55  F6  UNL A   1      15.069  20.768   6.273  1.00  0.00    +0.000 F 
ATOM     56  C43 UNL A   1      14.571  18.510   6.719  1.00  0.00    +0.000 C 
ATOM     57  F7  UNL A   1      15.673  18.417   7.477  1.00  0.00    +0.000 F 
ATOM     58  C44 UNL A   1      13.753  17.402   6.547  1.00  0.00    +0.000 C 
ATOM     59  F8  UNL A   1      14.055  16.247   7.154  1.00  0.00    +0.000 F 
ATOM     60  C45 UNL A   1      12.630  17.492   5.741  1.00  0.00    +0.000 C 
ATOM     61  F9  UNL A   1      11.832  16.426   5.583  1.00  0.00    +0.000 F 
ATOM     62  C46 UNL A   1      12.327  18.687   5.094  1.00  0.00    +0.000 C 
ATOM     63  F10 UNL A   1      11.240  18.741   4.312  1.00  0.00    +0.000 F 
ENDBRANCH   52   53
BRANCH   67   68
ATOM     68  C50 UNL A   1       9.229  25.220   7.283  1.00  0.00    +0.000 C 
ATOM     69  C51 UNL A   1       7.836  25.062   7.271  1.00  0.00    +0.000 C 
ATOM     70  F11 UNL A   1       7.217  24.676   6.146  1.00  0.00    +0.000 F 
ATOM     71  C52 UNL A   1       7.071  25.337   8.402  1.00  0.00    +0.000 C 
ATOM     72  F12 UNL A   1       5.737  25.217   8.351  1.00  0.00    +0.000 F 
ATOM     73  C53 UNL A   1       7.686  25.748   9.575  1.00  0.00    +0.000 C 
ATOM     74  F13 UNL A   1       6.950  26.009  10.663  1.00  0.00    +0.000 F 
ATOM     75  C54 UNL A   1       9.065  25.896   9.615  1.00  0.00    +0.000 C 
ATOM     76  F14 UNL A   1       9.664  26.281  10.750  1.00  0.00    +0.000 F 
ATOM     77  C55 UNL A   1       9.828  25.645   8.477  1.00  0.00    +0.000 C 
ATOM     78  F15 UNL A   1      11.158  25.806   8.541  1.00  0.00    +0.000 F 
ENDBRANCH   67   68
TORSDOF 21
ENDMDL
MODEL 2
REMARK VINA RESULT:      -8.8     55.229     61.385
ROOT
ATOM    129  H37 UNL A   1      48.482   6.580  53.704  1.00  0.00    +0.000 H 
ATOM    130  H38 UNL A   1      50.462   8.013  54.460  1.00  0.00    +0.000 H 
ATOM    131  H39 UNL A   1      48.961  14.295  46.763  1.00  0.00    +0.000 H 
ATOM    132  H40 UNL A   1      46.725  13.151  46.266  1.00  0.00    +0.000 H 
ATOM     31  C26 UNL A   1      46.229  10.855  47.882  1.00  0.00    +0.000 C 
ATOM     32  C27 UNL A   1      47.375  11.823  47.986  1.00  0.00    +0.000 C 
ATOM     33  N3  UNL A   1      48.380  11.828  48.825  1.00  0.00    +0.000 N 
ATOM     34  C28 UNL A   1      49.175  12.906  48.458  1.00  0.00    +0.000 C 
ATOM     35  C29 UNL A   1      50.304  13.363  49.050  1.00  0.00    +0.000 C 
ATOM     47  C36 UNL A   1      50.894  12.786  50.229  1.00  0.00    +0.000 C 
ATOM     48  C37 UNL A   1      51.995  13.222  50.946  1.00  0.00    +0.000 C 
ATOM     49  C38 UNL A   1      52.221  12.322  51.993  1.00  0.00    +0.000 C 
ATOM     50  C39 UNL A   1      51.236  11.348  51.954  1.00  0.00    +0.000 C 
ATOM     51  N4  UNL A   1      50.430  11.643  50.865  1.00  0.00    +0.000 N 
ATOM     52  C40 UNL A   1      51.042  10.232  52.842  1.00  0.00    +0.000 C 
ATOM     64  C47 UNL A   1      50.040   9.325  52.744  1.00  0.00    +0.000 C 
ATOM     65  N5  UNL A   1      49.011   9.261  51.813  1.00  0.00    +0.000 N 
ATOM     66  C48 UNL A   1      48.308   8.200  52.128  1.00  0.00    +0.000 C 
ATOM     67  C49 UNL A   1      47.065   7.659  51.478  1.00  0.00    +0.000 C 
ATOM     79  C56 UNL A   1      46.522   8.322  50.439  1.00  0.00    +0.000 C 
ATOM     80  C57 UNL A   1      45.316   7.925  49.719  1.00  0.00    +0.000 C 
ATOM     81  C58 UNL A   1      45.098   8.794  48.718  1.00  0.00    +0.000 C 
ATOM     82  C59 UNL A   1      46.134   9.827  48.746  1.00  0.00    +0.000 C 
ATOM     83  N6  UNL A   1      46.929   9.472  49.807  1.00  0.00    +0.000 N 
ATOM     84  C60 UNL A   1      48.829   7.455  53.283  1.00  0.00    +0.000 C 
ATOM     85  C61 UNL A   1      49.861   8.204  53.643  1.00  0.00    +0.000 C 
ATOM     86  C62 UNL A   1      48.560  13.507  47.294  1.00  0.00    +0.000 C 
ATOM     87  C63 UNL A   1      47.412  12.912  46.999  1.00  0.00    +0.000 C 
ATOM    123  H31 UNL A   1      52.553  14.066  50.743  1.00  0.00    +0.000 H 
ATOM    124  H32 UNL A   1      52.991  12.375  52.678  1.00  0.00    +0.000 H 
ATOM    125  H33 UNL A   1      49.645  11.119  50.585  1.00  0.00    +0.000 H 
ATOM    126  H34 UNL A   1      44.726   7.109  49.943  1.00  0.00    +0.000 H 
ATOM    127  H35 UNL A   1      44.324   8.741  48.037  1.00  0.00    +0.000 H 
ATOM    128  H36 UNL A   1      47.716   9.993  50.090  1.00  0.00    +0.000 H 
ENDROOT
BRANCH   31   30
ATOM    133  H41 UNL A   1      44.006  12.353  47.825  1.00  0.00    +0.000 H 
ATOM    134  H42 UNL A   1      42.342  12.533  46.072  1.00  0.00    +0.000 H 
ATOM     29  C24 UNL A   1      45.390  10.276  45.582  1.00  0.00    +0.000 C 
ATOM     88  C64 UNL A   1      44.127  11.829  46.945  1.00  0.00    +0.000 C 
ATOM     89  C65 UNL A   1      43.189  11.963  45.923  1.00  0.00    +0.000 C 
ATOM    122  H30 UNL A   1      46.177   9.620  45.469  1.00  0.00    +0.000 H 
ATOM     27  C22 UNL A   1      43.396  11.325  44.697  1.00  0.00    +0.000 C 
ATOM     28  C23 UNL A   1      44.482  10.459  44.536  1.00  0.00    +0.000 C 
ATOM    121  H29 UNL A   1      44.613   9.955  43.644  1.00  0.00    +0.000 H 
ATOM     30  C25 UNL A   1      45.236  10.982  46.786  1.00  0.00    +0.000 C 
BRANCH   27   25
ATOM     25  C21 UNL A   1      42.453  11.503  43.568  1.00  0.00    +0.000 C 
ATOM     26  O2  UNL A   1      41.596  10.655  43.355  1.00  0.00    +0.000 O 
BRANCH   25   24
ATOM    120  H28 UNL A   1      43.117  12.520  41.975  1.00  0.00    +0.000 H 
ATOM     24  N2  UNL A   1      42.533  12.613  42.762  1.00  0.00    +0.000 N 
BRANCH   24   23
ATOM    119  H27 UNL A   1      41.784  14.116  43.946  1.00  0.00    +0.000 H 
ATOM    118  H26 UNL A   1      40.926  13.864  42.423  1.00  0.00    +0.000 H 
ATOM     23  C20 UNL A   1      41.881  13.907  42.901  1.00  0.00    +0.000 C 
BRANCH   23   22
ATOM    116  H24 UNL A   1      43.384  14.595  41.573  1.00  0.00    +0.000 H 
ATOM    117  H25 UNL A   1      41.993  15.694  41.812  1.00  0.00    +0.000 H 
ATOM     22  C19 UNL A   1      42.699  15.032  42.270  1.00  0.00    +0.000 C 
BRANCH   22   21
ATOM    114  H22 UNL A   1      44.352  16.277  42.739  1.00  0.00    +0.000 H 
ATOM    115  H23 UNL A   1      42.829  16.627  43.621  1.00  0.00    +0.000 H 
ATOM     21  C18 UNL A   1      43.505  15.881  43.260  1.00  0.00    +0.000 C 
BRANCH   21   20
ATOM    113  H21 UNL A   1      43.293  14.390  44.723  1.00  0.00    +0.000 H 
ATOM     20  C17 UNL A   1      44.019  15.145  44.504  1.00  0.00    +0.000 C 
ATOM    112  H20 UNL A   1      44.140  15.864  45.287  1.00  0.00    +0.000 H 
BRANCH   20   19
ATOM     19  C16 UNL A   1      45.353  14.409  44.328  1.00  0.00    +0.000 C 
ATOM    110  H18 UNL A   1      45.491  13.757  45.164  1.00  0.00    +0.000 H 
ATOM    111  H19 UNL A   1      45.295  13.882  43.399  1.00  0.00    +0.000 H 
BRANCH   19   18
ATOM     18  C15 UNL A   1      46.566  15.336  44.235  1.00  0.00    +0.000 C 
ATOM    108  H16 UNL A   1      47.434  14.748  44.019  1.00  0.00    +0.000 H 
ATOM    109  H17 UNL A   1      46.381  16.050  43.460  1.00  0.00    +0.000 H 
BRANCH   18   17
ATOM     17  N1  UNL A   1      46.788  16.062  45.467  1.00  0.00    +0.000 N 
ATOM    107  H15 UNL A   1      47.442  15.646  46.074  1.00  0.00    +0.000 H 
BRANCH   17   15
ATOM     15  C14 UNL A   1      46.248  17.223  45.930  1.00  0.00    +0.000 C 
ATOM     16  O1  UNL A   1      45.854  18.026  45.076  1.00  0.00    +0.000 O 
BRANCH   15   13
ATOM     13  C12 UNL A   1      46.135  17.573  47.422  1.00  0.00    +0.000 C 
ATOM    103  H11 UNL A   1      45.417  18.365  47.477  1.00  0.00    +0.000 H 
BRANCH   13   12
ATOM    101  H9  UNL A   1      46.176  14.055  50.492  1.00  0.00    +0.000 H 
ATOM    102  H10 UNL A   1      47.206  15.921  49.366  1.00  0.00    +0.000 H 
ATOM    135  H43 UNL A   1      43.585  16.742  47.424  1.00  0.00    +0.000 H 
ATOM    136  H44 UNL A   1      42.516  14.979  48.674  1.00  0.00    +0.000 H 
ATOM      9  C8  UNL A   1      44.250  14.322  49.678  1.00  0.00    +0.000 C 
ATOM     10  C9  UNL A   1      45.609  14.631  49.850  1.00  0.00    +0.000 C 
ATOM     11  C10 UNL A   1      46.217  15.700  49.177  1.00  0.00    +0.000 C 
ATOM     12  C11 UNL A   1      45.504  16.471  48.256  1.00  0.00    +0.000 C 
ATOM     90  C66 UNL A   1      44.143  16.181  48.086  1.00  0.00    +0.000 C 
ATOM     91  C67 UNL A   1      43.527  15.144  48.798  1.00  0.00    +0.000 C 
BRANCH    9    8
ATOM     98  H6  UNL A   1      41.956  10.148  52.118  1.00  0.00    +0.000 H 
ATOM     99  H7  UNL A   1      44.321  10.099  51.591  1.00  0.00    +0.000 H 
ATOM      4  C3  UNL A   1      41.638  12.079  51.330  1.00  0.00    +0.000 C 
ATOM      5  C4  UNL A   1      42.399  10.957  51.655  1.00  0.00    +0.000 C 
ATOM      6  C5  UNL A   1      43.758  10.930  51.352  1.00  0.00    +0.000 C 
ATOM      7  C6  UNL A   1      44.360  12.026  50.727  1.00  0.00    +0.000 C 
ATOM      8  C7  UNL A   1      43.622  13.171  50.374  1.00  0.00    +0.000 C 
ATOM    137  H45 UNL A   1      41.681  13.998  50.466  1.00  0.00    +0.000 H 
ATOM    100  H8  UNL A   1      45.370  11.995  50.520  1.00  0.00    +0.000 H 
ATOM     92  C68 UNL A   1      42.251  13.170  50.699  1.00  0.00    +0.000 C 
BRANCH    4    3
ATOM      3  S1  UNL A   1      39.918  12.157  51.789  1.00  0.00    +0.000 S 
BRANCH    3    2
ATOM     97  H5  UNL A   1      39.634  14.408  52.504  1.00  0.00    +0.000 H 
ATOM      2  C2  UNL A   1      39.956  13.518  53.004  1.00  0.00    +0.000 C 
ATOM     96  H4  UNL A   1      40.954  13.615  53.379  1.00  0.00    +0.000 H 
BRANCH    2    1
ATOM      1  C1  UNL A   1      39.018  13.282  54.175  1.00  0.00    +0.000 C 
ATOM     93  H1  UNL A   1      39.170  14.043  54.912  1.00  0.00    +0.000 H 
ATOM     94  H2  UNL A   1      39.219  12.324  54.606  1.00  0.00    +0.000 H 
ATOM     95  H3  UNL A   1      38.005  13.314  53.833  1.00  0.00    +0.000 H 
ENDBRANCH    2    1
ENDBRANCH    3    2
ENDBRANCH    4    3
ENDBRANCH    9    8
ENDBRANCH   13   12
BRANCH   13   14
ATOM    105  H13 UNL A   1      47.994  18.611  47.219  1.00  0.00    +0.000 H 
ATOM    106  H14 UNL A   1      47.934  17.514  48.577  1.00  0.00    +0.000 H 
ATOM     14  C13 UNL A   1      47.382  18.235  48.012  1.00  0.00    +0.000 C 
ATOM    104  H12 UNL A   1      47.090  19.042  48.650  1.00  0.00    +0.000 H 
ENDBRANCH   13   14
ENDBRANCH   15   13
ENDBRANCH   17   15
ENDBRANCH   18   17
ENDBRANCH   19   18
ENDBRANCH   20   19
ENDBRANCH   21   20
ENDBRANCH   22   21
ENDBRANCH   23   22
ENDBRANCH   24   23
ENDBRANCH   25   24
ENDBRANCH   27   25
ENDBRANCH   31   30
BRANCH   35   36
ATOM     36  C30 UNL A   1      50.978  14.555  48.436  1.00  0.00    +0.000 C 
ATOM     37  C31 UNL A   1      52.038  14.413  47.529  1.00  0.00    +0.000 C 
ATOM     38  F1  UNL A   1      52.513  13.194  47.231  1.00  0.00    +0.000 F 
ATOM     39  C32 UNL A   1      52.640  15.527  46.948  1.00  0.00    +0.000 C 
ATOM     40  F2  UNL A   1      53.679  15.368  46.116  1.00  0.00    +0.000 F 
ATOM     41  C33 UNL A   1      52.172  16.799  47.237  1.00  0.00    +0.000 C 
ATOM     42  F3  UNL A   1      52.746  17.871  46.672  1.00  0.00    +0.000 F 
ATOM     43  C34 UNL A   1      51.113  16.964  48.118  1.00  0.00    +0.000 C 
ATOM     44  F4  UNL A   1      50.653  18.192  48.390  1.00  0.00    +0.000 F 
ATOM     45  C35 UNL A   1      50.527  15.853  48.721  1.00  0.00    +0.000 C 
ATOM     46  F5  UNL A   1      49.513  16.044  49.577  1.00  0.00    +0.000 F 
ENDBRANCH   35   36
BRANCH   52   53
ATOM     53  C41 UNL A   1      52.008  10.064  53.977  1.00  0.00    +0.000 C 
ATOM     54  C42 UNL A   1      51.742  10.589  55.249  1.00  0.00    +0.000 C 
ATOM     55  F6  UNL A   1      50.628  11.304  55.466  1.00  0.00    +0.000 F 
ATOM     56  C43 UNL A   1      52.641  10.411  56.298  1.00  0.00    +0.000 C 
ATOM     57  F7  UNL A   1      52.389  10.958  57.495  1.00  0.00    +0.000 F 
ATOM     58  C44 UNL A   1      53.805   9.681  56.102  1.00  0.00    +0.000 C 
ATOM     59  F8  UNL A   1      54.665   9.507  57.113  1.00  0.00    +0.000 F 
ATOM     60  C45 UNL A   1      54.078   9.139  54.856  1.00  0.00    +0.000 C 
ATOM     61  F9  UNL A   1      55.196   8.424  54.667  1.00  0.00    +0.000 F 
ATOM     62  C46 UNL A   1      53.194   9.337  53.798  1.00  0.00    +0.000 C 
ATOM     63  F10 UNL A   1      53.491   8.810  52.601  1.00  0.00    +0.000 F 
ENDBRANCH   52   53
BRANCH   67   68
ATOM     68  C50 UNL A   1      46.417   6.422  51.984  1.00  0.00    +0.000 C 
ATOM     69  C51 UNL A   1      45.226   6.485  52.720  1.00  0.00    +0.000 C 
ATOM     70  F11 UNL A   1      44.671   7.674  52.993  1.00  0.00    +0.000 F 
ATOM     71  C52 UNL A   1      44.623   5.329  53.211  1.00  0.00    +0.000 C 
ATOM     72  F12 UNL A   1      43.506   5.421  53.947  1.00  0.00    +0.000 F 
ATOM     73  C53 UNL A   1      45.182   4.088  52.951  1.00  0.00    +0.000 C 
ATOM     74  F13 UNL A   1      44.599   2.977  53.419  1.00  0.00    +0.000 F 
ATOM     75  C54 UNL A   1      46.352   4.000  52.211  1.00  0.00    +0.000 C 
ATOM     76  F14 UNL A   1      46.889   2.802  51.947  1.00  0.00    +0.000 F 
ATOM     77  C55 UNL A   1      46.970   5.157  51.741  1.00  0.00    +0.000 C 
ATOM     78  F15 UNL A   1      48.106   5.044  51.036  1.00  0.00    +0.000 F 
ENDBRANCH   67   68
TORSDOF 21
ENDMDL
MODEL 3
REMARK VINA RESULT:      -8.7     21.832     28.759
ROOT
ATOM    129  H37 UNL A   1      17.642  50.730  -2.264  1.00  0.00    +0.000 H 
ATOM    130  H38 UNL A   1      18.068  53.252  -2.181  1.00  0.00    +0.000 H 
ATOM    131  H39 UNL A   1      13.822  53.756   6.911  1.00  0.00    +0.000 H 
ATOM    132  H40 UNL A   1      13.806  51.199   7.044  1.00  0.00    +0.000 H 
ATOM     31  C26 UNL A   1      14.671  49.921   4.647  1.00  0.00    +0.000 C 
ATOM     32  C27 UNL A   1      14.668  51.393   4.956  1.00  0.00    +0.000 C 
ATOM     33  N3  UNL A   1      15.055  52.396   4.208  1.00  0.00    +0.000 N 
ATOM     34  C28 UNL A   1      14.796  53.542   4.948  1.00  0.00    +0.000 C 
ATOM     35  C29 UNL A   1      15.067  54.831   4.631  1.00  0.00    +0.000 C 
ATOM     47  C36 UNL A   1      15.713  55.250   3.415  1.00  0.00    +0.000 C 
ATOM     48  C37 UNL A   1      16.096  56.525   3.037  1.00  0.00    +0.000 C 
ATOM     49  C38 UNL A   1      16.652  56.453   1.754  1.00  0.00    +0.000 C 
ATOM     50  C39 UNL A   1      16.654  55.127   1.352  1.00  0.00    +0.000 C 
ATOM     51  N4  UNL A   1      16.071  54.401   2.379  1.00  0.00    +0.000 N 
ATOM     52  C40 UNL A   1      17.147  54.563   0.123  1.00  0.00    +0.000 C 
ATOM     64  C47 UNL A   1      17.124  53.246  -0.193  1.00  0.00    +0.000 C 
ATOM     65  N5  UNL A   1      16.646  52.178   0.556  1.00  0.00    +0.000 N 
ATOM     66  C48 UNL A   1      16.832  51.111  -0.182  1.00  0.00    +0.000 C 
ATOM     67  C49 UNL A   1      16.524  49.674   0.136  1.00  0.00    +0.000 C 
ATOM     79  C56 UNL A   1      16.012  49.360   1.341  1.00  0.00    +0.000 C 
ATOM     80  C57 UNL A   1      15.675  48.014   1.793  1.00  0.00    +0.000 C 
ATOM     81  C58 UNL A   1      15.147  48.085   3.026  1.00  0.00    +0.000 C 
ATOM     82  C59 UNL A   1      15.137  49.482   3.463  1.00  0.00    +0.000 C 
ATOM     83  N6  UNL A   1      15.679  50.165   2.404  1.00  0.00    +0.000 N 
ATOM     84  C60 UNL A   1      17.428  51.385  -1.496  1.00  0.00    +0.000 C 
ATOM     85  C61 UNL A   1      17.621  52.695  -1.437  1.00  0.00    +0.000 C 
ATOM     86  C62 UNL A   1      14.179  53.115   6.185  1.00  0.00    +0.000 C 
ATOM     87  C63 UNL A   1      14.133  51.793   6.266  1.00  0.00    +0.000 C 
ATOM    123  H31 UNL A   1      15.991  57.382   3.602  1.00  0.00    +0.000 H 
ATOM    124  H32 UNL A   1      17.002  57.252   1.203  1.00  0.00    +0.000 H 
ATOM    125  H33 UNL A   1      15.934  53.425   2.374  1.00  0.00    +0.000 H 
ATOM    126  H34 UNL A   1      15.820  47.147   1.253  1.00  0.00    +0.000 H 
ATOM    127  H35 UNL A   1      14.803  47.283   3.577  1.00  0.00    +0.000 H 
ATOM    128  H36 UNL A   1      15.817  51.140   2.405  1.00  0.00    +0.000 H 
ENDROOT
BRANCH   31   30
ATOM    133  H41 UNL A   1      12.127  49.098   4.853  1.00  0.00    +0.000 H 
ATOM    134  H42 UNL A   1      11.155  47.560   6.454  1.00  0.00    +0.000 H 
ATOM     29  C24 UNL A   1      14.900  48.322   6.576  1.00  0.00    +0.000 C 
ATOM     88  C64 UNL A   1      12.727  48.644   5.558  1.00  0.00    +0.000 C 
ATOM     89  C65 UNL A   1      12.173  47.730   6.455  1.00  0.00    +0.000 C 
ATOM    122  H30 UNL A   1      15.898  48.571   6.652  1.00  0.00    +0.000 H 
ATOM     27  C22 UNL A   1      12.996  47.045   7.352  1.00  0.00    +0.000 C 
ATOM     28  C23 UNL A   1      14.355  47.362   7.432  1.00  0.00    +0.000 C 
ATOM    121  H29 UNL A   1      14.957  46.886   8.124  1.00  0.00    +0.000 H 
ATOM     30  C25 UNL A   1      14.095  48.950   5.612  1.00  0.00    +0.000 C 
BRANCH   27   25
ATOM     25  C21 UNL A   1      12.448  46.019   8.269  1.00  0.00    +0.000 C 
ATOM     26  O2  UNL A   1      11.684  45.166   7.837  1.00  0.00    +0.000 O 
BRANCH   25   24
ATOM    120  H28 UNL A   1      13.622  45.528   9.816  1.00  0.00    +0.000 H 
ATOM     24  N2  UNL A   1      12.796  46.016   9.599  1.00  0.00    +0.000 N 
BRANCH   24   23
ATOM    119  H27 UNL A   1      11.944  45.865  11.463  1.00  0.00    +0.000 H 
ATOM    118  H26 UNL A   1      11.203  47.061  10.395  1.00  0.00    +0.000 H 
ATOM     23  C20 UNL A   1      12.121  46.628  10.733  1.00  0.00    +0.000 C 
BRANCH   23   22
ATOM    116  H24 UNL A   1      12.495  48.002  12.303  1.00  0.00    +0.000 H 
ATOM    117  H25 UNL A   1      13.942  47.295  11.526  1.00  0.00    +0.000 H 
ATOM     22  C19 UNL A   1      12.969  47.717  11.387  1.00  0.00    +0.000 C 
BRANCH   22   21
ATOM    114  H22 UNL A   1      12.804  48.775   9.555  1.00  0.00    +0.000 H 
ATOM    115  H23 UNL A   1      12.631  49.756  11.048  1.00  0.00    +0.000 H 
ATOM     21  C18 UNL A   1      13.166  48.980  10.541  1.00  0.00    +0.000 C 
BRANCH   21   20
ATOM    113  H21 UNL A   1      15.113  48.785   9.780  1.00  0.00    +0.000 H 
ATOM     20  C17 UNL A   1      14.611  49.482  10.419  1.00  0.00    +0.000 C 
ATOM    112  H20 UNL A   1      15.026  49.537  11.404  1.00  0.00    +0.000 H 
BRANCH   20   19
ATOM     19  C16 UNL A   1      14.775  50.856   9.758  1.00  0.00    +0.000 C 
ATOM    110  H18 UNL A   1      15.387  50.740   8.889  1.00  0.00    +0.000 H 
ATOM    111  H19 UNL A   1      13.792  51.207   9.526  1.00  0.00    +0.000 H 
BRANCH   19   18
ATOM     18  C15 UNL A   1      15.419  51.907  10.663  1.00  0.00    +0.000 C 
ATOM    108  H16 UNL A   1      15.657  51.455  11.604  1.00  0.00    +0.000 H 
ATOM    109  H17 UNL A   1      16.299  52.271  10.176  1.00  0.00    +0.000 H 
BRANCH   18   17
ATOM     17  N1  UNL A   1      14.540  53.033  10.896  1.00  0.00    +0.000 N 
ATOM    107  H15 UNL A   1      14.400  53.253  11.845  1.00  0.00    +0.000 H 
BRANCH   17   15
ATOM     15  C14 UNL A   1      13.874  53.841  10.026  1.00  0.00    +0.000 C 
ATOM     16  O1  UNL A   1      14.569  54.488   9.233  1.00  0.00    +0.000 O 
BRANCH   15   13
ATOM     13  C12 UNL A   1      12.345  53.996  10.008  1.00  0.00    +0.000 C 
ATOM    103  H11 UNL A   1      12.162  54.993   9.666  1.00  0.00    +0.000 H 
BRANCH   13   12
ATOM    101  H9  UNL A   1      10.912  49.965   8.136  1.00  0.00    +0.000 H 
ATOM    102  H10 UNL A   1      11.817  51.280   9.942  1.00  0.00    +0.000 H 
ATOM    135  H43 UNL A   1      11.252  54.764   7.682  1.00  0.00    +0.000 H 
ATOM    136  H44 UNL A   1      10.197  53.465   5.946  1.00  0.00    +0.000 H 
ATOM      9  C8  UNL A   1      10.484  51.584   6.856  1.00  0.00    +0.000 C 
ATOM     10  C9  UNL A   1      10.966  50.991   8.034  1.00  0.00    +0.000 C 
ATOM     11  C10 UNL A   1      11.516  51.751   9.075  1.00  0.00    +0.000 C 
ATOM     12  C11 UNL A   1      11.663  53.135   8.958  1.00  0.00    +0.000 C 
ATOM     90  C66 UNL A   1      11.173  53.741   7.793  1.00  0.00    +0.000 C 
ATOM     91  C67 UNL A   1      10.577  52.983   6.775  1.00  0.00    +0.000 C 
BRANCH    9    8
ATOM     98  H6  UNL A   1       8.545  48.605   2.856  1.00  0.00    +0.000 H 
ATOM     99  H7  UNL A   1       7.879  48.153   5.142  1.00  0.00    +0.000 H 
ATOM      4  C3  UNL A   1       9.796  50.229   3.353  1.00  0.00    +0.000 C 
ATOM      5  C4  UNL A   1       8.913  49.185   3.626  1.00  0.00    +0.000 C 
ATOM      6  C5  UNL A   1       8.530  48.927   4.939  1.00  0.00    +0.000 C 
ATOM      7  C6  UNL A   1       9.027  49.714   5.983  1.00  0.00    +0.000 C 
ATOM      8  C7  UNL A   1       9.928  50.769   5.747  1.00  0.00    +0.000 C 
ATOM    137  H45 UNL A   1      10.940  51.782   4.196  1.00  0.00    +0.000 H 
ATOM    100  H8  UNL A   1       8.725  49.517   6.949  1.00  0.00    +0.000 H 
ATOM     92  C68 UNL A   1      10.291  51.009   4.407  1.00  0.00    +0.000 C 
BRANCH    4    3
ATOM      3  S1  UNL A   1      10.224  50.621   1.668  1.00  0.00    +0.000 S 
BRANCH    3    2
ATOM     97  H5  UNL A   1      11.558  48.679   1.348  1.00  0.00    +0.000 H 
ATOM      2  C2  UNL A   1      11.796  49.711   1.500  1.00  0.00    +0.000 C 
ATOM     96  H4  UNL A   1      12.373  49.856   2.390  1.00  0.00    +0.000 H 
BRANCH    2    1
ATOM      1  C1  UNL A   1      12.615  50.175   0.309  1.00  0.00    +0.000 C 
ATOM     93  H1  UNL A   1      13.652  49.980   0.491  1.00  0.00    +0.000 H 
ATOM     94  H2  UNL A   1      12.471  51.225   0.163  1.00  0.00    +0.000 H 
ATOM     95  H3  UNL A   1      12.303  49.646  -0.567  1.00  0.00    +0.000 H 
ENDBRANCH    2    1
ENDBRANCH    3    2
ENDBRANCH    4    3
ENDBRANCH    9    8
ENDBRANCH   13   12
BRANCH   13   14
ATOM    105  H13 UNL A   1      12.409  54.346  12.117  1.00  0.00    +0.000 H 
ATOM    106  H14 UNL A   1      11.368  53.025  11.645  1.00  0.00    +0.000 H 
ATOM     14  C13 UNL A   1      11.695  54.011  11.393  1.00  0.00    +0.000 C 
ATOM    104  H12 UNL A   1      10.856  54.675  11.386  1.00  0.00    +0.000 H 
ENDBRANCH   13   14
ENDBRANCH   15   13
ENDBRANCH   17   15
ENDBRANCH   18   17
ENDBRANCH   19   18
ENDBRANCH   20   19
ENDBRANCH   21   20
ENDBRANCH   22   21
ENDBRANCH   23   22
ENDBRANCH   24   23
ENDBRANCH   25   24
ENDBRANCH   27   25
ENDBRANCH   31   30
BRANCH   35   36
ATOM     36  C30 UNL A   1      14.668  55.889   5.619  1.00  0.00    +0.000 C 
ATOM     37  C31 UNL A   1      15.626  56.632   6.324  1.00  0.00    +0.000 C 
ATOM     38  F1  UNL A   1      16.932  56.371   6.169  1.00  0.00    +0.000 F 
ATOM     39  C32 UNL A   1      15.242  57.627   7.221  1.00  0.00    +0.000 C 
ATOM     40  F2  UNL A   1      16.173  58.296   7.915  1.00  0.00    +0.000 F 
ATOM     41  C33 UNL A   1      13.899  57.919   7.404  1.00  0.00    +0.000 C 
ATOM     42  F3  UNL A   1      13.531  58.881   8.260  1.00  0.00    +0.000 F 
ATOM     43  C34 UNL A   1      12.935  57.208   6.703  1.00  0.00    +0.000 C 
ATOM     44  F4  UNL A   1      11.638  57.496   6.871  1.00  0.00    +0.000 F 
ATOM     45  C35 UNL A   1      13.315  56.194   5.826  1.00  0.00    +0.000 C 
ATOM     46  F5  UNL A   1      12.360  55.517   5.172  1.00  0.00    +0.000 F 
ENDBRANCH   35   36
BRANCH   52   53
ATOM     53  C41 UNL A   1      17.754  55.497  -0.882  1.00  0.00    +0.000 C 
ATOM     54  C42 UNL A   1      19.123  55.799  -0.870  1.00  0.00    +0.000 C 
ATOM     55  F6  UNL A   1      19.918  55.291   0.084  1.00  0.00    +0.000 F 
ATOM     56  C43 UNL A   1      19.674  56.655  -1.820  1.00  0.00    +0.000 C 
ATOM     57  F7  UNL A   1      20.977  56.965  -1.764  1.00  0.00    +0.000 F 
ATOM     58  C44 UNL A   1      18.875  57.200  -2.815  1.00  0.00    +0.000 C 
ATOM     59  F8  UNL A   1      19.409  58.019  -3.730  1.00  0.00    +0.000 F 
ATOM     60  C45 UNL A   1      17.522  56.901  -2.854  1.00  0.00    +0.000 C 
ATOM     61  F9  UNL A   1      16.750  57.418  -3.821  1.00  0.00    +0.000 F 
ATOM     62  C46 UNL A   1      16.962  56.066  -1.891  1.00  0.00    +0.000 C 
ATOM     63  F10 UNL A   1      15.648  55.804  -1.948  1.00  0.00    +0.000 F 
ENDBRANCH   52   53
BRANCH   67   68
ATOM     68  C50 UNL A   1      16.803  48.599  -0.850  1.00  0.00    +0.000 C 
ATOM     69  C51 UNL A   1      15.904  48.330  -1.891  1.00  0.00    +0.000 C 
ATOM     70  F11 UNL A   1      14.767  49.033  -1.991  1.00  0.00    +0.000 F 
ATOM     71  C52 UNL A   1      16.152  47.313  -2.810  1.00  0.00    +0.000 C 
ATOM     72  F12 UNL A   1      15.256  47.049  -3.772  1.00  0.00    +0.000 F 
ATOM     73  C53 UNL A   1      17.316  46.564  -2.723  1.00  0.00    +0.000 C 
ATOM     74  F13 UNL A   1      17.556  45.589  -3.609  1.00  0.00    +0.000 F 
ATOM     75  C54 UNL A   1      18.228  46.824  -1.710  1.00  0.00    +0.000 C 
ATOM     76  F14 UNL A   1      19.360  46.112  -1.630  1.00  0.00    +0.000 F 
ATOM     77  C55 UNL A   1      17.969  47.824  -0.776  1.00  0.00    +0.000 C 
ATOM     78  F15 UNL A   1      18.863  48.048   0.199  1.00  0.00    +0.000 F 
ENDBRANCH   67   68
TORSDOF 21
ENDMDL
MODEL 4
REMARK VINA RESULT:      -8.7     21.795     28.355
ROOT
ATOM    129  H37 UNL A   1      18.616  53.565  -1.113  1.00  0.00    +0.000 H 
ATOM    130  H38 UNL A   1      18.167  51.123  -1.732  1.00  0.00    +0.000 H 
ATOM    131  H39 UNL A   1      12.058  50.151   6.186  1.00  0.00    +0.000 H 
ATOM    132  H40 UNL A   1      12.129  52.684   6.550  1.00  0.00    +0.000 H 
ATOM     31  C26 UNL A   1      13.938  54.042   4.815  1.00  0.00    +0.000 C 
ATOM     32  C27 UNL A   1      13.563  52.586   4.796  1.00  0.00    +0.000 C 
ATOM     33  N3  UNL A   1      13.973  51.636   3.994  1.00  0.00    +0.000 N 
ATOM     34  C28 UNL A   1      13.357  50.473   4.438  1.00  0.00    +0.000 C 
ATOM     35  C29 UNL A   1      13.422  49.228   3.908  1.00  0.00    +0.000 C 
ATOM     47  C36 UNL A   1      14.168  48.886   2.726  1.00  0.00    +0.000 C 
ATOM     48  C37 UNL A   1      14.235  47.669   2.069  1.00  0.00    +0.000 C 
ATOM     49  C38 UNL A   1      15.117  47.802   0.990  1.00  0.00    +0.000 C 
ATOM     50  C39 UNL A   1      15.566  49.112   0.949  1.00  0.00    +0.000 C 
ATOM     51  N4  UNL A   1      14.979  49.765   2.022  1.00  0.00    +0.000 N 
ATOM     52  C40 UNL A   1      16.463  49.724   0.005  1.00  0.00    +0.000 C 
ATOM     64  C47 UNL A   1      16.847  51.024   0.027  1.00  0.00    +0.000 C 
ATOM     65  N5  UNL A   1      16.481  52.026   0.916  1.00  0.00    +0.000 N 
ATOM     66  C48 UNL A   1      17.123  53.101   0.529  1.00  0.00    +0.000 C 
ATOM     67  C49 UNL A   1      17.085  54.488   1.108  1.00  0.00    +0.000 C 
ATOM     79  C56 UNL A   1      16.279  54.743   2.156  1.00  0.00    +0.000 C 
ATOM     80  C57 UNL A   1      16.131  56.037   2.815  1.00  0.00    +0.000 C 
ATOM     81  C58 UNL A   1      15.280  55.908   3.846  1.00  0.00    +0.000 C 
ATOM     82  C59 UNL A   1      14.800  54.528   3.902  1.00  0.00    +0.000 C 
ATOM     83  N6  UNL A   1      15.437  53.911   2.854  1.00  0.00    +0.000 N 
ATOM     84  C60 UNL A   1      17.989  52.895  -0.640  1.00  0.00    +0.000 C 
ATOM     85  C61 UNL A   1      17.755  51.623  -0.929  1.00  0.00    +0.000 C 
ATOM     86  C62 UNL A   1      12.580  50.826   5.606  1.00  0.00    +0.000 C 
ATOM     87  C63 UNL A   1      12.624  52.132   5.833  1.00  0.00    +0.000 C 
ATOM    123  H31 UNL A   1      13.724  46.812   2.329  1.00  0.00    +0.000 H 
ATOM    124  H32 UNL A   1      15.386  47.051   0.336  1.00  0.00    +0.000 H 
ATOM    125  H33 UNL A   1      15.115  50.713   2.250  1.00  0.00    +0.000 H 
ATOM    126  H34 UNL A   1      16.603  56.910   2.533  1.00  0.00    +0.000 H 
ATOM    127  H35 UNL A   1      15.009  56.664   4.496  1.00  0.00    +0.000 H 
ATOM    128  H36 UNL A   1      15.303  52.963   2.624  1.00  0.00    +0.000 H 
ENDROOT
BRANCH   31   30
ATOM    133  H41 UNL A   1      11.421  54.888   5.190  1.00  0.00    +0.000 H 
ATOM    134  H42 UNL A   1      10.564  56.393   6.885  1.00  0.00    +0.000 H 
ATOM     29  C24 UNL A   1      14.271  55.456   6.869  1.00  0.00    +0.000 C 
ATOM     88  C64 UNL A   1      12.056  55.266   5.910  1.00  0.00    +0.000 C 
ATOM     89  C65 UNL A   1      11.553  56.101   6.908  1.00  0.00    +0.000 C 
ATOM    122  H30 UNL A   1      15.282  55.256   6.832  1.00  0.00    +0.000 H 
ATOM     27  C22 UNL A   1      12.389  56.542   7.936  1.00  0.00    +0.000 C 
ATOM     28  C23 UNL A   1      13.755  56.243   7.901  1.00  0.00    +0.000 C 
ATOM    121  H29 UNL A   1      14.382  56.603   8.639  1.00  0.00    +0.000 H 
ATOM     30  C25 UNL A   1      13.420  54.937   5.880  1.00  0.00    +0.000 C 
BRANCH   27   25
ATOM     25  C21 UNL A   1      11.870  57.374   9.047  1.00  0.00    +0.000 C 
ATOM     26  O2  UNL A   1      11.984  58.592   8.996  1.00  0.00    +0.000 O 
BRANCH   25   24
ATOM    120  H28 UNL A   1      10.434  57.226  10.435  1.00  0.00    +0.000 H 
ATOM     24  N2  UNL A   1      11.261  56.787  10.130  1.00  0.00    +0.000 N 
BRANCH   24   23
ATOM    119  H27 UNL A   1      11.427  55.798  11.923  1.00  0.00    +0.000 H 
ATOM    118  H26 UNL A   1      12.708  55.454  10.756  1.00  0.00    +0.000 H 
ATOM     23  C20 UNL A   1      11.659  55.615  10.895  1.00  0.00    +0.000 C 
BRANCH   23   22
ATOM    116  H24 UNL A   1      10.091  54.209  11.135  1.00  0.00    +0.000 H 
ATOM    117  H25 UNL A   1      10.590  54.538   9.449  1.00  0.00    +0.000 H 
ATOM     22  C19 UNL A   1      10.905  54.361  10.457  1.00  0.00    +0.000 C 
BRANCH   22   21
ATOM    114  H22 UNL A   1      12.327  53.046  11.322  1.00  0.00    +0.000 H 
ATOM    115  H23 UNL A   1      11.043  52.275  10.334  1.00  0.00    +0.000 H 
ATOM     21  C18 UNL A   1      11.744  53.078  10.426  1.00  0.00    +0.000 C 
BRANCH   21   20
ATOM    113  H21 UNL A   1      12.524  53.787   8.609  1.00  0.00    +0.000 H 
ATOM     20  C17 UNL A   1      12.700  52.936   9.234  1.00  0.00    +0.000 C 
ATOM    112  H20 UNL A   1      12.494  52.002   8.755  1.00  0.00    +0.000 H 
BRANCH   20   19
ATOM     19  C16 UNL A   1      14.193  52.970   9.583  1.00  0.00    +0.000 C 
ATOM    110  H18 UNL A   1      14.435  53.952   9.932  1.00  0.00    +0.000 H 
ATOM    111  H19 UNL A   1      14.354  52.218  10.326  1.00  0.00    +0.000 H 
BRANCH   19   18
ATOM     18  C15 UNL A   1      15.113  52.636   8.408  1.00  0.00    +0.000 C 
ATOM    108  H16 UNL A   1      14.683  53.029   7.510  1.00  0.00    +0.000 H 
ATOM    109  H17 UNL A   1      16.070  53.074   8.601  1.00  0.00    +0.000 H 
BRANCH   18   17
ATOM     17  N1  UNL A   1      15.297  51.209   8.253  1.00  0.00    +0.000 N 
ATOM    107  H15 UNL A   1      14.552  50.748   7.806  1.00  0.00    +0.000 H 
BRANCH   17   15
ATOM     15  C14 UNL A   1      16.326  50.396   8.618  1.00  0.00    +0.000 C 
ATOM     16  O1  UNL A   1      17.347  50.453   7.920  1.00  0.00    +0.000 O 
BRANCH   15   13
ATOM     13  C12 UNL A   1      16.263  49.425   9.806  1.00  0.00    +0.000 C 
ATOM    103  H11 UNL A   1      17.229  49.470  10.266  1.00  0.00    +0.000 H 
BRANCH   13   12
ATOM    101  H9  UNL A   1      12.158  49.716  12.013  1.00  0.00    +0.000 H 
ATOM    102  H10 UNL A   1      13.629  48.776  10.350  1.00  0.00    +0.000 H 
ATOM    135  H43 UNL A   1      16.787  51.092  11.842  1.00  0.00    +0.000 H 
ATOM    136  H44 UNL A   1      15.357  51.906  13.604  1.00  0.00    +0.000 H 
ATOM      9  C8  UNL A   1      13.608  50.918  12.959  1.00  0.00    +0.000 C 
ATOM     10  C9  UNL A   1      13.149  50.006  11.995  1.00  0.00    +0.000 C 
ATOM     11  C10 UNL A   1      13.996  49.477  11.012  1.00  0.00    +0.000 C 
ATOM     12  C11 UNL A   1      15.328  49.884  10.913  1.00  0.00    +0.000 C 
ATOM     90  C66 UNL A   1      15.803  50.783  11.878  1.00  0.00    +0.000 C 
ATOM     91  C67 UNL A   1      14.966  51.271  12.890  1.00  0.00    +0.000 C 
BRANCH    9    8
ATOM     98  H6  UNL A   1      10.384  52.997  16.689  1.00  0.00    +0.000 H 
ATOM     99  H7  UNL A   1      11.301  54.412  14.948  1.00  0.00    +0.000 H 
ATOM      4  C3  UNL A   1      11.306  51.234  15.989  1.00  0.00    +0.000 C 
ATOM      5  C4  UNL A   1      10.999  52.594  15.966  1.00  0.00    +0.000 C 
ATOM      6  C5  UNL A   1      11.526  53.406  14.965  1.00  0.00    +0.000 C 
ATOM      7  C6  UNL A   1      12.357  52.859  13.982  1.00  0.00    +0.000 C 
ATOM      8  C7  UNL A   1      12.698  51.494  13.980  1.00  0.00    +0.000 C 
ATOM    137  H45 UNL A   1      12.363  49.690  15.025  1.00  0.00    +0.000 H 
ATOM    100  H8  UNL A   1      12.730  53.472  13.241  1.00  0.00    +0.000 H 
ATOM     92  C68 UNL A   1      12.145  50.698  15.002  1.00  0.00    +0.000 C 
BRANCH    4    3
ATOM      3  S1  UNL A   1      10.569  50.172  17.216  1.00  0.00    +0.000 S 
BRANCH    3    2
ATOM     97  H5  UNL A   1      11.568  48.589  15.747  1.00  0.00    +0.000 H 
ATOM      2  C2  UNL A   1      10.709  48.553  16.386  1.00  0.00    +0.000 C 
ATOM     96  H4  UNL A   1       9.812  48.373  15.832  1.00  0.00    +0.000 H 
BRANCH    2    1
ATOM      1  C1  UNL A   1      10.913  47.411  17.365  1.00  0.00    +0.000 C 
ATOM     93  H1  UNL A   1      10.897  47.791  18.366  1.00  0.00    +0.000 H 
ATOM     94  H2  UNL A   1      11.858  46.944  17.178  1.00  0.00    +0.000 H 
ATOM     95  H3  UNL A   1      10.130  46.692  17.245  1.00  0.00    +0.000 H 
ENDBRANCH    2    1
ENDBRANCH    3    2
ENDBRANCH    4    3
ENDBRANCH    9    8
ENDBRANCH   13   12
BRANCH   13   14
ATOM    105  H13 UNL A   1      16.869  47.745   8.630  1.00  0.00    +0.000 H 
ATOM    106  H14 UNL A   1      15.178  47.735   9.070  1.00  0.00    +0.000 H 
ATOM     14  C13 UNL A   1      16.168  47.950   9.413  1.00  0.00    +0.000 C 
ATOM    104  H12 UNL A   1      16.393  47.339  10.262  1.00  0.00    +0.000 H 
ENDBRANCH   13   14
ENDBRANCH   15   13
ENDBRANCH   17   15
ENDBRANCH   18   17
ENDBRANCH   19   18
ENDBRANCH   20   19
ENDBRANCH   21   20
ENDBRANCH   22   21
ENDBRANCH   23   22
ENDBRANCH   24   23
ENDBRANCH   25   24
ENDBRANCH   27   25
ENDBRANCH   31   30
BRANCH   35   36
ATOM     36  C30 UNL A   1      12.658  48.137   4.600  1.00  0.00    +0.000 C 
ATOM     37  C31 UNL A   1      11.442  47.657   4.093  1.00  0.00    +0.000 C 
ATOM     38  F1  UNL A   1      10.902  48.210   2.997  1.00  0.00    +0.000 F 
ATOM     39  C32 UNL A   1      10.755  46.628   4.733  1.00  0.00    +0.000 C 
ATOM     40  F2  UNL A   1       9.573  46.214   4.254  1.00  0.00    +0.000 F 
ATOM     41  C33 UNL A   1      11.287  46.038   5.869  1.00  0.00    +0.000 C 
ATOM     42  F3  UNL A   1      10.630  45.042   6.480  1.00  0.00    +0.000 F 
ATOM     43  C34 UNL A   1      12.498  46.484   6.378  1.00  0.00    +0.000 C 
ATOM     44  F4  UNL A   1      13.018  45.907   7.470  1.00  0.00    +0.000 F 
ATOM     45  C35 UNL A   1      13.173  47.532   5.756  1.00  0.00    +0.000 C 
ATOM     46  F5  UNL A   1      14.336  47.949   6.278  1.00  0.00    +0.000 F 
ENDBRANCH   35   36
BRANCH   52   53
ATOM     53  C41 UNL A   1      17.005  48.869  -1.101  1.00  0.00    +0.000 C 
ATOM     54  C42 UNL A   1      18.142  48.069  -0.920  1.00  0.00    +0.000 C 
ATOM     55  F6  UNL A   1      18.807  48.094   0.245  1.00  0.00    +0.000 F 
ATOM     56  C43 UNL A   1      18.624  47.268  -1.952  1.00  0.00    +0.000 C 
ATOM     57  F7  UNL A   1      19.739  46.545  -1.773  1.00  0.00    +0.000 F 
ATOM     58  C44 UNL A   1      17.961  47.228  -3.171  1.00  0.00    +0.000 C 
ATOM     59  F8  UNL A   1      18.424  46.452  -4.160  1.00  0.00    +0.000 F 
ATOM     60  C45 UNL A   1      16.825  47.997  -3.365  1.00  0.00    +0.000 C 
ATOM     61  F9  UNL A   1      16.177  47.951  -4.537  1.00  0.00    +0.000 F 
ATOM     62  C46 UNL A   1      16.355  48.820  -2.344  1.00  0.00    +0.000 C 
ATOM     63  F10 UNL A   1      15.260  49.561  -2.564  1.00  0.00    +0.000 F 
ENDBRANCH   52   53
BRANCH   67   68
ATOM     68  C50 UNL A   1      17.904  55.580   0.524  1.00  0.00    +0.000 C 
ATOM     69  C51 UNL A   1      17.453  56.296  -0.594  1.00  0.00    +0.000 C 
ATOM     70  F11 UNL A   1      16.280  55.981  -1.160  1.00  0.00    +0.000 F 
ATOM     71  C52 UNL A   1      18.224  57.310  -1.156  1.00  0.00    +0.000 C 
ATOM     72  F12 UNL A   1      17.788  57.952  -2.250  1.00  0.00    +0.000 F 
ATOM     73  C53 UNL A   1      19.447  57.649  -0.596  1.00  0.00    +0.000 C 
ATOM     74  F13 UNL A   1      20.185  58.627  -1.134  1.00  0.00    +0.000 F 
ATOM     75  C54 UNL A   1      19.905  56.964   0.521  1.00  0.00    +0.000 C 
ATOM     76  F14 UNL A   1      21.080  57.296   1.073  1.00  0.00    +0.000 F 
ATOM     77  C55 UNL A   1      19.147  55.933   1.069  1.00  0.00    +0.000 C 
ATOM     78  F15 UNL A   1      19.619  55.281   2.142  1.00  0.00    +0.000 F 
ENDBRANCH   67   68
TORSDOF 21
ENDMDL
MODEL 5
REMARK VINA RESULT:      -8.6      0.853      2.220
ROOT
ATOM    129  H37 UNL A   1      10.075  22.773   7.776  1.00  0.00    +0.000 H 
ATOM    130  H38 UNL A   1      11.651  20.892   7.051  1.00  0.00    +0.000 H 
ATOM    131  H39 UNL A   1      13.632  25.742  -1.524  1.00  0.00    +0.000 H 
ATOM    132  H40 UNL A   1      12.439  27.820  -0.622  1.00  0.00    +0.000 H 
ATOM     31  C26 UNL A   1      11.178  27.414   1.902  1.00  0.00    +0.000 C 
ATOM     32  C27 UNL A   1      12.056  26.454   1.147  1.00  0.00    +0.000 C 
ATOM     33  N3  UNL A   1      12.431  25.243   1.474  1.00  0.00    +0.000 N 
ATOM     34  C28 UNL A   1      13.194  24.782   0.409  1.00  0.00    +0.000 C 
ATOM     35  C29 UNL A   1      13.849  23.603   0.288  1.00  0.00    +0.000 C 
ATOM     47  C36 UNL A   1      13.877  22.581   1.301  1.00  0.00    +0.000 C 
ATOM     48  C37 UNL A   1      14.573  21.385   1.302  1.00  0.00    +0.000 C 
ATOM     49  C38 UNL A   1      14.263  20.698   2.481  1.00  0.00    +0.000 C 
ATOM     50  C39 UNL A   1      13.407  21.485   3.234  1.00  0.00    +0.000 C 
ATOM     51  N4  UNL A   1      13.176  22.636   2.497  1.00  0.00    +0.000 N 
ATOM     52  C40 UNL A   1      12.841  21.210   4.529  1.00  0.00    +0.000 C 
ATOM     64  C47 UNL A   1      12.016  22.042   5.210  1.00  0.00    +0.000 C 
ATOM     65  N5  UNL A   1      11.547  23.297   4.843  1.00  0.00    +0.000 N 
ATOM     66  C48 UNL A   1      10.773  23.691   5.824  1.00  0.00    +0.000 C 
ATOM     67  C49 UNL A   1      10.019  24.984   5.976  1.00  0.00    +0.000 C 
ATOM     79  C56 UNL A   1      10.131  25.928   5.023  1.00  0.00    +0.000 C 
ATOM     80  C57 UNL A   1       9.470  27.230   5.039  1.00  0.00    +0.000 C 
ATOM     81  C58 UNL A   1       9.774  27.889   3.909  1.00  0.00    +0.000 C 
ATOM     82  C59 UNL A   1      10.676  27.067   3.102  1.00  0.00    +0.000 C 
ATOM     83  N6  UNL A   1      10.842  25.926   3.847  1.00  0.00    +0.000 N 
ATOM     84  C60 UNL A   1      10.644  22.717   6.917  1.00  0.00    +0.000 C 
ATOM     85  C61 UNL A   1      11.451  21.748   6.510  1.00  0.00    +0.000 C 
ATOM     86  C62 UNL A   1      13.193  25.825  -0.593  1.00  0.00    +0.000 C 
ATOM     87  C63 UNL A   1      12.555  26.904  -0.161  1.00  0.00    +0.000 C 
ATOM    123  H31 UNL A   1      15.211  21.056   0.561  1.00  0.00    +0.000 H 
ATOM    124  H32 UNL A   1      14.613  19.764   2.745  1.00  0.00    +0.000 H 
ATOM    125  H33 UNL A   1      12.600  23.383   2.781  1.00  0.00    +0.000 H 
ATOM    126  H34 UNL A   1       8.868  27.586   5.797  1.00  0.00    +0.000 H 
ATOM    127  H35 UNL A   1       9.426  28.826   3.651  1.00  0.00    +0.000 H 
ATOM    128  H36 UNL A   1      11.416  25.177   3.566  1.00  0.00    +0.000 H 
ENDROOT
BRANCH   31   30
ATOM    133  H41 UNL A   1       9.305  27.903   0.046  1.00  0.00    +0.000 H 
ATOM    134  H42 UNL A   1       8.710  30.011  -0.990  1.00  0.00    +0.000 H 
ATOM     29  C24 UNL A   1      11.438  29.907   1.689  1.00  0.00    +0.000 C 
ATOM     88  C64 UNL A   1       9.782  28.770   0.337  1.00  0.00    +0.000 C 
ATOM     89  C65 UNL A   1       9.412  29.988  -0.233  1.00  0.00    +0.000 C 
ATOM    122  H30 UNL A   1      12.216  29.875   2.365  1.00  0.00    +0.000 H 
ATOM     27  C22 UNL A   1       9.990  31.176   0.221  1.00  0.00    +0.000 C 
ATOM     28  C23 UNL A   1      11.024  31.133   1.162  1.00  0.00    +0.000 C 
ATOM    121  H29 UNL A   1      11.481  32.007   1.468  1.00  0.00    +0.000 H 
ATOM     30  C25 UNL A   1      10.800  28.718   1.301  1.00  0.00    +0.000 C 
BRANCH   27   25
ATOM     25  C21 UNL A   1       9.570  32.492  -0.315  1.00  0.00    +0.000 C 
ATOM     26  O2  UNL A   1       8.678  33.117   0.245  1.00  0.00    +0.000 O 
BRANCH   25   24
ATOM    120  H28 UNL A   1       9.601  33.588  -1.991  1.00  0.00    +0.000 H 
ATOM     24  N2  UNL A   1      10.174  33.014  -1.433  1.00  0.00    +0.000 N 
BRANCH   24   23
ATOM    119  H27 UNL A   1      11.515  32.879  -2.983  1.00  0.00    +0.000 H 
ATOM    118  H26 UNL A   1      11.910  31.904  -1.565  1.00  0.00    +0.000 H 
ATOM     23  C20 UNL A   1      11.537  32.844  -1.914  1.00  0.00    +0.000 C 
BRANCH   23   22
ATOM    116  H24 UNL A   1      13.378  33.893  -1.974  1.00  0.00    +0.000 H 
ATOM    117  H25 UNL A   1      11.935  34.874  -1.581  1.00  0.00    +0.000 H 
ATOM     22  C19 UNL A   1      12.462  33.956  -1.424  1.00  0.00    +0.000 C 
BRANCH   22   21
ATOM    114  H22 UNL A   1      12.587  34.867   0.488  1.00  0.00    +0.000 H 
ATOM    115  H23 UNL A   1      12.208  33.113   0.476  1.00  0.00    +0.000 H 
ATOM     21  C18 UNL A   1      12.800  33.906   0.070  1.00  0.00    +0.000 C 
BRANCH   21   20
ATOM    113  H21 UNL A   1      14.854  34.335  -0.011  1.00  0.00    +0.000 H 
ATOM     20  C17 UNL A   1      14.255  33.556   0.412  1.00  0.00    +0.000 C 
ATOM    112  H20 UNL A   1      14.465  32.587   0.011  1.00  0.00    +0.000 H 
BRANCH   20   19
ATOM     19  C16 UNL A   1      14.590  33.532   1.909  1.00  0.00    +0.000 C 
ATOM    110  H18 UNL A   1      14.181  34.411   2.359  1.00  0.00    +0.000 H 
ATOM    111  H19 UNL A   1      14.169  32.632   2.305  1.00  0.00    +0.000 H 
BRANCH   19   18
ATOM     18  C15 UNL A   1      16.089  33.490   2.209  1.00  0.00    +0.000 C 
ATOM    108  H16 UNL A   1      16.581  34.233   1.616  1.00  0.00    +0.000 H 
ATOM    109  H17 UNL A   1      16.224  33.678   3.254  1.00  0.00    +0.000 H 
BRANCH   18   17
ATOM     17  N1  UNL A   1      16.665  32.197   1.909  1.00  0.00    +0.000 N 
ATOM    107  H15 UNL A   1      16.323  31.459   2.463  1.00  0.00    +0.000 H 
BRANCH   17   15
ATOM     15  C14 UNL A   1      17.600  31.826   0.991  1.00  0.00    +0.000 C 
ATOM     16  O1  UNL A   1      18.432  32.685   0.675  1.00  0.00    +0.000 O 
BRANCH   15   13
ATOM     13  C12 UNL A   1      17.643  30.437   0.335  1.00  0.00    +0.000 C 
ATOM    103  H11 UNL A   1      17.512  29.738   1.134  1.00  0.00    +0.000 H 
BRANCH   13   12
ATOM    101  H9  UNL A   1      15.587  29.026  -3.613  1.00  0.00    +0.000 H 
ATOM    102  H10 UNL A   1      17.495  29.238  -2.155  1.00  0.00    +0.000 H 
ATOM    135  H43 UNL A   1      15.050  30.953   0.786  1.00  0.00    +0.000 H 
ATOM    136  H44 UNL A   1      13.118  30.590  -0.610  1.00  0.00    +0.000 H 
ATOM      9  C8  UNL A   1      14.169  29.805  -2.262  1.00  0.00    +0.000 C 
ATOM     10  C9  UNL A   1      15.458  29.426  -2.670  1.00  0.00    +0.000 C 
ATOM     11  C10 UNL A   1      16.573  29.571  -1.833  1.00  0.00    +0.000 C 
ATOM     12  C11 UNL A   1      16.456  30.159  -0.572  1.00  0.00    +0.000 C 
ATOM     90  C66 UNL A   1      15.172  30.529  -0.148  1.00  0.00    +0.000 C 
ATOM     91  C67 UNL A   1      14.052  30.336  -0.967  1.00  0.00    +0.000 C 
BRANCH    9    8
ATOM     98  H6  UNL A   1       9.907  29.372  -5.469  1.00  0.00    +0.000 H 
ATOM     99  H7  UNL A   1      11.672  30.947  -5.998  1.00  0.00    +0.000 H 
ATOM      4  C3  UNL A   1      10.833  28.649  -3.717  1.00  0.00    +0.000 C 
ATOM      5  C4  UNL A   1      10.732  29.449  -4.854  1.00  0.00    +0.000 C 
ATOM      6  C5  UNL A   1      11.747  30.353  -5.158  1.00  0.00    +0.000 C 
ATOM      7  C6  UNL A   1      12.867  30.456  -4.327  1.00  0.00    +0.000 C 
ATOM      8  C7  UNL A   1      12.998  29.673  -3.165  1.00  0.00    +0.000 C 
ATOM    137  H45 UNL A   1      12.026  28.165  -2.051  1.00  0.00    +0.000 H 
ATOM    100  H8  UNL A   1      13.616  31.122  -4.572  1.00  0.00    +0.000 H 
ATOM     92  C68 UNL A   1      11.958  28.764  -2.888  1.00  0.00    +0.000 C 
BRANCH    4    3
ATOM      3  S1  UNL A   1       9.581  27.431  -3.367  1.00  0.00    +0.000 S 
BRANCH    3    2
ATOM     97  H5  UNL A   1       9.918  25.080  -3.239  1.00  0.00    +0.000 H 
ATOM      2  C2  UNL A   1      10.586  25.909  -3.356  1.00  0.00    +0.000 C 
ATOM     96  H4  UNL A   1      11.287  25.967  -2.550  1.00  0.00    +0.000 H 
BRANCH    2    1
ATOM      1  C1  UNL A   1      11.349  25.704  -4.653  1.00  0.00    +0.000 C 
ATOM     93  H1  UNL A   1      10.906  26.298  -5.425  1.00  0.00    +0.000 H 
ATOM     94  H2  UNL A   1      11.310  24.671  -4.931  1.00  0.00    +0.000 H 
ATOM     95  H3  UNL A   1      12.369  25.998  -4.517  1.00  0.00    +0.000 H 
ENDBRANCH    2    1
ENDBRANCH    3    2
ENDBRANCH    4    3
ENDBRANCH    9    8
ENDBRANCH   13   12
BRANCH   13   14
ATOM    105  H13 UNL A   1      19.031  28.987  -0.403  1.00  0.00    +0.000 H 
ATOM    106  H14 UNL A   1      19.770  30.282   0.507  1.00  0.00    +0.000 H 
ATOM     14  C13 UNL A   1      19.016  30.040  -0.211  1.00  0.00    +0.000 C 
ATOM    104  H12 UNL A   1      19.205  30.570  -1.121  1.00  0.00    +0.000 H 
ENDBRANCH   13   14
ENDBRANCH   15   13
ENDBRANCH   17   15
ENDBRANCH   18   17
ENDBRANCH   19   18
ENDBRANCH   20   19
ENDBRANCH   21   20
ENDBRANCH   22   21
ENDBRANCH   23   22
ENDBRANCH   24   23
ENDBRANCH   25   24
ENDBRANCH   27   25
ENDBRANCH   31   30
BRANCH   35   36
ATOM     36  C30 UNL A   1      14.599  23.352  -0.988  1.00  0.00    +0.000 C 
ATOM     37  C31 UNL A   1      15.974  23.607  -1.093  1.00  0.00    +0.000 C 
ATOM     38  F1  UNL A   1      16.643  24.139  -0.060  1.00  0.00    +0.000 F 
ATOM     39  C32 UNL A   1      16.662  23.347  -2.276  1.00  0.00    +0.000 C 
ATOM     40  F2  UNL A   1      17.967  23.638  -2.368  1.00  0.00    +0.000 F 
ATOM     41  C33 UNL A   1      15.997  22.798  -3.362  1.00  0.00    +0.000 C 
ATOM     42  F3  UNL A   1      16.662  22.541  -4.497  1.00  0.00    +0.000 F 
ATOM     43  C34 UNL A   1      14.641  22.521  -3.274  1.00  0.00    +0.000 C 
ATOM     44  F4  UNL A   1      13.999  21.980  -4.319  1.00  0.00    +0.000 F 
ATOM     45  C35 UNL A   1      13.944  22.805  -2.101  1.00  0.00    +0.000 C 
ATOM     46  F5  UNL A   1      12.631  22.536  -2.051  1.00  0.00    +0.000 F 
ENDBRANCH   35   36
BRANCH   52   53
ATOM     53  C41 UNL A   1      13.202  19.913   5.189  1.00  0.00    +0.000 C 
ATOM     54  C42 UNL A   1      12.465  18.743   4.960  1.00  0.00    +0.000 C 
ATOM     55  F6  UNL A   1      11.378  18.773   4.175  1.00  0.00    +0.000 F 
ATOM     56  C43 UNL A   1      12.823  17.542   5.568  1.00  0.00    +0.000 C 
ATOM     57  F7  UNL A   1      12.078  16.445   5.369  1.00  0.00    +0.000 F 
ATOM     58  C44 UNL A   1      13.939  17.482   6.390  1.00  0.00    +0.000 C 
ATOM     59  F8  UNL A   1      14.283  16.325   6.969  1.00  0.00    +0.000 F 
ATOM     60  C45 UNL A   1      14.691  18.624   6.616  1.00  0.00    +0.000 C 
ATOM     61  F9  UNL A   1      15.776  18.566   7.401  1.00  0.00    +0.000 F 
ATOM     62  C46 UNL A   1      14.322  19.832   6.031  1.00  0.00    +0.000 C 
ATOM     63  F10 UNL A   1      15.062  20.922   6.277  1.00  0.00    +0.000 F 
ENDBRANCH   52   53
BRANCH   67   68
ATOM     68  C50 UNL A   1       9.178  25.238   7.172  1.00  0.00    +0.000 C 
ATOM     69  C51 UNL A   1       9.747  25.711   8.363  1.00  0.00    +0.000 C 
ATOM     70  F11 UNL A   1      11.070  25.917   8.436  1.00  0.00    +0.000 F 
ATOM     71  C52 UNL A   1       8.965  25.937   9.493  1.00  0.00    +0.000 C 
ATOM     72  F12 UNL A   1       9.542  26.350  10.632  1.00  0.00    +0.000 F 
ATOM     73  C53 UNL A   1       7.597  25.722   9.448  1.00  0.00    +0.000 C 
ATOM     74  F13 UNL A   1       6.845  25.943  10.534  1.00  0.00    +0.000 F 
ATOM     75  C54 UNL A   1       7.009  25.269   8.275  1.00  0.00    +0.000 C 
ATOM     76  F14 UNL A   1       5.685  25.073   8.223  1.00  0.00    +0.000 F 
ATOM     77  C55 UNL A   1       7.793  25.020   7.151  1.00  0.00    +0.000 C 
ATOM     78  F15 UNL A   1       7.200  24.573   6.034  1.00  0.00    +0.000 F 
ENDBRANCH   67   68
TORSDOF 21
ENDMDL
MODEL 6
REMARK VINA RESULT:      -8.6     52.968     59.552
ROOT
ATOM    129  H37 UNL A   1      43.656  14.750  42.433  1.00  0.00    +0.000 H 
ATOM    130  H38 UNL A   1      45.001  16.753  41.582  1.00  0.00    +0.000 H 
ATOM    131  H39 UNL A   1      51.426  15.804  49.249  1.00  0.00    +0.000 H 
ATOM    132  H40 UNL A   1      50.377  13.546  49.847  1.00  0.00    +0.000 H 
ATOM     31  C26 UNL A   1      48.084  12.897  48.282  1.00  0.00    +0.000 C 
ATOM     32  C27 UNL A   1      49.004  14.075  48.121  1.00  0.00    +0.000 C 
ATOM     33  N3  UNL A   1      48.960  15.046  47.243  1.00  0.00    +0.000 N 
ATOM     34  C28 UNL A   1      50.010  15.896  47.565  1.00  0.00    +0.000 C 
ATOM     35  C29 UNL A   1      50.415  17.018  46.924  1.00  0.00    +0.000 C 
ATOM     47  C36 UNL A   1      49.801  17.538  45.731  1.00  0.00    +0.000 C 
ATOM     48  C37 UNL A   1      50.185  18.627  44.966  1.00  0.00    +0.000 C 
ATOM     49  C38 UNL A   1      49.264  18.775  43.923  1.00  0.00    +0.000 C 
ATOM     50  C39 UNL A   1      48.331  17.755  44.012  1.00  0.00    +0.000 C 
ATOM     51  N4  UNL A   1      48.670  17.006  45.129  1.00  0.00    +0.000 N 
ATOM     52  C40 UNL A   1      47.214  17.483  43.148  1.00  0.00    +0.000 C 
ATOM     64  C47 UNL A   1      46.348  16.451  43.296  1.00  0.00    +0.000 C 
ATOM     65  N5  UNL A   1      46.336  15.457  44.266  1.00  0.00    +0.000 N 
ATOM     66  C48 UNL A   1      45.300  14.702  43.993  1.00  0.00    +0.000 C 
ATOM     67  C49 UNL A   1      44.817  13.465  44.698  1.00  0.00    +0.000 C 
ATOM     79  C56 UNL A   1      45.513  12.990  45.748  1.00  0.00    +0.000 C 
ATOM     80  C57 UNL A   1      45.172  11.798  46.520  1.00  0.00    +0.000 C 
ATOM     81  C58 UNL A   1      46.060  11.654  47.517  1.00  0.00    +0.000 C 
ATOM     82  C59 UNL A   1      47.051  12.728  47.435  1.00  0.00    +0.000 C 
ATOM     83  N6  UNL A   1      46.653  13.466  46.349  1.00  0.00    +0.000 N 
ATOM     84  C60 UNL A   1      44.522  15.147  42.828  1.00  0.00    +0.000 C 
ATOM     85  C61 UNL A   1      45.225  16.193  42.419  1.00  0.00    +0.000 C 
ATOM     86  C62 UNL A   1      50.648  15.351  48.744  1.00  0.00    +0.000 C 
ATOM     87  C63 UNL A   1      50.102  14.194  49.092  1.00  0.00    +0.000 C 
ATOM    123  H31 UNL A   1      51.008  19.225  45.136  1.00  0.00    +0.000 H 
ATOM    124  H32 UNL A   1      49.279  19.519  43.208  1.00  0.00    +0.000 H 
ATOM    125  H33 UNL A   1      48.182  16.212  45.445  1.00  0.00    +0.000 H 
ATOM    126  H34 UNL A   1      44.378  11.168  46.329  1.00  0.00    +0.000 H 
ATOM    127  H35 UNL A   1      46.045  10.906  48.228  1.00  0.00    +0.000 H 
ATOM    128  H36 UNL A   1      47.139  14.261  46.029  1.00  0.00    +0.000 H 
ENDROOT
BRANCH   31   30
ATOM    133  H41 UNL A   1      46.778  12.850  50.623  1.00  0.00    +0.000 H 
ATOM    134  H42 UNL A   1      47.093  11.356  52.506  1.00  0.00    +0.000 H 
ATOM     29  C24 UNL A   1      49.205  10.913  49.349  1.00  0.00    +0.000 C 
ATOM     88  C64 UNL A   1      47.474  12.091  50.566  1.00  0.00    +0.000 C 
ATOM     89  C65 UNL A   1      47.627  11.209  51.636  1.00  0.00    +0.000 C 
ATOM    122  H30 UNL A   1      49.819  10.828  48.525  1.00  0.00    +0.000 H 
ATOM     27  C22 UNL A   1      48.504  10.126  51.528  1.00  0.00    +0.000 C 
ATOM     28  C23 UNL A   1      49.314   9.995  50.396  1.00  0.00    +0.000 C 
ATOM    121  H29 UNL A   1      49.992   9.218  50.333  1.00  0.00    +0.000 H 
ATOM     30  C25 UNL A   1      48.263  11.953  49.414  1.00  0.00    +0.000 C 
BRANCH   27   25
ATOM     25  C21 UNL A   1      48.638   9.133  52.619  1.00  0.00    +0.000 C 
ATOM     26  O2  UNL A   1      49.752   8.804  53.006  1.00  0.00    +0.000 O 
BRANCH   25   24
ATOM    120  H28 UNL A   1      47.033   7.935  52.641  1.00  0.00    +0.000 H 
ATOM     24  N2  UNL A   1      47.522   8.581  53.200  1.00  0.00    +0.000 N 
BRANCH   24   23
ATOM    119  H27 UNL A   1      47.560   9.542  55.016  1.00  0.00    +0.000 H 
ATOM    118  H26 UNL A   1      46.943   7.888  55.056  1.00  0.00    +0.000 H 
ATOM     23  C20 UNL A   1      46.954   8.813  54.520  1.00  0.00    +0.000 C 
BRANCH   23   22
ATOM    116  H24 UNL A   1      45.274   9.479  53.412  1.00  0.00    +0.000 H 
ATOM    117  H25 UNL A   1      44.910   8.647  54.953  1.00  0.00    +0.000 H 
ATOM     22  C19 UNL A   1      45.529   9.357  54.444  1.00  0.00    +0.000 C 
BRANCH   22   21
ATOM    114  H22 UNL A   1      44.614  10.544  55.946  1.00  0.00    +0.000 H 
ATOM    115  H23 UNL A   1      46.278  11.019  55.474  1.00  0.00    +0.000 H 
ATOM     21  C18 UNL A   1      45.310  10.701  55.149  1.00  0.00    +0.000 C 
BRANCH   21   20
ATOM    113  H21 UNL A   1      44.321  11.364  53.420  1.00  0.00    +0.000 H 
ATOM     20  C17 UNL A   1      44.771  11.835  54.269  1.00  0.00    +0.000 C 
ATOM    112  H20 UNL A   1      45.590  12.477  54.018  1.00  0.00    +0.000 H 
BRANCH   20   19
ATOM     19  C16 UNL A   1      43.673  12.696  54.905  1.00  0.00    +0.000 C 
ATOM    110  H18 UNL A   1      42.768  12.127  54.924  1.00  0.00    +0.000 H 
ATOM    111  H19 UNL A   1      44.015  12.958  55.885  1.00  0.00    +0.000 H 
BRANCH   19   18
ATOM     18  C15 UNL A   1      43.403  14.006  54.165  1.00  0.00    +0.000 C 
ATOM    108  H16 UNL A   1      43.716  14.823  54.782  1.00  0.00    +0.000 H 
ATOM    109  H17 UNL A   1      43.949  13.986  53.245  1.00  0.00    +0.000 H 
BRANCH   18   17
ATOM     17  N1  UNL A   1      42.000  14.171  53.849  1.00  0.00    +0.000 N 
ATOM    107  H15 UNL A   1      41.694  15.106  53.824  1.00  0.00    +0.000 H 
BRANCH   17   15
ATOM     15  C14 UNL A   1      41.031  13.253  53.579  1.00  0.00    +0.000 C 
ATOM     16  O1  UNL A   1      40.292  12.940  54.520  1.00  0.00    +0.000 O 
BRANCH   15   13
ATOM     13  C12 UNL A   1      40.843  12.594  52.204  1.00  0.00    +0.000 C 
ATOM    103  H11 UNL A   1      40.989  13.377  51.489  1.00  0.00    +0.000 H 
BRANCH   13   12
ATOM    101  H9  UNL A   1      44.719  11.166  50.027  1.00  0.00    +0.000 H 
ATOM    102  H10 UNL A   1      43.148  12.867  50.698  1.00  0.00    +0.000 H 
ATOM    135  H43 UNL A   1      41.061  10.034  52.974  1.00  0.00    +0.000 H 
ATOM    136  H44 UNL A   1      42.725   8.376  52.434  1.00  0.00    +0.000 H 
ATOM      9  C8  UNL A   1      43.865   9.600  51.149  1.00  0.00    +0.000 C 
ATOM     10  C9  UNL A   1      43.950  10.916  50.669  1.00  0.00    +0.000 C 
ATOM     11  C10 UNL A   1      43.024  11.901  51.037  1.00  0.00    +0.000 C 
ATOM     12  C11 UNL A   1      41.935  11.596  51.856  1.00  0.00    +0.000 C 
ATOM     90  C66 UNL A   1      41.846  10.288  52.354  1.00  0.00    +0.000 C 
ATOM     91  C67 UNL A   1      42.803   9.319  52.024  1.00  0.00    +0.000 C 
BRANCH    9    8
ATOM     98  H6  UNL A   1      47.307   5.803  49.606  1.00  0.00    +0.000 H 
ATOM     99  H7  UNL A   1      47.280   7.951  48.483  1.00  0.00    +0.000 H 
ATOM      4  C3  UNL A   1      45.771   6.295  50.966  1.00  0.00    +0.000 C 
ATOM      5  C4  UNL A   1      46.648   6.537  49.910  1.00  0.00    +0.000 C 
ATOM      6  C5  UNL A   1      46.633   7.772  49.265  1.00  0.00    +0.000 C 
ATOM      7  C6  UNL A   1      45.743   8.768  49.678  1.00  0.00    +0.000 C 
ATOM      8  C7  UNL A   1      44.835   8.556  50.732  1.00  0.00    +0.000 C 
ATOM    137  H45 UNL A   1      44.237   7.114  52.153  1.00  0.00    +0.000 H 
ATOM    100  H8  UNL A   1      45.752   9.681  49.197  1.00  0.00    +0.000 H 
ATOM     92  C68 UNL A   1      44.879   7.300  51.368  1.00  0.00    +0.000 C 
BRANCH    4    3
ATOM      3  S1  UNL A   1      45.841   4.751  51.851  1.00  0.00    +0.000 S 
BRANCH    3    2
ATOM     97  H5  UNL A   1      43.732   5.598  52.551  1.00  0.00    +0.000 H 
ATOM      2  C2  UNL A   1      44.112   4.607  52.415  1.00  0.00    +0.000 C 
ATOM     96  H4  UNL A   1      44.094   4.049  53.328  1.00  0.00    +0.000 H 
BRANCH    2    1
ATOM      1  C1  UNL A   1      43.223   3.909  51.400  1.00  0.00    +0.000 C 
ATOM     93  H1  UNL A   1      43.752   3.082  50.972  1.00  0.00    +0.000 H 
ATOM     94  H2  UNL A   1      42.954   4.599  50.628  1.00  0.00    +0.000 H 
ATOM     95  H3  UNL A   1      42.339   3.553  51.885  1.00  0.00    +0.000 H 
ENDBRANCH    2    1
ENDBRANCH    3    2
ENDBRANCH    4    3
ENDBRANCH    9    8
ENDBRANCH   13   12
BRANCH   13   14
ATOM    105  H13 UNL A   1      39.133  11.363  52.569  1.00  0.00    +0.000 H 
ATOM    106  H14 UNL A   1      39.343  11.812  50.894  1.00  0.00    +0.000 H 
ATOM     14  C13 UNL A   1      39.408  12.155  51.905  1.00  0.00    +0.000 C 
ATOM    104  H12 UNL A   1      38.746  12.984  52.044  1.00  0.00    +0.000 H 
ENDBRANCH   13   14
ENDBRANCH   15   13
ENDBRANCH   17   15
ENDBRANCH   18   17
ENDBRANCH   19   18
ENDBRANCH   20   19
ENDBRANCH   21   20
ENDBRANCH   22   21
ENDBRANCH   23   22
ENDBRANCH   24   23
ENDBRANCH   25   24
ENDBRANCH   27   25
ENDBRANCH   31   30
BRANCH   35   36
ATOM     36  C30 UNL A   1      51.586  17.762  47.496  1.00  0.00    +0.000 C 
ATOM     37  C31 UNL A   1      52.903  17.457  47.124  1.00  0.00    +0.000 C 
ATOM     38  F1  UNL A   1      53.148  16.444  46.280  1.00  0.00    +0.000 F 
ATOM     39  C32 UNL A   1      53.979  18.172  47.645  1.00  0.00    +0.000 C 
ATOM     40  F2  UNL A   1      55.232  17.835  47.307  1.00  0.00    +0.000 F 
ATOM     41  C33 UNL A   1      53.757  19.223  48.521  1.00  0.00    +0.000 C 
ATOM     42  F3  UNL A   1      54.792  19.916  49.016  1.00  0.00    +0.000 F 
ATOM     43  C34 UNL A   1      52.461  19.555  48.890  1.00  0.00    +0.000 C 
ATOM     44  F4  UNL A   1      52.245  20.577  49.728  1.00  0.00    +0.000 F 
ATOM     45  C35 UNL A   1      51.385  18.824  48.391  1.00  0.00    +0.000 C 
ATOM     46  F5  UNL A   1      50.145  19.161  48.775  1.00  0.00    +0.000 F 
ENDBRANCH   35   36
BRANCH   52   53
ATOM     53  C41 UNL A   1      46.995  18.397  41.978  1.00  0.00    +0.000 C 
ATOM     54  C42 UNL A   1      46.094  19.469  42.044  1.00  0.00    +0.000 C 
ATOM     55  F6  UNL A   1      45.363  19.670  43.151  1.00  0.00    +0.000 F 
ATOM     56  C43 UNL A   1      45.914  20.318  40.955  1.00  0.00    +0.000 C 
ATOM     57  F7  UNL A   1      45.015  21.311  41.023  1.00  0.00    +0.000 F 
ATOM     58  C44 UNL A   1      46.651  20.130  39.795  1.00  0.00    +0.000 C 
ATOM     59  F8  UNL A   1      46.479  20.952  38.751  1.00  0.00    +0.000 F 
ATOM     60  C45 UNL A   1      47.559  19.086  39.715  1.00  0.00    +0.000 C 
ATOM     61  F9  UNL A   1      48.280  18.910  38.599  1.00  0.00    +0.000 F 
ATOM     62  C46 UNL A   1      47.724  18.219  40.792  1.00  0.00    +0.000 C 
ATOM     63  F10 UNL A   1      48.601  17.212  40.682  1.00  0.00    +0.000 F 
ENDBRANCH   52   53
BRANCH   67   68
ATOM     68  C50 UNL A   1      43.601  12.750  44.233  1.00  0.00    +0.000 C 
ATOM     69  C51 UNL A   1      43.692  11.467  43.676  1.00  0.00    +0.000 C 
ATOM     70  F11 UNL A   1      44.889  10.881  43.536  1.00  0.00    +0.000 F 
ATOM     71  C52 UNL A   1      42.556  10.798  43.224  1.00  0.00    +0.000 C 
ATOM     72  F12 UNL A   1      42.676   9.589  42.656  1.00  0.00    +0.000 F 
ATOM     73  C53 UNL A   1      41.306  11.386  43.346  1.00  0.00    +0.000 C 
ATOM     74  F13 UNL A   1      40.215  10.740  42.916  1.00  0.00    +0.000 F 
ATOM     75  C54 UNL A   1      41.191  12.648  43.910  1.00  0.00    +0.000 C 
ATOM     76  F14 UNL A   1      39.984  13.214  44.043  1.00  0.00    +0.000 F 
ATOM     77  C55 UNL A   1      42.328  13.328  44.340  1.00  0.00    +0.000 C 
ATOM     78  F15 UNL A   1      42.189  14.552  44.872  1.00  0.00    +0.000 F 
ENDBRANCH   67   68
TORSDOF 21
ENDMDL
MODEL 7
REMARK VINA RESULT:      -8.6     44.749     50.457
ROOT
ATOM    129  H37 UNL A   1      20.633  33.852  46.693  1.00  0.00    +0.000 H 
ATOM    130  H38 UNL A   1      18.709  35.226  47.668  1.00  0.00    +0.000 H 
ATOM    131  H39 UNL A   1      24.795  43.149  48.738  1.00  0.00    +0.000 H 
ATOM    132  H40 UNL A   1      26.589  41.957  47.355  1.00  0.00    +0.000 H 
ATOM     31  C26 UNL A   1      25.912  39.274  46.668  1.00  0.00    +0.000 C 
ATOM     32  C27 UNL A   1      25.050  40.291  47.364  1.00  0.00    +0.000 C 
ATOM     33  N3  UNL A   1      23.821  40.174  47.800  1.00  0.00    +0.000 N 
ATOM     34  C28 UNL A   1      23.517  41.387  48.405  1.00  0.00    +0.000 C 
ATOM     35  C29 UNL A   1      22.349  41.783  48.964  1.00  0.00    +0.000 C 
ATOM     47  C36 UNL A   1      21.159  40.975  49.017  1.00  0.00    +0.000 C 
ATOM     48  C37 UNL A   1      19.906  41.314  49.497  1.00  0.00    +0.000 C 
ATOM     49  C38 UNL A   1      19.074  40.194  49.379  1.00  0.00    +0.000 C 
ATOM     50  C39 UNL A   1      19.797  39.171  48.789  1.00  0.00    +0.000 C 
ATOM     51  N4  UNL A   1      21.076  39.662  48.575  1.00  0.00    +0.000 N 
ATOM     52  C40 UNL A   1      19.358  37.845  48.445  1.00  0.00    +0.000 C 
ATOM     64  C47 UNL A   1      20.128  36.899  47.853  1.00  0.00    +0.000 C 
ATOM     65  N5  UNL A   1      21.455  36.980  47.454  1.00  0.00    +0.000 N 
ATOM     66  C48 UNL A   1      21.751  35.808  46.949  1.00  0.00    +0.000 C 
ATOM     67  C49 UNL A   1      23.042  35.336  46.340  1.00  0.00    +0.000 C 
ATOM     79  C56 UNL A   1      24.076  36.193  46.240  1.00  0.00    +0.000 C 
ATOM     80  C57 UNL A   1      25.381  35.882  45.665  1.00  0.00    +0.000 C 
ATOM     81  C58 UNL A   1      26.175  36.960  45.773  1.00  0.00    +0.000 C 
ATOM     82  C59 UNL A   1      25.424  38.048  46.399  1.00  0.00    +0.000 C 
ATOM     83  N6  UNL A   1      24.184  37.506  46.631  1.00  0.00    +0.000 N 
ATOM     84  C60 UNL A   1      20.646  34.839  46.993  1.00  0.00    +0.000 C 
ATOM     85  C61 UNL A   1      19.671  35.566  47.518  1.00  0.00    +0.000 C 
ATOM     86  C62 UNL A   1      24.704  42.211  48.319  1.00  0.00    +0.000 C 
ATOM     87  C63 UNL A   1      25.660  41.602  47.630  1.00  0.00    +0.000 C 
ATOM    123  H31 UNL A   1      19.631  42.234  49.875  1.00  0.00    +0.000 H 
ATOM    124  H32 UNL A   1      18.089  40.141  49.682  1.00  0.00    +0.000 H 
ATOM    125  H33 UNL A   1      21.815  39.155  48.168  1.00  0.00    +0.000 H 
ATOM    126  H34 UNL A   1      25.649  34.980  45.243  1.00  0.00    +0.000 H 
ATOM    127  H35 UNL A   1      27.159  37.011  45.465  1.00  0.00    +0.000 H 
ATOM    128  H36 UNL A   1      23.443  38.010  47.038  1.00  0.00    +0.000 H 
ENDROOT
BRANCH   31   30
ATOM    133  H41 UNL A   1      26.871  40.489  44.478  1.00  0.00    +0.000 H 
ATOM    134  H42 UNL A   1      29.175  40.959  43.891  1.00  0.00    +0.000 H 
ATOM     29  C24 UNL A   1      28.367  39.253  47.216  1.00  0.00    +0.000 C 
ATOM     88  C64 UNL A   1      27.629  40.237  45.130  1.00  0.00    +0.000 C 
ATOM     89  C65 UNL A   1      28.951  40.542  44.808  1.00  0.00    +0.000 C 
ATOM    122  H30 UNL A   1      28.159  38.738  48.085  1.00  0.00    +0.000 H 
ATOM     27  C22 UNL A   1      29.972  40.285  45.727  1.00  0.00    +0.000 C 
ATOM     28  C23 UNL A   1      29.683  39.614  46.919  1.00  0.00    +0.000 C 
ATOM    121  H29 UNL A   1      30.443  39.387  47.581  1.00  0.00    +0.000 H 
ATOM     30  C25 UNL A   1      27.325  39.587  46.336  1.00  0.00    +0.000 C 
BRANCH   27   25
ATOM     25  C21 UNL A   1      31.376  40.661  45.443  1.00  0.00    +0.000 C 
ATOM     26  O2  UNL A   1      31.909  40.276  44.410  1.00  0.00    +0.000 O 
BRANCH   25   24
ATOM    120  H28 UNL A   1      32.525  40.949  47.058  1.00  0.00    +0.000 H 
ATOM     24  N2  UNL A   1      32.082  41.439  46.328  1.00  0.00    +0.000 N 
BRANCH   24   23
ATOM    119  H27 UNL A   1      31.977  43.265  45.392  1.00  0.00    +0.000 H 
ATOM    118  H26 UNL A   1      33.299  43.092  46.550  1.00  0.00    +0.000 H 
ATOM     23  C20 UNL A   1      32.270  42.882  46.347  1.00  0.00    +0.000 C 
BRANCH   23   22
ATOM    116  H24 UNL A   1      31.170  42.832  48.158  1.00  0.00    +0.000 H 
ATOM    117  H25 UNL A   1      31.986  44.379  47.786  1.00  0.00    +0.000 H 
ATOM     22  C19 UNL A   1      31.408  43.560  47.411  1.00  0.00    +0.000 C 
BRANCH   22   21
ATOM    114  H22 UNL A   1      30.036  45.168  47.246  1.00  0.00    +0.000 H 
ATOM    115  H23 UNL A   1      30.133  44.070  45.831  1.00  0.00    +0.000 H 
ATOM     21  C18 UNL A   1      30.095  44.159  46.896  1.00  0.00    +0.000 C 
BRANCH   21   20
ATOM    113  H21 UNL A   1      28.797  42.513  46.784  1.00  0.00    +0.000 H 
ATOM     20  C17 UNL A   1      28.816  43.433  47.331  1.00  0.00    +0.000 C 
ATOM    112  H20 UNL A   1      27.984  44.073  47.121  1.00  0.00    +0.000 H 
BRANCH   20   19
ATOM     19  C16 UNL A   1      28.751  43.046  48.813  1.00  0.00    +0.000 C 
ATOM    110  H18 UNL A   1      27.973  42.323  48.939  1.00  0.00    +0.000 H 
ATOM    111  H19 UNL A   1      29.715  42.662  49.074  1.00  0.00    +0.000 H 
BRANCH   19   18
ATOM     18  C15 UNL A   1      28.473  44.221  49.751  1.00  0.00    +0.000 C 
ATOM    108  H16 UNL A   1      29.318  44.358  50.393  1.00  0.00    +0.000 H 
ATOM    109  H17 UNL A   1      28.299  45.090  49.151  1.00  0.00    +0.000 H 
BRANCH   18   17
ATOM     17  N1  UNL A   1      27.298  43.997  50.566  1.00  0.00    +0.000 N 
ATOM    107  H15 UNL A   1      26.456  44.307  50.162  1.00  0.00    +0.000 H 
BRANCH   17   15
ATOM     15  C14 UNL A   1      27.159  43.429  51.796  1.00  0.00    +0.000 C 
ATOM     16  O1  UNL A   1      28.045  43.679  52.621  1.00  0.00    +0.000 O 
BRANCH   15   13
ATOM     13  C12 UNL A   1      25.996  42.500  52.177  1.00  0.00    +0.000 C 
ATOM    103  H11 UNL A   1      25.122  42.943  51.746  1.00  0.00    +0.000 H 
BRANCH   13   12
ATOM    101  H9  UNL A   1      24.301  38.352  50.864  1.00  0.00    +0.000 H 
ATOM    102  H10 UNL A   1      24.051  40.578  51.756  1.00  0.00    +0.000 H 
ATOM    135  H43 UNL A   1      28.104  41.329  51.003  1.00  0.00    +0.000 H 
ATOM    136  H44 UNL A   1      28.312  39.164  49.963  1.00  0.00    +0.000 H 
ATOM      9  C8  UNL A   1      26.335  38.533  50.344  1.00  0.00    +0.000 C 
ATOM     10  C9  UNL A   1      25.117  38.985  50.875  1.00  0.00    +0.000 C 
ATOM     11  C10 UNL A   1      24.975  40.269  51.417  1.00  0.00    +0.000 C 
ATOM     12  C11 UNL A   1      26.065  41.138  51.506  1.00  0.00    +0.000 C 
ATOM     90  C66 UNL A   1      27.283  40.704  50.967  1.00  0.00    +0.000 C 
ATOM     91  C67 UNL A   1      27.409  39.438  50.380  1.00  0.00    +0.000 C 
BRANCH    9    8
ATOM     98  H6  UNL A   1      26.905  33.566  48.436  1.00  0.00    +0.000 H 
ATOM     99  H7  UNL A   1      24.783  34.274  49.369  1.00  0.00    +0.000 H 
ATOM      4  C3  UNL A   1      27.864  35.418  48.749  1.00  0.00    +0.000 C 
ATOM      5  C4  UNL A   1      26.794  34.526  48.796  1.00  0.00    +0.000 C 
ATOM      6  C5  UNL A   1      25.575  34.934  49.331  1.00  0.00    +0.000 C 
ATOM      7  C6  UNL A   1      25.422  36.237  49.817  1.00  0.00    +0.000 C 
ATOM      8  C7  UNL A   1      26.483  37.161  49.797  1.00  0.00    +0.000 C 
ATOM    137  H45 UNL A   1      28.498  37.374  49.201  1.00  0.00    +0.000 H 
ATOM    100  H8  UNL A   1      24.510  36.527  50.201  1.00  0.00    +0.000 H 
ATOM     92  C68 UNL A   1      27.702  36.720  49.244  1.00  0.00    +0.000 C 
BRANCH    4    3
ATOM      3  S1  UNL A   1      29.401  34.932  47.989  1.00  0.00    +0.000 S 
BRANCH    3    2
ATOM     97  H5  UNL A   1      27.950  33.122  47.463  1.00  0.00    +0.000 H 
ATOM      2  C2  UNL A   1      28.854  33.486  47.020  1.00  0.00    +0.000 C 
ATOM     96  H4  UNL A   1      29.628  32.747  47.040  1.00  0.00    +0.000 H 
BRANCH    2    1
ATOM      1  C1  UNL A   1      28.550  33.834  45.573  1.00  0.00    +0.000 C 
ATOM     93  H1  UNL A   1      28.787  34.863  45.396  1.00  0.00    +0.000 H 
ATOM     94  H2  UNL A   1      27.510  33.670  45.378  1.00  0.00    +0.000 H 
ATOM     95  H3  UNL A   1      29.136  33.216  44.926  1.00  0.00    +0.000 H 
ENDBRANCH    2    1
ENDBRANCH    3    2
ENDBRANCH    4    3
ENDBRANCH    9    8
ENDBRANCH   13   12
BRANCH   13   14
ATOM    105  H13 UNL A   1      25.804  43.481  54.068  1.00  0.00    +0.000 H 
ATOM    106  H14 UNL A   1      26.276  41.802  54.179  1.00  0.00    +0.000 H 
ATOM     14  C13 UNL A   1      25.649  42.501  53.667  1.00  0.00    +0.000 C 
ATOM    104  H12 UNL A   1      24.625  42.221  53.794  1.00  0.00    +0.000 H 
ENDBRANCH   13   14
ENDBRANCH   15   13
ENDBRANCH   17   15
ENDBRANCH   18   17
ENDBRANCH   19   18
ENDBRANCH   20   19
ENDBRANCH   21   20
ENDBRANCH   22   21
ENDBRANCH   23   22
ENDBRANCH   24   23
ENDBRANCH   25   24
ENDBRANCH   27   25
ENDBRANCH   31   30
BRANCH   35   36
ATOM     36  C30 UNL A   1      22.294  43.158  49.563  1.00  0.00    +0.000 C 
ATOM     37  C31 UNL A   1      22.497  43.371  50.934  1.00  0.00    +0.000 C 
ATOM     38  F1  UNL A   1      22.691  42.330  51.757  1.00  0.00    +0.000 F 
ATOM     39  C32 UNL A   1      22.466  44.655  51.473  1.00  0.00    +0.000 C 
ATOM     40  F2  UNL A   1      22.621  44.830  52.793  1.00  0.00    +0.000 F 
ATOM     41  C33 UNL A   1      22.267  45.751  50.647  1.00  0.00    +0.000 C 
ATOM     42  F3  UNL A   1      22.246  46.987  51.164  1.00  0.00    +0.000 F 
ATOM     43  C34 UNL A   1      22.082  45.566  49.285  1.00  0.00    +0.000 C 
ATOM     44  F4  UNL A   1      21.899  46.625  48.485  1.00  0.00    +0.000 F 
ATOM     45  C35 UNL A   1      22.085  44.280  48.748  1.00  0.00    +0.000 C 
ATOM     46  F5  UNL A   1      21.892  44.133  47.429  1.00  0.00    +0.000 F 
ENDBRANCH   35   36
BRANCH   52   53
ATOM     53  C41 UNL A   1      17.934  37.479  48.743  1.00  0.00    +0.000 C 
ATOM     54  C42 UNL A   1      17.464  37.375  50.059  1.00  0.00    +0.000 C 
ATOM     55  F6  UNL A   1      18.303  37.551  51.092  1.00  0.00    +0.000 F 
ATOM     56  C43 UNL A   1      16.135  37.051  50.320  1.00  0.00    +0.000 C 
ATOM     57  F7  UNL A   1      15.717  36.913  51.587  1.00  0.00    +0.000 F 
ATOM     58  C44 UNL A   1      15.246  36.857  49.273  1.00  0.00    +0.000 C 
ATOM     59  F8  UNL A   1      13.968  36.551  49.527  1.00  0.00    +0.000 F 
ATOM     60  C45 UNL A   1      15.686  36.972  47.964  1.00  0.00    +0.000 C 
ATOM     61  F9  UNL A   1      14.827  36.796  46.950  1.00  0.00    +0.000 F 
ATOM     62  C46 UNL A   1      17.021  37.270  47.698  1.00  0.00    +0.000 C 
ATOM     63  F10 UNL A   1      17.420  37.365  46.422  1.00  0.00    +0.000 F 
ENDBRANCH   52   53
BRANCH   67   68
ATOM     68  C50 UNL A   1      23.181  33.950  45.828  1.00  0.00    +0.000 C 
ATOM     69  C51 UNL A   1      23.422  32.882  46.703  1.00  0.00    +0.000 C 
ATOM     70  F11 UNL A   1      23.552  33.110  48.018  1.00  0.00    +0.000 F 
ATOM     71  C52 UNL A   1      23.568  31.581  46.227  1.00  0.00    +0.000 C 
ATOM     72  F12 UNL A   1      23.839  30.583  47.081  1.00  0.00    +0.000 F 
ATOM     73  C53 UNL A   1      23.449  31.318  44.871  1.00  0.00    +0.000 C 
ATOM     74  F13 UNL A   1      23.586  30.067  44.414  1.00  0.00    +0.000 F 
ATOM     75  C54 UNL A   1      23.195  32.358  43.987  1.00  0.00    +0.000 C 
ATOM     76  F14 UNL A   1      23.066  32.107  42.678  1.00  0.00    +0.000 F 
ATOM     77  C55 UNL A   1      23.073  33.662  44.460  1.00  0.00    +0.000 C 
ATOM     78  F15 UNL A   1      22.837  34.650  43.583  1.00  0.00    +0.000 F 
ENDBRANCH   67   68
TORSDOF 21
ENDMDL
MODEL 8
REMARK VINA RESULT:      -8.6     21.728     28.173
ROOT
ATOM    129  H37 UNL A   1      18.471  53.285  -0.888  1.00  0.00    +0.000 H 
ATOM    130  H38 UNL A   1      17.988  50.830  -1.419  1.00  0.00    +0.000 H 
ATOM    131  H39 UNL A   1      11.946  50.201   6.585  1.00  0.00    +0.000 H 
ATOM    132  H40 UNL A   1      12.050  52.744   6.862  1.00  0.00    +0.000 H 
ATOM     31  C26 UNL A   1      13.857  54.020   5.064  1.00  0.00    +0.000 C 
ATOM     32  C27 UNL A   1      13.465  52.569   5.098  1.00  0.00    +0.000 C 
ATOM     33  N3  UNL A   1      13.857  51.587   4.325  1.00  0.00    +0.000 N 
ATOM     34  C28 UNL A   1      13.232  50.447   4.815  1.00  0.00    +0.000 C 
ATOM     35  C29 UNL A   1      13.277  49.185   4.327  1.00  0.00    +0.000 C 
ATOM     47  C36 UNL A   1      14.007  48.794   3.150  1.00  0.00    +0.000 C 
ATOM     48  C37 UNL A   1      14.054  47.555   2.535  1.00  0.00    +0.000 C 
ATOM     49  C38 UNL A   1      14.926  47.640   1.444  1.00  0.00    +0.000 C 
ATOM     50  C39 UNL A   1      15.390  48.942   1.354  1.00  0.00    +0.000 C 
ATOM     51  N4  UNL A   1      14.821  49.639   2.409  1.00  0.00    +0.000 N 
ATOM     52  C40 UNL A   1      16.285  49.511   0.381  1.00  0.00    +0.000 C 
ATOM     64  C47 UNL A   1      16.684  50.806   0.354  1.00  0.00    +0.000 C 
ATOM     65  N5  UNL A   1      16.338  51.842   1.212  1.00  0.00    +0.000 N 
ATOM     66  C48 UNL A   1      16.989  52.896   0.782  1.00  0.00    +0.000 C 
ATOM     67  C49 UNL A   1      16.973  54.302   1.315  1.00  0.00    +0.000 C 
ATOM     79  C56 UNL A   1      16.180  54.602   2.361  1.00  0.00    +0.000 C 
ATOM     80  C57 UNL A   1      16.054  55.920   2.976  1.00  0.00    +0.000 C 
ATOM     81  C58 UNL A   1      15.211  55.836   4.019  1.00  0.00    +0.000 C 
ATOM     82  C59 UNL A   1      14.716  54.464   4.127  1.00  0.00    +0.000 C 
ATOM     83  N6  UNL A   1      15.336  53.805   3.095  1.00  0.00    +0.000 N 
ATOM     84  C60 UNL A   1      17.841  52.639  -0.387  1.00  0.00    +0.000 C 
ATOM     85  C61 UNL A   1      17.589  51.361  -0.630  1.00  0.00    +0.000 C 
ATOM     86  C62 UNL A   1      12.470  50.850   5.977  1.00  0.00    +0.000 C 
ATOM     87  C63 UNL A   1      12.531  52.162   6.159  1.00  0.00    +0.000 C 
ATOM    123  H31 UNL A   1      13.535  46.713   2.829  1.00  0.00    +0.000 H 
ATOM    124  H32 UNL A   1      15.180  46.864   0.813  1.00  0.00    +0.000 H 
ATOM    125  H33 UNL A   1      14.971  50.592   2.603  1.00  0.00    +0.000 H 
ATOM    126  H34 UNL A   1      16.533  56.777   2.660  1.00  0.00    +0.000 H 
ATOM    127  H35 UNL A   1      14.956  56.616   4.645  1.00  0.00    +0.000 H 
ATOM    128  H36 UNL A   1      15.188  52.851   2.899  1.00  0.00    +0.000 H 
ENDROOT
BRANCH   31   30
ATOM    133  H41 UNL A   1      14.966  54.607   7.434  1.00  0.00    +0.000 H 
ATOM    134  H42 UNL A   1      14.144  56.089   9.167  1.00  0.00    +0.000 H 
ATOM     29  C24 UNL A   1      12.172  55.682   5.916  1.00  0.00    +0.000 C 
ATOM     88  C64 UNL A   1      14.090  55.134   7.288  1.00  0.00    +0.000 C 
ATOM     89  C65 UNL A   1      13.639  56.015   8.270  1.00  0.00    +0.000 C 
ATOM    122  H30 UNL A   1      11.605  55.529   5.068  1.00  0.00    +0.000 H 
ATOM     27  C22 UNL A   1      12.504  56.796   8.040  1.00  0.00    +0.000 C 
ATOM     28  C23 UNL A   1      11.754  56.609   6.874  1.00  0.00    +0.000 C 
ATOM    121  H29 UNL A   1      10.892  57.156   6.721  1.00  0.00    +0.000 H 
ATOM     30  C25 UNL A   1      13.360  54.957   6.103  1.00  0.00    +0.000 C 
BRANCH   27   25
ATOM     25  C21 UNL A   1      12.038  57.790   9.034  1.00  0.00    +0.000 C 
ATOM     26  O2  UNL A   1      12.263  58.980   8.853  1.00  0.00    +0.000 O 
BRANCH   25   24
ATOM    120  H28 UNL A   1      11.452  57.973  10.941  1.00  0.00    +0.000 H 
ATOM     24  N2  UNL A   1      11.355  57.386  10.156  1.00  0.00    +0.000 N 
BRANCH   24   23
ATOM    119  H27 UNL A   1      10.171  55.889   9.395  1.00  0.00    +0.000 H 
ATOM    118  H26 UNL A   1       9.689  56.491  10.984  1.00  0.00    +0.000 H 
ATOM     23  C20 UNL A   1      10.510  56.218  10.355  1.00  0.00    +0.000 C 
BRANCH   23   22
ATOM    116  H24 UNL A   1      12.300  55.146  10.729  1.00  0.00    +0.000 H 
ATOM    117  H25 UNL A   1      11.107  55.157  12.061  1.00  0.00    +0.000 H 
ATOM     22  C19 UNL A   1      11.270  55.065  11.007  1.00  0.00    +0.000 C 
BRANCH   22   21
ATOM    114  H22 UNL A   1      11.288  52.956  11.239  1.00  0.00    +0.000 H 
ATOM    115  H23 UNL A   1       9.721  53.680  10.750  1.00  0.00    +0.000 H 
ATOM     21  C18 UNL A   1      10.782  53.665  10.618  1.00  0.00    +0.000 C 
BRANCH   21   20
ATOM    113  H21 UNL A   1      11.499  52.307   9.185  1.00  0.00    +0.000 H 
ATOM     20  C17 UNL A   1      11.015  53.261   9.156  1.00  0.00    +0.000 C 
ATOM    112  H20 UNL A   1      11.603  54.026   8.691  1.00  0.00    +0.000 H 
BRANCH   20   19
ATOM     19  C16 UNL A   1       9.745  53.066   8.318  1.00  0.00    +0.000 C 
ATOM    110  H18 UNL A   1       9.141  53.943   8.414  1.00  0.00    +0.000 H 
ATOM    111  H19 UNL A   1      10.063  52.893   7.311  1.00  0.00    +0.000 H 
BRANCH   19   18
ATOM     18  C15 UNL A   1       8.908  51.856   8.733  1.00  0.00    +0.000 C 
ATOM    108  H16 UNL A   1       9.557  51.108   9.139  1.00  0.00    +0.000 H 
ATOM    109  H17 UNL A   1       8.192  52.181   9.459  1.00  0.00    +0.000 H 
BRANCH   18   17
ATOM     17  N1  UNL A   1       8.184  51.289   7.615  1.00  0.00    +0.000 N 
ATOM    107  H15 UNL A   1       7.223  51.497   7.603  1.00  0.00    +0.000 H 
BRANCH   17   15
ATOM     15  C14 UNL A   1       8.607  50.518   6.576  1.00  0.00    +0.000 C 
ATOM     16  O1  UNL A   1       9.364  49.581   6.858  1.00  0.00    +0.000 O 
BRANCH   15   13
ATOM     13  C12 UNL A   1       8.214  50.772   5.112  1.00  0.00    +0.000 C 
ATOM    103  H11 UNL A   1       7.275  51.285   5.152  1.00  0.00    +0.000 H 
BRANCH   13   12
ATOM    101  H9  UNL A   1       9.972  55.009   4.242  1.00  0.00    +0.000 H 
ATOM    102  H10 UNL A   1       8.662  53.467   5.551  1.00  0.00    +0.000 H 
ATOM    135  H43 UNL A   1       9.902  50.320   3.078  1.00  0.00    +0.000 H 
ATOM    136  H44 UNL A   1      11.339  51.835   1.872  1.00  0.00    +0.000 H 
ATOM      9  C8  UNL A   1      10.769  53.577   2.916  1.00  0.00    +0.000 C 
ATOM     10  C9  UNL A   1       9.977  54.007   3.993  1.00  0.00    +0.000 C 
ATOM     11  C10 UNL A   1       9.194  53.117   4.741  1.00  0.00    +0.000 C 
ATOM     12  C11 UNL A   1       9.124  51.763   4.405  1.00  0.00    +0.000 C 
ATOM     90  C66 UNL A   1       9.920  51.318   3.341  1.00  0.00    +0.000 C 
ATOM     91  C67 UNL A   1      10.740  52.202   2.628  1.00  0.00    +0.000 C 
BRANCH    9    8
ATOM     98  H6  UNL A   1      13.718  57.023   0.077  1.00  0.00    +0.000 H 
ATOM     99  H7  UNL A   1      13.882  54.642  -0.349  1.00  0.00    +0.000 H 
ATOM      4  C3  UNL A   1      12.272  56.831   1.601  1.00  0.00    +0.000 C 
ATOM      5  C4  UNL A   1      13.143  56.360   0.620  1.00  0.00    +0.000 C 
ATOM      6  C5  UNL A   1      13.236  54.992   0.375  1.00  0.00    +0.000 C 
ATOM      7  C6  UNL A   1      12.455  54.093   1.108  1.00  0.00    +0.000 C 
ATOM      8  C7  UNL A   1      11.573  54.531   2.113  1.00  0.00    +0.000 C 
ATOM    137  H45 UNL A   1      10.851  56.279   3.053  1.00  0.00    +0.000 H 
ATOM    100  H8  UNL A   1      12.527  53.084   0.907  1.00  0.00    +0.000 H 
ATOM     92  C68 UNL A   1      11.497  55.921   2.333  1.00  0.00    +0.000 C 
BRANCH    4    3
ATOM      3  S1  UNL A   1      12.083  58.584   1.862  1.00  0.00    +0.000 S 
BRANCH    3    2
ATOM     97  H5  UNL A   1      13.910  59.921   2.590  1.00  0.00    +0.000 H 
ATOM      2  C2  UNL A   1      13.574  58.938   2.852  1.00  0.00    +0.000 C 
ATOM     96  H4  UNL A   1      14.314  58.197   2.635  1.00  0.00    +0.000 H 
BRANCH    2    1
ATOM      1  C1  UNL A   1      13.299  58.929   4.345  1.00  0.00    +0.000 C 
ATOM     93  H1  UNL A   1      13.465  59.909   4.745  1.00  0.00    +0.000 H 
ATOM     94  H2  UNL A   1      13.956  58.234   4.825  1.00  0.00    +0.000 H 
ATOM     95  H3  UNL A   1      12.284  58.640   4.520  1.00  0.00    +0.000 H 
ENDBRANCH    2    1
ENDBRANCH    3    2
ENDBRANCH    4    3
ENDBRANCH    9    8
ENDBRANCH   13   12
BRANCH   13   14
ATOM    105  H13 UNL A   1       8.747  49.045   3.969  1.00  0.00    +0.000 H 
ATOM    106  H14 UNL A   1       7.230  49.772   3.497  1.00  0.00    +0.000 H 
ATOM     14  C13 UNL A   1       7.852  49.510   4.327  1.00  0.00    +0.000 C 
ATOM    104  H12 UNL A   1       7.328  48.831   4.966  1.00  0.00    +0.000 H 
ENDBRANCH   13   14
ENDBRANCH   15   13
ENDBRANCH   17   15
ENDBRANCH   18   17
ENDBRANCH   19   18
ENDBRANCH   20   19
ENDBRANCH   21   20
ENDBRANCH   22   21
ENDBRANCH   23   22
ENDBRANCH   24   23
ENDBRANCH   25   24
ENDBRANCH   27   25
ENDBRANCH   31   30
BRANCH   35   36
ATOM     36  C30 UNL A   1      12.507  48.127   5.063  1.00  0.00    +0.000 C 
ATOM     37  C31 UNL A   1      11.255  47.682   4.613  1.00  0.00    +0.000 C 
ATOM     38  F1  UNL A   1      10.689  48.241   3.533  1.00  0.00    +0.000 F 
ATOM     39  C32 UNL A   1      10.563  46.683   5.293  1.00  0.00    +0.000 C 
ATOM     40  F2  UNL A   1       9.349  46.304   4.869  1.00  0.00    +0.000 F 
ATOM     41  C33 UNL A   1      11.122  46.088   6.413  1.00  0.00    +0.000 C 
ATOM     42  F3  UNL A   1      10.459  45.121   7.062  1.00  0.00    +0.000 F 
ATOM     43  C34 UNL A   1      12.367  46.499   6.866  1.00  0.00    +0.000 C 
ATOM     44  F4  UNL A   1      12.913  45.917   7.942  1.00  0.00    +0.000 F 
ATOM     45  C35 UNL A   1      13.050  47.517   6.204  1.00  0.00    +0.000 C 
ATOM     46  F5  UNL A   1      14.246  47.901   6.672  1.00  0.00    +0.000 F 
ENDBRANCH   35   36
BRANCH   52   53
ATOM     53  C41 UNL A   1      16.806  48.612  -0.701  1.00  0.00    +0.000 C 
ATOM     54  C42 UNL A   1      18.037  47.952  -0.576  1.00  0.00    +0.000 C 
ATOM     55  F6  UNL A   1      18.806  48.156   0.503  1.00  0.00    +0.000 F 
ATOM     56  C43 UNL A   1      18.499  47.108  -1.582  1.00  0.00    +0.000 C 
ATOM     57  F7  UNL A   1      19.699  46.522  -1.464  1.00  0.00    +0.000 F 
ATOM     58  C44 UNL A   1      17.728  46.884  -2.714  1.00  0.00    +0.000 C 
ATOM     59  F8  UNL A   1      18.174  46.067  -3.677  1.00  0.00    +0.000 F 
ATOM     60  C45 UNL A   1      16.500  47.512  -2.848  1.00  0.00    +0.000 C 
ATOM     61  F9  UNL A   1      15.749  47.288  -3.935  1.00  0.00    +0.000 F 
ATOM     62  C46 UNL A   1      16.046  48.378  -1.856  1.00  0.00    +0.000 C 
ATOM     63  F10 UNL A   1      14.859  48.980  -2.019  1.00  0.00    +0.000 F 
ENDBRANCH   52   53
BRANCH   67   68
ATOM     68  C50 UNL A   1      17.799  55.363   0.686  1.00  0.00    +0.000 C 
ATOM     69  C51 UNL A   1      17.365  56.016  -0.477  1.00  0.00    +0.000 C 
ATOM     70  F11 UNL A   1      16.202  55.667  -1.045  1.00  0.00    +0.000 F 
ATOM     71  C52 UNL A   1      18.142  57.001  -1.081  1.00  0.00    +0.000 C 
ATOM     72  F12 UNL A   1      17.723  57.581  -2.215  1.00  0.00    +0.000 F 
ATOM     73  C53 UNL A   1      19.354  57.374  -0.519  1.00  0.00    +0.000 C 
ATOM     74  F13 UNL A   1      20.099  58.324  -1.098  1.00  0.00    +0.000 F 
ATOM     75  C54 UNL A   1      19.796  56.753   0.640  1.00  0.00    +0.000 C 
ATOM     76  F14 UNL A   1      20.960  57.119   1.193  1.00  0.00    +0.000 F 
ATOM     77  C55 UNL A   1      19.031  55.750   1.231  1.00  0.00    +0.000 C 
ATOM     78  F15 UNL A   1      19.486  55.159   2.346  1.00  0.00    +0.000 F 
ENDBRANCH   67   68
TORSDOF 21
ENDMDL
MODEL 9
REMARK VINA RESULT:      -8.6     35.434     41.243
ROOT
ATOM    129  H37 UNL A   1      22.593  66.716   5.309  1.00  0.00    +0.000 H 
ATOM    130  H38 UNL A   1      24.773  67.969   5.779  1.00  0.00    +0.000 H 
ATOM    131  H39 UNL A   1      29.750  61.800  -0.396  1.00  0.00    +0.000 H 
ATOM    132  H40 UNL A   1      27.526  60.839  -1.227  1.00  0.00    +0.000 H 
ATOM     31  C26 UNL A   1      25.253  61.831   0.179  1.00  0.00    +0.000 C 
ATOM     32  C27 UNL A   1      26.686  62.265   0.324  1.00  0.00    +0.000 C 
ATOM     33  N3  UNL A   1      27.198  63.178   1.110  1.00  0.00    +0.000 N 
ATOM     34  C28 UNL A   1      28.568  63.146   0.884  1.00  0.00    +0.000 C 
ATOM     35  C29 UNL A   1      29.531  63.934   1.420  1.00  0.00    +0.000 C 
ATOM     47  C36 UNL A   1      29.281  65.002   2.352  1.00  0.00    +0.000 C 
ATOM     48  C37 UNL A   1      30.181  65.904   2.893  1.00  0.00    +0.000 C 
ATOM     49  C38 UNL A   1      29.488  66.735   3.781  1.00  0.00    +0.000 C 
ATOM     50  C39 UNL A   1      28.149  66.379   3.760  1.00  0.00    +0.000 C 
ATOM     51  N4  UNL A   1      28.037  65.312   2.882  1.00  0.00    +0.000 N 
ATOM     52  C40 UNL A   1      27.054  66.965   4.487  1.00  0.00    +0.000 C 
ATOM     64  C47 UNL A   1      25.762  66.564   4.402  1.00  0.00    +0.000 C 
ATOM     65  N5  UNL A   1      25.213  65.548   3.631  1.00  0.00    +0.000 N 
ATOM     66  C48 UNL A   1      23.931  65.542   3.905  1.00  0.00    +0.000 C 
ATOM     67  C49 UNL A   1      22.846  64.667   3.342  1.00  0.00    +0.000 C 
ATOM     79  C56 UNL A   1      23.154  63.759   2.397  1.00  0.00    +0.000 C 
ATOM     80  C57 UNL A   1      22.208  62.853   1.753  1.00  0.00    +0.000 C 
ATOM     81  C58 UNL A   1      22.875  62.060   0.898  1.00  0.00    +0.000 C 
ATOM     82  C59 UNL A   1      24.292  62.424   0.912  1.00  0.00    +0.000 C 
ATOM     83  N6  UNL A   1      24.363  63.449   1.822  1.00  0.00    +0.000 N 
ATOM     84  C60 UNL A   1      23.525  66.542   4.903  1.00  0.00    +0.000 C 
ATOM     85  C61 UNL A   1      24.671  67.163   5.144  1.00  0.00    +0.000 C 
ATOM     86  C62 UNL A   1      28.813  62.095  -0.080  1.00  0.00    +0.000 C 
ATOM     87  C63 UNL A   1      27.676  61.561  -0.504  1.00  0.00    +0.000 C 
ATOM    123  H31 UNL A   1      31.189  65.955   2.680  1.00  0.00    +0.000 H 
ATOM    124  H32 UNL A   1      29.904  67.486   4.353  1.00  0.00    +0.000 H 
ATOM    125  H33 UNL A   1      27.198  64.844   2.666  1.00  0.00    +0.000 H 
ATOM    126  H34 UNL A   1      21.192  62.826   1.927  1.00  0.00    +0.000 H 
ATOM    127  H35 UNL A   1      22.454  61.313   0.323  1.00  0.00    +0.000 H 
ATOM    128  H36 UNL A   1      25.200  63.918   2.041  1.00  0.00    +0.000 H 
ENDROOT
BRANCH   31   30
ATOM    133  H41 UNL A   1      24.916  61.866  -2.481  1.00  0.00    +0.000 H 
ATOM    134  H42 UNL A   1      24.280  60.049  -3.954  1.00  0.00    +0.000 H 
ATOM     29  C24 UNL A   1      24.696  59.408  -0.207  1.00  0.00    +0.000 C 
ATOM     88  C64 UNL A   1      24.768  60.920  -2.096  1.00  0.00    +0.000 C 
ATOM     89  C65 UNL A   1      24.440  59.868  -2.950  1.00  0.00    +0.000 C 
ATOM    122  H30 UNL A   1      24.747  59.244   0.810  1.00  0.00    +0.000 H 
ATOM     27  C22 UNL A   1      24.327  58.569  -2.447  1.00  0.00    +0.000 C 
ATOM     28  C23 UNL A   1      24.428  58.344  -1.071  1.00  0.00    +0.000 C 
ATOM    121  H29 UNL A   1      24.304  57.391  -0.693  1.00  0.00    +0.000 H 
ATOM     30  C25 UNL A   1      24.897  60.701  -0.716  1.00  0.00    +0.000 C 
BRANCH   27   25
ATOM     25  C21 UNL A   1      24.048  57.420  -3.339  1.00  0.00    +0.000 C 
ATOM     26  O2  UNL A   1      23.386  56.478  -2.923  1.00  0.00    +0.000 O 
BRANCH   25   24
ATOM    120  H28 UNL A   1      24.089  58.041  -5.243  1.00  0.00    +0.000 H 
ATOM     24  N2  UNL A   1      24.524  57.406  -4.628  1.00  0.00    +0.000 N 
BRANCH   24   23
ATOM    119  H27 UNL A   1      25.113  55.887  -5.879  1.00  0.00    +0.000 H 
ATOM    118  H26 UNL A   1      26.108  56.097  -4.435  1.00  0.00    +0.000 H 
ATOM     23  C20 UNL A   1      25.574  56.592  -5.219  1.00  0.00    +0.000 C 
BRANCH   23   22
ATOM    116  H24 UNL A   1      27.532  57.308  -5.605  1.00  0.00    +0.000 H 
ATOM    117  H25 UNL A   1      26.493  57.069  -7.041  1.00  0.00    +0.000 H 
ATOM     22  C19 UNL A   1      26.559  57.427  -6.035  1.00  0.00    +0.000 C 
BRANCH   22   21
ATOM    114  H22 UNL A   1      26.005  59.174  -7.104  1.00  0.00    +0.000 H 
ATOM    115  H23 UNL A   1      25.440  59.081  -5.403  1.00  0.00    +0.000 H 
ATOM     21  C18 UNL A   1      26.245  58.927  -6.091  1.00  0.00    +0.000 C 
BRANCH   21   20
ATOM    113  H21 UNL A   1      27.455  59.727  -4.573  1.00  0.00    +0.000 H 
ATOM     20  C17 UNL A   1      27.372  59.861  -5.631  1.00  0.00    +0.000 C 
ATOM    112  H20 UNL A   1      27.112  60.859  -5.918  1.00  0.00    +0.000 H 
BRANCH   20   19
ATOM     19  C16 UNL A   1      28.759  59.550  -6.207  1.00  0.00    +0.000 C 
ATOM    110  H18 UNL A   1      29.268  58.902  -5.525  1.00  0.00    +0.000 H 
ATOM    111  H19 UNL A   1      28.602  59.099  -7.164  1.00  0.00    +0.000 H 
BRANCH   19   18
ATOM     18  C15 UNL A   1      29.628  60.787  -6.437  1.00  0.00    +0.000 C 
ATOM    108  H16 UNL A   1      30.236  60.626  -7.303  1.00  0.00    +0.000 H 
ATOM    109  H17 UNL A   1      28.980  61.628  -6.571  1.00  0.00    +0.000 H 
BRANCH   18   17
ATOM     17  N1  UNL A   1      30.489  61.061  -5.306  1.00  0.00    +0.000 N 
ATOM    107  H15 UNL A   1      31.362  60.610  -5.339  1.00  0.00    +0.000 H 
BRANCH   17   15
ATOM     15  C14 UNL A   1      30.297  61.839  -4.205  1.00  0.00    +0.000 C 
ATOM     16  O1  UNL A   1      30.423  61.281  -3.108  1.00  0.00    +0.000 O 
BRANCH   15   13
ATOM     13  C12 UNL A   1      29.919  63.327  -4.270  1.00  0.00    +0.000 C 
ATOM    103  H11 UNL A   1      29.772  63.541  -5.308  1.00  0.00    +0.000 H 
BRANCH   13   12
ATOM    101  H9  UNL A   1      25.287  62.924  -3.848  1.00  0.00    +0.000 H 
ATOM    102  H10 UNL A   1      27.421  62.229  -4.726  1.00  0.00    +0.000 H 
ATOM    135  H43 UNL A   1      29.330  65.103  -2.348  1.00  0.00    +0.000 H 
ATOM    136  H44 UNL A   1      27.213  65.684  -1.352  1.00  0.00    +0.000 H 
ATOM      9  C8  UNL A   1      26.038  64.386  -2.529  1.00  0.00    +0.000 C 
ATOM     10  C9  UNL A   1      26.145  63.387  -3.509  1.00  0.00    +0.000 C 
ATOM     11  C10 UNL A   1      27.382  62.997  -4.040  1.00  0.00    +0.000 C 
ATOM     12  C11 UNL A   1      28.564  63.634  -3.654  1.00  0.00    +0.000 C 
ATOM     90  C66 UNL A   1      28.473  64.624  -2.666  1.00  0.00    +0.000 C 
ATOM     91  C67 UNL A   1      27.240  64.975  -2.101  1.00  0.00    +0.000 C 
BRANCH    9    8
ATOM     98  H6  UNL A   1      21.285  65.853  -0.557  1.00  0.00    +0.000 H 
ATOM     99  H7  UNL A   1      23.326  66.729   0.411  1.00  0.00    +0.000 H 
ATOM      4  C3  UNL A   1      22.266  64.694  -2.022  1.00  0.00    +0.000 C 
ATOM      5  C4  UNL A   1      22.200  65.575  -0.943  1.00  0.00    +0.000 C 
ATOM      6  C5  UNL A   1      23.374  66.079  -0.388  1.00  0.00    +0.000 C 
ATOM      7  C6  UNL A   1      24.615  65.706  -0.912  1.00  0.00    +0.000 C 
ATOM      8  C7  UNL A   1      24.721  64.811  -1.992  1.00  0.00    +0.000 C 
ATOM    137  H45 UNL A   1      23.555  63.674  -3.337  1.00  0.00    +0.000 H 
ATOM    100  H8  UNL A   1      25.475  66.097  -0.497  1.00  0.00    +0.000 H 
ATOM     92  C68 UNL A   1      23.516  64.323  -2.536  1.00  0.00    +0.000 C 
BRANCH    4    3
ATOM      3  S1  UNL A   1      20.769  64.111  -2.792  1.00  0.00    +0.000 S 
BRANCH    3    2
ATOM     97  H5  UNL A   1      19.310  62.549  -1.750  1.00  0.00    +0.000 H 
ATOM      2  C2  UNL A   1      20.371  62.689  -1.722  1.00  0.00    +0.000 C 
ATOM     96  H4  UNL A   1      20.714  62.900  -0.730  1.00  0.00    +0.000 H 
BRANCH    2    1
ATOM      1  C1  UNL A   1      21.017  61.400  -2.197  1.00  0.00    +0.000 C 
ATOM     93  H1  UNL A   1      21.195  61.458  -3.251  1.00  0.00    +0.000 H 
ATOM     94  H2  UNL A   1      20.366  60.577  -1.990  1.00  0.00    +0.000 H 
ATOM     95  H3  UNL A   1      21.947  61.257  -1.687  1.00  0.00    +0.000 H 
ENDBRANCH    2    1
ENDBRANCH    3    2
ENDBRANCH    4    3
ENDBRANCH    9    8
ENDBRANCH   13   12
BRANCH   13   14
ATOM    105  H13 UNL A   1      31.987  63.871  -4.235  1.00  0.00    +0.000 H 
ATOM    106  H14 UNL A   1      31.081  64.424  -2.848  1.00  0.00    +0.000 H 
ATOM     14  C13 UNL A   1      31.057  64.284  -3.908  1.00  0.00    +0.000 C 
ATOM    104  H12 UNL A   1      30.896  65.226  -4.389  1.00  0.00    +0.000 H 
ENDBRANCH   13   14
ENDBRANCH   15   13
ENDBRANCH   17   15
ENDBRANCH   18   17
ENDBRANCH   19   18
ENDBRANCH   20   19
ENDBRANCH   21   20
ENDBRANCH   22   21
ENDBRANCH   23   22
ENDBRANCH   24   23
ENDBRANCH   25   24
ENDBRANCH   27   25
ENDBRANCH   31   30
BRANCH   35   36
ATOM     36  C30 UNL A   1      30.951  63.677   1.007  1.00  0.00    +0.000 C 
ATOM     37  C31 UNL A   1      31.731  62.693   1.632  1.00  0.00    +0.000 C 
ATOM     38  F1  UNL A   1      31.235  61.992   2.662  1.00  0.00    +0.000 F 
ATOM     39  C32 UNL A   1      33.039  62.449   1.222  1.00  0.00    +0.000 C 
ATOM     40  F2  UNL A   1      33.780  61.533   1.862  1.00  0.00    +0.000 F 
ATOM     41  C33 UNL A   1      33.580  63.159   0.161  1.00  0.00    +0.000 C 
ATOM     42  F3  UNL A   1      34.837  62.918  -0.237  1.00  0.00    +0.000 F 
ATOM     43  C34 UNL A   1      32.821  64.125  -0.484  1.00  0.00    +0.000 C 
ATOM     44  F4  UNL A   1      33.339  64.804  -1.516  1.00  0.00    +0.000 F 
ATOM     45  C35 UNL A   1      31.521  64.390  -0.059  1.00  0.00    +0.000 C 
ATOM     46  F5  UNL A   1      30.816  65.337  -0.694  1.00  0.00    +0.000 F 
ENDBRANCH   35   36
BRANCH   52   53
ATOM     53  C41 UNL A   1      27.354  68.121   5.394  1.00  0.00    +0.000 C 
ATOM     54  C42 UNL A   1      27.718  67.926   6.734  1.00  0.00    +0.000 C 
ATOM     55  F6  UNL A   1      27.756  66.688   7.250  1.00  0.00    +0.000 F 
ATOM     56  C43 UNL A   1      28.010  69.008   7.560  1.00  0.00    +0.000 C 
ATOM     57  F7  UNL A   1      28.314  68.802   8.849  1.00  0.00    +0.000 F 
ATOM     58  C44 UNL A   1      27.973  70.300   7.055  1.00  0.00    +0.000 C 
ATOM     59  F8  UNL A   1      28.260  71.338   7.850  1.00  0.00    +0.000 F 
ATOM     60  C45 UNL A   1      27.632  70.513   5.729  1.00  0.00    +0.000 C 
ATOM     61  F9  UNL A   1      27.607  71.760   5.236  1.00  0.00    +0.000 F 
ATOM     62  C46 UNL A   1      27.314  69.435   4.906  1.00  0.00    +0.000 C 
ATOM     63  F10 UNL A   1      26.977  69.673   3.631  1.00  0.00    +0.000 F 
ENDBRANCH   52   53
BRANCH   67   68
ATOM     68  C50 UNL A   1      21.439  64.811   3.796  1.00  0.00    +0.000 C 
ATOM     69  C51 UNL A   1      20.532  65.606   3.081  1.00  0.00    +0.000 C 
ATOM     70  F11 UNL A   1      20.938  66.263   1.985  1.00  0.00    +0.000 F 
ATOM     71  C52 UNL A   1      19.216  65.758   3.511  1.00  0.00    +0.000 C 
ATOM     72  F12 UNL A   1      18.380  66.556   2.831  1.00  0.00    +0.000 F 
ATOM     73  C53 UNL A   1      18.773  65.097   4.646  1.00  0.00    +0.000 C 
ATOM     74  F13 UNL A   1      17.506  65.240   5.056  1.00  0.00    +0.000 F 
ATOM     75  C54 UNL A   1      19.649  64.292   5.361  1.00  0.00    +0.000 C 
ATOM     76  F14 UNL A   1      19.222  63.642   6.451  1.00  0.00    +0.000 F 
ATOM     77  C55 UNL A   1      20.972  64.160   4.946  1.00  0.00    +0.000 C 
ATOM     78  F15 UNL A   1      21.801  63.384   5.661  1.00  0.00    +0.000 F 
ENDBRANCH   67   68
TORSDOF 21
ENDMDL
MODEL 10
REMARK VINA RESULT:      -8.5     21.501     27.788
ROOT
ATOM    129  H37 UNL A   1      13.466  46.706   2.582  1.00  0.00    +0.000 H 
ATOM    130  H38 UNL A   1      15.213  46.906   0.725  1.00  0.00    +0.000 H 
ATOM    131  H39 UNL A   1      16.393  56.673   2.771  1.00  0.00    +0.000 H 
ATOM    132  H40 UNL A   1      15.010  56.391   4.907  1.00  0.00    +0.000 H 
ATOM     31  C26 UNL A   1      13.878  53.792   5.205  1.00  0.00    +0.000 C 
ATOM     32  C27 UNL A   1      14.831  54.264   4.142  1.00  0.00    +0.000 C 
ATOM     33  N3  UNL A   1      15.345  53.599   3.138  1.00  0.00    +0.000 N 
ATOM     34  C28 UNL A   1      16.121  54.514   2.436  1.00  0.00    +0.000 C 
ATOM     35  C29 UNL A   1      16.896  54.302   1.346  1.00  0.00    +0.000 C 
ATOM     47  C36 UNL A   1      17.066  53.025   0.706  1.00  0.00    +0.000 C 
ATOM     48  C37 UNL A   1      17.888  52.695  -0.359  1.00  0.00    +0.000 C 
ATOM     49  C38 UNL A   1      17.690  51.343  -0.662  1.00  0.00    +0.000 C 
ATOM     50  C39 UNL A   1      16.777  50.821   0.239  1.00  0.00    +0.000 C 
ATOM     51  N4  UNL A   1      16.400  51.864   1.071  1.00  0.00    +0.000 N 
ATOM     52  C40 UNL A   1      16.284  49.472   0.337  1.00  0.00    +0.000 C 
ATOM     64  C47 UNL A   1      15.395  49.034   1.261  1.00  0.00    +0.000 C 
ATOM     65  N5  UNL A   1      14.781  49.743   2.285  1.00  0.00    +0.000 N 
ATOM     66  C48 UNL A   1      13.999  48.887   2.896  1.00  0.00    +0.000 C 
ATOM     67  C49 UNL A   1      13.115  49.098   4.093  1.00  0.00    +0.000 C 
ATOM     79  C56 UNL A   1      13.094  50.304   4.693  1.00  0.00    +0.000 C 
ATOM     80  C57 UNL A   1      12.297  50.652   5.865  1.00  0.00    +0.000 C 
ATOM     81  C58 UNL A   1      12.493  51.948   6.158  1.00  0.00    +0.000 C 
ATOM     82  C59 UNL A   1      13.454  52.514   5.211  1.00  0.00    +0.000 C 
ATOM     83  N6  UNL A   1      13.765  51.462   4.385  1.00  0.00    +0.000 N 
ATOM     84  C60 UNL A   1      14.011  47.539   2.311  1.00  0.00    +0.000 C 
ATOM     85  C61 UNL A   1      14.905  47.673   1.342  1.00  0.00    +0.000 C 
ATOM     86  C62 UNL A   1      15.976  55.789   3.104  1.00  0.00    +0.000 C 
ATOM     87  C63 UNL A   1      15.238  55.675   4.200  1.00  0.00    +0.000 C 
ATOM    123  H31 UNL A   1      18.535  53.335  -0.844  1.00  0.00    +0.000 H 
ATOM    124  H32 UNL A   1      18.147  50.824  -1.428  1.00  0.00    +0.000 H 
ATOM    125  H33 UNL A   1      15.755  51.791   1.811  1.00  0.00    +0.000 H 
ATOM    126  H34 UNL A   1      11.683  50.007   6.385  1.00  0.00    +0.000 H 
ATOM    127  H35 UNL A   1      12.037  52.463   6.928  1.00  0.00    +0.000 H 
ATOM    128  H36 UNL A   1      14.408  51.532   3.643  1.00  0.00    +0.000 H 
ENDROOT
BRANCH   31   30
ATOM    133  H41 UNL A   1      15.039  54.640   7.468  1.00  0.00    +0.000 H 
ATOM    134  H42 UNL A   1      14.161  56.149   9.150  1.00  0.00    +0.000 H 
ATOM     29  C24 UNL A   1      12.080  55.337   6.047  1.00  0.00    +0.000 C 
ATOM     88  C64 UNL A   1      14.109  55.069   7.340  1.00  0.00    +0.000 C 
ATOM     89  C65 UNL A   1      13.622  55.966   8.289  1.00  0.00    +0.000 C 
ATOM    122  H30 UNL A   1      11.490  55.074   5.243  1.00  0.00    +0.000 H 
ATOM     27  C22 UNL A   1      12.405  56.617   8.075  1.00  0.00    +0.000 C 
ATOM     28  C23 UNL A   1      11.620  56.282   6.968  1.00  0.00    +0.000 C 
ATOM    121  H29 UNL A   1      10.701  56.732   6.830  1.00  0.00    +0.000 H 
ATOM     30  C25 UNL A   1      13.342  54.744   6.210  1.00  0.00    +0.000 C 
BRANCH   27   25
ATOM     25  C21 UNL A   1      11.893  57.627   9.031  1.00  0.00    +0.000 C 
ATOM     26  O2  UNL A   1      12.434  58.722   9.103  1.00  0.00    +0.000 O 
BRANCH   25   24
ATOM    120  H28 UNL A   1       9.939  57.364   9.384  1.00  0.00    +0.000 H 
ATOM     24  N2  UNL A   1      10.815  57.342   9.834  1.00  0.00    +0.000 N 
BRANCH   24   23
ATOM    119  H27 UNL A   1       9.768  56.757  11.503  1.00  0.00    +0.000 H 
ATOM    118  H26 UNL A   1      11.111  57.863  11.810  1.00  0.00    +0.000 H 
ATOM     23  C20 UNL A   1      10.776  57.014  11.251  1.00  0.00    +0.000 C 
BRANCH   23   22
ATOM    116  H24 UNL A   1      11.894  55.307  10.677  1.00  0.00    +0.000 H 
ATOM    117  H25 UNL A   1      12.529  56.219  12.079  1.00  0.00    +0.000 H 
ATOM     22  C19 UNL A   1      11.666  55.819  11.589  1.00  0.00    +0.000 C 
BRANCH   22   21
ATOM    114  H22 UNL A   1      11.668  53.934  12.562  1.00  0.00    +0.000 H 
ATOM    115  H23 UNL A   1      10.998  55.305  13.506  1.00  0.00    +0.000 H 
ATOM     21  C18 UNL A   1      11.049  54.807  12.561  1.00  0.00    +0.000 C 
BRANCH   21   20
ATOM    113  H21 UNL A   1       9.531  54.374  11.176  1.00  0.00    +0.000 H 
ATOM     20  C17 UNL A   1       9.614  54.367  12.243  1.00  0.00    +0.000 C 
ATOM    112  H20 UNL A   1       8.945  55.045  12.730  1.00  0.00    +0.000 H 
BRANCH   20   19
ATOM     19  C16 UNL A   1       9.250  52.944  12.685  1.00  0.00    +0.000 C 
ATOM    110  H18 UNL A   1      10.073  52.300  12.457  1.00  0.00    +0.000 H 
ATOM    111  H19 UNL A   1       9.042  52.990  13.733  1.00  0.00    +0.000 H 
BRANCH   19   18
ATOM     18  C15 UNL A   1       7.998  52.384  12.009  1.00  0.00    +0.000 C 
ATOM    108  H16 UNL A   1       8.132  51.334  11.849  1.00  0.00    +0.000 H 
ATOM    109  H17 UNL A   1       7.162  52.575  12.648  1.00  0.00    +0.000 H 
BRANCH   18   17
ATOM     17  N1  UNL A   1       7.741  53.021  10.735  1.00  0.00    +0.000 N 
ATOM    107  H15 UNL A   1       7.727  54.004  10.765  1.00  0.00    +0.000 H 
BRANCH   17   15
ATOM     15  C14 UNL A   1       7.516  52.492   9.500  1.00  0.00    +0.000 C 
ATOM     16  O1  UNL A   1       6.366  52.094   9.273  1.00  0.00    +0.000 O 
BRANCH   15   13
ATOM     13  C12 UNL A   1       8.603  52.350   8.424  1.00  0.00    +0.000 C 
ATOM    103  H11 UNL A   1       8.643  53.299   7.930  1.00  0.00    +0.000 H 
BRANCH   13   12
ATOM    101  H9  UNL A   1      12.891  53.820   9.546  1.00  0.00    +0.000 H 
ATOM    102  H10 UNL A   1      10.623  54.199   8.824  1.00  0.00    +0.000 H 
ATOM    135  H43 UNL A   1       9.768  50.136   9.392  1.00  0.00    +0.000 H 
ATOM    136  H44 UNL A   1      11.987  49.793  10.269  1.00  0.00    +0.000 H 
ATOM      9  C8  UNL A   1      12.667  51.765   9.960  1.00  0.00    +0.000 C 
ATOM     10  C9  UNL A   1      12.228  53.028   9.532  1.00  0.00    +0.000 C 
ATOM     11  C10 UNL A   1      10.917  53.247   9.087  1.00  0.00    +0.000 C 
ATOM     12  C11 UNL A   1      10.003  52.195   8.996  1.00  0.00    +0.000 C 
ATOM     90  C66 UNL A   1      10.424  50.932   9.433  1.00  0.00    +0.000 C 
ATOM     91  C67 UNL A   1      11.721  50.728   9.924  1.00  0.00    +0.000 C 
BRANCH    9    8
ATOM     98  H6  UNL A   1      17.725  51.016  11.540  1.00  0.00    +0.000 H 
ATOM     99  H7  UNL A   1      15.979  51.381  13.181  1.00  0.00    +0.000 H 
ATOM      4  C3  UNL A   1      16.432  51.130   9.877  1.00  0.00    +0.000 C 
ATOM      5  C4  UNL A   1      16.749  51.153  11.234  1.00  0.00    +0.000 C 
ATOM      6  C5  UNL A   1      15.745  51.361  12.177  1.00  0.00    +0.000 C 
ATOM      7  C6  UNL A   1      14.421  51.543  11.764  1.00  0.00    +0.000 C 
ATOM      8  C7  UNL A   1      14.066  51.537  10.403  1.00  0.00    +0.000 C 
ATOM    137  H45 UNL A   1      14.876  51.295   8.468  1.00  0.00    +0.000 H 
ATOM    100  H8  UNL A   1      13.688  51.686  12.475  1.00  0.00    +0.000 H 
ATOM     92  C68 UNL A   1      15.102  51.318   9.474  1.00  0.00    +0.000 C 
BRANCH    4    3
ATOM      3  S1  UNL A   1      17.694  50.779   8.669  1.00  0.00    +0.000 S 
BRANCH    3    2
ATOM     97  H5  UNL A   1      15.857  49.408   8.036  1.00  0.00    +0.000 H 
ATOM      2  C2  UNL A   1      16.811  49.601   7.592  1.00  0.00    +0.000 C 
ATOM     96  H4  UNL A   1      17.395  48.708   7.509  1.00  0.00    +0.000 H 
BRANCH    2    1
ATOM      1  C1  UNL A   1      16.567  50.153   6.199  1.00  0.00    +0.000 C 
ATOM     93  H1  UNL A   1      17.459  50.624   5.840  1.00  0.00    +0.000 H 
ATOM     94  H2  UNL A   1      15.775  50.872   6.234  1.00  0.00    +0.000 H 
ATOM     95  H3  UNL A   1      16.296  49.355   5.540  1.00  0.00    +0.000 H 
ENDBRANCH    2    1
ENDBRANCH    3    2
ENDBRANCH    4    3
ENDBRANCH    9    8
ENDBRANCH   13   12
BRANCH   13   14
ATOM    105  H13 UNL A   1       9.078  51.297   6.625  1.00  0.00    +0.000 H 
ATOM    106  H14 UNL A   1       7.415  51.820   6.726  1.00  0.00    +0.000 H 
ATOM     14  C13 UNL A   1       8.236  51.410   7.275  1.00  0.00    +0.000 C 
ATOM    104  H12 UNL A   1       7.960  50.455   7.670  1.00  0.00    +0.000 H 
ENDBRANCH   13   14
ENDBRANCH   15   13
ENDBRANCH   17   15
ENDBRANCH   18   17
ENDBRANCH   19   18
ENDBRANCH   20   19
ENDBRANCH   21   20
ENDBRANCH   22   21
ENDBRANCH   23   22
ENDBRANCH   24   23
ENDBRANCH   25   24
ENDBRANCH   27   25
ENDBRANCH   31   30
BRANCH   35   36
ATOM     36  C30 UNL A   1      17.630  55.481   0.775  1.00  0.00    +0.000 C 
ATOM     37  C31 UNL A   1      17.032  56.332  -0.165  1.00  0.00    +0.000 C 
ATOM     38  F1  UNL A   1      15.797  56.075  -0.620  1.00  0.00    +0.000 F 
ATOM     39  C32 UNL A   1      17.716  57.435  -0.670  1.00  0.00    +0.000 C 
ATOM     40  F2  UNL A   1      17.141  58.212  -1.599  1.00  0.00    +0.000 F 
ATOM     41  C33 UNL A   1      18.995  57.726  -0.220  1.00  0.00    +0.000 C 
ATOM     42  F3  UNL A   1      19.650  58.793  -0.699  1.00  0.00    +0.000 F 
ATOM     43  C34 UNL A   1      19.599  56.908   0.724  1.00  0.00    +0.000 C 
ATOM     44  F4  UNL A   1      20.831  57.194   1.167  1.00  0.00    +0.000 F 
ATOM     45  C35 UNL A   1      18.928  55.788   1.209  1.00  0.00    +0.000 C 
ATOM     46  F5  UNL A   1      19.542  55.010   2.112  1.00  0.00    +0.000 F 
ENDBRANCH   35   36
BRANCH   52   53
ATOM     53  C41 UNL A   1      16.804  48.464  -0.645  1.00  0.00    +0.000 C 
ATOM     54  C42 UNL A   1      18.035  47.821  -0.453  1.00  0.00    +0.000 C 
ATOM     55  F6  UNL A   1      18.805  48.137   0.599  1.00  0.00    +0.000 F 
ATOM     56  C43 UNL A   1      18.497  46.875  -1.365  1.00  0.00    +0.000 C 
ATOM     57  F7  UNL A   1      19.697  46.305  -1.186  1.00  0.00    +0.000 F 
ATOM     58  C44 UNL A   1      17.725  46.533  -2.466  1.00  0.00    +0.000 C 
ATOM     59  F8  UNL A   1      18.169  45.619  -3.338  1.00  0.00    +0.000 F 
ATOM     60  C45 UNL A   1      16.497  47.144  -2.664  1.00  0.00    +0.000 C 
ATOM     61  F9  UNL A   1      15.744  46.807  -3.721  1.00  0.00    +0.000 F 
ATOM     62  C46 UNL A   1      16.043  48.109  -1.769  1.00  0.00    +0.000 C 
ATOM     63  F10 UNL A   1      14.857  48.692  -1.994  1.00  0.00    +0.000 F 
ENDBRANCH   52   53
BRANCH   67   68
ATOM     68  C50 UNL A   1      12.288  47.990   4.634  1.00  0.00    +0.000 C 
ATOM     69  C51 UNL A   1      12.733  47.228   5.723  1.00  0.00    +0.000 C 
ATOM     70  F11 UNL A   1      13.929  47.482   6.273  1.00  0.00    +0.000 F 
ATOM     71  C52 UNL A   1      11.969  46.177   6.224  1.00  0.00    +0.000 C 
ATOM     72  F12 UNL A   1      12.436  45.436   7.240  1.00  0.00    +0.000 F 
ATOM     73  C53 UNL A   1      10.733  45.886   5.667  1.00  0.00    +0.000 C 
ATOM     74  F13 UNL A   1       9.997  44.878   6.152  1.00  0.00    +0.000 F 
ATOM     75  C54 UNL A   1      10.265  46.638   4.599  1.00  0.00    +0.000 C 
ATOM     76  F14 UNL A   1       9.066  46.369   4.066  1.00  0.00    +0.000 F 
ATOM     77  C55 UNL A   1      11.039  47.673   4.080  1.00  0.00    +0.000 C 
ATOM     78  F15 UNL A   1      10.567  48.378   3.041  1.00  0.00    +0.000 F 
ENDBRANCH   67   68
TORSDOF 21
ENDMDL
