MODEL 1
REMARK VINA RESULT:     -12.4      0.000      0.000
ROOT
ATOM     34  C25 UNL A   1      52.605  20.299  11.420  1.00  0.00    +0.000 C 
ATOM     35  C26 UNL A   1      53.911  19.626  11.105  1.00  0.00    +0.000 C 
ATOM     36  N5  UNL A   1      54.973  19.494  11.863  1.00  0.00    +0.000 N 
ATOM     37  C27 UNL A   1      55.896  18.784  11.108  1.00  0.00    +0.000 C 
ATOM     38  C28 UNL A   1      57.161  18.426  11.438  1.00  0.00    +0.000 C 
ATOM     50  C35 UNL A   1      57.791  18.730  12.699  1.00  0.00    +0.000 C 
ATOM     51  C36 UNL A   1      59.070  18.413  13.125  1.00  0.00    +0.000 C 
ATOM     52  C37 UNL A   1      59.229  18.890  14.430  1.00  0.00    +0.000 C 
ATOM     53  C38 UNL A   1      58.064  19.540  14.803  1.00  0.00    +0.000 C 
ATOM     54  N6  UNL A   1      57.187  19.425  13.736  1.00  0.00    +0.000 N 
ATOM     55  C39 UNL A   1      57.772  20.218  16.040  1.00  0.00    +0.000 C 
ATOM     67  C46 UNL A   1      56.603  20.838  16.332  1.00  0.00    +0.000 C 
ATOM     68  N7  UNL A   1      55.458  20.945  15.560  1.00  0.00    +0.000 N 
ATOM     69  C47 UNL A   1      54.588  21.594  16.294  1.00  0.00    +0.000 C 
ATOM     70  C48 UNL A   1      53.182  21.996  15.961  1.00  0.00    +0.000 C 
ATOM     82  C55 UNL A   1      52.674  21.668  14.759  1.00  0.00    +0.000 C 
ATOM     83  C56 UNL A   1      51.336  22.007  14.292  1.00  0.00    +0.000 C 
ATOM     84  C57 UNL A   1      51.164  21.502  13.062  1.00  0.00    +0.000 C 
ATOM     85  C58 UNL A   1      52.403  20.847  12.634  1.00  0.00    +0.000 C 
ATOM     86  N8  UNL A   1      53.233  20.968  13.717  1.00  0.00    +0.000 N 
ATOM     87  C59 UNL A   1      55.086  21.973  17.623  1.00  0.00    +0.000 C 
ATOM     88  C60 UNL A   1      56.331  21.521  17.580  1.00  0.00    +0.000 C 
ATOM     89  C61 UNL A   1      55.261  18.483   9.841  1.00  0.00    +0.000 C 
ATOM     90  C62 UNL A   1      54.047  19.016   9.774  1.00  0.00    +0.000 C 
ATOM    117  H25 UNL A   1      59.783  17.911  12.573  1.00  0.00    +0.000 H 
ATOM    118  H26 UNL A   1      60.071  18.776  15.016  1.00  0.00    +0.000 H 
ATOM    119  H27 UNL A   1      56.270  19.784  13.717  1.00  0.00    +0.000 H 
ATOM    120  H28 UNL A   1      50.635  22.548  14.821  1.00  0.00    +0.000 H 
ATOM    121  H29 UNL A   1      50.298  21.566  12.505  1.00  0.00    +0.000 H 
ATOM    122  H30 UNL A   1      54.142  20.589  13.747  1.00  0.00    +0.000 H 
ATOM    123  H31 UNL A   1      54.596  22.460  18.389  1.00  0.00    +0.000 H 
ATOM    124  H32 UNL A   1      57.020  21.641  18.339  1.00  0.00    +0.000 H 
ATOM    125  H33 UNL A   1      55.696  17.927   9.089  1.00  0.00    +0.000 H 
ATOM    126  H34 UNL A   1      53.375  19.005   8.992  1.00  0.00    +0.000 H 
ENDROOT
BRANCH   34   33
ATOM     33  C24 UNL A   1      51.534  20.431  10.400  1.00  0.00    +0.000 C 
ATOM    127  H35 UNL A   1      50.524  18.627  10.850  1.00  0.00    +0.000 H 
ATOM    115  H23 UNL A   1      50.377  22.688   8.196  1.00  0.00    +0.000 H 
ATOM    116  H24 UNL A   1      52.234  22.302   9.701  1.00  0.00    +0.000 H 
ATOM     91  C63 UNL A   1      50.531  19.462  10.244  1.00  0.00    +0.000 C 
ATOM     92  C64 UNL A   1      49.540  19.625   9.270  1.00  0.00    +0.000 C 
ATOM     32  C23 UNL A   1      51.490  21.592   9.608  1.00  0.00    +0.000 C 
ATOM     30  C21 UNL A   1      49.521  20.779   8.479  1.00  0.00    +0.000 C 
ATOM     31  C22 UNL A   1      50.455  21.792   8.702  1.00  0.00    +0.000 C 
ATOM    128  H36 UNL A   1      48.824  18.895   9.135  1.00  0.00    +0.000 H 
BRANCH   30    2
ATOM      1  O1  UNL A   1      48.251  22.014   6.940  1.00  0.00    +0.000 O 
ATOM      2  C1  UNL A   1      48.502  20.908   7.413  1.00  0.00    +0.000 C 
BRANCH    2    3
ATOM      3  N1  UNL A   1      47.819  19.797   6.979  1.00  0.00    +0.000 N 
ATOM     93  H1  UNL A   1      47.003  19.577   7.485  1.00  0.00    +0.000 H 
BRANCH    3    4
ATOM      4  C2  UNL A   1      48.132  18.903   5.879  1.00  0.00    +0.000 C 
ATOM     94  H2  UNL A   1      47.812  17.915   6.140  1.00  0.00    +0.000 H 
ATOM     95  H3  UNL A   1      49.189  18.951   5.718  1.00  0.00    +0.000 H 
BRANCH    4    5
ATOM     97  H5  UNL A   1      47.262  20.351   4.651  1.00  0.00    +0.000 H 
ATOM      5  C3  UNL A   1      47.456  19.302   4.575  1.00  0.00    +0.000 C 
ATOM     96  H4  UNL A   1      48.112  19.044   3.770  1.00  0.00    +0.000 H 
BRANCH    5    6
ATOM     98  H6  UNL A   1      45.541  18.673   5.222  1.00  0.00    +0.000 H 
ATOM     99  H7  UNL A   1      46.324  17.653   3.969  1.00  0.00    +0.000 H 
ATOM      6  C4  UNL A   1      46.103  18.643   4.311  1.00  0.00    +0.000 C 
BRANCH    6    7
ATOM    100  H8  UNL A   1      44.334  18.735   3.147  1.00  0.00    +0.000 H 
ATOM    101  H9  UNL A   1      45.848  19.242   2.324  1.00  0.00    +0.000 H 
ATOM      7  C5  UNL A   1      45.252  19.282   3.211  1.00  0.00    +0.000 C 
BRANCH    7    8
ATOM    102  H10 UNL A   1      45.807  21.328   3.337  1.00  0.00    +0.000 H 
ATOM    103  H11 UNL A   1      44.421  20.830   4.358  1.00  0.00    +0.000 H 
ATOM      8  C6  UNL A   1      44.901  20.763   3.404  1.00  0.00    +0.000 C 
BRANCH    8    9
ATOM      9  C7  UNL A   1      43.911  21.339   2.393  1.00  0.00    +0.000 C 
ATOM    105  H13 UNL A   1      42.998  21.552   2.910  1.00  0.00    +0.000 H 
ATOM    104  H12 UNL A   1      44.331  22.226   1.966  1.00  0.00    +0.000 H 
BRANCH    9   10
ATOM     10  N2  UNL A   1      43.613  20.401   1.326  1.00  0.00    +0.000 N 
ATOM    106  H14 UNL A   1      44.390  20.026   0.850  1.00  0.00    +0.000 H 
BRANCH   10   11
ATOM     11  C8  UNL A   1      42.382  19.972   0.899  1.00  0.00    +0.000 C 
ATOM     12  O2  UNL A   1      42.087  20.017  -0.293  1.00  0.00    +0.000 O 
BRANCH   11   13
ATOM    107  H15 UNL A   1      42.760  18.208   2.891  1.00  0.00    +0.000 H 
ATOM    108  H16 UNL A   1      41.099  17.390   4.482  1.00  0.00    +0.000 H 
ATOM     13  C9  UNL A   1      41.394  19.462   1.867  1.00  0.00    +0.000 C 
ATOM     14  C10 UNL A   1      41.784  18.541   2.847  1.00  0.00    +0.000 C 
ATOM     15  C11 UNL A   1      40.845  18.079   3.759  1.00  0.00    +0.000 C 
ATOM     16  C12 UNL A   1      39.559  18.575   3.666  1.00  0.00    +0.000 C 
ATOM     17  N3  UNL A   1      39.171  19.491   2.752  1.00  0.00    +0.000 N 
ATOM     18  C13 UNL A   1      40.086  19.964   1.868  1.00  0.00    +0.000 C 
ATOM    109  H17 UNL A   1      38.854  18.226   4.334  1.00  0.00    +0.000 H 
BRANCH   18   19
ATOM     19  N4  UNL A   1      39.666  20.879   0.863  1.00  0.00    +0.000 N 
ATOM    110  H18 UNL A   1      40.348  21.229   0.245  1.00  0.00    +0.000 H 
BRANCH   19   20
ATOM    111  H19 UNL A   1      37.722  20.647   2.599  1.00  0.00    +0.000 H 
ATOM    112  H20 UNL A   1      35.405  21.311   2.345  1.00  0.00    +0.000 H 
ATOM    113  H21 UNL A   1      34.644  22.296   0.265  1.00  0.00    +0.000 H 
ATOM    114  H22 UNL A   1      38.532  21.963  -1.303  1.00  0.00    +0.000 H 
ATOM     20  C14 UNL A   1      38.331  21.321   0.696  1.00  0.00    +0.000 C 
ATOM     21  C15 UNL A   1      37.409  21.091   1.721  1.00  0.00    +0.000 C 
ATOM     22  C16 UNL A   1      36.070  21.456   1.570  1.00  0.00    +0.000 C 
ATOM     23  C17 UNL A   1      35.632  22.017   0.370  1.00  0.00    +0.000 C 
ATOM     24  C18 UNL A   1      36.526  22.204  -0.693  1.00  0.00    +0.000 C 
ATOM     25  C19 UNL A   1      36.048  22.794  -1.995  1.00  0.00    +0.000 C 
ATOM     26  F1  UNL A   1      34.966  22.136  -2.498  1.00  0.00    +0.000 F 
ATOM     27  F2  UNL A   1      35.663  24.095  -1.868  1.00  0.00    +0.000 F 
ATOM     28  F3  UNL A   1      36.983  22.778  -2.985  1.00  0.00    +0.000 F 
ATOM     29  C20 UNL A   1      37.870  21.842  -0.519  1.00  0.00    +0.000 C 
ENDBRANCH   19   20
ENDBRANCH   18   19
ENDBRANCH   11   13
ENDBRANCH   10   11
ENDBRANCH    9   10
ENDBRANCH    8    9
ENDBRANCH    7    8
ENDBRANCH    6    7
ENDBRANCH    5    6
ENDBRANCH    4    5
ENDBRANCH    3    4
ENDBRANCH    2    3
ENDBRANCH   30    2
ENDBRANCH   34   33
BRANCH   38   39
ATOM     39  C29 UNL A   1      57.957  17.659  10.422  1.00  0.00    +0.000 C 
ATOM     40  C30 UNL A   1      58.756  18.315   9.473  1.00  0.00    +0.000 C 
ATOM     41  F4  UNL A   1      58.767  19.655   9.412  1.00  0.00    +0.000 F 
ATOM     42  C31 UNL A   1      59.528  17.595   8.565  1.00  0.00    +0.000 C 
ATOM     43  F5  UNL A   1      60.257  18.243   7.647  1.00  0.00    +0.000 F 
ATOM     44  C32 UNL A   1      59.537  16.209   8.604  1.00  0.00    +0.000 C 
ATOM     45  F6  UNL A   1      60.290  15.517   7.738  1.00  0.00    +0.000 F 
ATOM     46  C33 UNL A   1      58.764  15.539   9.541  1.00  0.00    +0.000 C 
ATOM     47  F7  UNL A   1      58.781  14.200   9.587  1.00  0.00    +0.000 F 
ATOM     48  C34 UNL A   1      57.972  16.256  10.434  1.00  0.00    +0.000 C 
ATOM     49  F8  UNL A   1      57.232  15.581  11.326  1.00  0.00    +0.000 F 
ENDBRANCH   38   39
BRANCH   55   56
ATOM     65  C45 UNL A   1      59.031  19.182  17.963  1.00  0.00    +0.000 C 
ATOM     66  F13 UNL A   1      58.255  18.093  17.867  1.00  0.00    +0.000 F 
ATOM     56  C40 UNL A   1      58.842  20.263  17.090  1.00  0.00    +0.000 C 
ATOM     57  C41 UNL A   1      59.677  21.381  17.235  1.00  0.00    +0.000 C 
ATOM     58  F9  UNL A   1      59.546  22.432  16.410  1.00  0.00    +0.000 F 
ATOM     59  C42 UNL A   1      60.684  21.402  18.197  1.00  0.00    +0.000 C 
ATOM     60  F10 UNL A   1      61.503  22.459  18.282  1.00  0.00    +0.000 F 
ATOM     61  C43 UNL A   1      60.852  20.323  19.051  1.00  0.00    +0.000 C 
ATOM     62  F11 UNL A   1      61.823  20.343  19.973  1.00  0.00    +0.000 F 
ATOM     63  C44 UNL A   1      60.021  19.218  18.941  1.00  0.00    +0.000 C 
ATOM     64  F12 UNL A   1      60.178  18.177  19.771  1.00  0.00    +0.000 F 
ENDBRANCH   55   56
BRANCH   70   71
ATOM     71  C49 UNL A   1      52.344  22.744  16.932  1.00  0.00    +0.000 C 
ATOM     72  C50 UNL A   1      52.261  24.142  16.892  1.00  0.00    +0.000 C 
ATOM     73  F14 UNL A   1      52.970  24.830  15.985  1.00  0.00    +0.000 F 
ATOM     74  C51 UNL A   1      51.475  24.841  17.806  1.00  0.00    +0.000 C 
ATOM     75  F15 UNL A   1      51.443  26.180  17.774  1.00  0.00    +0.000 F 
ATOM     76  C52 UNL A   1      50.734  24.153  18.756  1.00  0.00    +0.000 C 
ATOM     77  F16 UNL A   1      49.971  24.826  19.629  1.00  0.00    +0.000 F 
ATOM     78  C53 UNL A   1      50.787  22.769  18.804  1.00  0.00    +0.000 C 
ATOM     79  F17 UNL A   1      50.060  22.100  19.708  1.00  0.00    +0.000 F 
ATOM     80  C54 UNL A   1      51.597  22.072  17.911  1.00  0.00    +0.000 C 
ATOM     81  F18 UNL A   1      51.638  20.733  17.985  1.00  0.00    +0.000 F 
ENDBRANCH   70   71
TORSDOF 17
ENDMDL
MODEL 2
REMARK VINA RESULT:     -12.2      1.821      3.326
ROOT
ATOM     34  C25 UNL A   1      53.336  19.632  11.687  1.00  0.00    +0.000 C 
ATOM     35  C26 UNL A   1      54.704  19.038  11.511  1.00  0.00    +0.000 C 
ATOM     36  N5  UNL A   1      55.726  19.068  12.332  1.00  0.00    +0.000 N 
ATOM     37  C27 UNL A   1      56.743  18.363  11.703  1.00  0.00    +0.000 C 
ATOM     38  C28 UNL A   1      58.010  18.142  12.132  1.00  0.00    +0.000 C 
ATOM     50  C35 UNL A   1      58.539  18.620  13.385  1.00  0.00    +0.000 C 
ATOM     51  C36 UNL A   1      59.812  18.451  13.906  1.00  0.00    +0.000 C 
ATOM     52  C37 UNL A   1      59.858  19.067  15.162  1.00  0.00    +0.000 C 
ATOM     53  C38 UNL A   1      58.627  19.655  15.405  1.00  0.00    +0.000 C 
ATOM     54  N6  UNL A   1      57.825  19.365  14.312  1.00  0.00    +0.000 N 
ATOM     55  C39 UNL A   1      58.214  20.428  16.547  1.00  0.00    +0.000 C 
ATOM     67  C46 UNL A   1      56.986  20.978  16.713  1.00  0.00    +0.000 C 
ATOM     68  N7  UNL A   1      55.883  20.916  15.877  1.00  0.00    +0.000 N 
ATOM     69  C47 UNL A   1      54.926  21.563  16.494  1.00  0.00    +0.000 C 
ATOM     70  C48 UNL A   1      53.516  21.816  16.050  1.00  0.00    +0.000 C 
ATOM     82  C55 UNL A   1      53.106  21.329  14.864  1.00  0.00    +0.000 C 
ATOM     83  C56 UNL A   1      51.776  21.512  14.297  1.00  0.00    +0.000 C 
ATOM     84  C57 UNL A   1      51.715  20.875  13.119  1.00  0.00    +0.000 C 
ATOM     85  C58 UNL A   1      53.022  20.281  12.825  1.00  0.00    +0.000 C 
ATOM     86  N8  UNL A   1      53.776  20.576  13.931  1.00  0.00    +0.000 N 
ATOM     87  C59 UNL A   1      55.316  22.111  17.800  1.00  0.00    +0.000 C 
ATOM     88  C60 UNL A   1      56.591  21.759  17.868  1.00  0.00    +0.000 C 
ATOM     89  C61 UNL A   1      56.208  17.887  10.443  1.00  0.00    +0.000 C 
ATOM     90  C62 UNL A   1      54.964  18.311  10.259  1.00  0.00    +0.000 C 
ATOM    117  H25 UNL A   1      60.591  17.956  13.447  1.00  0.00    +0.000 H 
ATOM    118  H26 UNL A   1      60.670  19.080  15.798  1.00  0.00    +0.000 H 
ATOM    119  H27 UNL A   1      56.888  19.645  14.209  1.00  0.00    +0.000 H 
ATOM    120  H28 UNL A   1      51.006  22.045  14.730  1.00  0.00    +0.000 H 
ATOM    121  H29 UNL A   1      50.881  20.812  12.515  1.00  0.00    +0.000 H 
ATOM    122  H30 UNL A   1      54.707  20.276  14.046  1.00  0.00    +0.000 H 
ATOM    123  H31 UNL A   1      54.746  22.632  18.485  1.00  0.00    +0.000 H 
ATOM    124  H32 UNL A   1      57.223  22.009  18.645  1.00  0.00    +0.000 H 
ATOM    125  H33 UNL A   1      56.727  17.296   9.776  1.00  0.00    +0.000 H 
ATOM    126  H34 UNL A   1      54.342  18.168   9.449  1.00  0.00    +0.000 H 
ENDROOT
BRANCH   34   33
ATOM     33  C24 UNL A   1      52.320  19.575  10.605  1.00  0.00    +0.000 C 
ATOM    127  H35 UNL A   1      52.728  21.474   9.766  1.00  0.00    +0.000 H 
ATOM    115  H23 UNL A   1      50.171  17.383   9.239  1.00  0.00    +0.000 H 
ATOM    116  H24 UNL A   1      51.665  17.632  11.128  1.00  0.00    +0.000 H 
ATOM     91  C63 UNL A   1      52.142  20.628   9.695  1.00  0.00    +0.000 C 
ATOM     92  C64 UNL A   1      51.174  20.534   8.690  1.00  0.00    +0.000 C 
ATOM     32  C23 UNL A   1      51.556  18.405  10.452  1.00  0.00    +0.000 C 
ATOM     30  C21 UNL A   1      50.410  19.369   8.563  1.00  0.00    +0.000 C 
ATOM     31  C22 UNL A   1      50.656  18.279   9.401  1.00  0.00    +0.000 C 
ATOM    128  H36 UNL A   1      51.022  21.323   8.043  1.00  0.00    +0.000 H 
BRANCH   30    2
ATOM      1  O1  UNL A   1      48.345  20.008   7.649  1.00  0.00    +0.000 O 
ATOM      2  C1  UNL A   1      49.348  19.309   7.533  1.00  0.00    +0.000 C 
BRANCH    2    3
ATOM      3  N1  UNL A   1      49.475  18.449   6.467  1.00  0.00    +0.000 N 
ATOM     93  H1  UNL A   1      49.993  18.793   5.704  1.00  0.00    +0.000 H 
BRANCH    3    4
ATOM      4  C2  UNL A   1      48.950  17.104   6.310  1.00  0.00    +0.000 C 
ATOM     94  H2  UNL A   1      47.893  17.166   6.155  1.00  0.00    +0.000 H 
ATOM     95  H3  UNL A   1      49.192  16.560   7.200  1.00  0.00    +0.000 H 
BRANCH    4    5
ATOM     97  H5  UNL A   1      49.882  17.103   4.441  1.00  0.00    +0.000 H 
ATOM      5  C3  UNL A   1      49.569  16.355   5.139  1.00  0.00    +0.000 C 
ATOM     96  H4  UNL A   1      50.373  15.758   5.516  1.00  0.00    +0.000 H 
BRANCH    5    6
ATOM     98  H6  UNL A   1      49.205  14.835   3.711  1.00  0.00    +0.000 H 
ATOM     99  H7  UNL A   1      47.925  16.083   3.877  1.00  0.00    +0.000 H 
ATOM      6  C4  UNL A   1      48.618  15.437   4.374  1.00  0.00    +0.000 C 
BRANCH    6    7
ATOM    100  H8  UNL A   1      47.561  14.991   6.157  1.00  0.00    +0.000 H 
ATOM    101  H9  UNL A   1      48.339  13.598   5.332  1.00  0.00    +0.000 H 
ATOM      7  C5  UNL A   1      47.766  14.496   5.231  1.00  0.00    +0.000 C 
BRANCH    7    8
ATOM    102  H10 UNL A   1      46.330  13.004   4.759  1.00  0.00    +0.000 H 
ATOM    103  H11 UNL A   1      46.453  14.365   3.601  1.00  0.00    +0.000 H 
ATOM      8  C6  UNL A   1      46.425  14.061   4.626  1.00  0.00    +0.000 C 
BRANCH    8    9
ATOM      9  C7  UNL A   1      45.188  14.725   5.229  1.00  0.00    +0.000 C 
ATOM    105  H13 UNL A   1      44.330  14.372   4.695  1.00  0.00    +0.000 H 
ATOM    104  H12 UNL A   1      45.130  14.471   6.267  1.00  0.00    +0.000 H 
BRANCH    9   10
ATOM     10  N2  UNL A   1      45.229  16.171   5.103  1.00  0.00    +0.000 N 
ATOM    106  H14 UNL A   1      45.113  16.681   5.937  1.00  0.00    +0.000 H 
BRANCH   10   11
ATOM     11  C8  UNL A   1      45.411  16.914   3.963  1.00  0.00    +0.000 C 
ATOM     12  O2  UNL A   1      45.607  16.358   2.884  1.00  0.00    +0.000 O 
BRANCH   11   13
ATOM    107  H15 UNL A   1      47.200  18.567   5.097  1.00  0.00    +0.000 H 
ATOM    108  H16 UNL A   1      47.129  21.007   5.168  1.00  0.00    +0.000 H 
ATOM     13  C9  UNL A   1      45.385  18.386   4.022  1.00  0.00    +0.000 C 
ATOM     14  C10 UNL A   1      46.420  19.081   4.658  1.00  0.00    +0.000 C 
ATOM     15  C11 UNL A   1      46.388  20.468   4.694  1.00  0.00    +0.000 C 
ATOM     16  C12 UNL A   1      45.331  21.104   4.071  1.00  0.00    +0.000 C 
ATOM     17  N3  UNL A   1      44.341  20.454   3.421  1.00  0.00    +0.000 N 
ATOM     18  C13 UNL A   1      44.374  19.098   3.363  1.00  0.00    +0.000 C 
ATOM    109  H17 UNL A   1      45.295  22.135   4.106  1.00  0.00    +0.000 H 
BRANCH   18   19
ATOM     19  N4  UNL A   1      43.300  18.408   2.735  1.00  0.00    +0.000 N 
ATOM    110  H18 UNL A   1      43.493  17.537   2.318  1.00  0.00    +0.000 H 
BRANCH   19   20
ATOM    111  H19 UNL A   1      41.306  17.696   4.273  1.00  0.00    +0.000 H 
ATOM    112  H20 UNL A   1      39.000  18.430   4.164  1.00  0.00    +0.000 H 
ATOM    113  H21 UNL A   1      38.301  19.991   2.446  1.00  0.00    +0.000 H 
ATOM    114  H22 UNL A   1      42.232  20.092   0.954  1.00  0.00    +0.000 H 
ATOM     20  C14 UNL A   1      41.971  18.893   2.669  1.00  0.00    +0.000 C 
ATOM     21  C15 UNL A   1      41.020  18.382   3.557  1.00  0.00    +0.000 C 
ATOM     22  C16 UNL A   1      39.687  18.790   3.484  1.00  0.00    +0.000 C 
ATOM     23  C17 UNL A   1      39.284  19.684   2.491  1.00  0.00    +0.000 C 
ATOM     24  C18 UNL A   1      40.209  20.165   1.554  1.00  0.00    +0.000 C 
ATOM     25  C19 UNL A   1      39.771  21.117   0.472  1.00  0.00    +0.000 C 
ATOM     26  F1  UNL A   1      38.702  20.648  -0.233  1.00  0.00    +0.000 F 
ATOM     27  F2  UNL A   1      39.385  22.328   0.965  1.00  0.00    +0.000 F 
ATOM     28  F3  UNL A   1      40.734  21.383  -0.455  1.00  0.00    +0.000 F 
ATOM     29  C20 UNL A   1      41.547  19.754   1.650  1.00  0.00    +0.000 C 
ENDBRANCH   19   20
ENDBRANCH   18   19
ENDBRANCH   11   13
ENDBRANCH   10   11
ENDBRANCH    9   10
ENDBRANCH    8    9
ENDBRANCH    7    8
ENDBRANCH    6    7
ENDBRANCH    5    6
ENDBRANCH    4    5
ENDBRANCH    3    4
ENDBRANCH    2    3
ENDBRANCH   30    2
ENDBRANCH   34   33
BRANCH   38   39
ATOM     39  C29 UNL A   1      58.919  17.344  11.243  1.00  0.00    +0.000 C 
ATOM     40  C30 UNL A   1      58.997  15.947  11.342  1.00  0.00    +0.000 C 
ATOM     41  F4  UNL A   1      58.305  15.299  12.291  1.00  0.00    +0.000 F 
ATOM     42  C31 UNL A   1      59.808  15.211  10.481  1.00  0.00    +0.000 C 
ATOM     43  F5  UNL A   1      59.891  13.881  10.616  1.00  0.00    +0.000 F 
ATOM     44  C32 UNL A   1      60.534  15.853   9.489  1.00  0.00    +0.000 C 
ATOM     45  F6  UNL A   1      61.304  15.143   8.654  1.00  0.00    +0.000 F 
ATOM     46  C33 UNL A   1      60.463  17.233   9.366  1.00  0.00    +0.000 C 
ATOM     47  F7  UNL A   1      61.156  17.854   8.401  1.00  0.00    +0.000 F 
ATOM     48  C34 UNL A   1      59.673  17.974  10.241  1.00  0.00    +0.000 C 
ATOM     49  F8  UNL A   1      59.629  19.307  10.099  1.00  0.00    +0.000 F 
ENDBRANCH   38   39
BRANCH   55   56
ATOM     65  C45 UNL A   1      59.385  19.722  18.665  1.00  0.00    +0.000 C 
ATOM     66  F13 UNL A   1      58.657  18.596  18.677  1.00  0.00    +0.000 F 
ATOM     56  C40 UNL A   1      59.213  20.664  17.640  1.00  0.00    +0.000 C 
ATOM     57  C41 UNL A   1      59.997  21.827  17.675  1.00  0.00    +0.000 C 
ATOM     58  F9  UNL A   1      59.880  22.748  16.706  1.00  0.00    +0.000 F 
ATOM     59  C42 UNL A   1      60.940  22.024  18.681  1.00  0.00    +0.000 C 
ATOM     60  F10 UNL A   1      61.714  23.117  18.665  1.00  0.00    +0.000 F 
ATOM     61  C43 UNL A   1      61.093  21.080  19.685  1.00  0.00    +0.000 C 
ATOM     62  F11 UNL A   1      62.003  21.269  20.650  1.00  0.00    +0.000 F 
ATOM     63  C44 UNL A   1      60.311  19.935  19.683  1.00  0.00    +0.000 C 
ATOM     64  F12 UNL A   1      60.452  19.026  20.657  1.00  0.00    +0.000 F 
ENDBRANCH   55   56
BRANCH   70   71
ATOM     71  C49 UNL A   1      52.569  22.588  16.893  1.00  0.00    +0.000 C 
ATOM     72  C50 UNL A   1      51.811  21.963  17.892  1.00  0.00    +0.000 C 
ATOM     73  F14 UNL A   1      51.911  20.638  18.079  1.00  0.00    +0.000 F 
ATOM     74  C51 UNL A   1      50.922  22.690  18.680  1.00  0.00    +0.000 C 
ATOM     75  F15 UNL A   1      50.178  22.063  19.602  1.00  0.00    +0.000 F 
ATOM     76  C52 UNL A   1      50.797  24.061  18.505  1.00  0.00    +0.000 C 
ATOM     77  F16 UNL A   1      49.949  24.761  19.271  1.00  0.00    +0.000 F 
ATOM     78  C53 UNL A   1      51.549  24.704  17.534  1.00  0.00    +0.000 C 
ATOM     79  F17 UNL A   1      51.445  26.030  17.373  1.00  0.00    +0.000 F 
ATOM     80  C54 UNL A   1      52.414  23.972  16.725  1.00  0.00    +0.000 C 
ATOM     81  F18 UNL A   1      53.123  24.617  15.787  1.00  0.00    +0.000 F 
ENDBRANCH   70   71
TORSDOF 17
ENDMDL
MODEL 3
REMARK VINA RESULT:     -12.1     44.905     48.937
ROOT
ATOM     34  C25 UNL A   1       7.360   2.907  26.165  1.00  0.00    +0.000 C 
ATOM     35  C26 UNL A   1       8.548   3.218  27.030  1.00  0.00    +0.000 C 
ATOM     36  N5  UNL A   1       9.039   4.387  27.364  1.00  0.00    +0.000 N 
ATOM     37  C27 UNL A   1      10.127   4.124  28.186  1.00  0.00    +0.000 C 
ATOM     38  C28 UNL A   1      10.985   5.003  28.759  1.00  0.00    +0.000 C 
ATOM     50  C35 UNL A   1      10.903   6.435  28.612  1.00  0.00    +0.000 C 
ATOM     51  C36 UNL A   1      11.728   7.408  29.151  1.00  0.00    +0.000 C 
ATOM     52  C37 UNL A   1      11.245   8.661  28.759  1.00  0.00    +0.000 C 
ATOM     53  C38 UNL A   1      10.143   8.468  27.942  1.00  0.00    +0.000 C 
ATOM     54  N6  UNL A   1       9.938   7.099  27.869  1.00  0.00    +0.000 N 
ATOM     55  C39 UNL A   1       9.337   9.458  27.274  1.00  0.00    +0.000 C 
ATOM     67  C46 UNL A   1       8.270   9.190  26.483  1.00  0.00    +0.000 C 
ATOM     68  N7  UNL A   1       7.712   7.963  26.159  1.00  0.00    +0.000 N 
ATOM     69  C47 UNL A   1       6.673   8.229  25.405  1.00  0.00    +0.000 C 
ATOM     70  C48 UNL A   1       5.703   7.281  24.765  1.00  0.00    +0.000 C 
ATOM     82  C55 UNL A   1       5.856   5.958  24.958  1.00  0.00    +0.000 C 
ATOM     83  C56 UNL A   1       5.004   4.923  24.386  1.00  0.00    +0.000 C 
ATOM     84  C57 UNL A   1       5.435   3.725  24.807  1.00  0.00    +0.000 C 
ATOM     85  C58 UNL A   1       6.626   3.907  25.639  1.00  0.00    +0.000 C 
ATOM     86  N8  UNL A   1       6.784   5.267  25.699  1.00  0.00    +0.000 N 
ATOM     87  C59 UNL A   1       6.454   9.661  25.166  1.00  0.00    +0.000 C 
ATOM     88  C60 UNL A   1       7.476  10.200  25.814  1.00  0.00    +0.000 C 
ATOM     89  C61 UNL A   1      10.208   2.685  28.328  1.00  0.00    +0.000 C 
ATOM     90  C62 UNL A   1       9.279   2.078  27.601  1.00  0.00    +0.000 C 
ATOM    117  H25 UNL A   1      12.557   7.238  29.741  1.00  0.00    +0.000 H 
ATOM    118  H26 UNL A   1      11.641   9.574  29.032  1.00  0.00    +0.000 H 
ATOM    119  H27 UNL A   1       9.215   6.662  27.364  1.00  0.00    +0.000 H 
ATOM    120  H28 UNL A   1       4.201   5.085  23.758  1.00  0.00    +0.000 H 
ATOM    121  H29 UNL A   1       4.996   2.819  24.580  1.00  0.00    +0.000 H 
ATOM    122  H30 UNL A   1       7.493   5.707  26.223  1.00  0.00    +0.000 H 
ATOM    123  H31 UNL A   1       5.701  10.125  24.635  1.00  0.00    +0.000 H 
ATOM    124  H32 UNL A   1       7.681  11.211  25.839  1.00  0.00    +0.000 H 
ATOM    125  H33 UNL A   1      10.899   2.196  28.918  1.00  0.00    +0.000 H 
ATOM    126  H34 UNL A   1       9.113   1.068  27.471  1.00  0.00    +0.000 H 
ENDROOT
BRANCH   34   33
ATOM     33  C24 UNL A   1       6.996   1.509  25.819  1.00  0.00    +0.000 C 
ATOM    127  H35 UNL A   1       8.185   1.356  24.076  1.00  0.00    +0.000 H 
ATOM    115  H23 UNL A   1       5.305  -1.083  27.127  1.00  0.00    +0.000 H 
ATOM    116  H24 UNL A   1       5.737   1.269  27.503  1.00  0.00    +0.000 H 
ATOM     91  C63 UNL A   1       7.523   0.860  24.692  1.00  0.00    +0.000 C 
ATOM     92  C64 UNL A   1       7.155  -0.458  24.403  1.00  0.00    +0.000 C 
ATOM     32  C23 UNL A   1       6.146   0.796  26.682  1.00  0.00    +0.000 C 
ATOM     30  C21 UNL A   1       6.293  -1.147  25.262  1.00  0.00    +0.000 C 
ATOM     31  C22 UNL A   1       5.850  -0.540  26.439  1.00  0.00    +0.000 C 
ATOM    128  H36 UNL A   1       7.517  -0.921  23.555  1.00  0.00    +0.000 H 
BRANCH   30    2
ATOM      1  O1  UNL A   1       4.670  -2.779  24.808  1.00  0.00    +0.000 O 
ATOM      2  C1  UNL A   1       5.866  -2.520  24.910  1.00  0.00    +0.000 C 
BRANCH    2    3
ATOM      3  N1  UNL A   1       6.807  -3.506  24.728  1.00  0.00    +0.000 N 
ATOM     93  H1  UNL A   1       6.895  -3.844  23.808  1.00  0.00    +0.000 H 
BRANCH    3    4
ATOM      4  C2  UNL A   1       7.690  -4.118  25.705  1.00  0.00    +0.000 C 
ATOM     94  H2  UNL A   1       7.188  -4.143  26.651  1.00  0.00    +0.000 H 
ATOM     95  H3  UNL A   1       8.584  -3.530  25.743  1.00  0.00    +0.000 H 
BRANCH    4    5
ATOM     97  H5  UNL A   1       8.631  -5.923  26.178  1.00  0.00    +0.000 H 
ATOM      5  C3  UNL A   1       8.095  -5.538  25.335  1.00  0.00    +0.000 C 
ATOM     96  H4  UNL A   1       7.206  -6.086  25.105  1.00  0.00    +0.000 H 
BRANCH    5    6
ATOM     98  H6  UNL A   1       8.615  -5.115  23.327  1.00  0.00    +0.000 H 
ATOM     99  H7  UNL A   1       9.153  -6.706  23.961  1.00  0.00    +0.000 H 
ATOM      6  C4  UNL A   1       9.045  -5.657  24.144  1.00  0.00    +0.000 C 
BRANCH    6    7
ATOM    100  H8  UNL A   1      11.131  -5.961  24.359  1.00  0.00    +0.000 H 
ATOM    101  H9  UNL A   1      10.432  -4.597  25.295  1.00  0.00    +0.000 H 
ATOM      7  C5  UNL A   1      10.464  -5.125  24.365  1.00  0.00    +0.000 C 
BRANCH    7    8
ATOM    102  H10 UNL A   1      11.224  -4.646  22.442  1.00  0.00    +0.000 H 
ATOM    103  H11 UNL A   1      11.806  -3.619  23.790  1.00  0.00    +0.000 H 
ATOM      8  C6  UNL A   1      10.973  -4.111  23.333  1.00  0.00    +0.000 C 
BRANCH    8    9
ATOM      9  C7  UNL A   1       9.986  -3.006  22.958  1.00  0.00    +0.000 C 
ATOM    105  H13 UNL A   1       9.965  -2.931  21.890  1.00  0.00    +0.000 H 
ATOM    104  H12 UNL A   1       9.022  -3.257  23.348  1.00  0.00    +0.000 H 
BRANCH    9   10
ATOM     10  N2  UNL A   1      10.385  -1.715  23.489  1.00  0.00    +0.000 N 
ATOM    106  H14 UNL A   1      10.353  -0.959  22.858  1.00  0.00    +0.000 H 
BRANCH   10   11
ATOM     11  C8  UNL A   1      10.799  -1.419  24.763  1.00  0.00    +0.000 C 
ATOM     12  O2  UNL A   1      10.080  -1.678  25.726  1.00  0.00    +0.000 O 
BRANCH   11   13
ATOM    107  H15 UNL A   1      13.149  -2.585  25.343  1.00  0.00    +0.000 H 
ATOM    108  H16 UNL A   1      15.300  -1.489  25.707  1.00  0.00    +0.000 H 
ATOM     13  C9  UNL A   1      12.105  -0.776  24.991  1.00  0.00    +0.000 C 
ATOM     14  C10 UNL A   1      13.231  -1.559  25.279  1.00  0.00    +0.000 C 
ATOM     15  C11 UNL A   1      14.457  -0.940  25.480  1.00  0.00    +0.000 C 
ATOM     16  C12 UNL A   1      14.511   0.436  25.361  1.00  0.00    +0.000 C 
ATOM     17  N3  UNL A   1      13.446   1.206  25.049  1.00  0.00    +0.000 N 
ATOM     18  C13 UNL A   1      12.246   0.608  24.831  1.00  0.00    +0.000 C 
ATOM    109  H17 UNL A   1      15.418   0.902  25.522  1.00  0.00    +0.000 H 
BRANCH   18   19
ATOM     19  N4  UNL A   1      11.109   1.421  24.566  1.00  0.00    +0.000 N 
ATOM    110  H18 UNL A   1      10.463   1.561  25.295  1.00  0.00    +0.000 H 
BRANCH   19   20
ATOM    111  H19 UNL A   1      12.239   0.851  22.276  1.00  0.00    +0.000 H 
ATOM    112  H20 UNL A   1      11.889   1.919  20.129  1.00  0.00    +0.000 H 
ATOM    113  H21 UNL A   1      10.354   3.785  19.937  1.00  0.00    +0.000 H 
ATOM    114  H22 UNL A   1       9.509   3.499  24.046  1.00  0.00    +0.000 H 
ATOM     20  C14 UNL A   1      10.845   2.040  23.319  1.00  0.00    +0.000 C 
ATOM     21  C15 UNL A   1      11.564   1.626  22.193  1.00  0.00    +0.000 C 
ATOM     22  C16 UNL A   1      11.377   2.253  20.960  1.00  0.00    +0.000 C 
ATOM     23  C17 UNL A   1      10.498   3.331  20.852  1.00  0.00    +0.000 C 
ATOM     24  C18 UNL A   1       9.810   3.800  21.979  1.00  0.00    +0.000 C 
ATOM     25  C19 UNL A   1       8.873   4.975  21.865  1.00  0.00    +0.000 C 
ATOM     26  F1  UNL A   1       9.465   6.057  21.284  1.00  0.00    +0.000 F 
ATOM     27  F2  UNL A   1       7.778   4.699  21.102  1.00  0.00    +0.000 F 
ATOM     28  F3  UNL A   1       8.392   5.417  23.061  1.00  0.00    +0.000 F 
ATOM     29  C20 UNL A   1      10.001   3.151  23.208  1.00  0.00    +0.000 C 
ENDBRANCH   19   20
ENDBRANCH   18   19
ENDBRANCH   11   13
ENDBRANCH   10   11
ENDBRANCH    9   10
ENDBRANCH    8    9
ENDBRANCH    7    8
ENDBRANCH    6    7
ENDBRANCH    5    6
ENDBRANCH    4    5
ENDBRANCH    3    4
ENDBRANCH    2    3
ENDBRANCH   30    2
ENDBRANCH   34   33
BRANCH   38   39
ATOM     39  C29 UNL A   1      12.093   4.446  29.605  1.00  0.00    +0.000 C 
ATOM     40  C30 UNL A   1      12.037   4.492  31.006  1.00  0.00    +0.000 C 
ATOM     41  F4  UNL A   1      11.014   5.105  31.620  1.00  0.00    +0.000 F 
ATOM     42  C31 UNL A   1      13.047   3.930  31.783  1.00  0.00    +0.000 C 
ATOM     43  F5  UNL A   1      12.988   4.015  33.119  1.00  0.00    +0.000 F 
ATOM     44  C32 UNL A   1      14.117   3.289  31.177  1.00  0.00    +0.000 C 
ATOM     45  F6  UNL A   1      15.082   2.738  31.926  1.00  0.00    +0.000 F 
ATOM     46  C33 UNL A   1      14.187   3.221  29.793  1.00  0.00    +0.000 C 
ATOM     47  F7  UNL A   1      15.215   2.592  29.206  1.00  0.00    +0.000 F 
ATOM     48  C34 UNL A   1      13.191   3.804  29.013  1.00  0.00    +0.000 C 
ATOM     49  F8  UNL A   1      13.290   3.726  27.678  1.00  0.00    +0.000 F 
ENDBRANCH   38   39
BRANCH   55   56
ATOM     65  C45 UNL A   1      10.773  11.456  26.726  1.00  0.00    +0.000 C 
ATOM     66  F13 UNL A   1      11.477  10.699  25.871  1.00  0.00    +0.000 F 
ATOM     56  C40 UNL A   1       9.706  10.901  27.446  1.00  0.00    +0.000 C 
ATOM     57  C41 UNL A   1       9.004  11.734  28.331  1.00  0.00    +0.000 C 
ATOM     58  F9  UNL A   1       7.963  11.252  29.028  1.00  0.00    +0.000 F 
ATOM     59  C42 UNL A   1       9.338  13.079  28.464  1.00  0.00    +0.000 C 
ATOM     60  F10 UNL A   1       8.620  13.867  29.275  1.00  0.00    +0.000 F 
ATOM     61  C43 UNL A   1      10.398  13.607  27.743  1.00  0.00    +0.000 C 
ATOM     62  F11 UNL A   1      10.716  14.902  27.870  1.00  0.00    +0.000 F 
ATOM     63  C44 UNL A   1      11.121  12.795  26.882  1.00  0.00    +0.000 C 
ATOM     64  F12 UNL A   1      12.151  13.302  26.190  1.00  0.00    +0.000 F 
ENDBRANCH   55   56
BRANCH   70   71
ATOM     71  C49 UNL A   1       4.581   7.776  23.928  1.00  0.00    +0.000 C 
ATOM     72  C50 UNL A   1       3.369   8.180  24.504  1.00  0.00    +0.000 C 
ATOM     73  F14 UNL A   1       3.197   8.093  25.831  1.00  0.00    +0.000 F 
ATOM     74  C51 UNL A   1       2.318   8.642  23.715  1.00  0.00    +0.000 C 
ATOM     75  F15 UNL A   1       1.155   8.984  24.286  1.00  0.00    +0.000 F 
ATOM     76  C52 UNL A   1       2.470   8.738  22.339  1.00  0.00    +0.000 C 
ATOM     77  F16 UNL A   1       1.461   9.192  21.582  1.00  0.00    +0.000 F 
ATOM     78  C53 UNL A   1       3.665   8.359  21.749  1.00  0.00    +0.000 C 
ATOM     79  F17 UNL A   1       3.823   8.466  20.423  1.00  0.00    +0.000 F 
ATOM     80  C54 UNL A   1       4.705   7.867  22.534  1.00  0.00    +0.000 C 
ATOM     81  F18 UNL A   1       5.848   7.500  21.936  1.00  0.00    +0.000 F 
ENDBRANCH   70   71
TORSDOF 17
ENDMDL
MODEL 4
REMARK VINA RESULT:     -12.0     42.074     48.294
ROOT
ATOM     34  C25 UNL A   1      25.468  38.556  46.226  1.00  0.00    +0.000 C 
ATOM     35  C26 UNL A   1      25.580  39.903  46.880  1.00  0.00    +0.000 C 
ATOM     36  N5  UNL A   1      26.654  40.614  47.123  1.00  0.00    +0.000 N 
ATOM     37  C27 UNL A   1      26.211  41.782  47.729  1.00  0.00    +0.000 C 
ATOM     38  C28 UNL A   1      26.945  42.820  48.200  1.00  0.00    +0.000 C 
ATOM     50  C35 UNL A   1      28.383  42.894  48.141  1.00  0.00    +0.000 C 
ATOM     51  C36 UNL A   1      29.217  43.903  48.596  1.00  0.00    +0.000 C 
ATOM     52  C37 UNL A   1      30.537  43.551  48.297  1.00  0.00    +0.000 C 
ATOM     53  C38 UNL A   1      30.530  42.304  47.693  1.00  0.00    +0.000 C 
ATOM     54  N6  UNL A   1      29.203  41.918  47.594  1.00  0.00    +0.000 N 
ATOM     55  C39 UNL A   1      31.651  41.520  47.242  1.00  0.00    +0.000 C 
ATOM     67  C46 UNL A   1      31.566  40.299  46.661  1.00  0.00    +0.000 C 
ATOM     68  N7  UNL A   1      30.435  39.557  46.356  1.00  0.00    +0.000 N 
ATOM     69  C47 UNL A   1      30.867  38.471  45.763  1.00  0.00    +0.000 C 
ATOM     70  C48 UNL A   1      30.082  37.312  45.224  1.00  0.00    +0.000 C 
ATOM     82  C55 UNL A   1      28.740  37.329  45.321  1.00  0.00    +0.000 C 
ATOM     83  C56 UNL A   1      27.852  36.269  44.861  1.00  0.00    +0.000 C 
ATOM     84  C57 UNL A   1      26.583  36.632  45.097  1.00  0.00    +0.000 C 
ATOM     85  C58 UNL A   1      26.573  37.930  45.774  1.00  0.00    +0.000 C 
ATOM     86  N8  UNL A   1      27.896  38.282  45.837  1.00  0.00    +0.000 N 
ATOM     87  C59 UNL A   1      32.328  38.403  45.623  1.00  0.00    +0.000 C 
ATOM     88  C60 UNL A   1      32.706  39.523  46.220  1.00  0.00    +0.000 C 
ATOM     89  C61 UNL A   1      24.766  41.702  47.790  1.00  0.00    +0.000 C 
ATOM     90  C62 UNL A   1      24.329  40.544  47.314  1.00  0.00    +0.000 C 
ATOM    117  H25 UNL A   1      28.915  44.767  49.073  1.00  0.00    +0.000 H 
ATOM    118  H26 UNL A   1      31.373  44.122  48.492  1.00  0.00    +0.000 H 
ATOM    119  H27 UNL A   1      28.887  41.075  47.195  1.00  0.00    +0.000 H 
ATOM    120  H28 UNL A   1      28.151  35.383  44.424  1.00  0.00    +0.000 H 
ATOM    121  H29 UNL A   1      25.747  36.083  44.843  1.00  0.00    +0.000 H 
ATOM    122  H30 UNL A   1      28.211  39.135  46.215  1.00  0.00    +0.000 H 
ATOM    123  H31 UNL A   1      32.906  37.674  45.176  1.00  0.00    +0.000 H 
ATOM    124  H32 UNL A   1      33.689  39.807  46.354  1.00  0.00    +0.000 H 
ATOM    125  H33 UNL A   1      24.156  42.450  48.156  1.00  0.00    +0.000 H 
ATOM    126  H34 UNL A   1      23.363  40.185  47.263  1.00  0.00    +0.000 H 
ENDROOT
BRANCH   34   33
ATOM     33  C24 UNL A   1      24.165  37.854  46.111  1.00  0.00    +0.000 C 
ATOM    127  H35 UNL A   1      24.315  36.733  47.898  1.00  0.00    +0.000 H 
ATOM    115  H23 UNL A   1      21.405  37.901  44.194  1.00  0.00    +0.000 H 
ATOM    116  H24 UNL A   1      23.640  38.825  44.305  1.00  0.00    +0.000 H 
ATOM     91  C63 UNL A   1      23.726  36.936  47.077  1.00  0.00    +0.000 C 
ATOM     92  C64 UNL A   1      22.490  36.297  46.930  1.00  0.00    +0.000 C 
ATOM     32  C23 UNL A   1      23.319  38.165  45.032  1.00  0.00    +0.000 C 
ATOM     30  C21 UNL A   1      21.668  36.606  45.841  1.00  0.00    +0.000 C 
ATOM     31  C22 UNL A   1      22.055  37.595  44.934  1.00  0.00    +0.000 C 
ATOM    128  H36 UNL A   1      22.185  35.597  47.624  1.00  0.00    +0.000 H 
BRANCH   30    2
ATOM      1  O1  UNL A   1      20.113  35.385  44.578  1.00  0.00    +0.000 O 
ATOM      2  C1  UNL A   1      20.391  35.877  45.668  1.00  0.00    +0.000 C 
BRANCH    2    3
ATOM      3  N1  UNL A   1      19.509  35.781  46.718  1.00  0.00    +0.000 N 
ATOM     93  H1  UNL A   1      19.633  35.000  47.305  1.00  0.00    +0.000 H 
BRANCH    3    4
ATOM      4  C2  UNL A   1      18.421  36.671  47.083  1.00  0.00    +0.000 C 
ATOM     94  H2  UNL A   1      18.833  37.536  47.560  1.00  0.00    +0.000 H 
ATOM     95  H3  UNL A   1      17.768  36.128  47.735  1.00  0.00    +0.000 H 
BRANCH    4    5
ATOM     97  H5  UNL A   1      17.184  38.074  46.154  1.00  0.00    +0.000 H 
ATOM      5  C3  UNL A   1      17.595  37.123  45.887  1.00  0.00    +0.000 C 
ATOM     96  H4  UNL A   1      18.241  37.159  45.034  1.00  0.00    +0.000 H 
BRANCH    5    6
ATOM     98  H6  UNL A   1      15.821  36.738  44.798  1.00  0.00    +0.000 H 
ATOM     99  H7  UNL A   1      15.886  36.066  46.462  1.00  0.00    +0.000 H 
ATOM      6  C4  UNL A   1      16.404  36.232  45.540  1.00  0.00    +0.000 C 
BRANCH    6    7
ATOM    100  H8  UNL A   1      16.599  34.136  45.792  1.00  0.00    +0.000 H 
ATOM    101  H9  UNL A   1      17.757  34.905  44.655  1.00  0.00    +0.000 H 
ATOM      7  C5  UNL A   1      16.747  34.840  45.000  1.00  0.00    +0.000 C 
BRANCH    7    8
ATOM    102  H10 UNL A   1      16.603  34.226  42.973  1.00  0.00    +0.000 H 
ATOM    103  H11 UNL A   1      15.193  35.122  43.620  1.00  0.00    +0.000 H 
ATOM      8  C6  UNL A   1      15.930  34.366  43.792  1.00  0.00    +0.000 C 
BRANCH    8    9
ATOM      9  C7  UNL A   1      15.157  33.063  43.994  1.00  0.00    +0.000 C 
ATOM    105  H13 UNL A   1      15.701  32.462  44.694  1.00  0.00    +0.000 H 
ATOM    104  H12 UNL A   1      14.179  33.295  44.360  1.00  0.00    +0.000 H 
BRANCH    9   10
ATOM     10  N2  UNL A   1      15.029  32.308  42.761  1.00  0.00    +0.000 N 
ATOM    106  H14 UNL A   1      14.136  32.310  42.343  1.00  0.00    +0.000 H 
BRANCH   10   11
ATOM     11  C8  UNL A   1      15.998  31.593  42.105  1.00  0.00    +0.000 C 
ATOM     12  O2  UNL A   1      16.388  31.948  40.995  1.00  0.00    +0.000 O 
BRANCH   11   13
ATOM    107  H15 UNL A   1      15.099  29.064  41.971  1.00  0.00    +0.000 H 
ATOM    108  H16 UNL A   1      16.089  27.082  42.997  1.00  0.00    +0.000 H 
ATOM     13  C9  UNL A   1      16.576  30.384  42.719  1.00  0.00    +0.000 C 
ATOM     14  C10 UNL A   1      15.962  29.140  42.531  1.00  0.00    +0.000 C 
ATOM     15  C11 UNL A   1      16.527  28.009  43.106  1.00  0.00    +0.000 C 
ATOM     16  C12 UNL A   1      17.694  28.167  43.827  1.00  0.00    +0.000 C 
ATOM     17  N3  UNL A   1      18.322  29.352  43.990  1.00  0.00    +0.000 N 
ATOM     18  C13 UNL A   1      17.790  30.461  43.415  1.00  0.00    +0.000 C 
ATOM    109  H17 UNL A   1      18.111  27.332  44.267  1.00  0.00    +0.000 H 
BRANCH   18   19
ATOM     19  N4  UNL A   1      18.412  31.721  43.639  1.00  0.00    +0.000 N 
ATOM    110  H18 UNL A   1      18.070  32.498  43.141  1.00  0.00    +0.000 H 
BRANCH   19   20
ATOM    111  H19 UNL A   1      18.249  32.076  46.226  1.00  0.00    +0.000 H 
ATOM    112  H20 UNL A   1      20.048  32.509  47.791  1.00  0.00    +0.000 H 
ATOM    113  H21 UNL A   1      22.331  32.696  46.997  1.00  0.00    +0.000 H 
ATOM    114  H22 UNL A   1      21.009  32.000  43.066  1.00  0.00    +0.000 H 
ATOM     20  C14 UNL A   1      19.493  31.928  44.530  1.00  0.00    +0.000 C 
ATOM     21  C15 UNL A   1      19.223  32.127  45.887  1.00  0.00    +0.000 C 
ATOM     22  C16 UNL A   1      20.256  32.395  46.787  1.00  0.00    +0.000 C 
ATOM     23  C17 UNL A   1      21.568  32.509  46.329  1.00  0.00    +0.000 C 
ATOM     24  C18 UNL A   1      21.856  32.370  44.964  1.00  0.00    +0.000 C 
ATOM     25  C19 UNL A   1      23.272  32.510  44.466  1.00  0.00    +0.000 C 
ATOM     26  F1  UNL A   1      23.856  33.671  44.878  1.00  0.00    +0.000 F 
ATOM     27  F2  UNL A   1      24.084  31.510  44.912  1.00  0.00    +0.000 F 
ATOM     28  F3  UNL A   1      23.384  32.503  43.109  1.00  0.00    +0.000 F 
ATOM     29  C20 UNL A   1      20.808  32.089  44.075  1.00  0.00    +0.000 C 
ENDBRANCH   19   20
ENDBRANCH   18   19
ENDBRANCH   11   13
ENDBRANCH   10   11
ENDBRANCH    9   10
ENDBRANCH    8    9
ENDBRANCH    7    8
ENDBRANCH    6    7
ENDBRANCH    5    6
ENDBRANCH    4    5
ENDBRANCH    3    4
ENDBRANCH    2    3
ENDBRANCH   30    2
ENDBRANCH   34   33
BRANCH   38   39
ATOM     39  C29 UNL A   1      26.207  43.969  48.824  1.00  0.00    +0.000 C 
ATOM     40  C30 UNL A   1      25.678  45.009  48.043  1.00  0.00    +0.000 C 
ATOM     41  F4  UNL A   1      25.886  45.030  46.719  1.00  0.00    +0.000 F 
ATOM     42  C31 UNL A   1      24.954  46.046  48.626  1.00  0.00    +0.000 C 
ATOM     43  F5  UNL A   1      24.487  47.044  47.865  1.00  0.00    +0.000 F 
ATOM     44  C32 UNL A   1      24.722  46.051  49.993  1.00  0.00    +0.000 C 
ATOM     45  F6  UNL A   1      24.015  47.043  50.551  1.00  0.00    +0.000 F 
ATOM     46  C33 UNL A   1      25.226  45.028  50.783  1.00  0.00    +0.000 C 
ATOM     47  F7  UNL A   1      24.993  45.026  52.103  1.00  0.00    +0.000 F 
ATOM     48  C34 UNL A   1      25.971  44.002  50.207  1.00  0.00    +0.000 C 
ATOM     49  F8  UNL A   1      26.448  43.029  50.997  1.00  0.00    +0.000 F 
ENDBRANCH   38   39
BRANCH   55   56
ATOM     65  C45 UNL A   1      33.610  42.904  46.464  1.00  0.00    +0.000 C 
ATOM     66  F13 UNL A   1      32.937  43.203  45.343  1.00  0.00    +0.000 F 
ATOM     56  C40 UNL A   1      33.029  42.080  47.439  1.00  0.00    +0.000 C 
ATOM     57  C41 UNL A   1      33.776  41.794  48.592  1.00  0.00    +0.000 C 
ATOM     58  F9  UNL A   1      33.254  41.025  49.560  1.00  0.00    +0.000 F 
ATOM     59  C42 UNL A   1      35.044  42.339  48.775  1.00  0.00    +0.000 C 
ATOM     60  F10 UNL A   1      35.717  42.096  49.907  1.00  0.00    +0.000 F 
ATOM     61  C43 UNL A   1      35.600  43.151  47.798  1.00  0.00    +0.000 C 
ATOM     62  F11 UNL A   1      36.819  43.678  47.978  1.00  0.00    +0.000 F 
ATOM     63  C44 UNL A   1      34.888  43.426  46.640  1.00  0.00    +0.000 C 
ATOM     64  F12 UNL A   1      35.428  44.204  45.691  1.00  0.00    +0.000 F 
ENDBRANCH   55   56
BRANCH   70   71
ATOM     71  C49 UNL A   1      30.757  36.154  44.586  1.00  0.00    +0.000 C 
ATOM     72  C50 UNL A   1      31.212  35.070  45.347  1.00  0.00    +0.000 C 
ATOM     73  F14 UNL A   1      31.067  35.080  46.680  1.00  0.00    +0.000 F 
ATOM     74  C51 UNL A   1      31.846  33.986  44.745  1.00  0.00    +0.000 C 
ATOM     75  F15 UNL A   1      32.309  32.979  45.499  1.00  0.00    +0.000 F 
ATOM     76  C52 UNL A   1      32.011  33.952  43.368  1.00  0.00    +0.000 C 
ATOM     77  F16 UNL A   1      32.614  32.905  42.788  1.00  0.00    +0.000 F 
ATOM     78  C53 UNL A   1      31.555  35.007  42.592  1.00  0.00    +0.000 C 
ATOM     79  F17 UNL A   1      31.696  34.971  41.260  1.00  0.00    +0.000 F 
ATOM     80  C54 UNL A   1      30.949  36.105  43.197  1.00  0.00    +0.000 C 
ATOM     81  F18 UNL A   1      30.525  37.116  42.424  1.00  0.00    +0.000 F 
ENDBRANCH   70   71
TORSDOF 17
ENDMDL
MODEL 5
REMARK VINA RESULT:     -11.9     42.951     46.491
ROOT
ATOM     34  C25 UNL A   1      29.335 -13.782  30.781  1.00  0.00    +0.000 C 
ATOM     35  C26 UNL A   1      28.265 -13.008  30.065  1.00  0.00    +0.000 C 
ATOM     36  N5  UNL A   1      27.177 -12.463  30.553  1.00  0.00    +0.000 N 
ATOM     37  C27 UNL A   1      26.538 -11.857  29.480  1.00  0.00    +0.000 C 
ATOM     38  C28 UNL A   1      25.357 -11.192  29.465  1.00  0.00    +0.000 C 
ATOM     50  C35 UNL A   1      24.526 -10.983  30.625  1.00  0.00    +0.000 C 
ATOM     51  C36 UNL A   1      23.310 -10.325  30.710  1.00  0.00    +0.000 C 
ATOM     52  C37 UNL A   1      22.889 -10.349  32.043  1.00  0.00    +0.000 C 
ATOM     53  C38 UNL A   1      23.822 -11.058  32.783  1.00  0.00    +0.000 C 
ATOM     54  N6  UNL A   1      24.825 -11.432  31.903  1.00  0.00    +0.000 N 
ATOM     55  C39 UNL A   1      23.798 -11.375  34.187  1.00  0.00    +0.000 C 
ATOM     67  C46 UNL A   1      24.751 -12.081  34.843  1.00  0.00    +0.000 C 
ATOM     68  N7  UNL A   1      25.928 -12.623  34.350  1.00  0.00    +0.000 N 
ATOM     69  C47 UNL A   1      26.531 -13.169  35.378  1.00  0.00    +0.000 C 
ATOM     70  C48 UNL A   1      27.839 -13.902  35.426  1.00  0.00    +0.000 C 
ATOM     82  C55 UNL A   1      28.550 -14.048  34.294  1.00  0.00    +0.000 C 
ATOM     83  C56 UNL A   1      29.823 -14.751  34.187  1.00  0.00    +0.000 C 
ATOM     84  C57 UNL A   1      30.253 -14.679  32.919  1.00  0.00    +0.000 C 
ATOM     85  C58 UNL A   1      29.258 -13.968  32.113  1.00  0.00    +0.000 C 
ATOM     86  N8  UNL A   1      28.296 -13.604  33.019  1.00  0.00    +0.000 N 
ATOM     87  C59 UNL A   1      25.801 -13.033  36.645  1.00  0.00    +0.000 C 
ATOM     88  C60 UNL A   1      24.707 -12.396  36.256  1.00  0.00    +0.000 C 
ATOM     89  C61 UNL A   1      27.374 -12.072  28.317  1.00  0.00    +0.000 C 
ATOM     90  C62 UNL A   1      28.434 -12.812  28.617  1.00  0.00    +0.000 C 
ATOM    117  H25 UNL A   1      22.803  -9.890  29.923  1.00  0.00    +0.000 H 
ATOM    118  H26 UNL A   1      22.030  -9.913  32.414  1.00  0.00    +0.000 H 
ATOM    119  H27 UNL A   1      25.631 -11.941  32.147  1.00  0.00    +0.000 H 
ATOM    120  H28 UNL A   1      30.312 -15.226  34.961  1.00  0.00    +0.000 H 
ATOM    121  H29 UNL A   1      31.144 -15.064  32.568  1.00  0.00    +0.000 H 
ATOM    122  H30 UNL A   1      27.501 -13.074  32.780  1.00  0.00    +0.000 H 
ATOM    123  H31 UNL A   1      26.071 -13.349  37.590  1.00  0.00    +0.000 H 
ATOM    124  H32 UNL A   1      23.922 -12.154  36.881  1.00  0.00    +0.000 H 
ATOM    125  H33 UNL A   1      27.172 -11.698  27.377  1.00  0.00    +0.000 H 
ATOM    126  H34 UNL A   1      29.181 -13.160  27.997  1.00  0.00    +0.000 H 
ENDROOT
BRANCH   34   33
ATOM     33  C24 UNL A   1      30.464 -14.408  30.046  1.00  0.00    +0.000 C 
ATOM    127  H35 UNL A   1      31.774 -12.749  30.122  1.00  0.00    +0.000 H 
ATOM    115  H23 UNL A   1      31.363 -17.409  28.830  1.00  0.00    +0.000 H 
ATOM    116  H24 UNL A   1      29.469 -16.261  29.810  1.00  0.00    +0.000 H 
ATOM     91  C63 UNL A   1      31.660 -13.720  29.794  1.00  0.00    +0.000 C 
ATOM     92  C64 UNL A   1      32.699 -14.346  29.098  1.00  0.00    +0.000 C 
ATOM     32  C23 UNL A   1      30.352 -15.751  29.646  1.00  0.00    +0.000 C 
ATOM     30  C21 UNL A   1      32.565 -15.678  28.692  1.00  0.00    +0.000 C 
ATOM     31  C22 UNL A   1      31.418 -16.398  29.033  1.00  0.00    +0.000 C 
ATOM    128  H36 UNL A   1      33.565 -13.826  28.883  1.00  0.00    +0.000 H 
BRANCH   30    2
ATOM      1  O1  UNL A   1      34.395 -17.124  28.438  1.00  0.00    +0.000 O 
ATOM      2  C1  UNL A   1      33.649 -16.307  27.905  1.00  0.00    +0.000 C 
BRANCH    2    3
ATOM      3  N1  UNL A   1      33.837 -15.953  26.590  1.00  0.00    +0.000 N 
ATOM     93  H1  UNL A   1      33.027 -15.955  26.030  1.00  0.00    +0.000 H 
BRANCH    3    4
ATOM      4  C2  UNL A   1      35.064 -15.575  25.911  1.00  0.00    +0.000 C 
ATOM     94  H2  UNL A   1      35.325 -16.351  25.221  1.00  0.00    +0.000 H 
ATOM     95  H3  UNL A   1      35.816 -15.437  26.661  1.00  0.00    +0.000 H 
BRANCH    4    5
ATOM     97  H5  UNL A   1      34.757 -14.534  24.126  1.00  0.00    +0.000 H 
ATOM      5  C3  UNL A   1      34.942 -14.265  25.144  1.00  0.00    +0.000 C 
ATOM     96  H4  UNL A   1      34.153 -13.695  25.588  1.00  0.00    +0.000 H 
BRANCH    5    6
ATOM     98  H6  UNL A   1      36.501 -13.276  24.108  1.00  0.00    +0.000 H 
ATOM     99  H7  UNL A   1      36.916 -13.912  25.735  1.00  0.00    +0.000 H 
ATOM      6  C4  UNL A   1      36.200 -13.398  25.128  1.00  0.00    +0.000 C 
BRANCH    6    7
ATOM    100  H8  UNL A   1      35.884 -11.310  24.950  1.00  0.00    +0.000 H 
ATOM    101  H9  UNL A   1      36.965 -11.833  26.286  1.00  0.00    +0.000 H 
ATOM      7  C5  UNL A   1      36.057 -12.004  25.746  1.00  0.00    +0.000 C 
BRANCH    7    8
ATOM    102  H10 UNL A   1      35.260 -12.253  27.698  1.00  0.00    +0.000 H 
ATOM    103  H11 UNL A   1      34.076 -12.323  26.355  1.00  0.00    +0.000 H 
ATOM      8  C6  UNL A   1      34.930 -11.832  26.772  1.00  0.00    +0.000 C 
BRANCH    8    9
ATOM      9  C7  UNL A   1      34.499 -10.391  27.037  1.00  0.00    +0.000 C 
ATOM    105  H13 UNL A   1      34.488 -10.239  28.096  1.00  0.00    +0.000 H 
ATOM    104  H12 UNL A   1      35.191  -9.729  26.558  1.00  0.00    +0.000 H 
BRANCH    9   10
ATOM     10  N2  UNL A   1      33.166 -10.119  26.532  1.00  0.00    +0.000 N 
ATOM    106  H14 UNL A   1      32.563  -9.632  27.141  1.00  0.00    +0.000 H 
BRANCH   10   11
ATOM     11  C8  UNL A   1      32.641 -10.455  25.309  1.00  0.00    +0.000 C 
ATOM     12  O2  UNL A   1      33.096  -9.959  24.281  1.00  0.00    +0.000 O 
BRANCH   11   13
ATOM    107  H15 UNL A   1      32.744 -13.133  25.112  1.00  0.00    +0.000 H 
ATOM    108  H16 UNL A   1      30.863 -14.683  24.967  1.00  0.00    +0.000 H 
ATOM     13  C9  UNL A   1      31.521 -11.408  25.216  1.00  0.00    +0.000 C 
ATOM     14  C10 UNL A   1      31.774 -12.782  25.124  1.00  0.00    +0.000 C 
ATOM     15  C11 UNL A   1      30.707 -13.667  25.049  1.00  0.00    +0.000 C 
ATOM     16  C12 UNL A   1      29.430 -13.142  25.091  1.00  0.00    +0.000 C 
ATOM     17  N3  UNL A   1      29.164 -11.824  25.216  1.00  0.00    +0.000 N 
ATOM     18  C13 UNL A   1      30.200 -10.950  25.310  1.00  0.00    +0.000 C 
ATOM    109  H17 UNL A   1      28.634 -13.795  25.024  1.00  0.00    +0.000 H 
BRANCH   18   19
ATOM     19  N4  UNL A   1      29.924  -9.557  25.375  1.00  0.00    +0.000 N 
ATOM    110  H18 UNL A   1      29.909  -9.050  24.532  1.00  0.00    +0.000 H 
BRANCH   19   20
ATOM    111  H19 UNL A   1      29.284  -7.028  25.588  1.00  0.00    +0.000 H 
ATOM    112  H20 UNL A   1      28.912  -5.746  27.610  1.00  0.00    +0.000 H 
ATOM    113  H21 UNL A   1      29.163  -6.797  29.779  1.00  0.00    +0.000 H 
ATOM    114  H22 UNL A   1      30.145 -10.426  27.894  1.00  0.00    +0.000 H 
ATOM     20  C14 UNL A   1      29.670  -8.850  26.577  1.00  0.00    +0.000 C 
ATOM     21  C15 UNL A   1      29.364  -7.488  26.508  1.00  0.00    +0.000 C 
ATOM     22  C16 UNL A   1      29.168  -6.743  27.673  1.00  0.00    +0.000 C 
ATOM     23  C17 UNL A   1      29.319  -7.347  28.921  1.00  0.00    +0.000 C 
ATOM     24  C18 UNL A   1      29.681  -8.698  29.015  1.00  0.00    +0.000 C 
ATOM     25  C19 UNL A   1      29.861  -9.346  30.363  1.00  0.00    +0.000 C 
ATOM     26  F1  UNL A   1      30.715  -8.650  31.165  1.00  0.00    +0.000 F 
ATOM     27  F2  UNL A   1      28.693  -9.437  31.059  1.00  0.00    +0.000 F 
ATOM     28  F3  UNL A   1      30.359 -10.613  30.306  1.00  0.00    +0.000 F 
ATOM     29  C20 UNL A   1      29.863  -9.435  27.834  1.00  0.00    +0.000 C 
ENDBRANCH   19   20
ENDBRANCH   18   19
ENDBRANCH   11   13
ENDBRANCH   10   11
ENDBRANCH    9   10
ENDBRANCH    8    9
ENDBRANCH    7    8
ENDBRANCH    6    7
ENDBRANCH    5    6
ENDBRANCH    4    5
ENDBRANCH    3    4
ENDBRANCH    2    3
ENDBRANCH   30    2
ENDBRANCH   34   33
BRANCH   38   39
ATOM     39  C29 UNL A   1      24.886 -10.634  28.153  1.00  0.00    +0.000 C 
ATOM     40  C30 UNL A   1      25.522  -9.535  27.556  1.00  0.00    +0.000 C 
ATOM     41  F4  UNL A   1      26.527  -8.912  28.188  1.00  0.00    +0.000 F 
ATOM     42  C31 UNL A   1      25.108  -9.055  26.315  1.00  0.00    +0.000 C 
ATOM     43  F5  UNL A   1      25.708  -7.984  25.780  1.00  0.00    +0.000 F 
ATOM     44  C32 UNL A   1      24.071  -9.679  25.638  1.00  0.00    +0.000 C 
ATOM     45  F6  UNL A   1      23.682  -9.223  24.439  1.00  0.00    +0.000 F 
ATOM     46  C33 UNL A   1      23.436 -10.774  26.204  1.00  0.00    +0.000 C 
ATOM     47  F7  UNL A   1      22.441 -11.384  25.545  1.00  0.00    +0.000 F 
ATOM     48  C34 UNL A   1      23.831 -11.241  27.456  1.00  0.00    +0.000 C 
ATOM     49  F8  UNL A   1      23.195 -12.300  27.979  1.00  0.00    +0.000 F 
ENDBRANCH   38   39
BRANCH   55   56
ATOM     65  C45 UNL A   1      21.493 -11.718  35.149  1.00  0.00    +0.000 C 
ATOM     66  F13 UNL A   1      21.445 -12.927  34.568  1.00  0.00    +0.000 F 
ATOM     56  C40 UNL A   1      22.627 -10.907  34.998  1.00  0.00    +0.000 C 
ATOM     57  C41 UNL A   1      22.625  -9.650  35.621  1.00  0.00    +0.000 C 
ATOM     58  F9  UNL A   1      23.696  -8.846  35.521  1.00  0.00    +0.000 F 
ATOM     59  C42 UNL A   1      21.543  -9.235  36.392  1.00  0.00    +0.000 C 
ATOM     60  F10 UNL A   1      21.585  -8.053  37.021  1.00  0.00    +0.000 F 
ATOM     61  C43 UNL A   1      20.431 -10.053  36.527  1.00  0.00    +0.000 C 
ATOM     62  F11 UNL A   1      19.391  -9.654  37.272  1.00  0.00    +0.000 F 
ATOM     63  C44 UNL A   1      20.402 -11.289  35.898  1.00  0.00    +0.000 C 
ATOM     64  F12 UNL A   1      19.325 -12.077  36.021  1.00  0.00    +0.000 F 
ENDBRANCH   55   56
BRANCH   70   71
ATOM     71  C49 UNL A   1      28.360 -14.464  36.698  1.00  0.00    +0.000 C 
ATOM     72  C50 UNL A   1      29.203 -13.717  37.530  1.00  0.00    +0.000 C 
ATOM     73  F14 UNL A   1      29.579 -12.481  37.168  1.00  0.00    +0.000 F 
ATOM     74  C51 UNL A   1      29.691 -14.248  38.722  1.00  0.00    +0.000 C 
ATOM     75  F15 UNL A   1      30.529 -13.528  39.481  1.00  0.00    +0.000 F 
ATOM     76  C52 UNL A   1      29.321 -15.525  39.119  1.00  0.00    +0.000 C 
ATOM     77  F16 UNL A   1      29.783 -16.031  40.270  1.00  0.00    +0.000 F 
ATOM     78  C53 UNL A   1      28.474 -16.277  38.319  1.00  0.00    +0.000 C 
ATOM     79  F17 UNL A   1      28.099 -17.504  38.706  1.00  0.00    +0.000 F 
ATOM     80  C54 UNL A   1      28.011 -15.758  37.113  1.00  0.00    +0.000 C 
ATOM     81  F18 UNL A   1      27.200 -16.510  36.354  1.00  0.00    +0.000 F 
ENDBRANCH   70   71
TORSDOF 17
ENDMDL
MODEL 6
REMARK VINA RESULT:     -11.9     42.148     50.037
ROOT
ATOM     34  C25 UNL A   1      26.140  35.498  45.714  1.00  0.00    +0.000 C 
ATOM     35  C26 UNL A   1      24.801  34.839  45.544  1.00  0.00    +0.000 C 
ATOM     36  N5  UNL A   1      23.664  35.119  46.134  1.00  0.00    +0.000 N 
ATOM     37  C27 UNL A   1      22.734  34.227  45.618  1.00  0.00    +0.000 C 
ATOM     38  C28 UNL A   1      21.424  34.093  45.938  1.00  0.00    +0.000 C 
ATOM     50  C35 UNL A   1      20.737  34.902  46.913  1.00  0.00    +0.000 C 
ATOM     51  C36 UNL A   1      19.411  34.838  47.310  1.00  0.00    +0.000 C 
ATOM     52  C37 UNL A   1      19.188  35.839  48.262  1.00  0.00    +0.000 C 
ATOM     53  C38 UNL A   1      20.385  36.500  48.489  1.00  0.00    +0.000 C 
ATOM     54  N6  UNL A   1      21.323  35.922  47.648  1.00  0.00    +0.000 N 
ATOM     55  C39 UNL A   1      20.654  37.576  49.407  1.00  0.00    +0.000 C 
ATOM     67  C46 UNL A   1      21.859  38.172  49.578  1.00  0.00    +0.000 C 
ATOM     68  N7  UNL A   1      23.056  37.918  48.928  1.00  0.00    +0.000 N 
ATOM     69  C47 UNL A   1      23.916  38.783  49.407  1.00  0.00    +0.000 C 
ATOM     70  C48 UNL A   1      25.366  38.962  49.067  1.00  0.00    +0.000 C 
ATOM     82  C55 UNL A   1      25.925  38.161  48.141  1.00  0.00    +0.000 C 
ATOM     83  C56 UNL A   1      27.322  38.206  47.726  1.00  0.00    +0.000 C 
ATOM     84  C57 UNL A   1      27.521  37.284  46.773  1.00  0.00    +0.000 C 
ATOM     85  C58 UNL A   1      26.276  36.546  46.550  1.00  0.00    +0.000 C 
ATOM     86  N8  UNL A   1      25.375  37.156  47.383  1.00  0.00    +0.000 N 
ATOM     87  C59 UNL A   1      23.358  39.689  50.418  1.00  0.00    +0.000 C 
ATOM     88  C60 UNL A   1      22.111  39.250  50.512  1.00  0.00    +0.000 C 
ATOM     89  C61 UNL A   1      23.429  33.414  44.642  1.00  0.00    +0.000 C 
ATOM     90  C62 UNL A   1      24.718  33.725  44.587  1.00  0.00    +0.000 C 
ATOM    117  H25 UNL A   1      18.708  34.168  46.962  1.00  0.00    +0.000 H 
ATOM    118  H26 UNL A   1      18.286  36.050  48.716  1.00  0.00    +0.000 H 
ATOM    119  H27 UNL A   1      22.267  36.194  47.582  1.00  0.00    +0.000 H 
ATOM    120  H28 UNL A   1      28.040  38.844  48.103  1.00  0.00    +0.000 H 
ATOM    121  H29 UNL A   1      28.411  37.120  46.278  1.00  0.00    +0.000 H 
ATOM    122  H30 UNL A   1      24.425  36.900  47.433  1.00  0.00    +0.000 H 
ATOM    123  H31 UNL A   1      23.815  40.465  50.922  1.00  0.00    +0.000 H 
ATOM    124  H32 UNL A   1      21.409  39.627  51.168  1.00  0.00    +0.000 H 
ATOM    125  H33 UNL A   1      22.981  32.686  44.064  1.00  0.00    +0.000 H 
ATOM    126  H34 UNL A   1      25.467  33.298  44.020  1.00  0.00    +0.000 H 
ENDROOT
BRANCH   34   33
ATOM     33  C24 UNL A   1      27.350  34.987  45.021  1.00  0.00    +0.000 C 
ATOM    127  H35 UNL A   1      27.905  33.565  46.486  1.00  0.00    +0.000 H 
ATOM    115  H23 UNL A   1      28.908  35.283  42.059  1.00  0.00    +0.000 H 
ATOM    116  H24 UNL A   1      27.094  36.247  43.341  1.00  0.00    +0.000 H 
ATOM     91  C63 UNL A   1      28.152  33.976  45.573  1.00  0.00    +0.000 C 
ATOM     92  C64 UNL A   1      29.284  33.523  44.887  1.00  0.00    +0.000 C 
ATOM     32  C23 UNL A   1      27.667  35.490  43.747  1.00  0.00    +0.000 C 
ATOM     30  C21 UNL A   1      29.594  34.047  43.627  1.00  0.00    +0.000 C 
ATOM     31  C22 UNL A   1      28.741  34.977  43.030  1.00  0.00    +0.000 C 
ATOM    128  H36 UNL A   1      29.891  32.804  45.311  1.00  0.00    +0.000 H 
BRANCH   30    2
ATOM      1  O1  UNL A   1      30.805  33.365  41.737  1.00  0.00    +0.000 O 
ATOM      2  C1  UNL A   1      30.828  33.600  42.942  1.00  0.00    +0.000 C 
BRANCH    2    3
ATOM      3  N1  UNL A   1      31.985  33.421  43.662  1.00  0.00    +0.000 N 
ATOM     93  H1  UNL A   1      32.170  32.496  43.943  1.00  0.00    +0.000 H 
BRANCH    3    4
ATOM      4  C2  UNL A   1      32.973  34.407  44.065  1.00  0.00    +0.000 C 
ATOM     94  H2  UNL A   1      33.325  34.915  43.190  1.00  0.00    +0.000 H 
ATOM     95  H3  UNL A   1      33.762  33.884  44.566  1.00  0.00    +0.000 H 
BRANCH    4    5
ATOM     97  H5  UNL A   1      31.479  35.061  45.370  1.00  0.00    +0.000 H 
ATOM      5  C3  UNL A   1      32.423  35.439  45.038  1.00  0.00    +0.000 C 
ATOM     96  H4  UNL A   1      33.137  35.565  45.826  1.00  0.00    +0.000 H 
BRANCH    5    6
ATOM     98  H6  UNL A   1      32.080  36.704  43.375  1.00  0.00    +0.000 H 
ATOM     99  H7  UNL A   1      32.934  37.448  44.768  1.00  0.00    +0.000 H 
ATOM      6  C4  UNL A   1      32.137  36.815  44.438  1.00  0.00    +0.000 C 
BRANCH    6    7
ATOM    100  H8  UNL A   1      31.005  37.839  45.909  1.00  0.00    +0.000 H 
ATOM    101  H9  UNL A   1      30.081  36.752  44.817  1.00  0.00    +0.000 H 
ATOM      7  C5  UNL A   1      30.847  37.493  44.909  1.00  0.00    +0.000 C 
BRANCH    7    8
ATOM    102  H10 UNL A   1      30.023  38.311  43.131  1.00  0.00    +0.000 H 
ATOM    103  H11 UNL A   1      31.206  39.345  43.991  1.00  0.00    +0.000 H 
ATOM      8  C6  UNL A   1      30.367  38.686  44.071  1.00  0.00    +0.000 C 
BRANCH    8    9
ATOM      9  C7  UNL A   1      29.240  39.511  44.691  1.00  0.00    +0.000 C 
ATOM    105  H13 UNL A   1      28.498  39.674  43.937  1.00  0.00    +0.000 H 
ATOM    104  H12 UNL A   1      28.836  38.973  45.523  1.00  0.00    +0.000 H 
BRANCH    9   10
ATOM     10  N2  UNL A   1      29.703  40.807  45.151  1.00  0.00    +0.000 N 
ATOM    106  H14 UNL A   1      30.386  41.246  44.593  1.00  0.00    +0.000 H 
BRANCH   10   11
ATOM     11  C8  UNL A   1      29.304  41.498  46.268  1.00  0.00    +0.000 C 
ATOM     12  O2  UNL A   1      28.294  42.197  46.237  1.00  0.00    +0.000 O 
BRANCH   11   13
ATOM    107  H15 UNL A   1      29.227  39.593  48.162  1.00  0.00    +0.000 H 
ATOM    108  H16 UNL A   1      30.547  39.487  50.213  1.00  0.00    +0.000 H 
ATOM     13  C9  UNL A   1      30.087  41.417  47.513  1.00  0.00    +0.000 C 
ATOM     14  C10 UNL A   1      29.911  40.334  48.383  1.00  0.00    +0.000 C 
ATOM     15  C11 UNL A   1      30.666  40.265  49.546  1.00  0.00    +0.000 C 
ATOM     16  C12 UNL A   1      31.581  41.273  49.780  1.00  0.00    +0.000 C 
ATOM     17  N3  UNL A   1      31.793  42.307  48.937  1.00  0.00    +0.000 N 
ATOM     18  C13 UNL A   1      31.074  42.373  47.787  1.00  0.00    +0.000 C 
ATOM    109  H17 UNL A   1      32.135  41.233  50.650  1.00  0.00    +0.000 H 
BRANCH   18   19
ATOM     19  N4  UNL A   1      31.247  43.494  46.928  1.00  0.00    +0.000 N 
ATOM    110  H18 UNL A   1      30.452  44.030  46.705  1.00  0.00    +0.000 H 
BRANCH   19   20
ATOM    111  H19 UNL A   1      32.240  45.915  46.900  1.00  0.00    +0.000 H 
ATOM    112  H20 UNL A   1      34.318  46.666  45.903  1.00  0.00    +0.000 H 
ATOM    113  H21 UNL A   1      35.737  45.095  44.724  1.00  0.00    +0.000 H 
ATOM    114  H22 UNL A   1      32.999  42.013  45.554  1.00  0.00    +0.000 H 
ATOM     20  C14 UNL A   1      32.489  43.888  46.373  1.00  0.00    +0.000 C 
ATOM     21  C15 UNL A   1      32.855  45.236  46.423  1.00  0.00    +0.000 C 
ATOM     22  C16 UNL A   1      34.042  45.674  45.833  1.00  0.00    +0.000 C 
ATOM     23  C17 UNL A   1      34.855  44.771  45.149  1.00  0.00    +0.000 C 
ATOM     24  C18 UNL A   1      34.481  43.425  45.037  1.00  0.00    +0.000 C 
ATOM     25  C19 UNL A   1      35.351  42.452  44.283  1.00  0.00    +0.000 C 
ATOM     26  F1  UNL A   1      35.648  42.887  43.025  1.00  0.00    +0.000 F 
ATOM     27  F2  UNL A   1      36.551  42.242  44.894  1.00  0.00    +0.000 F 
ATOM     28  F3  UNL A   1      34.793  41.219  44.124  1.00  0.00    +0.000 F 
ATOM     29  C20 UNL A   1      33.290  43.000  45.645  1.00  0.00    +0.000 C 
ENDBRANCH   19   20
ENDBRANCH   18   19
ENDBRANCH   11   13
ENDBRANCH   10   11
ENDBRANCH    9   10
ENDBRANCH    8    9
ENDBRANCH    7    8
ENDBRANCH    6    7
ENDBRANCH    5    6
ENDBRANCH    4    5
ENDBRANCH    3    4
ENDBRANCH    2    3
ENDBRANCH   30    2
ENDBRANCH   34   33
BRANCH   38   39
ATOM     39  C29 UNL A   1      20.637  33.030  45.227  1.00  0.00    +0.000 C 
ATOM     40  C30 UNL A   1      20.680  31.689  45.639  1.00  0.00    +0.000 C 
ATOM     41  F4  UNL A   1      21.488  31.318  46.643  1.00  0.00    +0.000 F 
ATOM     42  C31 UNL A   1      19.910  30.719  45.002  1.00  0.00    +0.000 C 
ATOM     43  F5  UNL A   1      19.992  29.440  45.392  1.00  0.00    +0.000 F 
ATOM     44  C32 UNL A   1      19.064  31.073  43.962  1.00  0.00    +0.000 C 
ATOM     45  F6  UNL A   1      18.315  30.140  43.359  1.00  0.00    +0.000 F 
ATOM     46  C33 UNL A   1      18.997  32.394  43.545  1.00  0.00    +0.000 C 
ATOM     47  F7  UNL A   1      18.172  32.739  42.547  1.00  0.00    +0.000 F 
ATOM     48  C34 UNL A   1      19.785  33.362  44.163  1.00  0.00    +0.000 C 
ATOM     49  F8  UNL A   1      19.701  34.631  43.735  1.00  0.00    +0.000 F 
ENDBRANCH   38   39
BRANCH   55   56
ATOM     65  C45 UNL A   1      19.206  37.440  51.467  1.00  0.00    +0.000 C 
ATOM     66  F13 UNL A   1      19.910  36.374  51.875  1.00  0.00    +0.000 F 
ATOM     56  C40 UNL A   1      19.526  38.077  50.259  1.00  0.00    +0.000 C 
ATOM     57  C41 UNL A   1      18.756  39.185  49.874  1.00  0.00    +0.000 C 
ATOM     58  F9  UNL A   1      19.036  39.838  48.736  1.00  0.00    +0.000 F 
ATOM     59  C42 UNL A   1      17.727  39.657  50.685  1.00  0.00    +0.000 C 
ATOM     60  F10 UNL A   1      17.040  40.749  50.323  1.00  0.00    +0.000 F 
ATOM     61  C43 UNL A   1      17.428  39.011  51.875  1.00  0.00    +0.000 C 
ATOM     62  F11 UNL A   1      16.439  39.469  52.656  1.00  0.00    +0.000 F 
ATOM     63  C44 UNL A   1      18.160  37.898  52.262  1.00  0.00    +0.000 C 
ATOM     64  F12 UNL A   1      17.866  37.269  53.408  1.00  0.00    +0.000 F 
ENDBRANCH   55   56
BRANCH   70   71
ATOM     71  C49 UNL A   1      26.190  40.004  49.730  1.00  0.00    +0.000 C 
ATOM     72  C50 UNL A   1      26.824  39.758  50.954  1.00  0.00    +0.000 C 
ATOM     73  F14 UNL A   1      26.666  38.574  51.564  1.00  0.00    +0.000 F 
ATOM     74  C51 UNL A   1      27.595  40.739  51.574  1.00  0.00    +0.000 C 
ATOM     75  F15 UNL A   1      28.157  40.493  52.765  1.00  0.00    +0.000 F 
ATOM     76  C52 UNL A   1      27.771  41.974  50.966  1.00  0.00    +0.000 C 
ATOM     77  F16 UNL A   1      28.520  42.913  51.558  1.00  0.00    +0.000 F 
ATOM     78  C53 UNL A   1      27.167  42.234  49.746  1.00  0.00    +0.000 C 
ATOM     79  F17 UNL A   1      27.348  43.418  49.146  1.00  0.00    +0.000 F 
ATOM     80  C54 UNL A   1      26.371  41.265  49.142  1.00  0.00    +0.000 C 
ATOM     81  F18 UNL A   1      25.790  41.546  47.965  1.00  0.00    +0.000 F 
ENDBRANCH   70   71
TORSDOF 17
ENDMDL
MODEL 7
REMARK VINA RESULT:     -11.9     43.006     46.703
ROOT
ATOM     34  C25 UNL A   1      29.008 -14.175  31.190  1.00  0.00    +0.000 C 
ATOM     35  C26 UNL A   1      28.755 -14.262  32.669  1.00  0.00    +0.000 C 
ATOM     36  N5  UNL A   1      27.765 -13.758  33.365  1.00  0.00    +0.000 N 
ATOM     37  C27 UNL A   1      27.993 -14.134  34.682  1.00  0.00    +0.000 C 
ATOM     38  C28 UNL A   1      27.267 -13.829  35.785  1.00  0.00    +0.000 C 
ATOM     50  C35 UNL A   1      26.070 -13.026  35.776  1.00  0.00    +0.000 C 
ATOM     51  C36 UNL A   1      25.268 -12.658  36.844  1.00  0.00    +0.000 C 
ATOM     52  C37 UNL A   1      24.200 -11.900  36.351  1.00  0.00    +0.000 C 
ATOM     53  C38 UNL A   1      24.359 -11.761  34.982  1.00  0.00    +0.000 C 
ATOM     54  N6  UNL A   1      25.503 -12.465  34.642  1.00  0.00    +0.000 N 
ATOM     55  C39 UNL A   1      23.531 -11.036  34.053  1.00  0.00    +0.000 C 
ATOM     67  C46 UNL A   1      23.754 -10.942  32.720  1.00  0.00    +0.000 C 
ATOM     68  N7  UNL A   1      24.769 -11.507  31.964  1.00  0.00    +0.000 N 
ATOM     69  C47 UNL A   1      24.527 -11.165  30.722  1.00  0.00    +0.000 C 
ATOM     70  C48 UNL A   1      25.304 -11.494  29.482  1.00  0.00    +0.000 C 
ATOM     82  C55 UNL A   1      26.410 -12.252  29.585  1.00  0.00    +0.000 C 
ATOM     83  C56 UNL A   1      27.271 -12.635  28.473  1.00  0.00    +0.000 C 
ATOM     84  C57 UNL A   1      28.264 -13.407  28.938  1.00  0.00    +0.000 C 
ATOM     85  C58 UNL A   1      28.135 -13.531  30.392  1.00  0.00    +0.000 C 
ATOM     86  N8  UNL A   1      26.989 -12.838  30.684  1.00  0.00    +0.000 N 
ATOM     87  C59 UNL A   1      23.324 -10.340  30.550  1.00  0.00    +0.000 C 
ATOM     88  C60 UNL A   1      22.912 -10.202  31.802  1.00  0.00    +0.000 C 
ATOM     89  C61 UNL A   1      29.198 -14.937  34.687  1.00  0.00    +0.000 C 
ATOM     90  C62 UNL A   1      29.730 -15.013  33.474  1.00  0.00    +0.000 C 
ATOM    117  H25 UNL A   1      25.430 -12.902  37.833  1.00  0.00    +0.000 H 
ATOM    118  H26 UNL A   1      23.426 -11.511  36.912  1.00  0.00    +0.000 H 
ATOM    119  H27 UNL A   1      25.862 -12.553  33.729  1.00  0.00    +0.000 H 
ATOM    120  H28 UNL A   1      27.139 -12.356  27.488  1.00  0.00    +0.000 H 
ATOM    121  H29 UNL A   1      29.000 -13.845  28.363  1.00  0.00    +0.000 H 
ATOM    122  H30 UNL A   1      26.617 -12.769  31.593  1.00  0.00    +0.000 H 
ATOM    123  H31 UNL A   1      22.908  -9.967  29.682  1.00  0.00    +0.000 H 
ATOM    124  H32 UNL A   1      22.095  -9.640  32.087  1.00  0.00    +0.000 H 
ATOM    125  H33 UNL A   1      29.592 -15.391  35.525  1.00  0.00    +0.000 H 
ATOM    126  H34 UNL A   1      30.601 -15.478  33.173  1.00  0.00    +0.000 H 
ENDROOT
BRANCH   34   33
ATOM     33  C24 UNL A   1      30.240 -14.738  30.580  1.00  0.00    +0.000 C 
ATOM    127  H35 UNL A   1      31.530 -13.138  31.078  1.00  0.00    +0.000 H 
ATOM    115  H23 UNL A   1      31.307 -17.592  29.163  1.00  0.00    +0.000 H 
ATOM    116  H24 UNL A   1      29.285 -16.520  29.953  1.00  0.00    +0.000 H 
ATOM     91  C63 UNL A   1      31.466 -14.058  30.616  1.00  0.00    +0.000 C 
ATOM     92  C64 UNL A   1      32.603 -14.624  30.028  1.00  0.00    +0.000 C 
ATOM     32  C23 UNL A   1      30.187 -16.019  30.002  1.00  0.00    +0.000 C 
ATOM     30  C21 UNL A   1      32.528 -15.892  29.442  1.00  0.00    +0.000 C 
ATOM     31  C22 UNL A   1      31.335 -16.616  29.497  1.00  0.00    +0.000 C 
ATOM    128  H36 UNL A   1      33.495 -14.106  30.026  1.00  0.00    +0.000 H 
BRANCH   30    2
ATOM      1  O1  UNL A   1      34.418 -17.279  29.355  1.00  0.00    +0.000 O 
ATOM      2  C1  UNL A   1      33.724 -16.450  28.772  1.00  0.00    +0.000 C 
BRANCH    2    3
ATOM      3  N1  UNL A   1      34.071 -16.017  27.515  1.00  0.00    +0.000 N 
ATOM     93  H1  UNL A   1      34.975 -15.638  27.431  1.00  0.00    +0.000 H 
BRANCH    3    4
ATOM      4  C2  UNL A   1      33.289 -16.041  26.291  1.00  0.00    +0.000 C 
ATOM     94  H2  UNL A   1      32.428 -16.658  26.448  1.00  0.00    +0.000 H 
ATOM     95  H3  UNL A   1      33.919 -16.424  25.515  1.00  0.00    +0.000 H 
BRANCH    4    5
ATOM     97  H5  UNL A   1      32.927 -14.633  24.792  1.00  0.00    +0.000 H 
ATOM      5  C3  UNL A   1      32.821 -14.660  25.856  1.00  0.00    +0.000 C 
ATOM     96  H4  UNL A   1      31.812 -14.531  26.190  1.00  0.00    +0.000 H 
BRANCH    5    6
ATOM     98  H6  UNL A   1      34.074 -12.980  25.552  1.00  0.00    +0.000 H 
ATOM     99  H7  UNL A   1      34.370 -13.924  27.051  1.00  0.00    +0.000 H 
ATOM      6  C4  UNL A   1      33.647 -13.491  26.391  1.00  0.00    +0.000 C 
BRANCH    6    7
ATOM    100  H8  UNL A   1      33.181 -11.487  26.902  1.00  0.00    +0.000 H 
ATOM    101  H9  UNL A   1      33.132 -12.677  28.247  1.00  0.00    +0.000 H 
ATOM      7  C5  UNL A   1      32.883 -12.462  27.229  1.00  0.00    +0.000 C 
BRANCH    7    8
ATOM    102  H10 UNL A   1      30.963 -12.235  28.105  1.00  0.00    +0.000 H 
ATOM    103  H11 UNL A   1      31.118 -13.542  26.890  1.00  0.00    +0.000 H 
ATOM      8  C6  UNL A   1      31.353 -12.533  27.155  1.00  0.00    +0.000 C 
BRANCH    8    9
ATOM      9  C7  UNL A   1      30.707 -11.656  26.083  1.00  0.00    +0.000 C 
ATOM    105  H13 UNL A   1      31.422 -10.917  25.787  1.00  0.00    +0.000 H 
ATOM    104  H12 UNL A   1      30.422 -12.273  25.257  1.00  0.00    +0.000 H 
BRANCH    9   10
ATOM     10  N2  UNL A   1      29.530 -10.966  26.580  1.00  0.00    +0.000 N 
ATOM    106  H14 UNL A   1      28.689 -11.480  26.566  1.00  0.00    +0.000 H 
BRANCH   10   11
ATOM     11  C8  UNL A   1      29.446  -9.687  27.068  1.00  0.00    +0.000 C 
ATOM     12  O2  UNL A   1      28.918  -8.800  26.400  1.00  0.00    +0.000 O 
BRANCH   11   13
ATOM    107  H15 UNL A   1      28.474 -10.352  29.484  1.00  0.00    +0.000 H 
ATOM    108  H16 UNL A   1      29.416  -9.796  31.666  1.00  0.00    +0.000 H 
ATOM     13  C9  UNL A   1      29.995  -9.358  28.396  1.00  0.00    +0.000 C 
ATOM     14  C10 UNL A   1      29.344  -9.802  29.554  1.00  0.00    +0.000 C 
ATOM     15  C11 UNL A   1      29.881  -9.495  30.796  1.00  0.00    +0.000 C 
ATOM     16  C12 UNL A   1      31.059  -8.774  30.828  1.00  0.00    +0.000 C 
ATOM     17  N3  UNL A   1      31.722  -8.367  29.724  1.00  0.00    +0.000 N 
ATOM     18  C13 UNL A   1      31.216  -8.680  28.503  1.00  0.00    +0.000 C 
ATOM    109  H17 UNL A   1      31.456  -8.532  31.750  1.00  0.00    +0.000 H 
BRANCH   18   19
ATOM     19  N4  UNL A   1      31.876  -8.198  27.339  1.00  0.00    +0.000 N 
ATOM    110  H18 UNL A   1      31.555  -7.356  26.943  1.00  0.00    +0.000 H 
BRANCH   19   20
ATOM    111  H19 UNL A   1      34.235  -8.640  28.381  1.00  0.00    +0.000 H 
ATOM    112  H20 UNL A   1      36.158  -9.683  27.337  1.00  0.00    +0.000 H 
ATOM    113  H21 UNL A   1      36.035 -10.428  25.034  1.00  0.00    +0.000 H 
ATOM    114  H22 UNL A   1      32.052  -9.095  24.826  1.00  0.00    +0.000 H 
ATOM     20  C14 UNL A   1      32.964  -8.852  26.711  1.00  0.00    +0.000 C 
ATOM     21  C15 UNL A   1      34.169  -8.981  27.409  1.00  0.00    +0.000 C 
ATOM     22  C16 UNL A   1      35.283  -9.565  26.803  1.00  0.00    +0.000 C 
ATOM     23  C17 UNL A   1      35.214  -9.988  25.476  1.00  0.00    +0.000 C 
ATOM     24  C18 UNL A   1      34.034  -9.817  24.738  1.00  0.00    +0.000 C 
ATOM     25  C19 UNL A   1      33.965 -10.258  23.299  1.00  0.00    +0.000 C 
ATOM     26  F1  UNL A   1      34.979  -9.743  22.548  1.00  0.00    +0.000 F 
ATOM     27  F2  UNL A   1      34.054 -11.611  23.163  1.00  0.00    +0.000 F 
ATOM     28  F3  UNL A   1      32.815  -9.895  22.664  1.00  0.00    +0.000 F 
ATOM     29  C20 UNL A   1      32.920  -9.239  25.366  1.00  0.00    +0.000 C 
ENDBRANCH   19   20
ENDBRANCH   18   19
ENDBRANCH   11   13
ENDBRANCH   10   11
ENDBRANCH    9   10
ENDBRANCH    8    9
ENDBRANCH    7    8
ENDBRANCH    6    7
ENDBRANCH    5    6
ENDBRANCH    4    5
ENDBRANCH    3    4
ENDBRANCH    2    3
ENDBRANCH   30    2
ENDBRANCH   34   33
BRANCH   38   39
ATOM     39  C29 UNL A   1      27.745 -14.365  37.104  1.00  0.00    +0.000 C 
ATOM     40  C30 UNL A   1      28.731 -13.701  37.849  1.00  0.00    +0.000 C 
ATOM     41  F4  UNL A   1      29.322 -12.602  37.357  1.00  0.00    +0.000 F 
ATOM     42  C31 UNL A   1      29.133 -14.180  39.094  1.00  0.00    +0.000 C 
ATOM     43  F5  UNL A   1      30.100 -13.548  39.772  1.00  0.00    +0.000 F 
ATOM     44  C32 UNL A   1      28.539 -15.313  39.629  1.00  0.00    +0.000 C 
ATOM     45  F6  UNL A   1      28.919 -15.766  40.832  1.00  0.00    +0.000 F 
ATOM     46  C33 UNL A   1      27.554 -15.979  38.915  1.00  0.00    +0.000 C 
ATOM     47  F7  UNL A   1      26.972 -17.068  39.436  1.00  0.00    +0.000 F 
ATOM     48  C34 UNL A   1      27.167 -15.517  37.659  1.00  0.00    +0.000 C 
ATOM     49  F8  UNL A   1      26.215 -16.184  36.992  1.00  0.00    +0.000 F 
ENDBRANCH   38   39
BRANCH   55   56
ATOM     65  C45 UNL A   1      22.469  -9.052  35.189  1.00  0.00    +0.000 C 
ATOM     66  F13 UNL A   1      23.677  -8.478  35.287  1.00  0.00    +0.000 F 
ATOM     56  C40 UNL A   1      22.332 -10.313  34.590  1.00  0.00    +0.000 C 
ATOM     57  C41 UNL A   1      21.047 -10.872  34.517  1.00  0.00    +0.000 C 
ATOM     58  F9  UNL A   1      20.865 -12.068  33.936  1.00  0.00    +0.000 F 
ATOM     59  C42 UNL A   1      19.938 -10.181  34.997  1.00  0.00    +0.000 C 
ATOM     60  F10 UNL A   1      18.715 -10.711  34.868  1.00  0.00    +0.000 F 
ATOM     61  C43 UNL A   1      20.097  -8.936  35.587  1.00  0.00    +0.000 C 
ATOM     62  F11 UNL A   1      19.027  -8.270  36.045  1.00  0.00    +0.000 F 
ATOM     63  C44 UNL A   1      21.361  -8.376  35.692  1.00  0.00    +0.000 C 
ATOM     64  F12 UNL A   1      21.516  -7.176  36.268  1.00  0.00    +0.000 F 
ENDBRANCH   55   56
BRANCH   70   71
ATOM     71  C49 UNL A   1      24.872 -11.002  28.150  1.00  0.00    +0.000 C 
ATOM     72  C50 UNL A   1      23.876 -11.662  27.419  1.00  0.00    +0.000 C 
ATOM     73  F14 UNL A   1      23.317 -12.779  27.908  1.00  0.00    +0.000 F 
ATOM     74  C51 UNL A   1      23.475 -11.198  26.168  1.00  0.00    +0.000 C 
ATOM     75  F15 UNL A   1      22.550 -11.871  25.471  1.00  0.00    +0.000 F 
ATOM     76  C52 UNL A   1      24.041 -10.047  25.639  1.00  0.00    +0.000 C 
ATOM     77  F16 UNL A   1      23.648  -9.596  24.440  1.00  0.00    +0.000 F 
ATOM     78  C53 UNL A   1      25.016  -9.367  26.351  1.00  0.00    +0.000 C 
ATOM     79  F17 UNL A   1      25.553  -8.246  25.851  1.00  0.00    +0.000 F 
ATOM     80  C54 UNL A   1      25.440  -9.849  27.586  1.00  0.00    +0.000 C 
ATOM     81  F18 UNL A   1      26.392  -9.176  28.251  1.00  0.00    +0.000 F 
ENDBRANCH   70   71
TORSDOF 17
ENDMDL
MODEL 8
REMARK VINA RESULT:     -11.8     45.003     50.433
ROOT
ATOM     34  C25 UNL A   1      14.381  50.079   4.281  1.00  0.00    +0.000 C 
ATOM     35  C26 UNL A   1      14.423  51.548   4.593  1.00  0.00    +0.000 C 
ATOM     36  N5  UNL A   1      14.903  52.530   3.869  1.00  0.00    +0.000 N 
ATOM     37  C27 UNL A   1      14.684  53.689   4.602  1.00  0.00    +0.000 C 
ATOM     38  C28 UNL A   1      15.034  54.962   4.295  1.00  0.00    +0.000 C 
ATOM     50  C35 UNL A   1      15.719  55.349   3.087  1.00  0.00    +0.000 C 
ATOM     51  C36 UNL A   1      16.120  56.614   2.688  1.00  0.00    +0.000 C 
ATOM     52  C37 UNL A   1      16.724  56.507   1.431  1.00  0.00    +0.000 C 
ATOM     53  C38 UNL A   1      16.737  55.171   1.064  1.00  0.00    +0.000 C 
ATOM     54  N6  UNL A   1      16.109  54.474   2.084  1.00  0.00    +0.000 N 
ATOM     55  C39 UNL A   1      17.285  54.573  -0.126  1.00  0.00    +0.000 C 
ATOM     67  C46 UNL A   1      17.263  53.249  -0.414  1.00  0.00    +0.000 C 
ATOM     68  N7  UNL A   1      16.718  52.207   0.319  1.00  0.00    +0.000 N 
ATOM     69  C47 UNL A   1      16.910  51.126  -0.396  1.00  0.00    +0.000 C 
ATOM     70  C48 UNL A   1      16.527  49.708  -0.088  1.00  0.00    +0.000 C 
ATOM     82  C55 UNL A   1      15.887  49.439   1.064  1.00  0.00    +0.000 C 
ATOM     83  C56 UNL A   1      15.473  48.112   1.504  1.00  0.00    +0.000 C 
ATOM     84  C57 UNL A   1      14.845  48.222   2.683  1.00  0.00    +0.000 C 
ATOM     85  C58 UNL A   1      14.859  49.624   3.107  1.00  0.00    +0.000 C 
ATOM     86  N8  UNL A   1      15.471  50.278   2.069  1.00  0.00    +0.000 N 
ATOM     87  C59 UNL A   1      17.600  51.362  -1.671  1.00  0.00    +0.000 C 
ATOM     88  C60 UNL A   1      17.826  52.666  -1.615  1.00  0.00    +0.000 C 
ATOM     89  C61 UNL A   1      13.999  53.295   5.816  1.00  0.00    +0.000 C 
ATOM     90  C62 UNL A   1      13.848  51.978   5.877  1.00  0.00    +0.000 C 
ATOM    117  H25 UNL A   1      15.994  57.485   3.226  1.00  0.00    +0.000 H 
ATOM    118  H26 UNL A   1      17.096  57.290   0.871  1.00  0.00    +0.000 H 
ATOM    119  H27 UNL A   1      15.961  53.500   2.096  1.00  0.00    +0.000 H 
ATOM    120  H28 UNL A   1      15.637  47.232   0.991  1.00  0.00    +0.000 H 
ATOM    121  H29 UNL A   1      14.420  47.442   3.209  1.00  0.00    +0.000 H 
ATOM    122  H30 UNL A   1      15.598  51.254   2.046  1.00  0.00    +0.000 H 
ATOM    123  H31 UNL A   1      17.843  50.689  -2.415  1.00  0.00    +0.000 H 
ATOM    124  H32 UNL A   1      18.338  53.199  -2.335  1.00  0.00    +0.000 H 
ATOM    125  H33 UNL A   1      13.670  53.953   6.539  1.00  0.00    +0.000 H 
ATOM    126  H34 UNL A   1      13.436  51.405   6.629  1.00  0.00    +0.000 H 
ENDROOT
BRANCH   34   33
ATOM     33  C24 UNL A   1      13.873  49.091   5.266  1.00  0.00    +0.000 C 
ATOM    127  H35 UNL A   1      15.719  48.709   6.225  1.00  0.00    +0.000 H 
ATOM    115  H23 UNL A   1      10.947  47.829   6.335  1.00  0.00    +0.000 H 
ATOM    116  H24 UNL A   1      11.870  49.241   4.598  1.00  0.00    +0.000 H 
ATOM     91  C63 UNL A   1      14.714  48.477   6.206  1.00  0.00    +0.000 C 
ATOM     92  C64 UNL A   1      14.194  47.550   7.117  1.00  0.00    +0.000 C 
ATOM     32  C23 UNL A   1      12.496  48.809   5.297  1.00  0.00    +0.000 C 
ATOM     30  C21 UNL A   1      12.824  47.269   7.122  1.00  0.00    +0.000 C 
ATOM     31  C22 UNL A   1      11.968  47.956   6.258  1.00  0.00    +0.000 C 
ATOM    128  H36 UNL A   1      14.822  47.075   7.784  1.00  0.00    +0.000 H 
BRANCH   30    2
ATOM      1  O1  UNL A   1      11.380  45.511   7.696  1.00  0.00    +0.000 O 
ATOM      2  C1  UNL A   1      12.301  46.242   8.051  1.00  0.00    +0.000 C 
BRANCH    2    3
ATOM      3  N1  UNL A   1      12.824  46.133   9.317  1.00  0.00    +0.000 N 
ATOM     93  H1  UNL A   1      13.735  45.764   9.369  1.00  0.00    +0.000 H 
BRANCH    3    4
ATOM      4  C2  UNL A   1      12.220  46.486  10.590  1.00  0.00    +0.000 C 
ATOM     94  H2  UNL A   1      12.035  45.587  11.142  1.00  0.00    +0.000 H 
ATOM     95  H3  UNL A   1      11.315  47.018  10.379  1.00  0.00    +0.000 H 
BRANCH    4    5
ATOM     97  H5  UNL A   1      12.472  47.772  12.217  1.00  0.00    +0.000 H 
ATOM      5  C3  UNL A   1      13.098  47.400  11.434  1.00  0.00    +0.000 C 
ATOM     96  H4  UNL A   1      13.930  46.826  11.785  1.00  0.00    +0.000 H 
BRANCH    5    6
ATOM     98  H6  UNL A   1      14.052  48.307   9.776  1.00  0.00    +0.000 H 
ATOM     99  H7  UNL A   1      14.365  49.061  11.375  1.00  0.00    +0.000 H 
ATOM      6  C4  UNL A   1      13.644  48.630  10.711  1.00  0.00    +0.000 C 
BRANCH    6    7
ATOM    100  H8  UNL A   1      12.765  50.507  11.157  1.00  0.00    +0.000 H 
ATOM    101  H9  UNL A   1      11.670  49.269  10.453  1.00  0.00    +0.000 H 
ATOM      7  C5  UNL A   1      12.629  49.741  10.422  1.00  0.00    +0.000 C 
BRANCH    7    8
ATOM    102  H10 UNL A   1      12.500  49.650   8.305  1.00  0.00    +0.000 H 
ATOM    103  H11 UNL A   1      13.713  50.791   8.966  1.00  0.00    +0.000 H 
ATOM      8  C6  UNL A   1      12.722  50.396   9.039  1.00  0.00    +0.000 C 
BRANCH    8    9
ATOM      9  C7  UNL A   1      11.780  51.577   8.809  1.00  0.00    +0.000 C 
ATOM    105  H13 UNL A   1      12.297  52.300   8.212  1.00  0.00    +0.000 H 
ATOM    104  H12 UNL A   1      10.899  51.225   8.315  1.00  0.00    +0.000 H 
BRANCH    9   10
ATOM     10  N2  UNL A   1      11.395  52.218  10.053  1.00  0.00    +0.000 N 
ATOM    106  H14 UNL A   1      11.123  51.616  10.784  1.00  0.00    +0.000 H 
BRANCH   10   11
ATOM     11  C8  UNL A   1      11.366  53.560  10.337  1.00  0.00    +0.000 C 
ATOM     12  O2  UNL A   1      11.199  54.382   9.439  1.00  0.00    +0.000 O 
BRANCH   11   13
ATOM    107  H15 UNL A   1       9.477  54.102  12.169  1.00  0.00    +0.000 H 
ATOM    108  H16 UNL A   1       9.810  54.878  14.460  1.00  0.00    +0.000 H 
ATOM     13  C9  UNL A   1      11.546  54.033  11.722  1.00  0.00    +0.000 C 
ATOM     14  C10 UNL A   1      10.429  54.257  12.536  1.00  0.00    +0.000 C 
ATOM     15  C11 UNL A   1      10.614  54.691  13.842  1.00  0.00    +0.000 C 
ATOM     16  C12 UNL A   1      11.911  54.861  14.285  1.00  0.00    +0.000 C 
ATOM     17  N3  UNL A   1      13.003  54.615  13.529  1.00  0.00    +0.000 N 
ATOM     18  C13 UNL A   1      12.833  54.172  12.256  1.00  0.00    +0.000 C 
ATOM    109  H17 UNL A   1      12.054  55.195  15.251  1.00  0.00    +0.000 H 
BRANCH   18   19
ATOM     19  N4  UNL A   1      13.978  53.975  11.435  1.00  0.00    +0.000 N 
ATOM    110  H18 UNL A   1      14.223  54.692  10.806  1.00  0.00    +0.000 H 
BRANCH   19   20
ATOM    111  H19 UNL A   1      14.777  52.687  13.568  1.00  0.00    +0.000 H 
ATOM    112  H20 UNL A   1      16.221  50.745  13.688  1.00  0.00    +0.000 H 
ATOM    113  H21 UNL A   1      17.142  49.789  11.659  1.00  0.00    +0.000 H 
ATOM    114  H22 UNL A   1      15.155  52.718   9.389  1.00  0.00    +0.000 H 
ATOM     20  C14 UNL A   1      14.788  52.814  11.463  1.00  0.00    +0.000 C 
ATOM     21  C15 UNL A   1      15.144  52.267  12.700  1.00  0.00    +0.000 C 
ATOM     22  C16 UNL A   1      15.991  51.159  12.771  1.00  0.00    +0.000 C 
ATOM     23  C17 UNL A   1      16.525  50.613  11.604  1.00  0.00    +0.000 C 
ATOM     24  C18 UNL A   1      16.228  51.180  10.357  1.00  0.00    +0.000 C 
ATOM     25  C19 UNL A   1      16.819  50.601   9.098  1.00  0.00    +0.000 C 
ATOM     26  F1  UNL A   1      18.175  50.482   9.166  1.00  0.00    +0.000 F 
ATOM     27  F2  UNL A   1      16.352  49.349   8.829  1.00  0.00    +0.000 F 
ATOM     28  F3  UNL A   1      16.570  51.338   7.980  1.00  0.00    +0.000 F 
ATOM     29  C20 UNL A   1      15.366  52.286  10.303  1.00  0.00    +0.000 C 
ENDBRANCH   19   20
ENDBRANCH   18   19
ENDBRANCH   11   13
ENDBRANCH   10   11
ENDBRANCH    9   10
ENDBRANCH    8    9
ENDBRANCH    7    8
ENDBRANCH    6    7
ENDBRANCH    5    6
ENDBRANCH    4    5
ENDBRANCH    3    4
ENDBRANCH    2    3
ENDBRANCH   30    2
ENDBRANCH   34   33
BRANCH   38   39
ATOM     39  C29 UNL A   1      14.680  56.039   5.279  1.00  0.00    +0.000 C 
ATOM     40  C30 UNL A   1      13.361  56.497   5.419  1.00  0.00    +0.000 C 
ATOM     41  F4  UNL A   1      12.395  56.025   4.618  1.00  0.00    +0.000 F 
ATOM     42  C31 UNL A   1      13.035  57.463   6.368  1.00  0.00    +0.000 C 
ATOM     43  F5  UNL A   1      11.775  57.908   6.461  1.00  0.00    +0.000 F 
ATOM     44  C32 UNL A   1      14.012  57.970   7.211  1.00  0.00    +0.000 C 
ATOM     45  F6  UNL A   1      13.694  58.890   8.131  1.00  0.00    +0.000 F 
ATOM     46  C33 UNL A   1      15.321  57.524   7.097  1.00  0.00    +0.000 C 
ATOM     47  F7  UNL A   1      16.264  58.005   7.919  1.00  0.00    +0.000 F 
ATOM     48  C34 UNL A   1      15.655  56.576   6.133  1.00  0.00    +0.000 C 
ATOM     49  F8  UNL A   1      16.930  56.167   6.045  1.00  0.00    +0.000 F 
ENDBRANCH   38   39
BRANCH   55   56
ATOM     65  C45 UNL A   1      19.293  55.838  -0.976  1.00  0.00    +0.000 C 
ATOM     66  F13 UNL A   1      20.004  55.386   0.068  1.00  0.00    +0.000 F 
ATOM     56  C40 UNL A   1      17.948  55.472  -1.127  1.00  0.00    +0.000 C 
ATOM     57  C41 UNL A   1      17.247  55.976  -2.233  1.00  0.00    +0.000 C 
ATOM     58  F9  UNL A   1      15.963  55.637  -2.429  1.00  0.00    +0.000 F 
ATOM     59  C42 UNL A   1      17.880  56.789  -3.170  1.00  0.00    +0.000 C 
ATOM     60  F10 UNL A   1      17.206  57.215  -4.247  1.00  0.00    +0.000 F 
ATOM     61  C43 UNL A   1      19.211  57.140  -3.001  1.00  0.00    +0.000 C 
ATOM     62  F11 UNL A   1      19.818  57.920  -3.905  1.00  0.00    +0.000 F 
ATOM     63  C44 UNL A   1      19.914  56.673  -1.900  1.00  0.00    +0.000 C 
ATOM     64  F12 UNL A   1      21.198  57.018  -1.732  1.00  0.00    +0.000 F 
ENDBRANCH   55   56
BRANCH   70   71
ATOM     71  C49 UNL A   1      16.841  48.604  -1.029  1.00  0.00    +0.000 C 
ATOM     72  C50 UNL A   1      16.017  48.331  -2.128  1.00  0.00    +0.000 C 
ATOM     73  F14 UNL A   1      14.905  49.055  -2.328  1.00  0.00    +0.000 F 
ATOM     74  C51 UNL A   1      16.313  47.293  -3.009  1.00  0.00    +0.000 C 
ATOM     75  F15 UNL A   1      15.487  47.026  -4.030  1.00  0.00    +0.000 F 
ATOM     76  C52 UNL A   1      17.455  46.527  -2.823  1.00  0.00    +0.000 C 
ATOM     77  F16 UNL A   1      17.744  45.535  -3.676  1.00  0.00    +0.000 F 
ATOM     78  C53 UNL A   1      18.294  46.789  -1.752  1.00  0.00    +0.000 C 
ATOM     79  F17 UNL A   1      19.408  46.064  -1.578  1.00  0.00    +0.000 F 
ATOM     80  C54 UNL A   1      17.982  47.806  -0.854  1.00  0.00    +0.000 C 
ATOM     81  F18 UNL A   1      18.806  48.033   0.180  1.00  0.00    +0.000 F 
ENDBRANCH   70   71
TORSDOF 17
ENDMDL
MODEL 9
REMARK VINA RESULT:     -11.8     44.632     49.659
ROOT
ATOM     34  C25 UNL A   1      13.232  49.696   3.523  1.00  0.00    +0.000 C 
ATOM     35  C26 UNL A   1      14.145  49.334   2.387  1.00  0.00    +0.000 C 
ATOM     36  N5  UNL A   1      14.990  50.095   1.735  1.00  0.00    +0.000 N 
ATOM     37  C27 UNL A   1      15.595  49.275   0.792  1.00  0.00    +0.000 C 
ATOM     38  C28 UNL A   1      16.516  49.604  -0.146  1.00  0.00    +0.000 C 
ATOM     50  C35 UNL A   1      17.058  50.927  -0.328  1.00  0.00    +0.000 C 
ATOM     51  C36 UNL A   1      17.992  51.359  -1.255  1.00  0.00    +0.000 C 
ATOM     52  C37 UNL A   1      18.232  52.720  -1.036  1.00  0.00    +0.000 C 
ATOM     53  C38 UNL A   1      17.417  53.146   0.001  1.00  0.00    +0.000 C 
ATOM     54  N6  UNL A   1      16.710  52.034   0.432  1.00  0.00    +0.000 N 
ATOM     55  C39 UNL A   1      17.289  54.469   0.555  1.00  0.00    +0.000 C 
ATOM     67  C46 UNL A   1      16.461  54.811   1.572  1.00  0.00    +0.000 C 
ATOM     68  N7  UNL A   1      15.599  54.008   2.301  1.00  0.00    +0.000 N 
ATOM     69  C47 UNL A   1      15.054  54.790   3.201  1.00  0.00    +0.000 C 
ATOM     70  C48 UNL A   1      14.042  54.454   4.256  1.00  0.00    +0.000 C 
ATOM     82  C55 UNL A   1      13.593  53.190   4.354  1.00  0.00    +0.000 C 
ATOM     83  C56 UNL A   1      12.599  52.725   5.313  1.00  0.00    +0.000 C 
ATOM     84  C57 UNL A   1      12.410  51.409   5.139  1.00  0.00    +0.000 C 
ATOM     85  C58 UNL A   1      13.234  50.949   4.019  1.00  0.00    +0.000 C 
ATOM     86  N8  UNL A   1      13.926  52.068   3.634  1.00  0.00    +0.000 N 
ATOM     87  C59 UNL A   1      15.514  56.183   3.145  1.00  0.00    +0.000 C 
ATOM     88  C60 UNL A   1      16.342  56.150   2.111  1.00  0.00    +0.000 C 
ATOM     89  C61 UNL A   1      15.046  47.947   0.976  1.00  0.00    +0.000 C 
ATOM     90  C62 UNL A   1      14.117  47.939   1.923  1.00  0.00    +0.000 C 
ATOM    117  H25 UNL A   1      18.436  50.777  -1.982  1.00  0.00    +0.000 H 
ATOM    118  H26 UNL A   1      18.903  53.307  -1.556  1.00  0.00    +0.000 H 
ATOM    119  H27 UNL A   1      16.057  52.030   1.168  1.00  0.00    +0.000 H 
ATOM    120  H28 UNL A   1      12.118  53.312   6.013  1.00  0.00    +0.000 H 
ATOM    121  H29 UNL A   1      11.784  50.815   5.705  1.00  0.00    +0.000 H 
ATOM    122  H30 UNL A   1      14.596  52.068   2.913  1.00  0.00    +0.000 H 
ATOM    123  H31 UNL A   1      15.261  56.978   3.753  1.00  0.00    +0.000 H 
ATOM    124  H32 UNL A   1      16.839  56.974   1.737  1.00  0.00    +0.000 H 
ATOM    125  H33 UNL A   1      15.340  47.116   0.439  1.00  0.00    +0.000 H 
ATOM    126  H34 UNL A   1      13.528  47.157   2.248  1.00  0.00    +0.000 H 
ENDROOT
BRANCH   34   33
ATOM     33  C24 UNL A   1      12.270  48.716   4.089  1.00  0.00    +0.000 C 
ATOM    127  H35 UNL A   1      13.590  47.835   5.487  1.00  0.00    +0.000 H 
ATOM    115  H23 UNL A   1       8.998  47.967   3.920  1.00  0.00    +0.000 H 
ATOM    116  H24 UNL A   1      10.669  49.368   2.867  1.00  0.00    +0.000 H 
ATOM     91  C63 UNL A   1      12.631  47.823   5.109  1.00  0.00    +0.000 C 
ATOM     92  C64 UNL A   1      11.693  46.916   5.614  1.00  0.00    +0.000 C 
ATOM     32  C23 UNL A   1      10.941  48.728   3.631  1.00  0.00    +0.000 C 
ATOM     30  C21 UNL A   1      10.379  46.929   5.134  1.00  0.00    +0.000 C 
ATOM     31  C22 UNL A   1       9.990  47.886   4.195  1.00  0.00    +0.000 C 
ATOM    128  H36 UNL A   1      11.971  46.237   6.340  1.00  0.00    +0.000 H 
BRANCH   30    2
ATOM      1  O1  UNL A   1       8.481  45.566   4.924  1.00  0.00    +0.000 O 
ATOM      2  C1  UNL A   1       9.416  45.923   5.636  1.00  0.00    +0.000 C 
BRANCH    2    3
ATOM      3  N1  UNL A   1       9.554  45.415   6.906  1.00  0.00    +0.000 N 
ATOM     93  H1  UNL A   1      10.094  44.596   6.978  1.00  0.00    +0.000 H 
BRANCH    3    4
ATOM      4  C2  UNL A   1       9.013  45.920   8.156  1.00  0.00    +0.000 C 
ATOM     94  H2  UNL A   1       8.732  45.087   8.767  1.00  0.00    +0.000 H 
ATOM     95  H3  UNL A   1       8.174  46.540   7.915  1.00  0.00    +0.000 H 
BRANCH    4    5
ATOM     97  H5  UNL A   1       9.932  46.465   9.951  1.00  0.00    +0.000 H 
ATOM      5  C3  UNL A   1      10.004  46.777   8.931  1.00  0.00    +0.000 C 
ATOM     96  H4  UNL A   1      10.974  46.629   8.504  1.00  0.00    +0.000 H 
BRANCH    5    6
ATOM     98  H6  UNL A   1       8.920  48.458   9.626  1.00  0.00    +0.000 H 
ATOM     99  H7  UNL A   1       9.466  48.524   7.917  1.00  0.00    +0.000 H 
ATOM      6  C4  UNL A   1       9.712  48.277   8.929  1.00  0.00    +0.000 C 
BRANCH    6    7
ATOM    100  H8  UNL A   1      11.065  49.072  10.354  1.00  0.00    +0.000 H 
ATOM    101  H9  UNL A   1      10.591  50.173   9.015  1.00  0.00    +0.000 H 
ATOM      7  C5  UNL A   1      10.886  49.186   9.305  1.00  0.00    +0.000 C 
BRANCH    7    8
ATOM    102  H10 UNL A   1      12.369  49.723   7.884  1.00  0.00    +0.000 H 
ATOM    103  H11 UNL A   1      12.096  47.966   8.102  1.00  0.00    +0.000 H 
ATOM      8  C6  UNL A   1      12.207  48.921   8.572  1.00  0.00    +0.000 C 
BRANCH    8    9
ATOM      9  C7  UNL A   1      13.441  48.809   9.466  1.00  0.00    +0.000 C 
ATOM    105  H13 UNL A   1      13.941  49.756   9.456  1.00  0.00    +0.000 H 
ATOM    104  H12 UNL A   1      13.129  48.546  10.455  1.00  0.00    +0.000 H 
BRANCH    9   10
ATOM     10  N2  UNL A   1      14.373  47.806   8.985  1.00  0.00    +0.000 N 
ATOM    106  H14 UNL A   1      14.000  46.907   8.832  1.00  0.00    +0.000 H 
BRANCH   10   11
ATOM     11  C8  UNL A   1      15.711  47.956   8.717  1.00  0.00    +0.000 C 
ATOM     12  O2  UNL A   1      16.551  47.390   9.413  1.00  0.00    +0.000 O 
BRANCH   11   13
ATOM    107  H15 UNL A   1      15.249  47.628   6.090  1.00  0.00    +0.000 H 
ATOM    108  H16 UNL A   1      15.996  49.064   4.262  1.00  0.00    +0.000 H 
ATOM     13  C9  UNL A   1      16.155  48.807   7.599  1.00  0.00    +0.000 C 
ATOM     14  C10 UNL A   1      15.808  48.473   6.284  1.00  0.00    +0.000 C 
ATOM     15  C11 UNL A   1      16.224  49.292   5.242  1.00  0.00    +0.000 C 
ATOM     16  C12 UNL A   1      16.952  50.421   5.562  1.00  0.00    +0.000 C 
ATOM     17  N3  UNL A   1      17.267  50.780   6.825  1.00  0.00    +0.000 N 
ATOM     18  C13 UNL A   1      16.847  49.998   7.853  1.00  0.00    +0.000 C 
ATOM    109  H17 UNL A   1      17.274  51.026   4.790  1.00  0.00    +0.000 H 
BRANCH   18   19
ATOM     19  N4  UNL A   1      17.232  50.337   9.180  1.00  0.00    +0.000 N 
ATOM    110  H18 UNL A   1      18.134  50.081   9.478  1.00  0.00    +0.000 H 
BRANCH   19   20
ATOM    111  H19 UNL A   1      17.256  50.081  11.784  1.00  0.00    +0.000 H 
ATOM    112  H20 UNL A   1      15.813  51.159  13.405  1.00  0.00    +0.000 H 
ATOM    113  H21 UNL A   1      14.060  52.661  12.663  1.00  0.00    +0.000 H 
ATOM    114  H22 UNL A   1      15.212  52.013   8.670  1.00  0.00    +0.000 H 
ATOM     20  C14 UNL A   1      16.399  51.019  10.101  1.00  0.00    +0.000 C 
ATOM     21  C15 UNL A   1      16.530  50.741  11.465  1.00  0.00    +0.000 C 
ATOM     22  C16 UNL A   1      15.687  51.347  12.399  1.00  0.00    +0.000 C 
ATOM     23  C17 UNL A   1      14.675  52.206  11.970  1.00  0.00    +0.000 C 
ATOM     24  C18 UNL A   1      14.488  52.455  10.604  1.00  0.00    +0.000 C 
ATOM     25  C19 UNL A   1      13.384  53.370  10.140  1.00  0.00    +0.000 C 
ATOM     26  F1  UNL A   1      12.169  53.018  10.648  1.00  0.00    +0.000 F 
ATOM     27  F2  UNL A   1      13.582  54.663  10.521  1.00  0.00    +0.000 F 
ATOM     28  F3  UNL A   1      13.223  53.401   8.788  1.00  0.00    +0.000 F 
ATOM     29  C20 UNL A   1      15.352  51.847   9.680  1.00  0.00    +0.000 C 
ENDBRANCH   19   20
ENDBRANCH   18   19
ENDBRANCH   11   13
ENDBRANCH   10   11
ENDBRANCH    9   10
ENDBRANCH    8    9
ENDBRANCH    7    8
ENDBRANCH    6    7
ENDBRANCH    5    6
ENDBRANCH    4    5
ENDBRANCH    3    4
ENDBRANCH    2    3
ENDBRANCH   30    2
ENDBRANCH   34   33
BRANCH   38   39
ATOM     39  C29 UNL A   1      17.005  48.513  -1.056  1.00  0.00    +0.000 C 
ATOM     40  C30 UNL A   1      18.114  47.722  -0.718  1.00  0.00    +0.000 C 
ATOM     41  F4  UNL A   1      18.807  47.975   0.403  1.00  0.00    +0.000 F 
ATOM     42  C31 UNL A   1      18.531  46.682  -1.545  1.00  0.00    +0.000 C 
ATOM     43  F5  UNL A   1      19.612  45.961  -1.218  1.00  0.00    +0.000 F 
ATOM     44  C32 UNL A   1      17.834  46.396  -2.709  1.00  0.00    +0.000 C 
ATOM     45  F6  UNL A   1      18.230  45.387  -3.498  1.00  0.00    +0.000 F 
ATOM     46  C33 UNL A   1      16.729  47.158  -3.057  1.00  0.00    +0.000 C 
ATOM     47  F7  UNL A   1      16.048  46.875  -4.177  1.00  0.00    +0.000 F 
ATOM     48  C34 UNL A   1      16.324  48.214  -2.245  1.00  0.00    +0.000 C 
ATOM     49  F8  UNL A   1      15.254  48.935  -2.611  1.00  0.00    +0.000 F 
ENDBRANCH   38   39
BRANCH   55   56
ATOM     65  C45 UNL A   1      19.346  55.926   0.536  1.00  0.00    +0.000 C 
ATOM     66  F13 UNL A   1      19.792  55.288   1.628  1.00  0.00    +0.000 F 
ATOM     56  C40 UNL A   1      18.119  55.567  -0.040  1.00  0.00    +0.000 C 
ATOM     57  C41 UNL A   1      17.695  56.268  -1.180  1.00  0.00    +0.000 C 
ATOM     58  F9  UNL A   1      16.537  55.947  -1.777  1.00  0.00    +0.000 F 
ATOM     59  C42 UNL A   1      18.486  57.269  -1.738  1.00  0.00    +0.000 C 
ATOM     60  F10 UNL A   1      18.086  57.889  -2.857  1.00  0.00    +0.000 F 
ATOM     61  C43 UNL A   1      19.695  57.609  -1.151  1.00  0.00    +0.000 C 
ATOM     62  F11 UNL A   1      20.456  58.570  -1.692  1.00  0.00    +0.000 F 
ATOM     63  C44 UNL A   1      20.121  56.946  -0.010  1.00  0.00    +0.000 C 
ATOM     64  F12 UNL A   1      21.286  57.279   0.562  1.00  0.00    +0.000 F 
ENDBRANCH   55   56
BRANCH   70   71
ATOM     71  C49 UNL A   1      13.531  55.489   5.190  1.00  0.00    +0.000 C 
ATOM     72  C50 UNL A   1      12.495  56.355   4.818  1.00  0.00    +0.000 C 
ATOM     73  F14 UNL A   1      11.967  56.278   3.588  1.00  0.00    +0.000 F 
ATOM     74  C51 UNL A   1      12.020  57.326   5.697  1.00  0.00    +0.000 C 
ATOM     75  F15 UNL A   1      11.056  58.170   5.304  1.00  0.00    +0.000 F 
ATOM     76  C52 UNL A   1      12.552  57.429   6.975  1.00  0.00    +0.000 C 
ATOM     77  F16 UNL A   1      12.087  58.357   7.823  1.00  0.00    +0.000 F 
ATOM     78  C53 UNL A   1      13.567  56.572   7.371  1.00  0.00    +0.000 C 
ATOM     79  F17 UNL A   1      14.071  56.656   8.609  1.00  0.00    +0.000 F 
ATOM     80  C54 UNL A   1      14.063  55.623   6.482  1.00  0.00    +0.000 C 
ATOM     81  F18 UNL A   1      15.052  54.812   6.887  1.00  0.00    +0.000 F 
ENDBRANCH   70   71
TORSDOF 17
ENDMDL
MODEL 10
REMARK VINA RESULT:     -11.8      5.910     10.207
ROOT
ATOM     34  C25 UNL A   1      57.320  18.176  11.939  1.00  0.00    +0.000 C 
ATOM     35  C26 UNL A   1      55.939  18.568  11.494  1.00  0.00    +0.000 C 
ATOM     36  N5  UNL A   1      55.036  19.269  12.135  1.00  0.00    +0.000 N 
ATOM     37  C27 UNL A   1      53.944  19.357  11.282  1.00  0.00    +0.000 C 
ATOM     38  C28 UNL A   1      52.746  19.952  11.502  1.00  0.00    +0.000 C 
ATOM     50  C35 UNL A   1      52.387  20.636  12.719  1.00  0.00    +0.000 C 
ATOM     51  C36 UNL A   1      51.195  21.266  13.038  1.00  0.00    +0.000 C 
ATOM     52  C37 UNL A   1      51.317  21.814  14.319  1.00  0.00    +0.000 C 
ATOM     53  C38 UNL A   1      52.569  21.491  14.816  1.00  0.00    +0.000 C 
ATOM     54  N6  UNL A   1      53.219  20.777  13.821  1.00  0.00    +0.000 N 
ATOM     55  C39 UNL A   1      53.132  21.805  16.104  1.00  0.00    +0.000 C 
ATOM     67  C46 UNL A   1      54.370  21.449  16.522  1.00  0.00    +0.000 C 
ATOM     68  N7  UNL A   1      55.352  20.749  15.838  1.00  0.00    +0.000 N 
ATOM     69  C47 UNL A   1      56.384  20.696  16.645  1.00  0.00    +0.000 C 
ATOM     70  C48 UNL A   1      57.723  20.055  16.427  1.00  0.00    +0.000 C 
ATOM     82  C55 UNL A   1      57.971  19.439  15.257  1.00  0.00    +0.000 C 
ATOM     83  C56 UNL A   1      59.214  18.759  14.914  1.00  0.00    +0.000 C 
ATOM     84  C57 UNL A   1      59.117  18.282  13.665  1.00  0.00    +0.000 C 
ATOM     85  C58 UNL A   1      57.782  18.579  13.139  1.00  0.00    +0.000 C 
ATOM     86  N8  UNL A   1      57.182  19.295  14.142  1.00  0.00    +0.000 N 
ATOM     87  C59 UNL A   1      56.171  21.361  17.937  1.00  0.00    +0.000 C 
ATOM     88  C60 UNL A   1      54.916  21.770  17.824  1.00  0.00    +0.000 C 
ATOM     89  C61 UNL A   1      54.307  18.666  10.062  1.00  0.00    +0.000 C 
ATOM     90  C62 UNL A   1      55.515  18.126  10.157  1.00  0.00    +0.000 C 
ATOM    117  H25 UNL A   1      50.361  21.322  12.433  1.00  0.00    +0.000 H 
ATOM    118  H26 UNL A   1      50.597  22.366  14.811  1.00  0.00    +0.000 H 
ATOM    119  H27 UNL A   1      54.135  20.422  13.885  1.00  0.00    +0.000 H 
ATOM    120  H28 UNL A   1      60.034  18.661  15.532  1.00  0.00    +0.000 H 
ATOM    121  H29 UNL A   1      59.864  17.785  13.156  1.00  0.00    +0.000 H 
ATOM    122  H30 UNL A   1      56.275  19.670  14.069  1.00  0.00    +0.000 H 
ATOM    123  H31 UNL A   1      56.828  21.479  18.725  1.00  0.00    +0.000 H 
ATOM    124  H32 UNL A   1      54.393  22.255  18.570  1.00  0.00    +0.000 H 
ATOM    125  H33 UNL A   1      53.704  18.601   9.228  1.00  0.00    +0.000 H 
ATOM    126  H34 UNL A   1      56.024  17.547   9.472  1.00  0.00    +0.000 H 
ENDROOT
BRANCH   34   33
ATOM     33  C24 UNL A   1      58.183  17.297  11.110  1.00  0.00    +0.000 C 
ATOM    127  H35 UNL A   1      59.269  18.836  10.146  1.00  0.00    +0.000 H 
ATOM    115  H23 UNL A   1      58.899  14.034  10.749  1.00  0.00    +0.000 H 
ATOM    116  H24 UNL A   1      57.355  15.512  11.888  1.00  0.00    +0.000 H 
ATOM     91  C63 UNL A   1      59.145  17.815  10.230  1.00  0.00    +0.000 C 
ATOM     92  C64 UNL A   1      59.938  16.952   9.467  1.00  0.00    +0.000 C 
ATOM     32  C23 UNL A   1      58.073  15.904  11.257  1.00  0.00    +0.000 C 
ATOM     30  C21 UNL A   1      59.803  15.567   9.613  1.00  0.00    +0.000 C 
ATOM     31  C22 UNL A   1      58.921  15.049  10.563  1.00  0.00    +0.000 C 
ATOM    128  H36 UNL A   1      60.621  17.336   8.795  1.00  0.00    +0.000 H 
BRANCH   30    2
ATOM      1  O1  UNL A   1      60.943  13.563   9.174  1.00  0.00    +0.000 O 
ATOM      2  C1  UNL A   1      60.607  14.668   8.755  1.00  0.00    +0.000 C 
BRANCH    2    3
ATOM      3  N1  UNL A   1      61.001  15.083   7.505  1.00  0.00    +0.000 N 
ATOM     93  H1  UNL A   1      61.731  15.743   7.488  1.00  0.00    +0.000 H 
BRANCH    3    4
ATOM      4  C2  UNL A   1      60.490  14.684   6.205  1.00  0.00    +0.000 C 
ATOM     94  H2  UNL A   1      59.879  13.814   6.331  1.00  0.00    +0.000 H 
ATOM     95  H3  UNL A   1      61.333  14.492   5.574  1.00  0.00    +0.000 H 
BRANCH    4    5
ATOM     97  H5  UNL A   1      59.839  16.666   6.086  1.00  0.00    +0.000 H 
ATOM      5  C3  UNL A   1      59.658  15.768   5.534  1.00  0.00    +0.000 C 
ATOM     96  H4  UNL A   1      59.958  15.827   4.508  1.00  0.00    +0.000 H 
BRANCH    5    6
ATOM     98  H6  UNL A   1      57.969  14.494   5.622  1.00  0.00    +0.000 H 
ATOM     99  H7  UNL A   1      57.763  16.012   4.686  1.00  0.00    +0.000 H 
ATOM      6  C4  UNL A   1      58.147  15.548   5.571  1.00  0.00    +0.000 C 
BRANCH    6    7
ATOM    100  H8  UNL A   1      56.980  17.122   6.382  1.00  0.00    +0.000 H 
ATOM    101  H9  UNL A   1      58.135  16.334   7.509  1.00  0.00    +0.000 H 
ATOM      7  C5  UNL A   1      57.405  16.206   6.738  1.00  0.00    +0.000 C 
BRANCH    7    8
ATOM    102  H10 UNL A   1      56.520  15.230   8.403  1.00  0.00    +0.000 H 
ATOM    103  H11 UNL A   1      56.221  14.476   6.805  1.00  0.00    +0.000 H 
ATOM      8  C6  UNL A   1      56.278  15.382   7.372  1.00  0.00    +0.000 C 
BRANCH    8    9
ATOM      9  C7  UNL A   1      54.887  16.010   7.302  1.00  0.00    +0.000 C 
ATOM    105  H13 UNL A   1      54.348  15.717   8.179  1.00  0.00    +0.000 H 
ATOM    104  H12 UNL A   1      54.990  17.074   7.248  1.00  0.00    +0.000 H 
BRANCH    9   10
ATOM     10  N2  UNL A   1      54.139  15.552   6.145  1.00  0.00    +0.000 N 
ATOM    106  H14 UNL A   1      53.993  14.580   6.081  1.00  0.00    +0.000 H 
BRANCH   10   11
ATOM     11  C8  UNL A   1      53.611  16.309   5.129  1.00  0.00    +0.000 C 
ATOM     12  O2  UNL A   1      53.488  17.525   5.259  1.00  0.00    +0.000 O 
BRANCH   11   13
ATOM    107  H15 UNL A   1      54.915  16.188   2.782  1.00  0.00    +0.000 H 
ATOM    108  H16 UNL A   1      54.166  15.113   0.722  1.00  0.00    +0.000 H 
ATOM     13  C9  UNL A   1      53.176  15.670   3.874  1.00  0.00    +0.000 C 
ATOM     14  C10 UNL A   1      54.003  15.707   2.745  1.00  0.00    +0.000 C 
ATOM     15  C11 UNL A   1      53.584  15.091   1.574  1.00  0.00    +0.000 C 
ATOM     16  C12 UNL A   1      52.364  14.444   1.587  1.00  0.00    +0.000 C 
ATOM     17  N3  UNL A   1      51.567  14.365   2.675  1.00  0.00    +0.000 N 
ATOM     18  C13 UNL A   1      51.976  14.948   3.832  1.00  0.00    +0.000 C 
ATOM    109  H17 UNL A   1      52.042  13.995   0.716  1.00  0.00    +0.000 H 
BRANCH   18   19
ATOM     19  N4  UNL A   1      51.111  14.924   4.961  1.00  0.00    +0.000 N 
ATOM    110  H18 UNL A   1      51.420  14.452   5.768  1.00  0.00    +0.000 H 
BRANCH   19   20
ATOM    111  H19 UNL A   1      50.604  17.450   5.418  1.00  0.00    +0.000 H 
ATOM    112  H20 UNL A   1      48.444  18.536   5.570  1.00  0.00    +0.000 H 
ATOM    113  H21 UNL A   1      46.411  17.240   5.321  1.00  0.00    +0.000 H 
ATOM    114  H22 UNL A   1      48.710  13.765   4.753  1.00  0.00    +0.000 H 
ATOM     20  C14 UNL A   1      49.833  15.533   4.998  1.00  0.00    +0.000 C 
ATOM     21  C15 UNL A   1      49.742  16.898   5.284  1.00  0.00    +0.000 C 
ATOM     22  C16 UNL A   1      48.498  17.522   5.390  1.00  0.00    +0.000 C 
ATOM     23  C17 UNL A   1      47.329  16.774   5.253  1.00  0.00    +0.000 C 
ATOM     24  C18 UNL A   1      47.394  15.393   5.023  1.00  0.00    +0.000 C 
ATOM     25  C19 UNL A   1      46.131  14.582   4.891  1.00  0.00    +0.000 C 
ATOM     26  F1  UNL A   1      45.281  14.769   5.941  1.00  0.00    +0.000 F 
ATOM     27  F2  UNL A   1      45.417  14.905   3.777  1.00  0.00    +0.000 F 
ATOM     28  F3  UNL A   1      46.341  13.238   4.823  1.00  0.00    +0.000 F 
ATOM     29  C20 UNL A   1      48.653  14.784   4.907  1.00  0.00    +0.000 C 
ENDBRANCH   19   20
ENDBRANCH   18   19
ENDBRANCH   11   13
ENDBRANCH   10   11
ENDBRANCH    9   10
ENDBRANCH    8    9
ENDBRANCH    7    8
ENDBRANCH    6    7
ENDBRANCH    5    6
ENDBRANCH    4    5
ENDBRANCH    3    4
ENDBRANCH    2    3
ENDBRANCH   30    2
ENDBRANCH   34   33
BRANCH   38   39
ATOM     39  C29 UNL A   1      51.726  19.893  10.402  1.00  0.00    +0.000 C 
ATOM     40  C30 UNL A   1      51.355  21.043   9.687  1.00  0.00    +0.000 C 
ATOM     41  F4  UNL A   1      51.858  22.239  10.026  1.00  0.00    +0.000 F 
ATOM     42  C31 UNL A   1      50.443  20.971   8.637  1.00  0.00    +0.000 C 
ATOM     43  F5  UNL A   1      50.079  22.086   7.991  1.00  0.00    +0.000 F 
ATOM     44  C32 UNL A   1      49.906  19.748   8.263  1.00  0.00    +0.000 C 
ATOM     45  F6  UNL A   1      49.038  19.678   7.244  1.00  0.00    +0.000 F 
ATOM     46  C33 UNL A   1      50.267  18.597   8.948  1.00  0.00    +0.000 C 
ATOM     47  F7  UNL A   1      49.757  17.413   8.581  1.00  0.00    +0.000 F 
ATOM     48  C34 UNL A   1      51.159  18.669  10.015  1.00  0.00    +0.000 C 
ATOM     49  F8  UNL A   1      51.486  17.539  10.660  1.00  0.00    +0.000 F 
ENDBRANCH   38   39
BRANCH   55   56
ATOM     65  C45 UNL A   1      52.207  23.973  16.999  1.00  0.00    +0.000 C 
ATOM     66  F13 UNL A   1      52.887  24.638  16.055  1.00  0.00    +0.000 F 
ATOM     56  C40 UNL A   1      52.286  22.575  17.074  1.00  0.00    +0.000 C 
ATOM     57  C41 UNL A   1      51.559  21.926  18.084  1.00  0.00    +0.000 C 
ATOM     58  F9  UNL A   1      51.589  20.588  18.183  1.00  0.00    +0.000 F 
ATOM     59  C42 UNL A   1      50.757  22.648  18.964  1.00  0.00    +0.000 C 
ATOM     60  F10 UNL A   1      50.030  22.003  19.886  1.00  0.00    +0.000 F 
ATOM     61  C43 UNL A   1      50.695  24.031  18.873  1.00  0.00    +0.000 C 
ATOM     62  F11 UNL A   1      49.920  24.724  19.719  1.00  0.00    +0.000 F 
ATOM     63  C44 UNL A   1      51.425  24.693  17.898  1.00  0.00    +0.000 C 
ATOM     64  F12 UNL A   1      51.371  26.030  17.814  1.00  0.00    +0.000 F 
ENDBRANCH   55   56
BRANCH   70   71
ATOM     71  C49 UNL A   1      58.774  20.092  17.475  1.00  0.00    +0.000 C 
ATOM     72  C50 UNL A   1      59.100  18.949  18.216  1.00  0.00    +0.000 C 
ATOM     73  F14 UNL A   1      58.437  17.803  18.006  1.00  0.00    +0.000 F 
ATOM     74  C51 UNL A   1      60.086  18.988  19.200  1.00  0.00    +0.000 C 
ATOM     75  F15 UNL A   1      60.352  17.892  19.923  1.00  0.00    +0.000 F 
ATOM     76  C52 UNL A   1      60.785  20.162  19.439  1.00  0.00    +0.000 C 
ATOM     77  F16 UNL A   1      61.739  20.196  20.379  1.00  0.00    +0.000 F 
ATOM     78  C53 UNL A   1      60.490  21.302  18.707  1.00  0.00    +0.000 C 
ATOM     79  F17 UNL A   1      61.174  22.434  18.922  1.00  0.00    +0.000 F 
ATOM     80  C54 UNL A   1      59.484  21.272  17.746  1.00  0.00    +0.000 C 
ATOM     81  F18 UNL A   1      59.213  22.391  17.057  1.00  0.00    +0.000 F 
ENDBRANCH   70   71
TORSDOF 17
ENDMDL
