MODEL 1
REMARK VINA RESULT:     -11.7      0.000      0.000
ROOT
ATOM    129  H26 UNL A   1      42.670  28.762  28.456  1.00  0.00    +0.000 H 
ATOM    130  H27 UNL A   1      43.774  24.480  26.062  1.00  0.00    +0.000 H 
ATOM    131  H28 UNL A   1      45.959  25.598  25.336  1.00  0.00    +0.000 H 
ATOM    132  H29 UNL A   1      43.161  34.155  29.796  1.00  0.00    +0.000 H 
ATOM    133  H30 UNL A   1      41.207  32.932  30.909  1.00  0.00    +0.000 H 
ATOM     19  C15 UNL A   1      40.903  30.235  30.045  1.00  0.00    +0.000 C 
ATOM     20  C16 UNL A   1      42.007  31.192  29.694  1.00  0.00    +0.000 C 
ATOM     21  N3  UNL A   1      43.056  31.005  28.932  1.00  0.00    +0.000 N 
ATOM     22  C17 UNL A   1      43.725  32.221  28.906  1.00  0.00    +0.000 C 
ATOM     23  C18 UNL A   1      44.897  32.527  28.302  1.00  0.00    +0.000 C 
ATOM     35  C25 UNL A   1      45.692  31.590  27.550  1.00  0.00    +0.000 C 
ATOM     36  C26 UNL A   1      46.926  31.786  26.957  1.00  0.00    +0.000 C 
ATOM     37  C27 UNL A   1      47.292  30.602  26.307  1.00  0.00    +0.000 C 
ATOM     38  C28 UNL A   1      46.303  29.657  26.529  1.00  0.00    +0.000 C 
ATOM     39  N4  UNL A   1      45.327  30.277  27.291  1.00  0.00    +0.000 N 
ATOM     40  C29 UNL A   1      46.250  28.289  26.080  1.00  0.00    +0.000 C 
ATOM     52  C36 UNL A   1      45.250  27.418  26.354  1.00  0.00    +0.000 C 
ATOM     53  N5  UNL A   1      44.096  27.621  27.097  1.00  0.00    +0.000 N 
ATOM     54  C37 UNL A   1      43.441  26.487  27.063  1.00  0.00    +0.000 C 
ATOM     55  C38 UNL A   1      42.136  26.124  27.717  1.00  0.00    +0.000 C 
ATOM     67  C45 UNL A   1      41.502  27.039  28.476  1.00  0.00    +0.000 C 
ATOM     68  C46 UNL A   1      40.238  26.830  29.176  1.00  0.00    +0.000 C 
ATOM     69  C47 UNL A   1      39.890  27.967  29.799  1.00  0.00    +0.000 C 
ATOM     70  C48 UNL A   1      40.924  28.976  29.567  1.00  0.00    +0.000 C 
ATOM     71  N6  UNL A   1      41.844  28.334  28.776  1.00  0.00    +0.000 N 
ATOM     72  C49 UNL A   1      44.096  25.438  26.270  1.00  0.00    +0.000 C 
ATOM     73  C50 UNL A   1      45.212  26.046  25.890  1.00  0.00    +0.000 C 
ATOM     74  C51 UNL A   1      42.941  33.152  29.690  1.00  0.00    +0.000 C 
ATOM     75  C52 UNL A   1      41.904  32.550  30.252  1.00  0.00    +0.000 C 
ATOM    124  H21 UNL A   1      47.482  32.654  26.989  1.00  0.00    +0.000 H 
ATOM    125  H22 UNL A   1      48.152  30.457  25.754  1.00  0.00    +0.000 H 
ATOM    126  H23 UNL A   1      44.496  29.850  27.603  1.00  0.00    +0.000 H 
ATOM    127  H24 UNL A   1      39.699  25.949  29.189  1.00  0.00    +0.000 H 
ATOM    128  H25 UNL A   1      39.030  28.107  30.351  1.00  0.00    +0.000 H 
ENDROOT
BRANCH   19   18
ATOM    134  H31 UNL A   1      40.636  30.163  32.709  1.00  0.00    +0.000 H 
ATOM    135  H32 UNL A   1      38.733  30.822  34.058  1.00  0.00    +0.000 H 
ATOM     76  C53 UNL A   1      39.799  30.565  32.258  1.00  0.00    +0.000 C 
ATOM     77  C54 UNL A   1      38.723  30.981  33.039  1.00  0.00    +0.000 C 
ATOM     15  C11 UNL A   1      37.630  31.613  32.438  1.00  0.00    +0.000 C 
ATOM     16  C12 UNL A   1      37.558  31.720  31.047  1.00  0.00    +0.000 C 
ATOM     17  C13 UNL A   1      38.609  31.245  30.260  1.00  0.00    +0.000 C 
ATOM     18  C14 UNL A   1      39.751  30.692  30.860  1.00  0.00    +0.000 C 
ATOM    122  H19 UNL A   1      36.731  32.149  30.603  1.00  0.00    +0.000 H 
ATOM    123  H20 UNL A   1      38.547  31.301  29.231  1.00  0.00    +0.000 H 
BRANCH   15   13
ATOM     13  C10 UNL A   1      36.530  32.172  33.255  1.00  0.00    +0.000 C 
ATOM     14  O2  UNL A   1      36.706  32.384  34.450  1.00  0.00    +0.000 O 
BRANCH   13   12
ATOM    121  H18 UNL A   1      35.188  32.069  31.770  1.00  0.00    +0.000 H 
ATOM     12  N2  UNL A   1      35.312  32.431  32.677  1.00  0.00    +0.000 N 
BRANCH   12   11
ATOM     11  C9  UNL A   1      34.181  33.166  33.218  1.00  0.00    +0.000 C 
ATOM    119  H16 UNL A   1      33.378  33.129  32.512  1.00  0.00    +0.000 H 
ATOM    120  H17 UNL A   1      33.907  32.707  34.146  1.00  0.00    +0.000 H 
BRANCH   11   10
ATOM     10  C8  UNL A   1      34.519  34.625  33.503  1.00  0.00    +0.000 C 
ATOM    117  H14 UNL A   1      33.698  35.058  34.035  1.00  0.00    +0.000 H 
ATOM    118  H15 UNL A   1      35.430  34.619  34.062  1.00  0.00    +0.000 H 
BRANCH   10    9
ATOM      9  C7  UNL A   1      34.782  35.477  32.260  1.00  0.00    +0.000 C 
ATOM    115  H12 UNL A   1      35.618  36.114  32.466  1.00  0.00    +0.000 H 
ATOM    116  H13 UNL A   1      34.959  34.789  31.460  1.00  0.00    +0.000 H 
BRANCH    9    8
ATOM    113  H10 UNL A   1      32.989  36.531  32.667  1.00  0.00    +0.000 H 
ATOM    114  H11 UNL A   1      34.053  37.249  31.416  1.00  0.00    +0.000 H 
ATOM      8  C6  UNL A   1      33.613  36.358  31.816  1.00  0.00    +0.000 C 
BRANCH    8    7
ATOM    111  H8  UNL A   1      32.782  34.713  30.756  1.00  0.00    +0.000 H 
ATOM      7  C5  UNL A   1      32.738  35.780  30.696  1.00  0.00    +0.000 C 
ATOM    112  H9  UNL A   1      31.754  36.173  30.851  1.00  0.00    +0.000 H 
BRANCH    7    6
ATOM    110  H7  UNL A   1      33.645  37.139  29.330  1.00  0.00    +0.000 H 
ATOM    109  H6  UNL A   1      32.267  36.264  28.668  1.00  0.00    +0.000 H 
ATOM      6  C4  UNL A   1      33.144  36.194  29.276  1.00  0.00    +0.000 C 
BRANCH    6    5
ATOM    108  H5  UNL A   1      34.987  35.513  28.560  1.00  0.00    +0.000 H 
ATOM      5  N1  UNL A   1      34.053  35.231  28.685  1.00  0.00    +0.000 N 
BRANCH    5    3
ATOM      3  C3  UNL A   1      33.721  33.963  28.288  1.00  0.00    +0.000 C 
ATOM      4  O1  UNL A   1      32.651  33.841  27.691  1.00  0.00    +0.000 O 
BRANCH    3    2
ATOM      2  C2  UNL A   1      34.692  32.808  28.590  1.00  0.00    +0.000 C 
ATOM    107  H4  UNL A   1      34.618  32.661  29.647  1.00  0.00    +0.000 H 
BRANCH    2    1
ATOM      1  C1  UNL A   1      36.102  33.215  28.143  1.00  0.00    +0.000 C 
ATOM    106  H3  UNL A   1      36.629  33.641  28.970  1.00  0.00    +0.000 H 
ATOM    105  H2  UNL A   1      36.627  32.352  27.790  1.00  0.00    +0.000 H 
ATOM    104  H1  UNL A   1      36.032  33.937  27.355  1.00  0.00    +0.000 H 
ENDBRANCH    2    1
BRANCH    2   78
ATOM    101  C75 UNL A   1      32.884  29.919  26.793  1.00  0.00    +0.000 C 
ATOM    102  F16 UNL A   1      31.662  29.687  26.285  1.00  0.00    +0.000 F 
ATOM    103  C76 UNL A   1      33.084  31.113  27.483  1.00  0.00    +0.000 C 
ATOM    136  H33 UNL A   1      36.277  30.650  28.318  1.00  0.00    +0.000 H 
ATOM    137  H34 UNL A   1      35.925  28.594  27.098  1.00  0.00    +0.000 H 
ATOM     78  C55 UNL A   1      34.343  31.442  27.993  1.00  0.00    +0.000 C 
ATOM     79  C56 UNL A   1      35.361  30.474  27.877  1.00  0.00    +0.000 C 
ATOM     80  C57 UNL A   1      35.156  29.278  27.175  1.00  0.00    +0.000 C 
ATOM     81  C58 UNL A   1      33.920  29.003  26.578  1.00  0.00    +0.000 C 
ATOM    154  H51 UNL A   1      32.293  31.761  27.619  1.00  0.00    +0.000 H 
BRANCH   81   82
ATOM    100  C74 UNL A   1      33.457  26.597  26.194  1.00  0.00    +0.000 C 
ATOM    138  H35 UNL A   1      34.035  28.925  23.855  1.00  0.00    +0.000 H 
ATOM    139  H36 UNL A   1      33.713  27.007  22.409  1.00  0.00    +0.000 H 
ATOM    140  H37 UNL A   1      33.210  24.830  23.363  1.00  0.00    +0.000 H 
ATOM     82  C59 UNL A   1      33.746  27.868  25.661  1.00  0.00    +0.000 C 
ATOM     83  C60 UNL A   1      33.831  28.003  24.268  1.00  0.00    +0.000 C 
ATOM     84  C61 UNL A   1      33.640  26.896  23.432  1.00  0.00    +0.000 C 
ATOM     85  C62 UNL A   1      33.350  25.646  23.979  1.00  0.00    +0.000 C 
ATOM     86  C63 UNL A   1      33.250  25.503  25.361  1.00  0.00    +0.000 C 
ATOM    153  H50 UNL A   1      33.398  26.477  27.217  1.00  0.00    +0.000 H 
BRANCH   86   87
ATOM     87  O3  UNL A   1      32.999  24.193  25.833  1.00  0.00    +0.000 O 
BRANCH   87   88
ATOM     89  O4  UNL A   1      30.715  24.079  26.326  1.00  0.00    +0.000 O 
ATOM     88  C64 UNL A   1      31.741  23.592  25.881  1.00  0.00    +0.000 C 
BRANCH   88   90
ATOM     90  N7  UNL A   1      31.729  22.331  25.340  1.00  0.00    +0.000 N 
ATOM    141  H38 UNL A   1      31.611  21.568  25.951  1.00  0.00    +0.000 H 
BRANCH   90   91
ATOM     91  C65 UNL A   1      31.878  22.052  23.931  1.00  0.00    +0.000 C 
ATOM    142  H39 UNL A   1      32.454  22.840  23.494  1.00  0.00    +0.000 H 
ATOM    143  H40 UNL A   1      30.890  21.984  23.527  1.00  0.00    +0.000 H 
BRANCH   91   92
ATOM    145  H42 UNL A   1      31.763  20.029  23.502  1.00  0.00    +0.000 H 
ATOM     92  C66 UNL A   1      32.569  20.724  23.620  1.00  0.00    +0.000 C 
ATOM    144  H41 UNL A   1      33.183  20.881  22.756  1.00  0.00    +0.000 H 
BRANCH   92   93
ATOM    146  H43 UNL A   1      33.088  20.440  25.642  1.00  0.00    +0.000 H 
ATOM    147  H44 UNL A   1      34.442  20.398  24.409  1.00  0.00    +0.000 H 
ATOM     93  C67 UNL A   1      33.458  20.094  24.700  1.00  0.00    +0.000 C 
BRANCH   93   94
ATOM     97  C71 UNL A   1      33.604  15.778  25.015  1.00  0.00    +0.000 C 
ATOM     98  C72 UNL A   1      32.535  16.503  25.528  1.00  0.00    +0.000 C 
ATOM     99  C73 UNL A   1      32.523  17.896  25.419  1.00  0.00    +0.000 C 
ATOM    148  H45 UNL A   1      35.445  18.327  23.856  1.00  0.00    +0.000 H 
ATOM    149  H46 UNL A   1      35.453  15.911  24.021  1.00  0.00    +0.000 H 
ATOM    150  H47 UNL A   1      33.614  14.749  25.088  1.00  0.00    +0.000 H 
ATOM    151  H48 UNL A   1      31.752  16.015  25.989  1.00  0.00    +0.000 H 
ATOM    152  H49 UNL A   1      31.721  18.425  25.794  1.00  0.00    +0.000 H 
ATOM     94  C68 UNL A   1      33.583  18.591  24.809  1.00  0.00    +0.000 C 
ATOM     95  C69 UNL A   1      34.651  17.843  24.307  1.00  0.00    +0.000 C 
ATOM     96  C70 UNL A   1      34.660  16.447  24.404  1.00  0.00    +0.000 C 
ENDBRANCH   93   94
ENDBRANCH   92   93
ENDBRANCH   91   92
ENDBRANCH   90   91
ENDBRANCH   88   90
ENDBRANCH   87   88
ENDBRANCH   86   87
ENDBRANCH   81   82
ENDBRANCH    2   78
ENDBRANCH    3    2
ENDBRANCH    5    3
ENDBRANCH    6    5
ENDBRANCH    7    6
ENDBRANCH    8    7
ENDBRANCH    9    8
ENDBRANCH   10    9
ENDBRANCH   11   10
ENDBRANCH   12   11
ENDBRANCH   13   12
ENDBRANCH   15   13
ENDBRANCH   19   18
BRANCH   23   24
ATOM     33  C24 UNL A   1      45.065  34.900  27.470  1.00  0.00    +0.000 C 
ATOM     34  F5  UNL A   1      44.278  34.579  26.432  1.00  0.00    +0.000 F 
ATOM     24  C19 UNL A   1      45.396  33.935  28.433  1.00  0.00    +0.000 C 
ATOM     25  C20 UNL A   1      46.226  34.325  29.494  1.00  0.00    +0.000 C 
ATOM     26  F1  UNL A   1      46.561  33.443  30.447  1.00  0.00    +0.000 F 
ATOM     27  C21 UNL A   1      46.683  35.636  29.603  1.00  0.00    +0.000 C 
ATOM     28  F2  UNL A   1      47.436  35.996  30.652  1.00  0.00    +0.000 F 
ATOM     29  C22 UNL A   1      46.349  36.571  28.636  1.00  0.00    +0.000 C 
ATOM     30  F3  UNL A   1      46.793  37.832  28.740  1.00  0.00    +0.000 F 
ATOM     31  C23 UNL A   1      45.547  36.203  27.566  1.00  0.00    +0.000 C 
ATOM     32  F4  UNL A   1      45.230  37.104  26.626  1.00  0.00    +0.000 F 
ENDBRANCH   23   24
BRANCH   40   41
ATOM     41  C30 UNL A   1      47.400  27.778  25.262  1.00  0.00    +0.000 C 
ATOM     42  C31 UNL A   1      48.506  27.157  25.859  1.00  0.00    +0.000 C 
ATOM     43  F6  UNL A   1      48.582  27.054  27.195  1.00  0.00    +0.000 F 
ATOM     44  C32 UNL A   1      49.556  26.671  25.085  1.00  0.00    +0.000 C 
ATOM     45  F7  UNL A   1      50.623  26.119  25.679  1.00  0.00    +0.000 F 
ATOM     46  C33 UNL A   1      49.507  26.770  23.703  1.00  0.00    +0.000 C 
ATOM     47  F8  UNL A   1      50.516  26.297  22.960  1.00  0.00    +0.000 F 
ATOM     48  C34 UNL A   1      48.414  27.367  23.091  1.00  0.00    +0.000 C 
ATOM     49  F9  UNL A   1      48.361  27.454  21.754  1.00  0.00    +0.000 F 
ATOM     50  C35 UNL A   1      47.375  27.877  23.863  1.00  0.00    +0.000 C 
ATOM     51  F10 UNL A   1      46.336  28.458  23.244  1.00  0.00    +0.000 F 
ENDBRANCH   40   41
BRANCH   55   56
ATOM     65  C44 UNL A   1      42.126  23.651  28.190  1.00  0.00    +0.000 C 
ATOM     66  F15 UNL A   1      43.216  23.797  28.958  1.00  0.00    +0.000 F 
ATOM     56  C39 UNL A   1      41.557  24.766  27.559  1.00  0.00    +0.000 C 
ATOM     57  C40 UNL A   1      40.421  24.559  26.764  1.00  0.00    +0.000 C 
ATOM     58  F11 UNL A   1      39.832  25.600  26.157  1.00  0.00    +0.000 F 
ATOM     59  C41 UNL A   1      39.867  23.290  26.618  1.00  0.00    +0.000 C 
ATOM     60  F12 UNL A   1      38.758  23.126  25.883  1.00  0.00    +0.000 F 
ATOM     61  C42 UNL A   1      40.451  22.199  27.243  1.00  0.00    +0.000 C 
ATOM     62  F13 UNL A   1      39.921  20.979  27.099  1.00  0.00    +0.000 F 
ATOM     63  C43 UNL A   1      41.584  22.378  28.024  1.00  0.00    +0.000 C 
ATOM     64  F14 UNL A   1      42.160  21.325  28.620  1.00  0.00    +0.000 F 
ENDBRANCH   55   56
TORSDOF 25
ENDMDL
MODEL 2
REMARK VINA RESULT:     -11.5      1.823      3.526
ROOT
ATOM    129  H26 UNL A   1      42.707  28.770  28.542  1.00  0.00    +0.000 H 
ATOM    130  H27 UNL A   1      43.774  24.500  26.109  1.00  0.00    +0.000 H 
ATOM    131  H28 UNL A   1      45.968  25.607  25.392  1.00  0.00    +0.000 H 
ATOM    132  H29 UNL A   1      43.244  34.146  29.932  1.00  0.00    +0.000 H 
ATOM    133  H30 UNL A   1      41.280  32.929  31.034  1.00  0.00    +0.000 H 
ATOM     19  C15 UNL A   1      40.952  30.243  30.145  1.00  0.00    +0.000 C 
ATOM     20  C16 UNL A   1      42.065  31.194  29.803  1.00  0.00    +0.000 C 
ATOM     21  N3  UNL A   1      43.111  31.005  29.039  1.00  0.00    +0.000 N 
ATOM     22  C17 UNL A   1      43.791  32.215  29.024  1.00  0.00    +0.000 C 
ATOM     23  C18 UNL A   1      44.966  32.517  28.423  1.00  0.00    +0.000 C 
ATOM     35  C25 UNL A   1      45.752  31.580  27.662  1.00  0.00    +0.000 C 
ATOM     36  C26 UNL A   1      46.988  31.771  27.070  1.00  0.00    +0.000 C 
ATOM     37  C27 UNL A   1      47.343  30.590  26.409  1.00  0.00    +0.000 C 
ATOM     38  C28 UNL A   1      46.347  29.651  26.623  1.00  0.00    +0.000 C 
ATOM     39  N4  UNL A   1      45.376  30.273  27.391  1.00  0.00    +0.000 N 
ATOM     40  C29 UNL A   1      46.282  28.288  26.162  1.00  0.00    +0.000 C 
ATOM     52  C36 UNL A   1      45.274  27.423  26.427  1.00  0.00    +0.000 C 
ATOM     53  N5  UNL A   1      44.123  27.629  27.173  1.00  0.00    +0.000 N 
ATOM     54  C37 UNL A   1      43.458  26.501  27.129  1.00  0.00    +0.000 C 
ATOM     55  C38 UNL A   1      42.149  26.144  27.780  1.00  0.00    +0.000 C 
ATOM     67  C45 UNL A   1      41.523  27.056  28.547  1.00  0.00    +0.000 C 
ATOM     68  C46 UNL A   1      40.258  26.852  29.245  1.00  0.00    +0.000 C 
ATOM     69  C47 UNL A   1      39.919  27.987  29.878  1.00  0.00    +0.000 C 
ATOM     70  C48 UNL A   1      40.962  28.989  29.656  1.00  0.00    +0.000 C 
ATOM     71  N6  UNL A   1      41.877  28.346  28.859  1.00  0.00    +0.000 N 
ATOM     72  C49 UNL A   1      44.104  25.454  26.325  1.00  0.00    +0.000 C 
ATOM     73  C50 UNL A   1      45.225  26.056  25.951  1.00  0.00    +0.000 C 
ATOM     74  C51 UNL A   1      43.015  33.146  29.816  1.00  0.00    +0.000 C 
ATOM     75  C52 UNL A   1      41.973  32.547  30.374  1.00  0.00    +0.000 C 
ATOM    124  H21 UNL A   1      47.551  32.634  27.110  1.00  0.00    +0.000 H 
ATOM    125  H22 UNL A   1      48.202  30.443  25.855  1.00  0.00    +0.000 H 
ATOM    126  H23 UNL A   1      44.541  29.850  27.699  1.00  0.00    +0.000 H 
ATOM    127  H24 UNL A   1      39.712  25.976  29.250  1.00  0.00    +0.000 H 
ATOM    128  H25 UNL A   1      39.061  28.128  30.432  1.00  0.00    +0.000 H 
ENDROOT
BRANCH   19   18
ATOM    134  H31 UNL A   1      40.694  30.172  32.810  1.00  0.00    +0.000 H 
ATOM    135  H32 UNL A   1      38.798  30.834  34.166  1.00  0.00    +0.000 H 
ATOM     76  C53 UNL A   1      39.857  30.575  32.362  1.00  0.00    +0.000 C 
ATOM     77  C54 UNL A   1      38.785  30.993  33.147  1.00  0.00    +0.000 C 
ATOM     15  C11 UNL A   1      37.691  31.628  32.551  1.00  0.00    +0.000 C 
ATOM     16  C12 UNL A   1      37.614  31.736  31.160  1.00  0.00    +0.000 C 
ATOM     17  C13 UNL A   1      38.661  31.258  30.369  1.00  0.00    +0.000 C 
ATOM     18  C14 UNL A   1      39.804  30.702  30.965  1.00  0.00    +0.000 C 
ATOM    122  H19 UNL A   1      36.786  32.166  30.719  1.00  0.00    +0.000 H 
ATOM    123  H20 UNL A   1      38.595  31.315  29.340  1.00  0.00    +0.000 H 
BRANCH   15   13
ATOM     13  C10 UNL A   1      36.596  32.189  33.372  1.00  0.00    +0.000 C 
ATOM     14  O2  UNL A   1      36.775  32.397  34.567  1.00  0.00    +0.000 O 
BRANCH   13   12
ATOM    121  H18 UNL A   1      35.258  32.116  31.881  1.00  0.00    +0.000 H 
ATOM     12  N2  UNL A   1      35.377  32.454  32.797  1.00  0.00    +0.000 N 
BRANCH   12   11
ATOM     11  C9  UNL A   1      34.238  33.165  33.355  1.00  0.00    +0.000 C 
ATOM    119  H16 UNL A   1      33.373  32.943  32.766  1.00  0.00    +0.000 H 
ATOM    120  H17 UNL A   1      34.116  32.841  34.368  1.00  0.00    +0.000 H 
BRANCH   11   10
ATOM     10  C8  UNL A   1      34.448  34.675  33.372  1.00  0.00    +0.000 C 
ATOM    117  H14 UNL A   1      33.598  35.123  33.841  1.00  0.00    +0.000 H 
ATOM    118  H15 UNL A   1      35.362  34.846  33.900  1.00  0.00    +0.000 H 
BRANCH   10    9
ATOM      9  C7  UNL A   1      34.622  35.313  31.993  1.00  0.00    +0.000 C 
ATOM    115  H12 UNL A   1      35.559  35.832  31.984  1.00  0.00    +0.000 H 
ATOM    116  H13 UNL A   1      34.572  34.513  31.286  1.00  0.00    +0.000 H 
BRANCH    9    8
ATOM    113  H10 UNL A   1      32.867  36.421  32.426  1.00  0.00    +0.000 H 
ATOM    114  H11 UNL A   1      34.036  37.207  31.318  1.00  0.00    +0.000 H 
ATOM      8  C6  UNL A   1      33.528  36.306  31.593  1.00  0.00    +0.000 C 
BRANCH    8    7
ATOM    111  H8  UNL A   1      32.529  34.848  30.411  1.00  0.00    +0.000 H 
ATOM      7  C5  UNL A   1      32.687  35.906  30.373  1.00  0.00    +0.000 C 
ATOM    112  H9  UNL A   1      31.781  36.472  30.435  1.00  0.00    +0.000 H 
BRANCH    7    6
ATOM    110  H7  UNL A   1      34.036  37.022  29.161  1.00  0.00    +0.000 H 
ATOM    109  H6  UNL A   1      32.542  36.569  28.347  1.00  0.00    +0.000 H 
ATOM      6  C4  UNL A   1      33.312  36.246  29.015  1.00  0.00    +0.000 C 
BRANCH    6    5
ATOM    108  H5  UNL A   1      34.938  35.200  28.217  1.00  0.00    +0.000 H 
ATOM      5  N1  UNL A   1      33.985  35.098  28.440  1.00  0.00    +0.000 N 
BRANCH    5    3
ATOM      3  C3  UNL A   1      33.407  33.883  28.183  1.00  0.00    +0.000 C 
ATOM      4  O1  UNL A   1      32.326  33.907  27.597  1.00  0.00    +0.000 O 
BRANCH    3    2
ATOM      2  C2  UNL A   1      34.140  32.602  28.618  1.00  0.00    +0.000 C 
ATOM    107  H4  UNL A   1      33.703  32.345  29.560  1.00  0.00    +0.000 H 
BRANCH    2    1
ATOM      1  C1  UNL A   1      35.642  32.899  28.720  1.00  0.00    +0.000 C 
ATOM    106  H3  UNL A   1      35.891  33.133  29.733  1.00  0.00    +0.000 H 
ATOM    105  H2  UNL A   1      36.198  32.040  28.405  1.00  0.00    +0.000 H 
ATOM    104  H1  UNL A   1      35.884  33.731  28.091  1.00  0.00    +0.000 H 
ENDBRANCH    2    1
BRANCH    2   78
ATOM    101  C75 UNL A   1      32.739  30.083  26.060  1.00  0.00    +0.000 C 
ATOM    102  F16 UNL A   1      31.642  29.965  25.295  1.00  0.00    +0.000 F 
ATOM    103  C76 UNL A   1      32.791  31.145  26.960  1.00  0.00    +0.000 C 
ATOM    136  H33 UNL A   1      35.766  30.479  28.309  1.00  0.00    +0.000 H 
ATOM    137  H34 UNL A   1      35.674  28.655  26.726  1.00  0.00    +0.000 H 
ATOM     78  C55 UNL A   1      33.925  31.358  27.751  1.00  0.00    +0.000 C 
ATOM     79  C56 UNL A   1      34.954  30.398  27.677  1.00  0.00    +0.000 C 
ATOM     80  C57 UNL A   1      34.899  29.336  26.764  1.00  0.00    +0.000 C 
ATOM     81  C58 UNL A   1      33.805  29.190  25.903  1.00  0.00    +0.000 C 
ATOM    154  H51 UNL A   1      31.984  31.782  27.045  1.00  0.00    +0.000 H 
BRANCH   81   82
ATOM    100  C74 UNL A   1      33.720  26.848  25.090  1.00  0.00    +0.000 C 
ATOM    138  H35 UNL A   1      33.977  29.613  23.215  1.00  0.00    +0.000 H 
ATOM    139  H36 UNL A   1      33.976  27.954  21.447  1.00  0.00    +0.000 H 
ATOM    140  H37 UNL A   1      33.794  25.593  21.989  1.00  0.00    +0.000 H 
ATOM     82  C59 UNL A   1      33.822  28.222  24.797  1.00  0.00    +0.000 C 
ATOM     83  C60 UNL A   1      33.909  28.612  23.454  1.00  0.00    +0.000 C 
ATOM     84  C61 UNL A   1      33.902  27.655  22.432  1.00  0.00    +0.000 C 
ATOM     85  C62 UNL A   1      33.798  26.299  22.741  1.00  0.00    +0.000 C 
ATOM     86  C63 UNL A   1      33.697  25.901  24.073  1.00  0.00    +0.000 C 
ATOM    153  H50 UNL A   1      33.663  26.541  26.074  1.00  0.00    +0.000 H 
BRANCH   86   87
ATOM     87  O3  UNL A   1      33.641  24.506  24.301  1.00  0.00    +0.000 O 
BRANCH   87   88
ATOM     89  O4  UNL A   1      32.518  22.468  24.053  1.00  0.00    +0.000 O 
ATOM     88  C64 UNL A   1      32.628  23.664  23.839  1.00  0.00    +0.000 C 
BRANCH   88   90
ATOM     90  N7  UNL A   1      31.687  24.321  23.087  1.00  0.00    +0.000 N 
ATOM    141  H38 UNL A   1      32.000  24.882  22.341  1.00  0.00    +0.000 H 
BRANCH   90   91
ATOM     91  C65 UNL A   1      30.264  24.240  23.320  1.00  0.00    +0.000 C 
ATOM    142  H39 UNL A   1      30.075  23.391  23.942  1.00  0.00    +0.000 H 
ATOM    143  H40 UNL A   1      29.801  24.166  22.358  1.00  0.00    +0.000 H 
BRANCH   91   92
ATOM    145  H42 UNL A   1      28.724  25.613  23.506  1.00  0.00    +0.000 H 
ATOM     92  C66 UNL A   1      29.664  25.473  23.999  1.00  0.00    +0.000 C 
ATOM    144  H41 UNL A   1      29.617  25.266  25.048  1.00  0.00    +0.000 H 
BRANCH   92   93
ATOM    146  H43 UNL A   1      31.276  26.623  23.278  1.00  0.00    +0.000 H 
ATOM    147  H44 UNL A   1      30.489  27.160  24.842  1.00  0.00    +0.000 H 
ATOM     93  C67 UNL A   1      30.383  26.818  23.833  1.00  0.00    +0.000 C 
BRANCH   93   94
ATOM     97  C71 UNL A   1      28.259  30.134  22.033  1.00  0.00    +0.000 C 
ATOM     98  C72 UNL A   1      27.597  29.187  22.805  1.00  0.00    +0.000 C 
ATOM     99  C73 UNL A   1      28.309  28.123  23.363  1.00  0.00    +0.000 C 
ATOM    148  H45 UNL A   1      31.351  28.854  22.190  1.00  0.00    +0.000 H 
ATOM    149  H46 UNL A   1      30.121  30.713  21.244  1.00  0.00    +0.000 H 
ATOM    150  H47 UNL A   1      27.738  30.925  21.623  1.00  0.00    +0.000 H 
ATOM    151  H48 UNL A   1      26.581  29.268  22.965  1.00  0.00    +0.000 H 
ATOM    152  H49 UNL A   1      27.812  27.430  23.944  1.00  0.00    +0.000 H 
ATOM     94  C68 UNL A   1      29.693  27.977  23.151  1.00  0.00    +0.000 C 
ATOM     95  C69 UNL A   1      30.337  28.937  22.366  1.00  0.00    +0.000 C 
ATOM     96  C70 UNL A   1      29.627  30.009  21.815  1.00  0.00    +0.000 C 
ENDBRANCH   93   94
ENDBRANCH   92   93
ENDBRANCH   91   92
ENDBRANCH   90   91
ENDBRANCH   88   90
ENDBRANCH   87   88
ENDBRANCH   86   87
ENDBRANCH   81   82
ENDBRANCH    2   78
ENDBRANCH    3    2
ENDBRANCH    5    3
ENDBRANCH    6    5
ENDBRANCH    7    6
ENDBRANCH    8    7
ENDBRANCH    9    8
ENDBRANCH   10    9
ENDBRANCH   11   10
ENDBRANCH   12   11
ENDBRANCH   13   12
ENDBRANCH   15   13
ENDBRANCH   19   18
BRANCH   23   24
ATOM     33  C24 UNL A   1      46.290  34.273  29.652  1.00  0.00    +0.000 C 
ATOM     34  F5  UNL A   1      46.641  33.354  30.564  1.00  0.00    +0.000 F 
ATOM     24  C19 UNL A   1      45.476  33.919  28.566  1.00  0.00    +0.000 C 
ATOM     25  C20 UNL A   1      45.137  34.923  27.646  1.00  0.00    +0.000 C 
ATOM     26  F1  UNL A   1      44.372  34.632  26.584  1.00  0.00    +0.000 F 
ATOM     27  C21 UNL A   1      45.617  36.221  27.791  1.00  0.00    +0.000 C 
ATOM     28  F2  UNL A   1      45.319  37.151  26.874  1.00  0.00    +0.000 F 
ATOM     29  C22 UNL A   1      46.415  36.550  28.877  1.00  0.00    +0.000 C 
ATOM     30  F3  UNL A   1      46.874  37.802  29.018  1.00  0.00    +0.000 F 
ATOM     31  C23 UNL A   1      46.746  35.580  29.811  1.00  0.00    +0.000 C 
ATOM     32  F4  UNL A   1      47.509  35.899  30.865  1.00  0.00    +0.000 F 
ENDBRANCH   23   24
BRANCH   40   41
ATOM     41  C30 UNL A   1      47.427  27.775  25.339  1.00  0.00    +0.000 C 
ATOM     42  C31 UNL A   1      48.536  27.156  25.932  1.00  0.00    +0.000 C 
ATOM     43  F6  UNL A   1      48.620  27.056  27.267  1.00  0.00    +0.000 F 
ATOM     44  C32 UNL A   1      49.582  26.668  25.153  1.00  0.00    +0.000 C 
ATOM     45  F7  UNL A   1      50.652  26.117  25.743  1.00  0.00    +0.000 F 
ATOM     46  C33 UNL A   1      49.526  26.763  23.771  1.00  0.00    +0.000 C 
ATOM     47  F8  UNL A   1      50.531  26.288  23.024  1.00  0.00    +0.000 F 
ATOM     48  C34 UNL A   1      48.430  27.358  23.164  1.00  0.00    +0.000 C 
ATOM     49  F9  UNL A   1      48.369  27.441  21.826  1.00  0.00    +0.000 F 
ATOM     50  C35 UNL A   1      47.394  27.870  23.939  1.00  0.00    +0.000 C 
ATOM     51  F10 UNL A   1      46.352  28.449  23.325  1.00  0.00    +0.000 F 
ENDBRANCH   40   41
BRANCH   55   56
ATOM     65  C44 UNL A   1      42.098  23.672  28.257  1.00  0.00    +0.000 C 
ATOM     66  F15 UNL A   1      43.169  23.807  29.053  1.00  0.00    +0.000 F 
ATOM     56  C39 UNL A   1      41.559  24.792  27.609  1.00  0.00    +0.000 C 
ATOM     57  C40 UNL A   1      40.442  24.597  26.784  1.00  0.00    +0.000 C 
ATOM     58  F11 UNL A   1      39.881  25.643  26.160  1.00  0.00    +0.000 F 
ATOM     59  C41 UNL A   1      39.878  23.334  26.627  1.00  0.00    +0.000 C 
ATOM     60  F12 UNL A   1      38.786  23.181  25.863  1.00  0.00    +0.000 F 
ATOM     61  C42 UNL A   1      40.432  22.238  27.269  1.00  0.00    +0.000 C 
ATOM     62  F13 UNL A   1      39.891  21.023  27.114  1.00  0.00    +0.000 F 
ATOM     63  C43 UNL A   1      41.546  22.405  28.079  1.00  0.00    +0.000 C 
ATOM     64  F14 UNL A   1      42.093  21.347  28.693  1.00  0.00    +0.000 F 
ENDBRANCH   55   56
TORSDOF 25
ENDMDL
MODEL 3
REMARK VINA RESULT:     -11.2      1.413      2.147
ROOT
ATOM    129  H26 UNL A   1      42.756  28.897  28.592  1.00  0.00    +0.000 H 
ATOM    130  H27 UNL A   1      43.872  24.587  26.254  1.00  0.00    +0.000 H 
ATOM    131  H28 UNL A   1      46.074  25.688  25.550  1.00  0.00    +0.000 H 
ATOM    132  H29 UNL A   1      43.256  34.299  29.891  1.00  0.00    +0.000 H 
ATOM    133  H30 UNL A   1      41.280  33.097  30.986  1.00  0.00    +0.000 H 
ATOM     19  C15 UNL A   1      40.974  30.394  30.142  1.00  0.00    +0.000 C 
ATOM     20  C16 UNL A   1      42.088  31.341  29.799  1.00  0.00    +0.000 C 
ATOM     21  N3  UNL A   1      43.146  31.142  29.054  1.00  0.00    +0.000 N 
ATOM     22  C17 UNL A   1      43.823  32.354  29.027  1.00  0.00    +0.000 C 
ATOM     23  C18 UNL A   1      45.005  32.648  28.437  1.00  0.00    +0.000 C 
ATOM     35  C25 UNL A   1      45.806  31.701  27.706  1.00  0.00    +0.000 C 
ATOM     36  C26 UNL A   1      47.050  31.884  27.129  1.00  0.00    +0.000 C 
ATOM     37  C27 UNL A   1      47.418  30.693  26.495  1.00  0.00    +0.000 C 
ATOM     38  C28 UNL A   1      46.422  29.755  26.711  1.00  0.00    +0.000 C 
ATOM     39  N4  UNL A   1      45.437  30.387  27.453  1.00  0.00    +0.000 N 
ATOM     40  C29 UNL A   1      46.368  28.384  26.274  1.00  0.00    +0.000 C 
ATOM     52  C36 UNL A   1      45.359  27.520  26.541  1.00  0.00    +0.000 C 
ATOM     53  N5  UNL A   1      44.196  27.736  27.265  1.00  0.00    +0.000 N 
ATOM     54  C37 UNL A   1      43.535  26.605  27.232  1.00  0.00    +0.000 C 
ATOM     55  C38 UNL A   1      42.218  26.255  27.870  1.00  0.00    +0.000 C 
ATOM     67  C45 UNL A   1      41.578  27.180  28.611  1.00  0.00    +0.000 C 
ATOM     68  C46 UNL A   1      40.304  26.984  29.294  1.00  0.00    +0.000 C 
ATOM     69  C47 UNL A   1      39.952  28.129  29.901  1.00  0.00    +0.000 C 
ATOM     70  C48 UNL A   1      40.995  29.130  29.676  1.00  0.00    +0.000 C 
ATOM     71  N6  UNL A   1      41.923  28.476  28.904  1.00  0.00    +0.000 N 
ATOM     72  C49 UNL A   1      44.196  25.545  26.457  1.00  0.00    +0.000 C 
ATOM     73  C50 UNL A   1      45.321  26.144  26.089  1.00  0.00    +0.000 C 
ATOM     74  C51 UNL A   1      43.032  33.296  29.790  1.00  0.00    +0.000 C 
ATOM     75  C52 UNL A   1      41.984  32.705  30.343  1.00  0.00    +0.000 C 
ATOM    124  H21 UNL A   1      47.610  32.750  27.162  1.00  0.00    +0.000 H 
ATOM    125  H22 UNL A   1      48.286  30.539  25.957  1.00  0.00    +0.000 H 
ATOM    126  H23 UNL A   1      44.600  29.968  27.756  1.00  0.00    +0.000 H 
ATOM    127  H24 UNL A   1      39.760  26.106  29.307  1.00  0.00    +0.000 H 
ATOM    128  H25 UNL A   1      39.084  28.278  30.439  1.00  0.00    +0.000 H 
ENDROOT
BRANCH   19   18
ATOM    134  H31 UNL A   1      40.626  30.262  32.794  1.00  0.00    +0.000 H 
ATOM    135  H32 UNL A   1      38.705  30.942  34.106  1.00  0.00    +0.000 H 
ATOM     76  C53 UNL A   1      39.815  30.700  32.330  1.00  0.00    +0.000 C 
ATOM     77  C54 UNL A   1      38.730  31.128  33.091  1.00  0.00    +0.000 C 
ATOM     15  C11 UNL A   1      37.674  31.808  32.477  1.00  0.00    +0.000 C 
ATOM     16  C12 UNL A   1      37.646  31.953  31.088  1.00  0.00    +0.000 C 
ATOM     17  C13 UNL A   1      38.705  31.466  30.318  1.00  0.00    +0.000 C 
ATOM     18  C14 UNL A   1      39.812  30.864  30.936  1.00  0.00    +0.000 C 
ATOM    122  H19 UNL A   1      36.845  32.417  30.632  1.00  0.00    +0.000 H 
ATOM    123  H20 UNL A   1      38.674  31.551  29.290  1.00  0.00    +0.000 H 
BRANCH   15   13
ATOM     13  C10 UNL A   1      36.568  32.378  33.276  1.00  0.00    +0.000 C 
ATOM     14  O2  UNL A   1      36.716  32.558  34.481  1.00  0.00    +0.000 O 
BRANCH   13   12
ATOM    121  H18 UNL A   1      35.355  32.580  31.693  1.00  0.00    +0.000 H 
ATOM     12  N2  UNL A   1      35.373  32.684  32.672  1.00  0.00    +0.000 N 
BRANCH   12   11
ATOM     11  C9  UNL A   1      34.132  33.139  33.276  1.00  0.00    +0.000 C 
ATOM    119  H16 UNL A   1      33.317  32.613  32.826  1.00  0.00    +0.000 H 
ATOM    120  H17 UNL A   1      34.191  32.943  34.328  1.00  0.00    +0.000 H 
BRANCH   11   10
ATOM     10  C8  UNL A   1      33.913  34.636  33.094  1.00  0.00    +0.000 C 
ATOM    117  H14 UNL A   1      32.863  34.830  33.171  1.00  0.00    +0.000 H 
ATOM    118  H15 UNL A   1      34.489  35.120  33.854  1.00  0.00    +0.000 H 
BRANCH   10    9
ATOM      9  C7  UNL A   1      34.404  35.199  31.759  1.00  0.00    +0.000 C 
ATOM    115  H12 UNL A   1      35.287  35.774  31.947  1.00  0.00    +0.000 H 
ATOM    116  H13 UNL A   1      34.573  34.354  31.125  1.00  0.00    +0.000 H 
BRANCH    9    8
ATOM    113  H10 UNL A   1      32.550  36.222  31.653  1.00  0.00    +0.000 H 
ATOM    114  H11 UNL A   1      33.925  37.003  30.810  1.00  0.00    +0.000 H 
ATOM      8  C6  UNL A   1      33.403  36.092  31.022  1.00  0.00    +0.000 C 
BRANCH    8    7
ATOM    111  H8  UNL A   1      32.557  34.562  29.813  1.00  0.00    +0.000 H 
ATOM      7  C5  UNL A   1      32.914  35.560  29.668  1.00  0.00    +0.000 C 
ATOM    112  H9  UNL A   1      32.155  36.238  29.336  1.00  0.00    +0.000 H 
BRANCH    7    6
ATOM    110  H7  UNL A   1      34.802  36.138  28.870  1.00  0.00    +0.000 H 
ATOM    109  H6  UNL A   1      33.547  35.907  27.657  1.00  0.00    +0.000 H 
ATOM      6  C4  UNL A   1      33.975  35.531  28.561  1.00  0.00    +0.000 C 
BRANCH    6    5
ATOM    108  H5  UNL A   1      35.426  34.029  28.439  1.00  0.00    +0.000 H 
ATOM      5  N1  UNL A   1      34.460  34.185  28.330  1.00  0.00    +0.000 N 
BRANCH    5    3
ATOM      3  C3  UNL A   1      33.689  33.111  27.973  1.00  0.00    +0.000 C 
ATOM      4  O1  UNL A   1      32.578  33.368  27.508  1.00  0.00    +0.000 O 
BRANCH    3    2
ATOM      2  C2  UNL A   1      34.254  31.692  28.155  1.00  0.00    +0.000 C 
ATOM    107  H4  UNL A   1      34.006  31.428  29.162  1.00  0.00    +0.000 H 
BRANCH    2    1
ATOM      1  C1  UNL A   1      35.768  31.725  27.904  1.00  0.00    +0.000 C 
ATOM    106  H3  UNL A   1      35.956  32.040  26.899  1.00  0.00    +0.000 H 
ATOM    105  H2  UNL A   1      36.228  32.410  28.585  1.00  0.00    +0.000 H 
ATOM    104  H1  UNL A   1      36.175  30.746  28.053  1.00  0.00    +0.000 H 
ENDBRANCH    2    1
BRANCH    2   78
ATOM    101  C75 UNL A   1      31.944  29.729  25.776  1.00  0.00    +0.000 C 
ATOM    102  F16 UNL A   1      30.763  29.925  25.167  1.00  0.00    +0.000 F 
ATOM    103  C76 UNL A   1      32.379  30.699  26.676  1.00  0.00    +0.000 C 
ATOM    136  H33 UNL A   1      35.235  29.248  27.597  1.00  0.00    +0.000 H 
ATOM    137  H34 UNL A   1      34.481  27.584  26.016  1.00  0.00    +0.000 H 
ATOM     78  C55 UNL A   1      33.622  30.585  27.308  1.00  0.00    +0.000 C 
ATOM     79  C56 UNL A   1      34.355  29.403  27.081  1.00  0.00    +0.000 C 
ATOM     80  C57 UNL A   1      33.916  28.434  26.168  1.00  0.00    +0.000 C 
ATOM     81  C58 UNL A   1      32.719  28.607  25.462  1.00  0.00    +0.000 C 
ATOM    154  H51 UNL A   1      31.777  31.512  26.879  1.00  0.00    +0.000 H 
BRANCH   81   82
ATOM    100  C74 UNL A   1      32.701  26.358  24.417  1.00  0.00    +0.000 C 
ATOM    138  H35 UNL A   1      31.353  29.160  23.169  1.00  0.00    +0.000 H 
ATOM    139  H36 UNL A   1      30.759  27.627  21.387  1.00  0.00    +0.000 H 
ATOM    140  H37 UNL A   1      31.381  25.284  21.535  1.00  0.00    +0.000 H 
ATOM     82  C59 UNL A   1      32.348  27.719  24.351  1.00  0.00    +0.000 C 
ATOM     83  C60 UNL A   1      31.629  28.169  23.235  1.00  0.00    +0.000 C 
ATOM     84  C61 UNL A   1      31.281  27.283  22.208  1.00  0.00    +0.000 C 
ATOM     85  C62 UNL A   1      31.637  25.936  22.292  1.00  0.00    +0.000 C 
ATOM     86  C63 UNL A   1      32.340  25.477  23.404  1.00  0.00    +0.000 C 
ATOM    153  H50 UNL A   1      33.237  26.010  25.227  1.00  0.00    +0.000 H 
BRANCH   86   87
ATOM     87  O3  UNL A   1      32.700  24.109  23.388  1.00  0.00    +0.000 O 
BRANCH   87   88
ATOM     89  O4  UNL A   1      31.793  21.972  23.098  1.00  0.00    +0.000 O 
ATOM     88  C64 UNL A   1      31.830  23.053  23.661  1.00  0.00    +0.000 C 
BRANCH   88   90
ATOM     90  N7  UNL A   1      30.965  23.325  24.691  1.00  0.00    +0.000 N 
ATOM    141  H38 UNL A   1      30.311  24.050  24.566  1.00  0.00    +0.000 H 
BRANCH   90   91
ATOM     91  C65 UNL A   1      30.953  22.613  25.948  1.00  0.00    +0.000 C 
ATOM    142  H39 UNL A   1      31.301  21.617  25.771  1.00  0.00    +0.000 H 
ATOM    143  H40 UNL A   1      29.946  22.647  26.308  1.00  0.00    +0.000 H 
BRANCH   91   92
ATOM    145  H42 UNL A   1      32.021  24.229  26.681  1.00  0.00    +0.000 H 
ATOM     92  C66 UNL A   1      31.827  23.238  27.036  1.00  0.00    +0.000 C 
ATOM    144  H41 UNL A   1      31.284  23.169  27.957  1.00  0.00    +0.000 H 
BRANCH   92   93
ATOM    146  H43 UNL A   1      33.082  21.596  27.447  1.00  0.00    +0.000 H 
ATOM    147  H44 UNL A   1      33.589  23.231  28.100  1.00  0.00    +0.000 H 
ATOM     93  C67 UNL A   1      33.219  22.645  27.284  1.00  0.00    +0.000 C 
BRANCH   93   94
ATOM     97  C71 UNL A   1      36.254  22.873  24.205  1.00  0.00    +0.000 C 
ATOM     98  C72 UNL A   1      35.641  21.668  24.525  1.00  0.00    +0.000 C 
ATOM     99  C73 UNL A   1      34.673  21.626  25.532  1.00  0.00    +0.000 C 
ATOM    148  H45 UNL A   1      34.697  24.847  26.420  1.00  0.00    +0.000 H 
ATOM    149  H46 UNL A   1      36.356  24.926  24.657  1.00  0.00    +0.000 H 
ATOM    150  H47 UNL A   1      36.966  22.910  23.458  1.00  0.00    +0.000 H 
ATOM    151  H48 UNL A   1      35.901  20.806  24.023  1.00  0.00    +0.000 H 
ATOM    152  H49 UNL A   1      34.216  20.729  25.756  1.00  0.00    +0.000 H 
ATOM     94  C68 UNL A   1      34.308  22.783  26.245  1.00  0.00    +0.000 C 
ATOM     95  C69 UNL A   1      34.942  23.983  25.911  1.00  0.00    +0.000 C 
ATOM     96  C70 UNL A   1      35.904  24.029  24.896  1.00  0.00    +0.000 C 
ENDBRANCH   93   94
ENDBRANCH   92   93
ENDBRANCH   91   92
ENDBRANCH   90   91
ENDBRANCH   88   90
ENDBRANCH   87   88
ENDBRANCH   86   87
ENDBRANCH   81   82
ENDBRANCH    2   78
ENDBRANCH    3    2
ENDBRANCH    5    3
ENDBRANCH    6    5
ENDBRANCH    7    6
ENDBRANCH    8    7
ENDBRANCH    9    8
ENDBRANCH   10    9
ENDBRANCH   11   10
ENDBRANCH   12   11
ENDBRANCH   13   12
ENDBRANCH   15   13
ENDBRANCH   19   18
BRANCH   23   24
ATOM     33  C24 UNL A   1      45.129  35.034  27.633  1.00  0.00    +0.000 C 
ATOM     34  F5  UNL A   1      44.289  34.727  26.632  1.00  0.00    +0.000 F 
ATOM     24  C19 UNL A   1      45.509  34.055  28.563  1.00  0.00    +0.000 C 
ATOM     25  C20 UNL A   1      46.393  34.431  29.586  1.00  0.00    +0.000 C 
ATOM     26  F1  UNL A   1      46.777  33.535  30.507  1.00  0.00    +0.000 F 
ATOM     27  C21 UNL A   1      46.855  35.740  29.690  1.00  0.00    +0.000 C 
ATOM     28  F2  UNL A   1      47.661  36.086  30.703  1.00  0.00    +0.000 F 
ATOM     29  C22 UNL A   1      46.470  36.689  28.755  1.00  0.00    +0.000 C 
ATOM     30  F3  UNL A   1      46.919  37.949  28.854  1.00  0.00    +0.000 F 
ATOM     31  C23 UNL A   1      45.614  36.336  27.723  1.00  0.00    +0.000 C 
ATOM     32  F4  UNL A   1      45.249  37.250  26.814  1.00  0.00    +0.000 F 
ENDBRANCH   23   24
BRANCH   40   41
ATOM     41  C30 UNL A   1      47.527  27.859  25.478  1.00  0.00    +0.000 C 
ATOM     42  C31 UNL A   1      47.491  27.809  24.077  1.00  0.00    +0.000 C 
ATOM     43  F6  UNL A   1      46.385  28.185  23.417  1.00  0.00    +0.000 F 
ATOM     44  C32 UNL A   1      48.581  27.337  23.351  1.00  0.00    +0.000 C 
ATOM     45  F7  UNL A   1      48.510  27.259  22.015  1.00  0.00    +0.000 F 
ATOM     46  C33 UNL A   1      49.734  26.936  24.008  1.00  0.00    +0.000 C 
ATOM     47  F8  UNL A   1      50.784  26.487  23.307  1.00  0.00    +0.000 F 
ATOM     48  C34 UNL A   1      49.797  26.992  25.392  1.00  0.00    +0.000 C 
ATOM     49  F9  UNL A   1      50.915  26.614  26.028  1.00  0.00    +0.000 F 
ATOM     50  C35 UNL A   1      48.700  27.439  26.123  1.00  0.00    +0.000 C 
ATOM     51  F10 UNL A   1      48.785  27.472  27.461  1.00  0.00    +0.000 F 
ENDBRANCH   40   41
BRANCH   55   56
ATOM     65  C44 UNL A   1      42.167  23.793  28.391  1.00  0.00    +0.000 C 
ATOM     66  F15 UNL A   1      43.227  23.945  29.200  1.00  0.00    +0.000 F 
ATOM     56  C39 UNL A   1      41.635  24.899  27.715  1.00  0.00    +0.000 C 
ATOM     57  C40 UNL A   1      40.531  24.685  26.878  1.00  0.00    +0.000 C 
ATOM     58  F11 UNL A   1      39.975  25.718  26.228  1.00  0.00    +0.000 F 
ATOM     59  C41 UNL A   1      39.972  23.418  26.736  1.00  0.00    +0.000 C 
ATOM     60  F12 UNL A   1      38.892  23.247  25.959  1.00  0.00    +0.000 F 
ATOM     61  C42 UNL A   1      40.521  22.335  27.406  1.00  0.00    +0.000 C 
ATOM     62  F13 UNL A   1      39.986  21.116  27.265  1.00  0.00    +0.000 F 
ATOM     63  C43 UNL A   1      41.622  22.521  28.229  1.00  0.00    +0.000 C 
ATOM     64  F14 UNL A   1      42.163  21.475  28.869  1.00  0.00    +0.000 F 
ENDBRANCH   55   56
TORSDOF 25
ENDMDL
MODEL 4
REMARK VINA RESULT:     -10.6     24.804     29.440
ROOT
ATOM    129  H26 UNL A   1      48.606  12.631  48.781  1.00  0.00    +0.000 H 
ATOM    130  H27 UNL A   1      51.862  16.360  49.660  1.00  0.00    +0.000 H 
ATOM    131  H28 UNL A   1      52.722  14.973  51.633  1.00  0.00    +0.000 H 
ATOM    132  H29 UNL A   1      45.723   7.983  49.876  1.00  0.00    +0.000 H 
ATOM    133  H30 UNL A   1      45.154   9.115  47.652  1.00  0.00    +0.000 H 
ATOM     19  C15 UNL A   1      46.527  11.576  47.237  1.00  0.00    +0.000 C 
ATOM     20  C16 UNL A   1      46.714  10.600  48.363  1.00  0.00    +0.000 C 
ATOM     21  N3  UNL A   1      47.534  10.658  49.383  1.00  0.00    +0.000 N 
ATOM     22  C17 UNL A   1      47.267   9.529  50.146  1.00  0.00    +0.000 C 
ATOM     23  C18 UNL A   1      47.888   9.105  51.272  1.00  0.00    +0.000 C 
ATOM     35  C25 UNL A   1      48.992   9.786  51.896  1.00  0.00    +0.000 C 
ATOM     36  C26 UNL A   1      49.732   9.402  53.000  1.00  0.00    +0.000 C 
ATOM     37  C27 UNL A   1      50.680  10.397  53.260  1.00  0.00    +0.000 C 
ATOM     38  C28 UNL A   1      50.557  11.383  52.294  1.00  0.00    +0.000 C 
ATOM     39  N4  UNL A   1      49.516  10.997  51.465  1.00  0.00    +0.000 N 
ATOM     40  C29 UNL A   1      51.328  12.589  52.138  1.00  0.00    +0.000 C 
ATOM     52  C36 UNL A   1      51.155  13.501  51.151  1.00  0.00    +0.000 C 
ATOM     53  N5  UNL A   1      50.243  13.493  50.106  1.00  0.00    +0.000 N 
ATOM     54  C37 UNL A   1      50.461  14.593  49.429  1.00  0.00    +0.000 C 
ATOM     55  C38 UNL A   1      49.781  15.091  48.182  1.00  0.00    +0.000 C 
ATOM     67  C45 UNL A   1      48.814  14.344  47.615  1.00  0.00    +0.000 C 
ATOM     68  C46 UNL A   1      48.074  14.692  46.406  1.00  0.00    +0.000 C 
ATOM     69  C47 UNL A   1      47.165  13.735  46.159  1.00  0.00    +0.000 C 
ATOM     70  C48 UNL A   1      47.282  12.690  47.176  1.00  0.00    +0.000 C 
ATOM     71  N6  UNL A   1      48.290  13.134  47.996  1.00  0.00    +0.000 N 
ATOM     72  C49 UNL A   1      51.525  15.440  49.984  1.00  0.00    +0.000 C 
ATOM     73  C50 UNL A   1      51.940  14.711  51.012  1.00  0.00    +0.000 C 
ATOM     74  C51 UNL A   1      46.179   8.828  49.499  1.00  0.00    +0.000 C 
ATOM     75  C52 UNL A   1      45.844   9.413  48.358  1.00  0.00    +0.000 C 
ATOM    124  H21 UNL A   1      49.607   8.530  53.538  1.00  0.00    +0.000 H 
ATOM    125  H22 UNL A   1      51.356  10.398  54.040  1.00  0.00    +0.000 H 
ATOM    126  H23 UNL A   1      49.195  11.506  50.686  1.00  0.00    +0.000 H 
ATOM    127  H24 UNL A   1      48.226  15.538  45.834  1.00  0.00    +0.000 H 
ATOM    128  H25 UNL A   1      46.492  13.738  45.377  1.00  0.00    +0.000 H 
ENDROOT
BRANCH   19   18
ATOM    134  H31 UNL A   1      44.008  12.484  47.265  1.00  0.00    +0.000 H 
ATOM    135  H32 UNL A   1      42.229  12.066  45.674  1.00  0.00    +0.000 H 
ATOM     76  C53 UNL A   1      44.192  11.916  46.424  1.00  0.00    +0.000 C 
ATOM     77  C54 UNL A   1      43.180  11.712  45.490  1.00  0.00    +0.000 C 
ATOM     15  C11 UNL A   1      43.455  11.024  44.304  1.00  0.00    +0.000 C 
ATOM     16  C12 UNL A   1      44.707  10.437  44.108  1.00  0.00    +0.000 C 
ATOM     17  C13 UNL A   1      45.703  10.588  45.075  1.00  0.00    +0.000 C 
ATOM     18  C14 UNL A   1      45.464  11.354  46.226  1.00  0.00    +0.000 C 
ATOM    122  H19 UNL A   1      44.895   9.893  43.251  1.00  0.00    +0.000 H 
ATOM    123  H20 UNL A   1      46.621  10.134  44.942  1.00  0.00    +0.000 H 
BRANCH   15   13
ATOM     13  C10 UNL A   1      42.433  10.897  43.243  1.00  0.00    +0.000 C 
ATOM     14  O2  UNL A   1      42.596  10.090  42.333  1.00  0.00    +0.000 O 
BRANCH   13   12
ATOM    121  H18 UNL A   1      40.477  11.245  43.513  1.00  0.00    +0.000 H 
ATOM     12  N2  UNL A   1      41.317  11.696  43.268  1.00  0.00    +0.000 N 
BRANCH   12   11
ATOM     11  C9  UNL A   1      41.203  13.117  42.982  1.00  0.00    +0.000 C 
ATOM    119  H16 UNL A   1      40.171  13.354  42.826  1.00  0.00    +0.000 H 
ATOM    120  H17 UNL A   1      41.605  13.651  43.819  1.00  0.00    +0.000 H 
BRANCH   11   10
ATOM     10  C8  UNL A   1      41.994  13.526  41.745  1.00  0.00    +0.000 C 
ATOM    117  H14 UNL A   1      43.036  13.458  41.979  1.00  0.00    +0.000 H 
ATOM    118  H15 UNL A   1      41.692  12.863  40.962  1.00  0.00    +0.000 H 
BRANCH   10    9
ATOM      9  C7  UNL A   1      41.711  14.943  41.242  1.00  0.00    +0.000 C 
ATOM    115  H12 UNL A   1      40.756  14.937  40.758  1.00  0.00    +0.000 H 
ATOM    116  H13 UNL A   1      41.748  15.577  42.102  1.00  0.00    +0.000 H 
BRANCH    9    8
ATOM    113  H10 UNL A   1      43.036  14.705  39.605  1.00  0.00    +0.000 H 
ATOM    114  H11 UNL A   1      42.253  16.310  39.752  1.00  0.00    +0.000 H 
ATOM      8  C6  UNL A   1      42.739  15.500  40.255  1.00  0.00    +0.000 C 
BRANCH    8    7
ATOM    111  H8  UNL A   1      44.550  15.298  41.352  1.00  0.00    +0.000 H 
ATOM      7  C5  UNL A   1      44.006  16.094  40.886  1.00  0.00    +0.000 C 
ATOM    112  H9  UNL A   1      44.544  16.566  40.091  1.00  0.00    +0.000 H 
BRANCH    7    6
ATOM    110  H7  UNL A   1      42.760  17.068  42.312  1.00  0.00    +0.000 H 
ATOM    109  H6  UNL A   1      43.887  18.141  41.486  1.00  0.00    +0.000 H 
ATOM      6  C4  UNL A   1      43.758  17.181  41.939  1.00  0.00    +0.000 C 
BRANCH    6    5
ATOM    108  H5  UNL A   1      45.575  17.442  42.940  1.00  0.00    +0.000 H 
ATOM      5  N1  UNL A   1      44.677  17.057  43.053  1.00  0.00    +0.000 N 
BRANCH    5    3
ATOM      3  C3  UNL A   1      44.400  16.451  44.249  1.00  0.00    +0.000 C 
ATOM      4  O1  UNL A   1      44.075  15.265  44.197  1.00  0.00    +0.000 O 
BRANCH    3    2
ATOM      2  C2  UNL A   1      44.528  17.268  45.547  1.00  0.00    +0.000 C 
ATOM    107  H4  UNL A   1      43.634  17.854  45.589  1.00  0.00    +0.000 H 
BRANCH    2    1
ATOM      1  C1  UNL A   1      45.799  18.125  45.471  1.00  0.00    +0.000 C 
ATOM    106  H3  UNL A   1      46.317  17.914  44.560  1.00  0.00    +0.000 H 
ATOM    105  H2  UNL A   1      45.533  19.161  45.499  1.00  0.00    +0.000 H 
ATOM    104  H1  UNL A   1      46.433  17.897  46.303  1.00  0.00    +0.000 H 
ENDBRANCH    2    1
BRANCH    2   78
ATOM    101  C75 UNL A   1      43.727  14.703  48.309  1.00  0.00    +0.000 C 
ATOM    102  F16 UNL A   1      42.802  13.756  48.535  1.00  0.00    +0.000 F 
ATOM    103  C76 UNL A   1      43.571  15.508  47.183  1.00  0.00    +0.000 C 
ATOM    136  H33 UNL A   1      46.249  17.446  47.609  1.00  0.00    +0.000 H 
ATOM    137  H34 UNL A   1      46.522  16.028  49.546  1.00  0.00    +0.000 H 
ATOM     78  C55 UNL A   1      44.524  16.480  46.859  1.00  0.00    +0.000 C 
ATOM     79  C56 UNL A   1      45.577  16.680  47.774  1.00  0.00    +0.000 C 
ATOM     80  C57 UNL A   1      45.733  15.862  48.902  1.00  0.00    +0.000 C 
ATOM     81  C58 UNL A   1      44.831  14.824  49.161  1.00  0.00    +0.000 C 
ATOM    154  H51 UNL A   1      42.743  15.386  46.580  1.00  0.00    +0.000 H 
BRANCH   81   82
ATOM    100  C74 UNL A   1      44.254  12.696  50.296  1.00  0.00    +0.000 C 
ATOM    138  H35 UNL A   1      46.791  14.748  51.055  1.00  0.00    +0.000 H 
ATOM    139  H36 UNL A   1      47.166  13.043  52.737  1.00  0.00    +0.000 H 
ATOM    140  H37 UNL A   1      45.704  11.107  52.859  1.00  0.00    +0.000 H 
ATOM     82  C59 UNL A   1      45.091  13.824  50.206  1.00  0.00    +0.000 C 
ATOM     83  C60 UNL A   1      46.160  13.934  51.106  1.00  0.00    +0.000 C 
ATOM     84  C61 UNL A   1      46.381  12.947  52.074  1.00  0.00    +0.000 C 
ATOM     85  C62 UNL A   1      45.542  11.833  52.145  1.00  0.00    +0.000 C 
ATOM     86  C63 UNL A   1      44.485  11.708  51.247  1.00  0.00    +0.000 C 
ATOM    153  H50 UNL A   1      43.457  12.601  49.647  1.00  0.00    +0.000 H 
BRANCH   86   87
ATOM     87  O3  UNL A   1      43.657  10.573  51.417  1.00  0.00    +0.000 O 
BRANCH   87   88
ATOM     89  O4  UNL A   1      42.634   9.571  53.267  1.00  0.00    +0.000 O 
ATOM     88  C64 UNL A   1      42.687  10.438  52.411  1.00  0.00    +0.000 C 
BRANCH   88   90
ATOM     90  N7  UNL A   1      41.735  11.425  52.368  1.00  0.00    +0.000 N 
ATOM    141  H38 UNL A   1      42.026  12.338  52.141  1.00  0.00    +0.000 H 
BRANCH   90   91
ATOM     91  C65 UNL A   1      40.332  11.209  52.634  1.00  0.00    +0.000 C 
ATOM    142  H39 UNL A   1      40.233  10.846  53.634  1.00  0.00    +0.000 H 
ATOM    143  H40 UNL A   1      39.986  10.512  51.899  1.00  0.00    +0.000 H 
BRANCH   91   92
ATOM    145  H42 UNL A   1      39.531  12.711  51.452  1.00  0.00    +0.000 H 
ATOM     92  C66 UNL A   1      39.462  12.459  52.490  1.00  0.00    +0.000 C 
ATOM    144  H41 UNL A   1      38.485  12.208  52.848  1.00  0.00    +0.000 H 
BRANCH   92   93
ATOM    146  H43 UNL A   1      40.284  13.433  54.169  1.00  0.00    +0.000 H 
ATOM    147  H44 UNL A   1      39.009  14.334  53.211  1.00  0.00    +0.000 H 
ATOM     93  C67 UNL A   1      39.898  13.738  53.219  1.00  0.00    +0.000 C 
BRANCH   93   94
ATOM     97  C71 UNL A   1      42.694  16.473  51.364  1.00  0.00    +0.000 C 
ATOM     98  C72 UNL A   1      41.472  16.179  50.771  1.00  0.00    +0.000 C 
ATOM     99  C73 UNL A   1      40.597  15.284  51.390  1.00  0.00    +0.000 C 
ATOM    148  H45 UNL A   1      42.438  14.513  54.070  1.00  0.00    +0.000 H 
ATOM    149  H46 UNL A   1      43.945  16.086  53.011  1.00  0.00    +0.000 H 
ATOM    150  H47 UNL A   1      43.342  17.139  50.914  1.00  0.00    +0.000 H 
ATOM    151  H48 UNL A   1      41.213  16.619  49.876  1.00  0.00    +0.000 H 
ATOM    152  H49 UNL A   1      39.687  15.079  50.948  1.00  0.00    +0.000 H 
ATOM     94  C68 UNL A   1      40.929  14.656  52.605  1.00  0.00    +0.000 C 
ATOM     95  C69 UNL A   1      42.166  14.961  53.180  1.00  0.00    +0.000 C 
ATOM     96  C70 UNL A   1      43.039  15.866  52.568  1.00  0.00    +0.000 C 
ENDBRANCH   93   94
ENDBRANCH   92   93
ENDBRANCH   91   92
ENDBRANCH   90   91
ENDBRANCH   88   90
ENDBRANCH   87   88
ENDBRANCH   86   87
ENDBRANCH   81   82
ENDBRANCH    2   78
ENDBRANCH    3    2
ENDBRANCH    5    3
ENDBRANCH    6    5
ENDBRANCH    7    6
ENDBRANCH    8    7
ENDBRANCH    9    8
ENDBRANCH   10    9
ENDBRANCH   11   10
ENDBRANCH   12   11
ENDBRANCH   13   12
ENDBRANCH   15   13
ENDBRANCH   19   18
BRANCH   23   24
ATOM     33  C24 UNL A   1      47.970   6.604  51.576  1.00  0.00    +0.000 C 
ATOM     34  F5  UNL A   1      48.997   6.545  50.713  1.00  0.00    +0.000 F 
ATOM     24  C19 UNL A   1      47.389   7.838  51.901  1.00  0.00    +0.000 C 
ATOM     25  C20 UNL A   1      46.316   7.840  52.805  1.00  0.00    +0.000 C 
ATOM     26  F1  UNL A   1      45.735   8.996  53.158  1.00  0.00    +0.000 F 
ATOM     27  C21 UNL A   1      45.862   6.657  53.382  1.00  0.00    +0.000 C 
ATOM     28  F2  UNL A   1      44.867   6.690  54.279  1.00  0.00    +0.000 F 
ATOM     29  C22 UNL A   1      46.448   5.447  53.040  1.00  0.00    +0.000 C 
ATOM     30  F3  UNL A   1      46.007   4.309  53.593  1.00  0.00    +0.000 F 
ATOM     31  C23 UNL A   1      47.496   5.419  52.133  1.00  0.00    +0.000 C 
ATOM     32  F4  UNL A   1      48.056   4.250  51.795  1.00  0.00    +0.000 F 
ENDBRANCH   23   24
BRANCH   40   41
ATOM     41  C30 UNL A   1      52.424  12.851  53.129  1.00  0.00    +0.000 C 
ATOM     42  C31 UNL A   1      53.727  12.377  52.924  1.00  0.00    +0.000 C 
ATOM     43  F6  UNL A   1      54.010  11.626  51.849  1.00  0.00    +0.000 F 
ATOM     44  C32 UNL A   1      54.737  12.644  53.844  1.00  0.00    +0.000 C 
ATOM     45  F7  UNL A   1      55.966  12.146  53.649  1.00  0.00    +0.000 F 
ATOM     46  C33 UNL A   1      54.471  13.411  54.967  1.00  0.00    +0.000 C 
ATOM     47  F8  UNL A   1      55.446  13.672  55.849  1.00  0.00    +0.000 F 
ATOM     48  C34 UNL A   1      53.192  13.904  55.181  1.00  0.00    +0.000 C 
ATOM     49  F9  UNL A   1      52.936  14.654  56.263  1.00  0.00    +0.000 F 
ATOM     50  C35 UNL A   1      52.174  13.617  54.277  1.00  0.00    +0.000 C 
ATOM     51  F10 UNL A   1      50.944  14.097  54.516  1.00  0.00    +0.000 F 
ENDBRANCH   40   41
BRANCH   55   56
ATOM     65  C44 UNL A   1      51.198  16.434  46.593  1.00  0.00    +0.000 C 
ATOM     66  F15 UNL A   1      51.829  15.313  46.212  1.00  0.00    +0.000 F 
ATOM     56  C39 UNL A   1      50.184  16.376  47.558  1.00  0.00    +0.000 C 
ATOM     57  C40 UNL A   1      49.559  17.577  47.924  1.00  0.00    +0.000 C 
ATOM     58  F11 UNL A   1      48.569  17.567  48.828  1.00  0.00    +0.000 F 
ATOM     59  C41 UNL A   1      49.925  18.785  47.336  1.00  0.00    +0.000 C 
ATOM     60  F12 UNL A   1      49.286  19.913  47.676  1.00  0.00    +0.000 F 
ATOM     61  C42 UNL A   1      50.938  18.821  46.390  1.00  0.00    +0.000 C 
ATOM     62  F13 UNL A   1      51.292  19.984  45.829  1.00  0.00    +0.000 F 
ATOM     63  C43 UNL A   1      51.579  17.647  46.023  1.00  0.00    +0.000 C 
ATOM     64  F14 UNL A   1      52.567  17.679  45.118  1.00  0.00    +0.000 F 
ENDBRANCH   55   56
TORSDOF 25
ENDMDL
MODEL 5
REMARK VINA RESULT:     -10.6     25.409     30.234
ROOT
ATOM    129  H26 UNL A   1      48.521  11.490  49.349  1.00  0.00    +0.000 H 
ATOM    130  H27 UNL A   1      52.369  14.408  50.750  1.00  0.00    +0.000 H 
ATOM    131  H28 UNL A   1      52.769  12.747  52.657  1.00  0.00    +0.000 H 
ATOM    132  H29 UNL A   1      44.691   7.468  49.861  1.00  0.00    +0.000 H 
ATOM    133  H30 UNL A   1      44.546   8.837  47.703  1.00  0.00    +0.000 H 
ATOM     19  C15 UNL A   1      46.410  10.987  47.585  1.00  0.00    +0.000 C 
ATOM     20  C16 UNL A   1      46.306   9.921  48.638  1.00  0.00    +0.000 C 
ATOM     21  N3  UNL A   1      47.032   9.742  49.713  1.00  0.00    +0.000 N 
ATOM     22  C17 UNL A   1      46.484   8.644  50.361  1.00  0.00    +0.000 C 
ATOM     23  C18 UNL A   1      46.912   8.028  51.488  1.00  0.00    +0.000 C 
ATOM     35  C25 UNL A   1      48.074   8.426  52.240  1.00  0.00    +0.000 C 
ATOM     36  C26 UNL A   1      48.628   7.827  53.357  1.00  0.00    +0.000 C 
ATOM     37  C27 UNL A   1      49.729   8.588  53.762  1.00  0.00    +0.000 C 
ATOM     38  C28 UNL A   1      49.885   9.640  52.873  1.00  0.00    +0.000 C 
ATOM     39  N4  UNL A   1      48.862   9.530  51.946  1.00  0.00    +0.000 N 
ATOM     40  C29 UNL A   1      50.892  10.670  52.869  1.00  0.00    +0.000 C 
ATOM     52  C36 UNL A   1      50.987  11.662  51.951  1.00  0.00    +0.000 C 
ATOM     53  N5  UNL A   1      50.181  11.909  50.849  1.00  0.00    +0.000 N 
ATOM     54  C37 UNL A   1      50.669  12.984  50.280  1.00  0.00    +0.000 C 
ATOM     55  C38 UNL A   1      50.208  13.692  49.035  1.00  0.00    +0.000 C 
ATOM     67  C45 UNL A   1      49.163  13.198  48.344  1.00  0.00    +0.000 C 
ATOM     68  C46 UNL A   1      48.610  13.769  47.120  1.00  0.00    +0.000 C 
ATOM     69  C47 UNL A   1      47.553  13.037  46.733  1.00  0.00    +0.000 C 
ATOM     70  C48 UNL A   1      47.374  11.924  47.667  1.00  0.00    +0.000 C 
ATOM     71  N6  UNL A   1      48.378  12.098  48.588  1.00  0.00    +0.000 N 
ATOM     72  C49 UNL A   1      51.830  13.557  50.974  1.00  0.00    +0.000 C 
ATOM     73  C50 UNL A   1      52.004  12.693  51.965  1.00  0.00    +0.000 C 
ATOM     74  C51 UNL A   1      45.336   8.225  49.586  1.00  0.00    +0.000 C 
ATOM     75  C52 UNL A   1      45.221   8.940  48.477  1.00  0.00    +0.000 C 
ATOM    124  H21 UNL A   1      48.288   6.965  53.812  1.00  0.00    +0.000 H 
ATOM    125  H22 UNL A   1      50.325   8.399  54.584  1.00  0.00    +0.000 H 
ATOM    126  H23 UNL A   1      48.714  10.144  51.191  1.00  0.00    +0.000 H 
ATOM    127  H24 UNL A   1      48.974  14.602  46.630  1.00  0.00    +0.000 H 
ATOM    128  H25 UNL A   1      46.962  13.229  45.910  1.00  0.00    +0.000 H 
ENDROOT
BRANCH   19   18
ATOM    134  H31 UNL A   1      46.520   9.816  45.179  1.00  0.00    +0.000 H 
ATOM    135  H32 UNL A   1      44.947   9.980  43.342  1.00  0.00    +0.000 H 
ATOM     76  C53 UNL A   1      45.654  10.368  45.289  1.00  0.00    +0.000 C 
ATOM     77  C54 UNL A   1      44.733  10.427  44.247  1.00  0.00    +0.000 C 
ATOM     15  C11 UNL A   1      43.518  11.094  44.429  1.00  0.00    +0.000 C 
ATOM     16  C12 UNL A   1      43.276  11.804  45.608  1.00  0.00    +0.000 C 
ATOM     17  C13 UNL A   1      44.230  11.798  46.629  1.00  0.00    +0.000 C 
ATOM     18  C14 UNL A   1      45.412  11.055  46.490  1.00  0.00    +0.000 C 
ATOM    122  H19 UNL A   1      42.397  12.332  45.724  1.00  0.00    +0.000 H 
ATOM    123  H20 UNL A   1      44.063  12.342  47.490  1.00  0.00    +0.000 H 
BRANCH   15   13
ATOM     13  C10 UNL A   1      42.471  11.071  43.384  1.00  0.00    +0.000 C 
ATOM     14  O2  UNL A   1      41.656  10.155  43.359  1.00  0.00    +0.000 O 
BRANCH   13   12
ATOM    121  H18 UNL A   1      43.285  12.519  42.262  1.00  0.00    +0.000 H 
ATOM     12  N2  UNL A   1      42.431  12.062  42.434  1.00  0.00    +0.000 N 
BRANCH   12   11
ATOM     11  C9  UNL A   1      41.301  12.529  41.648  1.00  0.00    +0.000 C 
ATOM    119  H16 UNL A   1      40.920  11.711  41.073  1.00  0.00    +0.000 H 
ATOM    120  H17 UNL A   1      40.564  12.906  42.328  1.00  0.00    +0.000 H 
BRANCH   11   10
ATOM     10  C8  UNL A   1      41.681  13.662  40.701  1.00  0.00    +0.000 C 
ATOM    117  H14 UNL A   1      42.657  13.457  40.313  1.00  0.00    +0.000 H 
ATOM    118  H15 UNL A   1      40.923  13.691  39.947  1.00  0.00    +0.000 H 
BRANCH   10    9
ATOM      9  C7  UNL A   1      41.705  15.051  41.340  1.00  0.00    +0.000 C 
ATOM    115  H12 UNL A   1      41.468  15.769  40.581  1.00  0.00    +0.000 H 
ATOM    116  H13 UNL A   1      40.993  15.024  42.137  1.00  0.00    +0.000 H 
BRANCH    9    8
ATOM    113  H10 UNL A   1      42.849  15.750  42.982  1.00  0.00    +0.000 H 
ATOM    114  H11 UNL A   1      43.674  14.597  41.886  1.00  0.00    +0.000 H 
ATOM      8  C6  UNL A   1      43.039  15.454  41.972  1.00  0.00    +0.000 C 
BRANCH    8    7
ATOM    111  H8  UNL A   1      44.720  16.226  40.925  1.00  0.00    +0.000 H 
ATOM      7  C5  UNL A   1      43.781  16.601  41.274  1.00  0.00    +0.000 C 
ATOM    112  H9  UNL A   1      43.140  16.938  40.486  1.00  0.00    +0.000 H 
BRANCH    7    6
ATOM    110  H7  UNL A   1      43.165  18.053  42.704  1.00  0.00    +0.000 H 
ATOM    109  H6  UNL A   1      44.335  18.650  41.531  1.00  0.00    +0.000 H 
ATOM      6  C4  UNL A   1      44.055  17.827  42.155  1.00  0.00    +0.000 C 
BRANCH    6    5
ATOM    108  H5  UNL A   1      46.014  17.377  42.734  1.00  0.00    +0.000 H 
ATOM      5  N1  UNL A   1      45.121  17.569  43.102  1.00  0.00    +0.000 N 
BRANCH    5    3
ATOM      3  C3  UNL A   1      44.992  17.570  44.465  1.00  0.00    +0.000 C 
ATOM      4  O1  UNL A   1      44.312  18.476  44.948  1.00  0.00    +0.000 O 
BRANCH    3    2
ATOM      2  C2  UNL A   1      45.673  16.457  45.281  1.00  0.00    +0.000 C 
ATOM    107  H4  UNL A   1      46.530  16.926  45.719  1.00  0.00    +0.000 H 
BRANCH    2    1
ATOM      1  C1  UNL A   1      46.043  15.305  44.336  1.00  0.00    +0.000 C 
ATOM    106  H3  UNL A   1      45.223  15.104  43.681  1.00  0.00    +0.000 H 
ATOM    105  H2  UNL A   1      46.902  15.578  43.760  1.00  0.00    +0.000 H 
ATOM    104  H1  UNL A   1      46.264  14.430  44.912  1.00  0.00    +0.000 H 
ENDBRANCH    2    1
BRANCH    2   78
ATOM    101  C75 UNL A   1      42.967  14.829  47.488  1.00  0.00    +0.000 C 
ATOM    102  F16 UNL A   1      41.698  14.410  47.342  1.00  0.00    +0.000 F 
ATOM    103  C76 UNL A   1      43.560  15.487  46.413  1.00  0.00    +0.000 C 
ATOM    136  H33 UNL A   1      46.523  16.103  47.810  1.00  0.00    +0.000 H 
ATOM    137  H34 UNL A   1      45.490  14.939  49.659  1.00  0.00    +0.000 H 
ATOM     78  C55 UNL A   1      44.893  15.904  46.477  1.00  0.00    +0.000 C 
ATOM     79  C56 UNL A   1      45.567  15.730  47.702  1.00  0.00    +0.000 C 
ATOM     80  C57 UNL A   1      44.967  15.060  48.778  1.00  0.00    +0.000 C 
ATOM     81  C58 UNL A   1      43.666  14.554  48.668  1.00  0.00    +0.000 C 
ATOM    154  H51 UNL A   1      43.010  15.670  45.560  1.00  0.00    +0.000 H 
BRANCH   81   82
ATOM    100  C74 UNL A   1      41.873  14.013  50.294  1.00  0.00    +0.000 C 
ATOM    138  H35 UNL A   1      44.611  12.192  49.649  1.00  0.00    +0.000 H 
ATOM    139  H36 UNL A   1      43.598  10.771  51.332  1.00  0.00    +0.000 H 
ATOM    140  H37 UNL A   1      41.480  11.397  52.344  1.00  0.00    +0.000 H 
ATOM     82  C59 UNL A   1      43.098  13.667  49.693  1.00  0.00    +0.000 C 
ATOM     83  C60 UNL A   1      43.716  12.470  50.081  1.00  0.00    +0.000 C 
ATOM     84  C61 UNL A   1      43.129  11.646  51.048  1.00  0.00    +0.000 C 
ATOM     85  C62 UNL A   1      41.912  12.004  51.630  1.00  0.00    +0.000 C 
ATOM     86  C63 UNL A   1      41.283  13.185  51.242  1.00  0.00    +0.000 C 
ATOM    153  H50 UNL A   1      41.407  14.894  50.027  1.00  0.00    +0.000 H 
BRANCH   86   87
ATOM     87  O3  UNL A   1      40.077  13.495  51.914  1.00  0.00    +0.000 O 
BRANCH   87   88
ATOM     89  O4  UNL A   1      39.174  13.388  54.069  1.00  0.00    +0.000 O 
ATOM     88  C64 UNL A   1      39.982  13.825  53.266  1.00  0.00    +0.000 C 
BRANCH   88   90
ATOM     90  N7  UNL A   1      40.935  14.726  53.667  1.00  0.00    +0.000 N 
ATOM    141  H38 UNL A   1      40.998  15.579  53.179  1.00  0.00    +0.000 H 
BRANCH   90   91
ATOM     91  C65 UNL A   1      41.851  14.503  54.760  1.00  0.00    +0.000 C 
ATOM    142  H39 UNL A   1      41.406  13.802  55.432  1.00  0.00    +0.000 H 
ATOM    143  H40 UNL A   1      42.028  15.458  55.209  1.00  0.00    +0.000 H 
BRANCH   91   92
ATOM    145  H42 UNL A   1      43.774  13.911  55.252  1.00  0.00    +0.000 H 
ATOM     92  C66 UNL A   1      43.218  13.961  54.339  1.00  0.00    +0.000 C 
ATOM    144  H41 UNL A   1      43.048  13.028  53.841  1.00  0.00    +0.000 H 
BRANCH   92   93
ATOM    146  H43 UNL A   1      43.975  15.832  53.735  1.00  0.00    +0.000 H 
ATOM    147  H44 UNL A   1      43.726  14.564  52.437  1.00  0.00    +0.000 H 
ATOM     93  C67 UNL A   1      44.088  14.819  53.411  1.00  0.00    +0.000 C 
BRANCH   93   94
ATOM     97  C71 UNL A   1      48.335  14.156  52.893  1.00  0.00    +0.000 C 
ATOM     98  C72 UNL A   1      47.460  14.106  51.814  1.00  0.00    +0.000 C 
ATOM     99  C73 UNL A   1      46.094  14.314  52.017  1.00  0.00    +0.000 C 
ATOM    148  H45 UNL A   1      46.117  14.778  55.326  1.00  0.00    +0.000 H 
ATOM    149  H46 UNL A   1      48.489  14.444  54.971  1.00  0.00    +0.000 H 
ATOM    150  H47 UNL A   1      49.346  14.008  52.747  1.00  0.00    +0.000 H 
ATOM    151  H48 UNL A   1      47.818  13.915  50.866  1.00  0.00    +0.000 H 
ATOM    152  H49 UNL A   1      45.453  14.286  51.209  1.00  0.00    +0.000 H 
ATOM     94  C68 UNL A   1      45.574  14.563  53.300  1.00  0.00    +0.000 C 
ATOM     95  C69 UNL A   1      46.470  14.601  54.372  1.00  0.00    +0.000 C 
ATOM     96  C70 UNL A   1      47.841  14.404  54.169  1.00  0.00    +0.000 C 
ENDBRANCH   93   94
ENDBRANCH   92   93
ENDBRANCH   91   92
ENDBRANCH   90   91
ENDBRANCH   88   90
ENDBRANCH   87   88
ENDBRANCH   86   87
ENDBRANCH   81   82
ENDBRANCH    2   78
ENDBRANCH    3    2
ENDBRANCH    5    3
ENDBRANCH    6    5
ENDBRANCH    7    6
ENDBRANCH    8    7
ENDBRANCH    9    8
ENDBRANCH   10    9
ENDBRANCH   11   10
ENDBRANCH   12   11
ENDBRANCH   13   12
ENDBRANCH   15   13
ENDBRANCH   19   18
BRANCH   23   24
ATOM     33  C24 UNL A   1      44.990   7.040  52.785  1.00  0.00    +0.000 C 
ATOM     34  F5  UNL A   1      44.590   8.278  53.112  1.00  0.00    +0.000 F 
ATOM     24  C19 UNL A   1      46.121   6.851  51.977  1.00  0.00    +0.000 C 
ATOM     25  C20 UNL A   1      46.496   5.535  51.670  1.00  0.00    +0.000 C 
ATOM     26  F1  UNL A   1      47.563   5.302  50.890  1.00  0.00    +0.000 F 
ATOM     27  C21 UNL A   1      45.753   4.451  52.131  1.00  0.00    +0.000 C 
ATOM     28  F2  UNL A   1      46.104   3.205  51.786  1.00  0.00    +0.000 F 
ATOM     29  C22 UNL A   1      44.643   4.661  52.935  1.00  0.00    +0.000 C 
ATOM     30  F3  UNL A   1      43.931   3.617  53.382  1.00  0.00    +0.000 F 
ATOM     31  C23 UNL A   1      44.265   5.953  53.268  1.00  0.00    +0.000 C 
ATOM     32  F4  UNL A   1      43.198   6.157  54.052  1.00  0.00    +0.000 F 
ENDBRANCH   23   24
BRANCH   40   41
ATOM     41  C30 UNL A   1      51.931  10.636  53.951  1.00  0.00    +0.000 C 
ATOM     42  C31 UNL A   1      53.138   9.942  53.786  1.00  0.00    +0.000 C 
ATOM     43  F6  UNL A   1      53.367   9.243  52.665  1.00  0.00    +0.000 F 
ATOM     44  C32 UNL A   1      54.100   9.935  54.792  1.00  0.00    +0.000 C 
ATOM     45  F7  UNL A   1      55.229   9.232  54.632  1.00  0.00    +0.000 F 
ATOM     46  C33 UNL A   1      53.887  10.643  55.965  1.00  0.00    +0.000 C 
ATOM     47  F8  UNL A   1      54.817  10.640  56.930  1.00  0.00    +0.000 F 
ATOM     48  C34 UNL A   1      52.706  11.350  56.142  1.00  0.00    +0.000 C 
ATOM     49  F9  UNL A   1      52.504  12.043  57.271  1.00  0.00    +0.000 F 
ATOM     50  C35 UNL A   1      51.731  11.338  55.149  1.00  0.00    +0.000 C 
ATOM     51  F10 UNL A   1      50.594  12.021  55.352  1.00  0.00    +0.000 F 
ENDBRANCH   40   41
BRANCH   55   56
ATOM     65  C44 UNL A   1      52.021  14.817  47.699  1.00  0.00    +0.000 C 
ATOM     66  F15 UNL A   1      52.476  13.617  47.310  1.00  0.00    +0.000 F 
ATOM     56  C39 UNL A   1      50.909  14.906  48.546  1.00  0.00    +0.000 C 
ATOM     57  C40 UNL A   1      50.477  16.185  48.928  1.00  0.00    +0.000 C 
ATOM     58  F11 UNL A   1      49.404  16.318  49.721  1.00  0.00    +0.000 F 
ATOM     59  C41 UNL A   1      51.123  17.328  48.467  1.00  0.00    +0.000 C 
ATOM     60  F12 UNL A   1      50.666  18.540  48.815  1.00  0.00    +0.000 F 
ATOM     61  C42 UNL A   1      52.228  17.217  47.637  1.00  0.00    +0.000 C 
ATOM     62  F13 UNL A   1      52.851  18.318  47.197  1.00  0.00    +0.000 F 
ATOM     63  C43 UNL A   1      52.682  15.962  47.258  1.00  0.00    +0.000 C 
ATOM     64  F14 UNL A   1      53.757  15.850  46.466  1.00  0.00    +0.000 F 
ENDBRANCH   55   56
TORSDOF 25
ENDMDL
MODEL 6
REMARK VINA RESULT:     -10.2     37.638     42.396
ROOT
ATOM    129  H26 UNL A   1      15.779  51.087   2.152  1.00  0.00    +0.000 H 
ATOM    130  H27 UNL A   1      17.687  50.740  -2.487  1.00  0.00    +0.000 H 
ATOM    131  H28 UNL A   1      18.133  53.257  -2.355  1.00  0.00    +0.000 H 
ATOM    132  H29 UNL A   1      13.769  53.640   6.686  1.00  0.00    +0.000 H 
ATOM    133  H30 UNL A   1      13.728  51.082   6.772  1.00  0.00    +0.000 H 
ATOM     19  C15 UNL A   1      14.597  49.843   4.360  1.00  0.00    +0.000 C 
ATOM     20  C16 UNL A   1      14.612  51.307   4.695  1.00  0.00    +0.000 C 
ATOM     21  N3  UNL A   1      15.021  52.319   3.973  1.00  0.00    +0.000 N 
ATOM     22  C17 UNL A   1      14.770  53.453   4.734  1.00  0.00    +0.000 C 
ATOM     23  C18 UNL A   1      15.065  54.743   4.450  1.00  0.00    +0.000 C 
ATOM     35  C25 UNL A   1      15.731  55.179   3.250  1.00  0.00    +0.000 C 
ATOM     36  C26 UNL A   1      16.134  56.455   2.901  1.00  0.00    +0.000 C 
ATOM     37  C27 UNL A   1      16.707  56.400   1.626  1.00  0.00    +0.000 C 
ATOM     38  C28 UNL A   1      16.697  55.082   1.198  1.00  0.00    +0.000 C 
ATOM     39  N4  UNL A   1      16.093  54.344   2.203  1.00  0.00    +0.000 N 
ATOM     40  C29 UNL A   1      17.198  54.534  -0.036  1.00  0.00    +0.000 C 
ATOM     52  C36 UNL A   1      17.165  53.224  -0.377  1.00  0.00    +0.000 C 
ATOM     53  N5  UNL A   1      16.668  52.148   0.345  1.00  0.00    +0.000 N 
ATOM     54  C37 UNL A   1      16.853  51.092  -0.408  1.00  0.00    +0.000 C 
ATOM     55  C38 UNL A   1      16.527  49.652  -0.121  1.00  0.00    +0.000 C 
ATOM     67  C45 UNL A   1      15.983  49.323   1.066  1.00  0.00    +0.000 C 
ATOM     68  C46 UNL A   1      15.621  47.973   1.488  1.00  0.00    +0.000 C 
ATOM     69  C47 UNL A   1      15.072  48.029   2.711  1.00  0.00    +0.000 C 
ATOM     70  C48 UNL A   1      15.072  49.417   3.173  1.00  0.00    +0.000 C 
ATOM     71  N6  UNL A   1      15.636  50.114   2.133  1.00  0.00    +0.000 N 
ATOM     72  C49 UNL A   1      17.469  51.383  -1.711  1.00  0.00    +0.000 C 
ATOM     73  C50 UNL A   1      17.671  52.691  -1.625  1.00  0.00    +0.000 C 
ATOM     74  C51 UNL A   1      14.130  53.009   5.954  1.00  0.00    +0.000 C 
ATOM     75  C52 UNL A   1      14.069  51.687   6.009  1.00  0.00    +0.000 C 
ATOM    124  H21 UNL A   1      16.031  57.302   3.481  1.00  0.00    +0.000 H 
ATOM    125  H22 UNL A   1      17.074  57.204   1.093  1.00  0.00    +0.000 H 
ATOM    126  H23 UNL A   1      15.942  53.372   2.178  1.00  0.00    +0.000 H 
ATOM    127  H24 UNL A   1      15.765  47.114   0.933  1.00  0.00    +0.000 H 
ATOM    128  H25 UNL A   1      14.707  47.222   3.240  1.00  0.00    +0.000 H 
ENDROOT
BRANCH   19   18
ATOM    134  H31 UNL A   1      12.124  48.817   4.318  1.00  0.00    +0.000 H 
ATOM    135  H32 UNL A   1      11.090  47.290   5.891  1.00  0.00    +0.000 H 
ATOM     76  C53 UNL A   1      12.669  48.449   5.113  1.00  0.00    +0.000 C 
ATOM     77  C54 UNL A   1      12.086  47.540   5.991  1.00  0.00    +0.000 C 
ATOM     15  C11 UNL A   1      12.853  46.968   7.011  1.00  0.00    +0.000 C 
ATOM     16  C12 UNL A   1      14.165  47.395   7.227  1.00  0.00    +0.000 C 
ATOM     17  C13 UNL A   1      14.729  48.355   6.384  1.00  0.00    +0.000 C 
ATOM     18  C14 UNL A   1      13.996  48.867   5.302  1.00  0.00    +0.000 C 
ATOM    122  H19 UNL A   1      14.716  47.003   8.007  1.00  0.00    +0.000 H 
ATOM    123  H20 UNL A   1      15.691  48.689   6.557  1.00  0.00    +0.000 H 
BRANCH   15   13
ATOM     13  C10 UNL A   1      12.294  45.912   7.883  1.00  0.00    +0.000 C 
ATOM     14  O2  UNL A   1      11.681  44.972   7.386  1.00  0.00    +0.000 O 
BRANCH   13   12
ATOM    121  H18 UNL A   1      13.148  45.426   9.631  1.00  0.00    +0.000 H 
ATOM     12  N2  UNL A   1      12.445  45.998   9.245  1.00  0.00    +0.000 N 
BRANCH   12   11
ATOM     11  C9  UNL A   1      11.711  46.815  10.197  1.00  0.00    +0.000 C 
ATOM    119  H16 UNL A   1      11.915  46.460  11.185  1.00  0.00    +0.000 H 
ATOM    120  H17 UNL A   1      12.033  47.829  10.072  1.00  0.00    +0.000 H 
BRANCH   11   10
ATOM     10  C8  UNL A   1      10.206  46.772   9.960  1.00  0.00    +0.000 C 
ATOM    117  H14 UNL A   1      10.029  46.937   8.918  1.00  0.00    +0.000 H 
ATOM    118  H15 UNL A   1       9.875  45.814  10.300  1.00  0.00    +0.000 H 
BRANCH   10    9
ATOM      9  C7  UNL A   1       9.403  47.809  10.748  1.00  0.00    +0.000 C 
ATOM    115  H12 UNL A   1       9.737  47.783  11.765  1.00  0.00    +0.000 H 
ATOM    116  H13 UNL A   1       9.575  48.748  10.267  1.00  0.00    +0.000 H 
BRANCH    9    8
ATOM    113  H10 UNL A   1       7.680  46.709  10.186  1.00  0.00    +0.000 H 
ATOM    114  H11 UNL A   1       7.596  47.539  11.771  1.00  0.00    +0.000 H 
ATOM      8  C6  UNL A   1       7.887  47.598  10.743  1.00  0.00    +0.000 C 
BRANCH    8    7
ATOM    111  H8  UNL A   1       6.307  49.017  10.840  1.00  0.00    +0.000 H 
ATOM      7  C5  UNL A   1       7.063  48.741  10.135  1.00  0.00    +0.000 C 
ATOM    112  H9  UNL A   1       7.754  49.530   9.924  1.00  0.00    +0.000 H 
BRANCH    7    6
ATOM    110  H7  UNL A   1       6.242  49.318   8.257  1.00  0.00    +0.000 H 
ATOM    109  H6  UNL A   1       5.431  47.946   9.006  1.00  0.00    +0.000 H 
ATOM      6  C4  UNL A   1       6.375  48.408   8.805  1.00  0.00    +0.000 C 
BRANCH    6    5
ATOM    108  H5  UNL A   1       7.049  46.542   8.143  1.00  0.00    +0.000 H 
ATOM      5  N1  UNL A   1       7.181  47.508   8.004  1.00  0.00    +0.000 N 
BRANCH    5    3
ATOM      3  C3  UNL A   1       8.108  47.887   7.071  1.00  0.00    +0.000 C 
ATOM      4  O1  UNL A   1       8.722  46.978   6.512  1.00  0.00    +0.000 O 
BRANCH    3    2
ATOM      2  C2  UNL A   1       8.303  49.385   6.778  1.00  0.00    +0.000 C 
ATOM    107  H4  UNL A   1       7.366  49.835   7.031  1.00  0.00    +0.000 H 
BRANCH    2    1
ATOM      1  C1  UNL A   1       8.668  49.558   5.298  1.00  0.00    +0.000 C 
ATOM    106  H3  UNL A   1       8.495  48.640   4.778  1.00  0.00    +0.000 H 
ATOM    105  H2  UNL A   1       8.063  50.330   4.870  1.00  0.00    +0.000 H 
ATOM    104  H1  UNL A   1       9.701  49.827   5.214  1.00  0.00    +0.000 H 
ENDBRANCH    2    1
BRANCH    2   78
ATOM    101  C75 UNL A   1      11.570  50.521   8.478  1.00  0.00    +0.000 C 
ATOM    102  F16 UNL A   1      12.834  50.078   8.577  1.00  0.00    +0.000 F 
ATOM    103  C76 UNL A   1      10.645  49.707   7.828  1.00  0.00    +0.000 C 
ATOM    136  H33 UNL A   1       7.961  51.649   8.194  1.00  0.00    +0.000 H 
ATOM    137  H34 UNL A   1       9.579  53.063   9.299  1.00  0.00    +0.000 H 
ATOM     78  C55 UNL A   1       9.324  50.128   7.644  1.00  0.00    +0.000 C 
ATOM     79  C56 UNL A   1       8.948  51.350   8.237  1.00  0.00    +0.000 C 
ATOM     80  C57 UNL A   1       9.884  52.168   8.884  1.00  0.00    +0.000 C 
ATOM     81  C58 UNL A   1      11.228  51.785   8.972  1.00  0.00    +0.000 C 
ATOM    154  H51 UNL A   1      10.938  48.782   7.477  1.00  0.00    +0.000 H 
BRANCH   81   82
ATOM    100  C74 UNL A   1      13.216  52.257  10.377  1.00  0.00    +0.000 C 
ATOM    138  H35 UNL A   1      11.669  54.393   8.310  1.00  0.00    +0.000 H 
ATOM    139  H36 UNL A   1      13.419  55.857   9.128  1.00  0.00    +0.000 H 
ATOM    140  H37 UNL A   1      15.053  55.033  10.725  1.00  0.00    +0.000 H 
ATOM     82  C59 UNL A   1      12.262  52.715   9.449  1.00  0.00    +0.000 C 
ATOM     83  C60 UNL A   1      12.354  54.038   8.995  1.00  0.00    +0.000 C 
ATOM     84  C61 UNL A   1      13.367  54.882   9.463  1.00  0.00    +0.000 C 
ATOM     85  C62 UNL A   1      14.307  54.410  10.380  1.00  0.00    +0.000 C 
ATOM     86  C63 UNL A   1      14.232  53.092  10.827  1.00  0.00    +0.000 C 
ATOM    153  H50 UNL A   1      13.161  51.288  10.728  1.00  0.00    +0.000 H 
BRANCH   86   87
ATOM     87  O3  UNL A   1      15.196  52.709  11.789  1.00  0.00    +0.000 O 
BRANCH   87   88
ATOM     89  O4  UNL A   1      15.630  50.410  11.763  1.00  0.00    +0.000 O 
ATOM     88  C64 UNL A   1      15.304  51.432  12.343  1.00  0.00    +0.000 C 
BRANCH   88   90
ATOM     90  N7  UNL A   1      15.012  51.403  13.683  1.00  0.00    +0.000 N 
ATOM    141  H38 UNL A   1      15.468  52.048  14.269  1.00  0.00    +0.000 H 
BRANCH   90   91
ATOM     91  C65 UNL A   1      14.076  50.484  14.287  1.00  0.00    +0.000 C 
ATOM    142  H39 UNL A   1      14.571  49.984  15.093  1.00  0.00    +0.000 H 
ATOM    143  H40 UNL A   1      13.759  49.817  13.513  1.00  0.00    +0.000 H 
BRANCH   91   92
ATOM    145  H42 UNL A   1      12.373  50.392  15.464  1.00  0.00    +0.000 H 
ATOM     92  C66 UNL A   1      12.810  51.143  14.838  1.00  0.00    +0.000 C 
ATOM    144  H41 UNL A   1      13.112  52.045  15.330  1.00  0.00    +0.000 H 
BRANCH   92   93
ATOM    146  H43 UNL A   1      10.774  51.194  14.299  1.00  0.00    +0.000 H 
ATOM    147  H44 UNL A   1      12.001  51.032  12.949  1.00  0.00    +0.000 H 
ATOM     93  C67 UNL A   1      11.693  51.513  13.854  1.00  0.00    +0.000 C 
BRANCH   93   94
ATOM     97  C71 UNL A   1      11.328  55.658  12.658  1.00  0.00    +0.000 C 
ATOM     98  C72 UNL A   1      12.324  55.245  13.535  1.00  0.00    +0.000 C 
ATOM     99  C73 UNL A   1      12.408  53.902  13.910  1.00  0.00    +0.000 C 
ATOM    148  H45 UNL A   1       9.808  52.710  12.182  1.00  0.00    +0.000 H 
ATOM    149  H46 UNL A   1       9.678  55.033  11.512  1.00  0.00    +0.000 H 
ATOM    150  H47 UNL A   1      11.265  56.648  12.374  1.00  0.00    +0.000 H 
ATOM    151  H48 UNL A   1      12.999  55.929  13.911  1.00  0.00    +0.000 H 
ATOM    152  H49 UNL A   1      13.157  53.603  14.553  1.00  0.00    +0.000 H 
ATOM     94  C68 UNL A   1      11.493  52.949  13.426  1.00  0.00    +0.000 C 
ATOM     95  C69 UNL A   1      10.495  53.386  12.551  1.00  0.00    +0.000 C 
ATOM     96  C70 UNL A   1      10.416  54.729  12.165  1.00  0.00    +0.000 C 
ENDBRANCH   93   94
ENDBRANCH   92   93
ENDBRANCH   91   92
ENDBRANCH   90   91
ENDBRANCH   88   90
ENDBRANCH   87   88
ENDBRANCH   86   87
ENDBRANCH   81   82
ENDBRANCH    2   78
ENDBRANCH    3    2
ENDBRANCH    5    3
ENDBRANCH    6    5
ENDBRANCH    7    6
ENDBRANCH    8    7
ENDBRANCH    9    8
ENDBRANCH   10    9
ENDBRANCH   11   10
ENDBRANCH   12   11
ENDBRANCH   13   12
ENDBRANCH   15   13
ENDBRANCH   19   18
BRANCH   23   24
ATOM     33  C24 UNL A   1      13.325  56.121   5.645  1.00  0.00    +0.000 C 
ATOM     34  F5  UNL A   1      12.367  55.505   4.934  1.00  0.00    +0.000 F 
ATOM     24  C19 UNL A   1      14.673  55.780   5.460  1.00  0.00    +0.000 C 
ATOM     25  C20 UNL A   1      15.632  56.460   6.226  1.00  0.00    +0.000 C 
ATOM     26  F1  UNL A   1      16.933  56.161   6.096  1.00  0.00    +0.000 F 
ATOM     27  C21 UNL A   1      15.255  57.421   7.160  1.00  0.00    +0.000 C 
ATOM     28  F2  UNL A   1      16.185  58.023   7.913  1.00  0.00    +0.000 F 
ATOM     29  C22 UNL A   1      13.916  57.747   7.320  1.00  0.00    +0.000 C 
ATOM     30  F3  UNL A   1      13.555  58.676   8.216  1.00  0.00    +0.000 F 
ATOM     31  C23 UNL A   1      12.952  57.104   6.559  1.00  0.00    +0.000 C 
ATOM     32  F4  UNL A   1      11.660  57.424   6.706  1.00  0.00    +0.000 F 
ENDBRANCH   23   24
BRANCH   40   41
ATOM     41  C30 UNL A   1      17.826  55.481  -1.016  1.00  0.00    +0.000 C 
ATOM     42  C31 UNL A   1      17.078  56.079  -2.040  1.00  0.00    +0.000 C 
ATOM     43  F6  UNL A   1      15.782  55.771  -2.197  1.00  0.00    +0.000 F 
ATOM     44  C32 UNL A   1      17.671  56.970  -2.930  1.00  0.00    +0.000 C 
ATOM     45  F7  UNL A   1      16.948  57.499  -3.927  1.00  0.00    +0.000 F 
ATOM     46  C33 UNL A   1      19.011  57.302  -2.796  1.00  0.00    +0.000 C 
ATOM     47  F8  UNL A   1      19.578  58.164  -3.650  1.00  0.00    +0.000 F 
ATOM     48  C34 UNL A   1      19.765  56.734  -1.780  1.00  0.00    +0.000 C 
ATOM     49  F9  UNL A   1      21.058  57.061  -1.643  1.00  0.00    +0.000 F 
ATOM     50  C35 UNL A   1      19.183  55.823  -0.904  1.00  0.00    +0.000 C 
ATOM     51  F10 UNL A   1      19.939  55.281   0.062  1.00  0.00    +0.000 F 
ENDBRANCH   40   41
BRANCH   55   56
ATOM     65  C44 UNL A   1      15.981  48.360  -2.212  1.00  0.00    +0.000 C 
ATOM     66  F15 UNL A   1      14.878  49.104  -2.381  1.00  0.00    +0.000 F 
ATOM     56  C39 UNL A   1      16.824  48.591  -1.117  1.00  0.00    +0.000 C 
ATOM     57  C40 UNL A   1      17.962  47.782  -0.984  1.00  0.00    +0.000 C 
ATOM     58  F11 UNL A   1      18.808  47.982   0.037  1.00  0.00    +0.000 F 
ATOM     59  C41 UNL A   1      18.253  46.792  -1.919  1.00  0.00    +0.000 C 
ATOM     60  F12 UNL A   1      19.367  46.059  -1.790  1.00  0.00    +0.000 F 
ATOM     61  C42 UNL A   1      17.400  46.574  -2.990  1.00  0.00    +0.000 C 
ATOM     62  F13 UNL A   1      17.678  45.618  -3.886  1.00  0.00    +0.000 F 
ATOM     63  C43 UNL A   1      16.261  47.352  -3.134  1.00  0.00    +0.000 C 
ATOM     64  F14 UNL A   1      15.427  47.137  -4.161  1.00  0.00    +0.000 F 
ENDBRANCH   55   56
TORSDOF 25
ENDMDL
MODEL 7
REMARK VINA RESULT:     -10.2     25.437     30.181
ROOT
ATOM    129  H26 UNL A   1      48.663  11.255  49.448  1.00  0.00    +0.000 H 
ATOM    130  H27 UNL A   1      52.611  14.042  50.838  1.00  0.00    +0.000 H 
ATOM    131  H28 UNL A   1      53.007  12.324  52.695  1.00  0.00    +0.000 H 
ATOM    132  H29 UNL A   1      44.744   7.316  49.943  1.00  0.00    +0.000 H 
ATOM    133  H30 UNL A   1      44.590   8.742  47.822  1.00  0.00    +0.000 H 
ATOM     19  C15 UNL A   1      46.505  10.848  47.717  1.00  0.00    +0.000 C 
ATOM     20  C16 UNL A   1      46.395   9.759  48.746  1.00  0.00    +0.000 C 
ATOM     21  N3  UNL A   1      47.138   9.536  49.800  1.00  0.00    +0.000 N 
ATOM     22  C17 UNL A   1      46.576   8.435  50.433  1.00  0.00    +0.000 C 
ATOM     23  C18 UNL A   1      47.011   7.782  51.536  1.00  0.00    +0.000 C 
ATOM     35  C25 UNL A   1      48.198   8.132  52.272  1.00  0.00    +0.000 C 
ATOM     36  C26 UNL A   1      48.759   7.492  53.363  1.00  0.00    +0.000 C 
ATOM     37  C27 UNL A   1      49.887   8.216  53.763  1.00  0.00    +0.000 C 
ATOM     38  C28 UNL A   1      50.052   9.285  52.897  1.00  0.00    +0.000 C 
ATOM     39  N4  UNL A   1      49.007   9.224  51.989  1.00  0.00    +0.000 N 
ATOM     40  C29 UNL A   1      51.083  10.290  52.896  1.00  0.00    +0.000 C 
ATOM     52  C36 UNL A   1      51.184  11.301  52.001  1.00  0.00    +0.000 C 
ATOM     53  N5  UNL A   1      50.363  11.596  50.922  1.00  0.00    +0.000 N 
ATOM     54  C37 UNL A   1      50.866  12.672  50.370  1.00  0.00    +0.000 C 
ATOM     55  C38 UNL A   1      50.397  13.422  49.152  1.00  0.00    +0.000 C 
ATOM     67  C45 UNL A   1      49.326  12.971  48.471  1.00  0.00    +0.000 C 
ATOM     68  C46 UNL A   1      48.763  13.585  47.273  1.00  0.00    +0.000 C 
ATOM     69  C47 UNL A   1      47.681  12.889  46.891  1.00  0.00    +0.000 C 
ATOM     70  C48 UNL A   1      47.493  11.759  47.802  1.00  0.00    +0.000 C 
ATOM     71  N6  UNL A   1      48.520  11.884  48.705  1.00  0.00    +0.000 N 
ATOM     72  C49 UNL A   1      52.055  13.199  51.053  1.00  0.00    +0.000 C 
ATOM     73  C50 UNL A   1      52.228  12.306  52.018  1.00  0.00    +0.000 C 
ATOM     74  C51 UNL A   1      45.402   8.064  49.672  1.00  0.00    +0.000 C 
ATOM     75  C52 UNL A   1      45.282   8.809  48.584  1.00  0.00    +0.000 C 
ATOM    124  H21 UNL A   1      48.407   6.628  53.804  1.00  0.00    +0.000 H 
ATOM    125  H22 UNL A   1      50.494   7.992  54.567  1.00  0.00    +0.000 H 
ATOM    126  H23 UNL A   1      48.859   9.860  51.253  1.00  0.00    +0.000 H 
ATOM    127  H24 UNL A   1      49.138  14.421  46.797  1.00  0.00    +0.000 H 
ATOM    128  H25 UNL A   1      47.078  13.116  46.086  1.00  0.00    +0.000 H 
ENDROOT
BRANCH   19   18
ATOM    134  H31 UNL A   1      46.540   9.743  45.278  1.00  0.00    +0.000 H 
ATOM    135  H32 UNL A   1      44.935   9.991  43.479  1.00  0.00    +0.000 H 
ATOM     76  C53 UNL A   1      45.690  10.310  45.421  1.00  0.00    +0.000 C 
ATOM     77  C54 UNL A   1      44.749  10.417  44.400  1.00  0.00    +0.000 C 
ATOM     15  C11 UNL A   1      43.552  11.104  44.626  1.00  0.00    +0.000 C 
ATOM     16  C12 UNL A   1      43.350  11.786  45.829  1.00  0.00    +0.000 C 
ATOM     17  C13 UNL A   1      44.323  11.731  46.829  1.00  0.00    +0.000 C 
ATOM     18  C14 UNL A   1      45.486  10.967  46.645  1.00  0.00    +0.000 C 
ATOM    122  H19 UNL A   1      42.484  12.328  45.977  1.00  0.00    +0.000 H 
ATOM    123  H20 UNL A   1      44.186  12.253  47.708  1.00  0.00    +0.000 H 
BRANCH   15   13
ATOM     13  C10 UNL A   1      42.485  11.132  43.602  1.00  0.00    +0.000 C 
ATOM     14  O2  UNL A   1      41.681  10.207  43.534  1.00  0.00    +0.000 O 
BRANCH   13   12
ATOM    121  H18 UNL A   1      43.190  12.782  42.709  1.00  0.00    +0.000 H 
ATOM     12  N2  UNL A   1      42.411  12.181  42.719  1.00  0.00    +0.000 N 
BRANCH   12   11
ATOM     11  C9  UNL A   1      41.340  12.528  41.798  1.00  0.00    +0.000 C 
ATOM    119  H16 UNL A   1      41.128  11.678  41.184  1.00  0.00    +0.000 H 
ATOM    120  H17 UNL A   1      40.488  12.812  42.381  1.00  0.00    +0.000 H 
BRANCH   11   10
ATOM     10  C8  UNL A   1      41.705  13.705  40.902  1.00  0.00    +0.000 C 
ATOM    117  H14 UNL A   1      42.672  13.519  40.485  1.00  0.00    +0.000 H 
ATOM    118  H15 UNL A   1      40.932  13.773  40.165  1.00  0.00    +0.000 H 
BRANCH   10    9
ATOM      9  C7  UNL A   1      41.744  15.062  41.608  1.00  0.00    +0.000 C 
ATOM    115  H12 UNL A   1      41.326  15.792  40.946  1.00  0.00    +0.000 H 
ATOM    116  H13 UNL A   1      41.189  14.941  42.514  1.00  0.00    +0.000 H 
BRANCH    9    8
ATOM    113  H10 UNL A   1      43.029  16.166  42.882  1.00  0.00    +0.000 H 
ATOM    114  H11 UNL A   1      43.709  14.653  42.203  1.00  0.00    +0.000 H 
ATOM      8  C6  UNL A   1      43.137  15.540  42.022  1.00  0.00    +0.000 C 
BRANCH    8    7
ATOM    111  H8  UNL A   1      44.402  15.628  40.315  1.00  0.00    +0.000 H 
ATOM      7  C5  UNL A   1      43.908  16.329  40.955  1.00  0.00    +0.000 C 
ATOM    112  H9  UNL A   1      43.185  16.932  40.446  1.00  0.00    +0.000 H 
BRANCH    7    6
ATOM    110  H7  UNL A   1      44.471  18.014  42.129  1.00  0.00    +0.000 H 
ATOM    109  H6  UNL A   1      45.450  17.784  40.683  1.00  0.00    +0.000 H 
ATOM      6  C4  UNL A   1      44.963  17.299  41.502  1.00  0.00    +0.000 C 
BRANCH    6    5
ATOM    108  H5  UNL A   1      46.417  15.843  41.879  1.00  0.00    +0.000 H 
ATOM      5  N1  UNL A   1      45.956  16.605  42.298  1.00  0.00    +0.000 N 
BRANCH    5    3
ATOM      3  C3  UNL A   1      46.308  16.920  43.583  1.00  0.00    +0.000 C 
ATOM      4  O1  UNL A   1      46.453  18.117  43.831  1.00  0.00    +0.000 O 
BRANCH    3    2
ATOM      2  C2  UNL A   1      46.477  15.787  44.610  1.00  0.00    +0.000 C 
ATOM    107  H4  UNL A   1      47.414  15.988  45.086  1.00  0.00    +0.000 H 
BRANCH    2    1
ATOM      1  C1  UNL A   1      46.461  14.441  43.872  1.00  0.00    +0.000 C 
ATOM    106  H3  UNL A   1      47.401  13.949  44.007  1.00  0.00    +0.000 H 
ATOM    105  H2  UNL A   1      45.677  13.828  44.265  1.00  0.00    +0.000 H 
ATOM    104  H1  UNL A   1      46.293  14.610  42.828  1.00  0.00    +0.000 H 
ENDBRANCH    2    1
BRANCH    2   78
ATOM    101  C75 UNL A   1      43.325  15.164  46.738  1.00  0.00    +0.000 C 
ATOM    102  F16 UNL A   1      42.069  14.734  46.533  1.00  0.00    +0.000 F 
ATOM    103  C76 UNL A   1      44.137  15.350  45.621  1.00  0.00    +0.000 C 
ATOM    136  H33 UNL A   1      46.870  16.430  47.195  1.00  0.00    +0.000 H 
ATOM    137  H34 UNL A   1      45.459  16.080  49.125  1.00  0.00    +0.000 H 
ATOM     78  C55 UNL A   1      45.471  15.747  45.763  1.00  0.00    +0.000 C 
ATOM     79  C56 UNL A   1      45.918  16.053  47.064  1.00  0.00    +0.000 C 
ATOM     80  C57 UNL A   1      45.099  15.857  48.184  1.00  0.00    +0.000 C 
ATOM     81  C58 UNL A   1      43.798  15.360  48.040  1.00  0.00    +0.000 C 
ATOM    154  H51 UNL A   1      43.750  15.194  44.677  1.00  0.00    +0.000 H 
BRANCH   81   82
ATOM    100  C74 UNL A   1      42.378  15.928  49.992  1.00  0.00    +0.000 C 
ATOM    138  H35 UNL A   1      43.255  12.858  48.977  1.00  0.00    +0.000 H 
ATOM    139  H36 UNL A   1      41.908  12.252  50.899  1.00  0.00    +0.000 H 
ATOM    140  H37 UNL A   1      40.842  13.977  52.236  1.00  0.00    +0.000 H 
ATOM     82  C59 UNL A   1      43.001  14.943  49.203  1.00  0.00    +0.000 C 
ATOM     83  C60 UNL A   1      42.814  13.597  49.545  1.00  0.00    +0.000 C 
ATOM     84  C61 UNL A   1      42.031  13.246  50.652  1.00  0.00    +0.000 C 
ATOM     85  C62 UNL A   1      41.418  14.236  51.421  1.00  0.00    +0.000 C 
ATOM     86  C63 UNL A   1      41.587  15.576  51.081  1.00  0.00    +0.000 C 
ATOM    153  H50 UNL A   1      42.511  16.925  49.761  1.00  0.00    +0.000 H 
BRANCH   86   87
ATOM     87  O3  UNL A   1      40.969  16.516  51.939  1.00  0.00    +0.000 O 
BRANCH   87   88
ATOM     89  O4  UNL A   1      38.696  16.660  51.404  1.00  0.00    +0.000 O 
ATOM     88  C64 UNL A   1      39.602  16.564  52.215  1.00  0.00    +0.000 C 
BRANCH   88   90
ATOM     90  N7  UNL A   1      39.323  16.472  53.555  1.00  0.00    +0.000 N 
ATOM    141  H38 UNL A   1      39.234  17.308  54.067  1.00  0.00    +0.000 H 
BRANCH   90   91
ATOM     91  C65 UNL A   1      39.151  15.225  54.263  1.00  0.00    +0.000 C 
ATOM    142  H39 UNL A   1      38.826  14.485  53.562  1.00  0.00    +0.000 H 
ATOM    143  H40 UNL A   1      38.436  15.410  55.037  1.00  0.00    +0.000 H 
BRANCH   91   92
ATOM    145  H42 UNL A   1      41.180  14.814  54.210  1.00  0.00    +0.000 H 
ATOM     92  C66 UNL A   1      40.415  14.710  54.951  1.00  0.00    +0.000 C 
ATOM    144  H41 UNL A   1      40.546  15.286  55.845  1.00  0.00    +0.000 H 
BRANCH   92   93
ATOM    146  H43 UNL A   1      39.480  12.944  55.620  1.00  0.00    +0.000 H 
ATOM    147  H44 UNL A   1      41.221  13.219  56.120  1.00  0.00    +0.000 H 
ATOM     93  C67 UNL A   1      40.476  13.230  55.352  1.00  0.00    +0.000 C 
BRANCH   93   94
ATOM     97  C71 UNL A   1      42.065  10.204  52.695  1.00  0.00    +0.000 C 
ATOM     98  C72 UNL A   1      42.876  10.848  53.622  1.00  0.00    +0.000 C 
ATOM     99  C73 UNL A   1      42.335  11.828  54.457  1.00  0.00    +0.000 C 
ATOM    148  H45 UNL A   1      39.183  11.783  53.347  1.00  0.00    +0.000 H 
ATOM    149  H46 UNL A   1      40.116  10.066  51.917  1.00  0.00    +0.000 H 
ATOM    150  H47 UNL A   1      42.460   9.475  52.079  1.00  0.00    +0.000 H 
ATOM    151  H48 UNL A   1      43.876  10.606  53.691  1.00  0.00    +0.000 H 
ATOM    152  H49 UNL A   1      42.942  12.294  55.149  1.00  0.00    +0.000 H 
ATOM     94  C68 UNL A   1      40.978  12.191  54.375  1.00  0.00    +0.000 C 
ATOM     95  C69 UNL A   1      40.182  11.535  53.432  1.00  0.00    +0.000 C 
ATOM     96  C70 UNL A   1      40.720  10.545  52.602  1.00  0.00    +0.000 C 
ENDBRANCH   93   94
ENDBRANCH   92   93
ENDBRANCH   91   92
ENDBRANCH   90   91
ENDBRANCH   88   90
ENDBRANCH   87   88
ENDBRANCH   86   87
ENDBRANCH   81   82
ENDBRANCH    2   78
ENDBRANCH    3    2
ENDBRANCH    5    3
ENDBRANCH    6    5
ENDBRANCH    7    6
ENDBRANCH    8    7
ENDBRANCH    9    8
ENDBRANCH   10    9
ENDBRANCH   11   10
ENDBRANCH   12   11
ENDBRANCH   13   12
ENDBRANCH   15   13
ENDBRANCH   19   18
BRANCH   23   24
ATOM     33  C24 UNL A   1      45.031   6.815  52.760  1.00  0.00    +0.000 C 
ATOM     34  F5  UNL A   1      44.611   8.059  53.038  1.00  0.00    +0.000 F 
ATOM     24  C19 UNL A   1      46.201   6.613  52.012  1.00  0.00    +0.000 C 
ATOM     25  C20 UNL A   1      46.595   5.291  51.755  1.00  0.00    +0.000 C 
ATOM     26  F1  UNL A   1      47.699   5.046  51.034  1.00  0.00    +0.000 F 
ATOM     27  C21 UNL A   1      45.834   4.216  52.204  1.00  0.00    +0.000 C 
ATOM     28  F2  UNL A   1      46.205   2.963  51.906  1.00  0.00    +0.000 F 
ATOM     29  C22 UNL A   1      44.685   4.439  52.948  1.00  0.00    +0.000 C 
ATOM     30  F3  UNL A   1      43.955   3.402  53.383  1.00  0.00    +0.000 F 
ATOM     31  C23 UNL A   1      44.287   5.737  53.232  1.00  0.00    +0.000 C 
ATOM     32  F4  UNL A   1      43.182   5.954  53.958  1.00  0.00    +0.000 F 
ENDBRANCH   23   24
BRANCH   40   41
ATOM     41  C30 UNL A   1      52.143  10.203  53.955  1.00  0.00    +0.000 C 
ATOM     42  C31 UNL A   1      53.338   9.503  53.741  1.00  0.00    +0.000 C 
ATOM     43  F6  UNL A   1      53.536   8.844  52.589  1.00  0.00    +0.000 F 
ATOM     44  C32 UNL A   1      54.319   9.447  54.726  1.00  0.00    +0.000 C 
ATOM     45  F7  UNL A   1      55.437   8.737  54.517  1.00  0.00    +0.000 F 
ATOM     46  C33 UNL A   1      54.139  10.113  55.929  1.00  0.00    +0.000 C 
ATOM     47  F8  UNL A   1      55.087  10.063  56.873  1.00  0.00    +0.000 F 
ATOM     48  C34 UNL A   1      52.970  10.826  56.155  1.00  0.00    +0.000 C 
ATOM     49  F9  UNL A   1      52.798  11.479  57.313  1.00  0.00    +0.000 F 
ATOM     50  C35 UNL A   1      51.976  10.862  55.183  1.00  0.00    +0.000 C 
ATOM     51  F10 UNL A   1      50.852  11.551  55.434  1.00  0.00    +0.000 F 
ENDBRANCH   40   41
BRANCH   55   56
ATOM     65  C44 UNL A   1      50.771  15.911  49.128  1.00  0.00    +0.000 C 
ATOM     66  F15 UNL A   1      49.768  16.067  50.005  1.00  0.00    +0.000 F 
ATOM     56  C39 UNL A   1      51.119  14.630  48.679  1.00  0.00    +0.000 C 
ATOM     57  C40 UNL A   1      52.170  14.522  47.758  1.00  0.00    +0.000 C 
ATOM     58  F11 UNL A   1      52.551  13.315  47.317  1.00  0.00    +0.000 F 
ATOM     59  C41 UNL A   1      52.857  15.650  47.317  1.00  0.00    +0.000 C 
ATOM     60  F12 UNL A   1      53.885  15.516  46.466  1.00  0.00    +0.000 F 
ATOM     61  C42 UNL A   1      52.491  16.909  47.767  1.00  0.00    +0.000 C 
ATOM     62  F13 UNL A   1      53.149  17.994  47.338  1.00  0.00    +0.000 F 
ATOM     63  C43 UNL A   1      51.444  17.041  48.667  1.00  0.00    +0.000 C 
ATOM     64  F14 UNL A   1      51.078  18.257  49.095  1.00  0.00    +0.000 F 
ENDBRANCH   55   56
TORSDOF 25
ENDMDL
MODEL 8
REMARK VINA RESULT:     -10.1     21.941     28.205
ROOT
ATOM    129  H26 UNL A   1      56.595  27.190   3.881  1.00  0.00    +0.000 H 
ATOM    130  H27 UNL A   1      56.712  29.064  -0.784  1.00  0.00    +0.000 H 
ATOM    131  H28 UNL A   1      55.279  30.995   0.093  1.00  0.00    +0.000 H 
ATOM    132  H29 UNL A   1      54.836  26.668   9.149  1.00  0.00    +0.000 H 
ATOM    133  H30 UNL A   1      56.626  24.985   8.429  1.00  0.00    +0.000 H 
ATOM     19  C15 UNL A   1      57.348  25.188   5.681  1.00  0.00    +0.000 C 
ATOM     20  C16 UNL A   1      56.432  26.090   6.458  1.00  0.00    +0.000 C 
ATOM     21  N3  UNL A   1      55.776  27.150   6.056  1.00  0.00    +0.000 N 
ATOM     22  C17 UNL A   1      55.044  27.580   7.155  1.00  0.00    +0.000 C 
ATOM     23  C18 UNL A   1      54.249  28.670   7.266  1.00  0.00    +0.000 C 
ATOM     35  C25 UNL A   1      54.023  29.621   6.209  1.00  0.00    +0.000 C 
ATOM     36  C26 UNL A   1      53.289  30.794   6.244  1.00  0.00    +0.000 C 
ATOM     37  C27 UNL A   1      53.325  31.371   4.970  1.00  0.00    +0.000 C 
ATOM     38  C28 UNL A   1      54.114  30.579   4.152  1.00  0.00    +0.000 C 
ATOM     39  N4  UNL A   1      54.534  29.508   4.924  1.00  0.00    +0.000 N 
ATOM     40  C29 UNL A   1      54.461  30.781   2.769  1.00  0.00    +0.000 C 
ATOM     52  C36 UNL A   1      55.256  29.963   2.038  1.00  0.00    +0.000 C 
ATOM     53  N5  UNL A   1      55.898  28.796   2.427  1.00  0.00    +0.000 N 
ATOM     54  C37 UNL A   1      56.536  28.366   1.366  1.00  0.00    +0.000 C 
ATOM     55  C38 UNL A   1      57.417  27.156   1.214  1.00  0.00    +0.000 C 
ATOM     67  C45 UNL A   1      57.643  26.366   2.281  1.00  0.00    +0.000 C 
ATOM     68  C46 UNL A   1      58.477  25.169   2.288  1.00  0.00    +0.000 C 
ATOM     69  C47 UNL A   1      58.441  24.616   3.511  1.00  0.00    +0.000 C 
ATOM     70  C48 UNL A   1      57.605  25.441   4.384  1.00  0.00    +0.000 C 
ATOM     71  N6  UNL A   1      57.178  26.461   3.569  1.00  0.00    +0.000 N 
ATOM     72  C49 UNL A   1      56.349  29.202   0.171  1.00  0.00    +0.000 C 
ATOM     73  C50 UNL A   1      55.591  30.181   0.645  1.00  0.00    +0.000 C 
ATOM     74  C51 UNL A   1      55.297  26.640   8.226  1.00  0.00    +0.000 C 
ATOM     75  C52 UNL A   1      56.199  25.738   7.867  1.00  0.00    +0.000 C 
ATOM    124  H21 UNL A   1      52.800  31.176   7.068  1.00  0.00    +0.000 H 
ATOM    125  H22 UNL A   1      52.844  32.239   4.687  1.00  0.00    +0.000 H 
ATOM    126  H23 UNL A   1      55.109  28.774   4.608  1.00  0.00    +0.000 H 
ATOM    127  H24 UNL A   1      59.009  24.805   1.480  1.00  0.00    +0.000 H 
ATOM    128  H25 UNL A   1      58.924  23.749   3.790  1.00  0.00    +0.000 H 
ENDROOT
BRANCH   19   18
ATOM    134  H31 UNL A   1      59.561  24.995   7.176  1.00  0.00    +0.000 H 
ATOM    135  H32 UNL A   1      60.560  23.016   8.156  1.00  0.00    +0.000 H 
ATOM     76  C53 UNL A   1      59.101  24.078   7.067  1.00  0.00    +0.000 C 
ATOM     77  C54 UNL A   1      59.654  22.949   7.666  1.00  0.00    +0.000 C 
ATOM     15  C11 UNL A   1      58.981  21.726   7.602  1.00  0.00    +0.000 C 
ATOM     16  C12 UNL A   1      57.818  21.604   6.837  1.00  0.00    +0.000 C 
ATOM     17  C13 UNL A   1      57.298  22.723   6.183  1.00  0.00    +0.000 C 
ATOM     18  C14 UNL A   1      57.918  23.975   6.319  1.00  0.00    +0.000 C 
ATOM    122  H19 UNL A   1      57.346  20.690   6.755  1.00  0.00    +0.000 H 
ATOM    123  H20 UNL A   1      56.452  22.630   5.598  1.00  0.00    +0.000 H 
BRANCH   15   13
ATOM     13  C10 UNL A   1      59.484  20.540   8.329  1.00  0.00    +0.000 C 
ATOM     14  O2  UNL A   1      60.550  20.031   7.999  1.00  0.00    +0.000 O 
BRANCH   13   12
ATOM    121  H18 UNL A   1      59.116  20.133  10.256  1.00  0.00    +0.000 H 
ATOM     12  N2  UNL A   1      58.746  20.002   9.354  1.00  0.00    +0.000 N 
BRANCH   12   11
ATOM     11  C9  UNL A   1      57.495  19.265   9.291  1.00  0.00    +0.000 C 
ATOM    119  H16 UNL A   1      56.956  19.425  10.201  1.00  0.00    +0.000 H 
ATOM    120  H17 UNL A   1      56.947  19.623   8.444  1.00  0.00    +0.000 H 
BRANCH   11   10
ATOM     10  C8  UNL A   1      57.712  17.767   9.105  1.00  0.00    +0.000 C 
ATOM    117  H14 UNL A   1      57.490  17.523   8.088  1.00  0.00    +0.000 H 
ATOM    118  H15 UNL A   1      58.728  17.574   9.376  1.00  0.00    +0.000 H 
BRANCH   10    9
ATOM      9  C7  UNL A   1      56.852  16.878  10.005  1.00  0.00    +0.000 C 
ATOM    115  H12 UNL A   1      55.830  17.179   9.889  1.00  0.00    +0.000 H 
ATOM    116  H13 UNL A   1      57.037  15.872   9.694  1.00  0.00    +0.000 H 
BRANCH    9    8
ATOM    113  H10 UNL A   1      57.301  15.930  11.847  1.00  0.00    +0.000 H 
ATOM    114  H11 UNL A   1      58.093  17.513  11.567  1.00  0.00    +0.000 H 
ATOM      8  C6  UNL A   1      57.196  16.934  11.495  1.00  0.00    +0.000 C 
BRANCH    8    7
ATOM    111  H8  UNL A   1      55.881  16.967  13.166  1.00  0.00    +0.000 H 
ATOM      7  C5  UNL A   1      56.164  17.642  12.385  1.00  0.00    +0.000 C 
ATOM    112  H9  UNL A   1      56.639  18.531  12.745  1.00  0.00    +0.000 H 
BRANCH    7    6
ATOM    110  H7  UNL A   1      54.045  17.773  12.234  1.00  0.00    +0.000 H 
ATOM    109  H6  UNL A   1      54.873  17.673  10.683  1.00  0.00    +0.000 H 
ATOM      6  C4  UNL A   1      54.891  18.099  11.664  1.00  0.00    +0.000 C 
BRANCH    6    5
ATOM    108  H5  UNL A   1      55.692  20.021  11.471  1.00  0.00    +0.000 H 
ATOM      5  N1  UNL A   1      54.836  19.543  11.553  1.00  0.00    +0.000 N 
BRANCH    5    3
ATOM      3  C3  UNL A   1      53.694  20.299  11.552  1.00  0.00    +0.000 C 
ATOM      4  O1  UNL A   1      53.018  20.266  12.580  1.00  0.00    +0.000 O 
BRANCH    3    2
ATOM      2  C2  UNL A   1      53.350  21.131  10.304  1.00  0.00    +0.000 C 
ATOM    107  H4  UNL A   1      54.195  21.013   9.657  1.00  0.00    +0.000 H 
BRANCH    2    1
ATOM      1  C1  UNL A   1      53.122  22.588  10.726  1.00  0.00    +0.000 C 
ATOM    106  H3  UNL A   1      52.208  22.944  10.301  1.00  0.00    +0.000 H 
ATOM    105  H2  UNL A   1      53.068  22.646  11.793  1.00  0.00    +0.000 H 
ATOM    104  H1  UNL A   1      53.936  23.191  10.378  1.00  0.00    +0.000 H 
ENDBRANCH    2    1
BRANCH    2   78
ATOM    101  C75 UNL A   1      49.791  20.322   9.068  1.00  0.00    +0.000 C 
ATOM    102  F16 UNL A   1      48.548  20.329   9.576  1.00  0.00    +0.000 F 
ATOM    103  C76 UNL A   1      50.848  20.593   9.935  1.00  0.00    +0.000 C 
ATOM    136  H33 UNL A   1      53.347  20.272   7.752  1.00  0.00    +0.000 H 
ATOM    137  H34 UNL A   1      51.504  19.827   6.254  1.00  0.00    +0.000 H 
ATOM     78  C55 UNL A   1      52.163  20.653   9.463  1.00  0.00    +0.000 C 
ATOM     79  C56 UNL A   1      52.380  20.321   8.111  1.00  0.00    +0.000 C 
ATOM     80  C57 UNL A   1      51.312  20.057   7.242  1.00  0.00    +0.000 C 
ATOM     81  C58 UNL A   1      49.990  20.101   7.700  1.00  0.00    +0.000 C 
ATOM    154  H51 UNL A   1      50.658  20.751  10.936  1.00  0.00    +0.000 H 
BRANCH   81   82
ATOM    100  C74 UNL A   1      48.133  18.839   6.647  1.00  0.00    +0.000 C 
ATOM    138  H35 UNL A   1      48.945  22.043   6.098  1.00  0.00    +0.000 H 
ATOM    139  H36 UNL A   1      47.043  21.872   4.604  1.00  0.00    +0.000 H 
ATOM    140  H37 UNL A   1      45.821  19.781   4.419  1.00  0.00    +0.000 H 
ATOM     82  C59 UNL A   1      48.853  20.043   6.771  1.00  0.00    +0.000 C 
ATOM     83  C60 UNL A   1      48.436  21.149   6.019  1.00  0.00    +0.000 C 
ATOM     84  C61 UNL A   1      47.336  21.053   5.160  1.00  0.00    +0.000 C 
ATOM     85  C62 UNL A   1      46.632  19.852   5.052  1.00  0.00    +0.000 C 
ATOM     86  C63 UNL A   1      47.030  18.750   5.807  1.00  0.00    +0.000 C 
ATOM    153  H50 UNL A   1      48.430  18.011   7.188  1.00  0.00    +0.000 H 
BRANCH   86   87
ATOM     87  O3  UNL A   1      46.291  17.561   5.604  1.00  0.00    +0.000 O 
BRANCH   87   88
ATOM     89  O4  UNL A   1      46.201  16.000   3.863  1.00  0.00    +0.000 O 
ATOM     88  C64 UNL A   1      46.731  16.467   4.858  1.00  0.00    +0.000 C 
BRANCH   88   90
ATOM     90  N7  UNL A   1      47.893  15.921   5.343  1.00  0.00    +0.000 N 
ATOM    141  H38 UNL A   1      48.160  16.146   6.263  1.00  0.00    +0.000 H 
BRANCH   90   91
ATOM     91  C65 UNL A   1      48.747  15.035   4.588  1.00  0.00    +0.000 C 
ATOM    142  H39 UNL A   1      48.664  15.292   3.553  1.00  0.00    +0.000 H 
ATOM    143  H40 UNL A   1      48.418  14.039   4.799  1.00  0.00    +0.000 H 
BRANCH   91   92
ATOM    145  H42 UNL A   1      50.300  14.448   5.826  1.00  0.00    +0.000 H 
ATOM     92  C66 UNL A   1      50.225  15.098   4.979  1.00  0.00    +0.000 C 
ATOM    144  H41 UNL A   1      50.793  14.813   4.117  1.00  0.00    +0.000 H 
BRANCH   92   93
ATOM    146  H43 UNL A   1      49.996  17.147   5.411  1.00  0.00    +0.000 H 
ATOM    147  H44 UNL A   1      51.644  16.583   4.845  1.00  0.00    +0.000 H 
ATOM     93  C67 UNL A   1      50.792  16.435   5.475  1.00  0.00    +0.000 C 
BRANCH   93   94
ATOM     97  C71 UNL A   1      52.617  16.874   9.375  1.00  0.00    +0.000 C 
ATOM     98  C72 UNL A   1      53.389  16.811   8.221  1.00  0.00    +0.000 C 
ATOM     99  C73 UNL A   1      52.769  16.659   6.978  1.00  0.00    +0.000 C 
ATOM    148  H45 UNL A   1      49.587  16.533   7.989  1.00  0.00    +0.000 H 
ATOM    149  H46 UNL A   1      50.658  16.825  10.140  1.00  0.00    +0.000 H 
ATOM    150  H47 UNL A   1      53.070  16.993  10.295  1.00  0.00    +0.000 H 
ATOM    151  H48 UNL A   1      54.416  16.876   8.281  1.00  0.00    +0.000 H 
ATOM    152  H49 UNL A   1      53.349  16.624   6.126  1.00  0.00    +0.000 H 
ATOM     94  C68 UNL A   1      51.370  16.553   6.866  1.00  0.00    +0.000 C 
ATOM     95  C69 UNL A   1      50.615  16.611   8.040  1.00  0.00    +0.000 C 
ATOM     96  C70 UNL A   1      51.233  16.776   9.285  1.00  0.00    +0.000 C 
ENDBRANCH   93   94
ENDBRANCH   92   93
ENDBRANCH   91   92
ENDBRANCH   90   91
ENDBRANCH   88   90
ENDBRANCH   87   88
ENDBRANCH   86   87
ENDBRANCH   81   82
ENDBRANCH    2   78
ENDBRANCH    3    2
ENDBRANCH    5    3
ENDBRANCH    6    5
ENDBRANCH    7    6
ENDBRANCH    8    7
ENDBRANCH    9    8
ENDBRANCH   10    9
ENDBRANCH   11   10
ENDBRANCH   12   11
ENDBRANCH   13   12
ENDBRANCH   15   13
ENDBRANCH   19   18
BRANCH   23   24
ATOM     33  C24 UNL A   1      54.209  29.607   9.606  1.00  0.00    +0.000 C 
ATOM     34  F5  UNL A   1      55.436  30.113   9.411  1.00  0.00    +0.000 F 
ATOM     24  C19 UNL A   1      53.565  28.896   8.582  1.00  0.00    +0.000 C 
ATOM     25  C20 UNL A   1      52.285  28.385   8.842  1.00  0.00    +0.000 C 
ATOM     26  F1  UNL A   1      51.623  27.709   7.891  1.00  0.00    +0.000 F 
ATOM     27  C21 UNL A   1      51.662  28.602  10.068  1.00  0.00    +0.000 C 
ATOM     28  F2  UNL A   1      50.419  28.144  10.276  1.00  0.00    +0.000 F 
ATOM     29  C22 UNL A   1      52.320  29.301  11.068  1.00  0.00    +0.000 C 
ATOM     30  F3  UNL A   1      51.720  29.505  12.250  1.00  0.00    +0.000 F 
ATOM     31  C23 UNL A   1      53.594  29.797  10.841  1.00  0.00    +0.000 C 
ATOM     32  F4  UNL A   1      54.235  30.466  11.810  1.00  0.00    +0.000 F 
ENDBRANCH   23   24
BRANCH   40   41
ATOM     41  C30 UNL A   1      53.918  32.001   2.084  1.00  0.00    +0.000 C 
ATOM     42  C31 UNL A   1      54.706  33.143   1.888  1.00  0.00    +0.000 C 
ATOM     43  F6  UNL A   1      55.960  33.187   2.362  1.00  0.00    +0.000 F 
ATOM     44  C32 UNL A   1      54.194  34.260   1.235  1.00  0.00    +0.000 C 
ATOM     45  F7  UNL A   1      54.950  35.358   1.095  1.00  0.00    +0.000 F 
ATOM     46  C33 UNL A   1      52.898  34.246   0.741  1.00  0.00    +0.000 C 
ATOM     47  F8  UNL A   1      52.409  35.320   0.107  1.00  0.00    +0.000 F 
ATOM     48  C34 UNL A   1      52.107  33.119   0.909  1.00  0.00    +0.000 C 
ATOM     49  F9  UNL A   1      50.857  33.100   0.423  1.00  0.00    +0.000 F 
ATOM     50  C35 UNL A   1      52.606  32.010   1.585  1.00  0.00    +0.000 C 
ATOM     51  F10 UNL A   1      51.814  30.939   1.743  1.00  0.00    +0.000 F 
ENDBRANCH   40   41
BRANCH   55   56
ATOM     65  C44 UNL A   1      59.288  27.408  -0.452  1.00  0.00    +0.000 C 
ATOM     66  F15 UNL A   1      59.911  28.254   0.382  1.00  0.00    +0.000 F 
ATOM     56  C39 UNL A   1      58.059  26.841  -0.088  1.00  0.00    +0.000 C 
ATOM     57  C40 UNL A   1      57.446  25.967  -0.996  1.00  0.00    +0.000 C 
ATOM     58  F11 UNL A   1      56.280  25.385  -0.681  1.00  0.00    +0.000 F 
ATOM     59  C41 UNL A   1      58.047  25.660  -2.214  1.00  0.00    +0.000 C 
ATOM     60  F12 UNL A   1      57.459  24.791  -3.049  1.00  0.00    +0.000 F 
ATOM     61  C42 UNL A   1      59.259  26.240  -2.559  1.00  0.00    +0.000 C 
ATOM     62  F13 UNL A   1      59.833  25.947  -3.733  1.00  0.00    +0.000 F 
ATOM     63  C43 UNL A   1      59.876  27.119  -1.682  1.00  0.00    +0.000 C 
ATOM     64  F14 UNL A   1      61.041  27.691  -2.015  1.00  0.00    +0.000 F 
ENDBRANCH   55   56
TORSDOF 25
ENDMDL
MODEL 9
REMARK VINA RESULT:     -10.0     31.028     35.050
ROOT
ATOM    129  H26 UNL A   1      17.458  20.524   5.519  1.00  0.00    +0.000 H 
ATOM    130  H27 UNL A   1      21.695  20.347   2.817  1.00  0.00    +0.000 H 
ATOM    131  H28 UNL A   1      22.109  18.043   3.854  1.00  0.00    +0.000 H 
ATOM    132  H29 UNL A   1      13.843  18.997   9.484  1.00  0.00    +0.000 H 
ATOM    133  H30 UNL A   1      13.172  21.070   8.141  1.00  0.00    +0.000 H 
ATOM     19  C15 UNL A   1      15.141  21.902   6.259  1.00  0.00    +0.000 C 
ATOM     20  C16 UNL A   1      15.153  20.667   7.114  1.00  0.00    +0.000 C 
ATOM     21  N3  UNL A   1      16.050  19.716   7.183  1.00  0.00    +0.000 N 
ATOM     22  C17 UNL A   1      15.599  18.842   8.163  1.00  0.00    +0.000 C 
ATOM     23  C18 UNL A   1      16.145  17.671   8.567  1.00  0.00    +0.000 C 
ATOM     35  C25 UNL A   1      17.347  17.102   8.015  1.00  0.00    +0.000 C 
ATOM     36  C26 UNL A   1      17.944  15.890   8.310  1.00  0.00    +0.000 C 
ATOM     37  C27 UNL A   1      19.114  15.781   7.550  1.00  0.00    +0.000 C 
ATOM     38  C28 UNL A   1      19.224  16.908   6.752  1.00  0.00    +0.000 C 
ATOM     39  N4  UNL A   1      18.135  17.712   7.049  1.00  0.00    +0.000 N 
ATOM     40  C29 UNL A   1      20.246  17.231   5.790  1.00  0.00    +0.000 C 
ATOM     52  C36 UNL A   1      20.275  18.354   5.032  1.00  0.00    +0.000 C 
ATOM     53  N5  UNL A   1      19.372  19.407   4.999  1.00  0.00    +0.000 N 
ATOM     54  C37 UNL A   1      19.840  20.255   4.118  1.00  0.00    +0.000 C 
ATOM     55  C38 UNL A   1      19.258  21.565   3.657  1.00  0.00    +0.000 C 
ATOM     67  C45 UNL A   1      18.082  21.979   4.166  1.00  0.00    +0.000 C 
ATOM     68  C46 UNL A   1      17.394  23.216   3.812  1.00  0.00    +0.000 C 
ATOM     69  C47 UNL A   1      16.273  23.319   4.543  1.00  0.00    +0.000 C 
ATOM     70  C48 UNL A   1      16.147  22.136   5.395  1.00  0.00    +0.000 C 
ATOM     71  N6  UNL A   1      17.264  21.393   5.100  1.00  0.00    +0.000 N 
ATOM     72  C49 UNL A   1      21.112  19.846   3.506  1.00  0.00    +0.000 C 
ATOM     73  C50 UNL A   1      21.314  18.664   4.071  1.00  0.00    +0.000 C 
ATOM     74  C51 UNL A   1      14.373  19.399   8.694  1.00  0.00    +0.000 C 
ATOM     75  C52 UNL A   1      14.019  20.492   8.036  1.00  0.00    +0.000 C 
ATOM    124  H21 UNL A   1      17.588  15.187   8.976  1.00  0.00    +0.000 H 
ATOM    125  H22 UNL A   1      19.782  14.995   7.579  1.00  0.00    +0.000 H 
ATOM    126  H23 UNL A   1      17.948  18.586   6.636  1.00  0.00    +0.000 H 
ATOM    127  H24 UNL A   1      17.719  23.902   3.112  1.00  0.00    +0.000 H 
ATOM    128  H25 UNL A   1      15.607  24.106   4.509  1.00  0.00    +0.000 H 
ENDROOT
BRANCH   19   18
ATOM    134  H31 UNL A   1      12.999  22.267   4.694  1.00  0.00    +0.000 H 
ATOM    135  H32 UNL A   1      11.262  23.949   4.870  1.00  0.00    +0.000 H 
ATOM     76  C53 UNL A   1      13.011  22.941   5.476  1.00  0.00    +0.000 C 
ATOM     77  C54 UNL A   1      11.991  23.879   5.598  1.00  0.00    +0.000 C 
ATOM     15  C11 UNL A   1      11.955  24.728   6.708  1.00  0.00    +0.000 C 
ATOM     16  C12 UNL A   1      13.003  24.722   7.631  1.00  0.00    +0.000 C 
ATOM     17  C13 UNL A   1      14.061  23.823   7.473  1.00  0.00    +0.000 C 
ATOM     18  C14 UNL A   1      14.057  22.905   6.411  1.00  0.00    +0.000 C 
ATOM    122  H19 UNL A   1      12.997  25.379   8.427  1.00  0.00    +0.000 H 
ATOM    123  H20 UNL A   1      14.848  23.833   8.140  1.00  0.00    +0.000 H 
BRANCH   15   13
ATOM     13  C10 UNL A   1      10.819  25.652   6.925  1.00  0.00    +0.000 C 
ATOM     14  O2  UNL A   1      10.315  25.746   8.039  1.00  0.00    +0.000 O 
BRANCH   13   12
ATOM    121  H18 UNL A   1      10.824  27.200   5.652  1.00  0.00    +0.000 H 
ATOM     12  N2  UNL A   1      10.322  26.383   5.875  1.00  0.00    +0.000 N 
BRANCH   12   11
ATOM     11  C9  UNL A   1       9.156  26.119   5.048  1.00  0.00    +0.000 C 
ATOM    119  H16 UNL A   1       8.705  25.205   5.371  1.00  0.00    +0.000 H 
ATOM    120  H17 UNL A   1       8.485  26.947   5.156  1.00  0.00    +0.000 H 
BRANCH   11   10
ATOM     10  C8  UNL A   1       9.509  25.998   3.569  1.00  0.00    +0.000 C 
ATOM    117  H14 UNL A   1       9.345  24.984   3.271  1.00  0.00    +0.000 H 
ATOM    118  H15 UNL A   1       8.886  26.697   3.053  1.00  0.00    +0.000 H 
BRANCH   10    9
ATOM      9  C7  UNL A   1      10.951  26.370   3.221  1.00  0.00    +0.000 C 
ATOM    115  H12 UNL A   1      11.428  26.717   4.115  1.00  0.00    +0.000 H 
ATOM    116  H13 UNL A   1      11.397  25.486   2.816  1.00  0.00    +0.000 H 
BRANCH    9    8
ATOM    113  H10 UNL A   1      10.164  27.558   1.652  1.00  0.00    +0.000 H 
ATOM    114  H11 UNL A   1      11.416  28.336   2.672  1.00  0.00    +0.000 H 
ATOM      8  C6  UNL A   1      11.104  27.454   2.152  1.00  0.00    +0.000 C 
BRANCH    8    7
ATOM    111  H8  UNL A   1      12.268  28.062   0.481  1.00  0.00    +0.000 H 
ATOM      7  C5  UNL A   1      12.178  27.187   1.089  1.00  0.00    +0.000 C 
ATOM    112  H9  UNL A   1      13.075  26.947   1.622  1.00  0.00    +0.000 H 
BRANCH    7    6
ATOM    110  H7  UNL A   1      11.903  26.340  -0.845  1.00  0.00    +0.000 H 
ATOM    109  H6  UNL A   1      10.945  25.575   0.419  1.00  0.00    +0.000 H 
ATOM      6  C4  UNL A   1      11.897  25.993   0.168  1.00  0.00    +0.000 C 
BRANCH    6    5
ATOM    108  H5  UNL A   1      13.848  25.242   0.166  1.00  0.00    +0.000 H 
ATOM      5  N1  UNL A   1      12.913  24.969   0.305  1.00  0.00    +0.000 N 
BRANCH    5    3
ATOM      3  C3  UNL A   1      12.682  23.654   0.613  1.00  0.00    +0.000 C 
ATOM      4  O1  UNL A   1      12.517  23.394   1.804  1.00  0.00    +0.000 O 
BRANCH    3    2
ATOM      2  C2  UNL A   1      12.629  22.620  -0.525  1.00  0.00    +0.000 C 
ATOM    107  H4  UNL A   1      12.971  23.149  -1.390  1.00  0.00    +0.000 H 
BRANCH    2    1
ATOM      1  C1  UNL A   1      11.188  22.114  -0.669  1.00  0.00    +0.000 C 
ATOM    106  H3  UNL A   1      11.185  21.198  -1.220  1.00  0.00    +0.000 H 
ATOM    105  H2  UNL A   1      10.770  21.948   0.302  1.00  0.00    +0.000 H 
ATOM    104  H1  UNL A   1      10.603  22.845  -1.188  1.00  0.00    +0.000 H 
ENDBRANCH    2    1
BRANCH    2   78
ATOM    101  C75 UNL A   1      15.748  20.360  -0.656  1.00  0.00    +0.000 C 
ATOM    102  F16 UNL A   1      16.991  20.428  -1.158  1.00  0.00    +0.000 F 
ATOM    103  C76 UNL A   1      14.873  21.405  -0.946  1.00  0.00    +0.000 C 
ATOM    136  H33 UNL A   1      12.194  20.244   0.663  1.00  0.00    +0.000 H 
ATOM    137  H34 UNL A   1      13.728  18.450   1.179  1.00  0.00    +0.000 H 
ATOM     78  C55 UNL A   1      13.580  21.425  -0.414  1.00  0.00    +0.000 C 
ATOM     79  C56 UNL A   1      13.169  20.300   0.328  1.00  0.00    +0.000 C 
ATOM     80  C57 UNL A   1      14.056  19.255   0.623  1.00  0.00    +0.000 C 
ATOM     81  C58 UNL A   1      15.381  19.294   0.173  1.00  0.00    +0.000 C 
ATOM    154  H51 UNL A   1      15.183  22.173  -1.561  1.00  0.00    +0.000 H 
BRANCH   81   82
ATOM    100  C74 UNL A   1      16.234  16.969   0.307  1.00  0.00    +0.000 C 
ATOM    138  H35 UNL A   1      17.631  19.698   1.659  1.00  0.00    +0.000 H 
ATOM    139  H36 UNL A   1      19.249  18.045   2.384  1.00  0.00    +0.000 H 
ATOM    140  H37 UNL A   1      18.965  15.710   1.775  1.00  0.00    +0.000 H 
ATOM     82  C59 UNL A   1      16.382  18.327   0.647  1.00  0.00    +0.000 C 
ATOM     83  C60 UNL A   1      17.498  18.707   1.405  1.00  0.00    +0.000 C 
ATOM     84  C61 UNL A   1      18.436  17.754   1.818  1.00  0.00    +0.000 C 
ATOM     85  C62 UNL A   1      18.274  16.413   1.469  1.00  0.00    +0.000 C 
ATOM     86  C63 UNL A   1      17.175  16.027   0.705  1.00  0.00    +0.000 C 
ATOM    153  H50 UNL A   1      15.414  16.669  -0.244  1.00  0.00    +0.000 H 
BRANCH   86   87
ATOM     87  O3  UNL A   1      17.064  14.642   0.434  1.00  0.00    +0.000 O 
BRANCH   87   88
ATOM     89  O4  UNL A   1      15.315  13.210   1.037  1.00  0.00    +0.000 O 
ATOM     88  C64 UNL A   1      16.401  13.723   1.249  1.00  0.00    +0.000 C 
BRANCH   88   90
ATOM     90  N7  UNL A   1      17.110  13.399   2.378  1.00  0.00    +0.000 N 
ATOM    141  H38 UNL A   1      18.008  13.010   2.264  1.00  0.00    +0.000 H 
BRANCH   90   91
ATOM     91  C65 UNL A   1      16.623  13.592   3.723  1.00  0.00    +0.000 C 
ATOM    142  H39 UNL A   1      17.148  12.921   4.368  1.00  0.00    +0.000 H 
ATOM    143  H40 UNL A   1      15.569  13.408   3.696  1.00  0.00    +0.000 H 
BRANCH   91   92
ATOM    145  H42 UNL A   1      17.702  14.963   4.840  1.00  0.00    +0.000 H 
ATOM     92  C66 UNL A   1      16.803  15.012   4.261  1.00  0.00    +0.000 C 
ATOM    144  H41 UNL A   1      16.824  15.671   3.417  1.00  0.00    +0.000 H 
BRANCH   92   93
ATOM    146  H43 UNL A   1      16.259  15.734   6.165  1.00  0.00    +0.000 H 
ATOM    147  H44 UNL A   1      14.992  14.808   5.220  1.00  0.00    +0.000 H 
ATOM     93  C67 UNL A   1      15.754  15.560   5.238  1.00  0.00    +0.000 C 
BRANCH   93   94
ATOM     97  C71 UNL A   1      13.466  19.160   4.498  1.00  0.00    +0.000 C 
ATOM     98  C72 UNL A   1      12.954  18.127   5.273  1.00  0.00    +0.000 C 
ATOM     99  C73 UNL A   1      13.714  16.974   5.485  1.00  0.00    +0.000 C 
ATOM    148  H45 UNL A   1      16.418  17.791   3.701  1.00  0.00    +0.000 H 
ATOM    149  H46 UNL A   1      15.113  19.801   3.356  1.00  0.00    +0.000 H 
ATOM    150  H47 UNL A   1      12.911  20.017   4.344  1.00  0.00    +0.000 H 
ATOM    151  H48 UNL A   1      12.015  18.210   5.691  1.00  0.00    +0.000 H 
ATOM    152  H49 UNL A   1      13.330  16.216   6.070  1.00  0.00    +0.000 H 
ATOM     94  C68 UNL A   1      14.992  16.825   4.916  1.00  0.00    +0.000 C 
ATOM     95  C69 UNL A   1      15.485  17.873   4.134  1.00  0.00    +0.000 C 
ATOM     96  C70 UNL A   1      14.730  19.034   3.930  1.00  0.00    +0.000 C 
ENDBRANCH   93   94
ENDBRANCH   92   93
ENDBRANCH   91   92
ENDBRANCH   90   91
ENDBRANCH   88   90
ENDBRANCH   87   88
ENDBRANCH   86   87
ENDBRANCH   81   82
ENDBRANCH    2   78
ENDBRANCH    3    2
ENDBRANCH    5    3
ENDBRANCH    6    5
ENDBRANCH    7    6
ENDBRANCH    8    7
ENDBRANCH    9    8
ENDBRANCH   10    9
ENDBRANCH   11   10
ENDBRANCH   12   11
ENDBRANCH   13   12
ENDBRANCH   15   13
ENDBRANCH   19   18
BRANCH   23   24
ATOM     33  C24 UNL A   1      15.627  17.283  11.004  1.00  0.00    +0.000 C 
ATOM     34  F5  UNL A   1      16.416  18.320  11.324  1.00  0.00    +0.000 F 
ATOM     24  C19 UNL A   1      15.444  16.922   9.661  1.00  0.00    +0.000 C 
ATOM     25  C20 UNL A   1      14.612  15.826   9.384  1.00  0.00    +0.000 C 
ATOM     26  F1  UNL A   1      14.394  15.449   8.115  1.00  0.00    +0.000 F 
ATOM     27  C21 UNL A   1      13.967  15.138  10.408  1.00  0.00    +0.000 C 
ATOM     28  F2  UNL A   1      13.141  14.125  10.116  1.00  0.00    +0.000 F 
ATOM     29  C22 UNL A   1      14.169  15.509  11.729  1.00  0.00    +0.000 C 
ATOM     30  F3  UNL A   1      13.551  14.843  12.715  1.00  0.00    +0.000 F 
ATOM     31  C23 UNL A   1      15.003  16.575  12.028  1.00  0.00    +0.000 C 
ATOM     32  F4  UNL A   1      15.206  16.929  13.305  1.00  0.00    +0.000 F 
ENDBRANCH   23   24
BRANCH   40   41
ATOM     41  C30 UNL A   1      21.356  16.242   5.592  1.00  0.00    +0.000 C 
ATOM     42  C31 UNL A   1      22.536  16.303   6.347  1.00  0.00    +0.000 C 
ATOM     43  F6  UNL A   1      22.717  17.292   7.235  1.00  0.00    +0.000 F 
ATOM     44  C32 UNL A   1      23.550  15.367   6.165  1.00  0.00    +0.000 C 
ATOM     45  F7  UNL A   1      24.686  15.469   6.867  1.00  0.00    +0.000 F 
ATOM     46  C33 UNL A   1      23.392  14.338   5.249  1.00  0.00    +0.000 C 
ATOM     47  F8  UNL A   1      24.366  13.434   5.080  1.00  0.00    +0.000 F 
ATOM     48  C34 UNL A   1      22.225  14.249   4.503  1.00  0.00    +0.000 C 
ATOM     49  F9  UNL A   1      22.067  13.248   3.625  1.00  0.00    +0.000 F 
ATOM     50  C35 UNL A   1      21.221  15.198   4.664  1.00  0.00    +0.000 C 
ATOM     51  F10 UNL A   1      20.108  15.094   3.921  1.00  0.00    +0.000 F 
ENDBRANCH   40   41
BRANCH   55   56
ATOM     65  C44 UNL A   1      19.686  22.221   1.265  1.00  0.00    +0.000 C 
ATOM     66  F15 UNL A   1      18.791  21.308   0.857  1.00  0.00    +0.000 F 
ATOM     56  C39 UNL A   1      19.949  22.385   2.631  1.00  0.00    +0.000 C 
ATOM     57  C40 UNL A   1      20.896  23.350   3.004  1.00  0.00    +0.000 C 
ATOM     58  F11 UNL A   1      21.166  23.555   4.301  1.00  0.00    +0.000 F 
ATOM     59  C41 UNL A   1      21.542  24.130   2.048  1.00  0.00    +0.000 C 
ATOM     60  F12 UNL A   1      22.415  25.072   2.434  1.00  0.00    +0.000 F 
ATOM     61  C42 UNL A   1      21.273  23.945   0.701  1.00  0.00    +0.000 C 
ATOM     62  F13 UNL A   1      21.897  24.692  -0.218  1.00  0.00    +0.000 F 
ATOM     63  C43 UNL A   1      20.350  22.986   0.308  1.00  0.00    +0.000 C 
ATOM     64  F14 UNL A   1      20.096  22.795  -0.994  1.00  0.00    +0.000 F 
ENDBRANCH   55   56
TORSDOF 25
ENDMDL
MODEL 10
REMARK VINA RESULT:     -10.0     25.841     33.886
ROOT
ATOM    129  H26 UNL A   1      21.022  15.482   3.684  1.00  0.00    +0.000 H 
ATOM    130  H27 UNL A   1      24.875  13.177   5.950  1.00  0.00    +0.000 H 
ATOM    131  H28 UNL A   1      25.692  15.502   6.643  1.00  0.00    +0.000 H 
ATOM    132  H29 UNL A   1      18.149  19.764   1.558  1.00  0.00    +0.000 H 
ATOM    133  H30 UNL A   1      17.067  17.466   1.242  1.00  0.00    +0.000 H 
ATOM     19  C15 UNL A   1      18.667  15.308   2.187  1.00  0.00    +0.000 C 
ATOM     20  C16 UNL A   1      18.937  16.779   2.325  1.00  0.00    +0.000 C 
ATOM     21  N3  UNL A   1      19.944  17.387   2.901  1.00  0.00    +0.000 N 
ATOM     22  C17 UNL A   1      19.729  18.744   2.703  1.00  0.00    +0.000 C 
ATOM     23  C18 UNL A   1      20.460  19.790   3.156  1.00  0.00    +0.000 C 
ATOM     35  C25 UNL A   1      21.642  19.663   3.968  1.00  0.00    +0.000 C 
ATOM     36  C26 UNL A   1      22.414  20.663   4.532  1.00  0.00    +0.000 C 
ATOM     37  C27 UNL A   1      23.483  20.063   5.207  1.00  0.00    +0.000 C 
ATOM     38  C28 UNL A   1      23.354  18.688   5.097  1.00  0.00    +0.000 C 
ATOM     39  N4  UNL A   1      22.222  18.457   4.332  1.00  0.00    +0.000 N 
ATOM     40  C29 UNL A   1      24.199  17.660   5.646  1.00  0.00    +0.000 C 
ATOM     52  C36 UNL A   1      23.997  16.328   5.505  1.00  0.00    +0.000 C 
ATOM     53  N5  UNL A   1      22.976  15.667   4.836  1.00  0.00    +0.000 N 
ATOM     54  C37 UNL A   1      23.223  14.388   4.976  1.00  0.00    +0.000 C 
ATOM     55  C38 UNL A   1      22.434  13.208   4.476  1.00  0.00    +0.000 C 
ATOM     67  C45 UNL A   1      21.290  13.420   3.798  1.00  0.00    +0.000 C 
ATOM     68  C46 UNL A   1      20.419  12.380   3.261  1.00  0.00    +0.000 C 
ATOM     69  C47 UNL A   1      19.394  12.958   2.613  1.00  0.00    +0.000 C 
ATOM     70  C48 UNL A   1      19.521  14.412   2.718  1.00  0.00    +0.000 C 
ATOM     71  N6  UNL A   1      20.673  14.594   3.443  1.00  0.00    +0.000 N 
ATOM     72  C49 UNL A   1      24.448  14.091   5.732  1.00  0.00    +0.000 C 
ATOM     73  C50 UNL A   1      24.861  15.307   6.063  1.00  0.00    +0.000 C 
ATOM     74  C51 UNL A   1      18.522  18.870   1.914  1.00  0.00    +0.000 C 
ATOM     75  C52 UNL A   1      17.958  17.689   1.710  1.00  0.00    +0.000 C 
ATOM    124  H21 UNL A   1      22.232  21.677   4.467  1.00  0.00    +0.000 H 
ATOM    125  H22 UNL A   1      24.239  20.561   5.702  1.00  0.00    +0.000 H 
ATOM    126  H23 UNL A   1      21.880  17.568   4.082  1.00  0.00    +0.000 H 
ATOM    127  H24 UNL A   1      20.567  11.363   3.363  1.00  0.00    +0.000 H 
ATOM    128  H25 UNL A   1      18.639  12.457   2.121  1.00  0.00    +0.000 H 
ENDROOT
BRANCH   19   18
ATOM    134  H31 UNL A   1      18.491  14.940  -0.460  1.00  0.00    +0.000 H 
ATOM    135  H32 UNL A   1      16.572  14.250  -1.769  1.00  0.00    +0.000 H 
ATOM     76  C53 UNL A   1      17.603  14.709   0.011  1.00  0.00    +0.000 C 
ATOM     77  C54 UNL A   1      16.514  14.273  -0.739  1.00  0.00    +0.000 C 
ATOM     15  C11 UNL A   1      15.342  13.867  -0.094  1.00  0.00    +0.000 C 
ATOM     16  C12 UNL A   1      15.215  14.012   1.289  1.00  0.00    +0.000 C 
ATOM     17  C13 UNL A   1      16.286  14.511   2.035  1.00  0.00    +0.000 C 
ATOM     18  C14 UNL A   1      17.499  14.834   1.406  1.00  0.00    +0.000 C 
ATOM    122  H19 UNL A   1      14.334  13.753   1.759  1.00  0.00    +0.000 H 
ATOM    123  H20 UNL A   1      16.186  14.641   3.054  1.00  0.00    +0.000 H 
BRANCH   15   13
ATOM     13  C10 UNL A   1      14.214  13.288  -0.856  1.00  0.00    +0.000 C 
ATOM     14  O2  UNL A   1      13.970  12.089  -0.765  1.00  0.00    +0.000 O 
BRANCH   13   12
ATOM    121  H18 UNL A   1      12.811  14.671  -1.222  1.00  0.00    +0.000 H 
ATOM     12  N2  UNL A   1      13.460  14.088  -1.678  1.00  0.00    +0.000 N 
BRANCH   12   11
ATOM     11  C9  UNL A   1      13.486  14.194  -3.127  1.00  0.00    +0.000 C 
ATOM    119  H16 UNL A   1      13.488  13.209  -3.544  1.00  0.00    +0.000 H 
ATOM    120  H17 UNL A   1      12.619  14.746  -3.430  1.00  0.00    +0.000 H 
BRANCH   11   10
ATOM     10  C8  UNL A   1      14.713  14.944  -3.633  1.00  0.00    +0.000 C 
ATOM    117  H14 UNL A   1      15.579  14.510  -3.178  1.00  0.00    +0.000 H 
ATOM    118  H15 UNL A   1      14.704  14.854  -4.698  1.00  0.00    +0.000 H 
BRANCH   10    9
ATOM      9  C7  UNL A   1      14.719  16.444  -3.329  1.00  0.00    +0.000 C 
ATOM    115  H12 UNL A   1      14.939  16.570  -2.289  1.00  0.00    +0.000 H 
ATOM    116  H13 UNL A   1      15.453  16.875  -3.976  1.00  0.00    +0.000 H 
BRANCH    9    8
ATOM    113  H10 UNL A   1      13.634  18.030  -4.224  1.00  0.00    +0.000 H 
ATOM    114  H11 UNL A   1      12.780  16.458  -4.121  1.00  0.00    +0.000 H 
ATOM      8  C6  UNL A   1      13.407  17.172  -3.628  1.00  0.00    +0.000 C 
BRANCH    8    7
ATOM    111  H8  UNL A   1      11.577  17.530  -2.606  1.00  0.00    +0.000 H 
ATOM      7  C5  UNL A   1      12.620  17.646  -2.398  1.00  0.00    +0.000 C 
ATOM    112  H9  UNL A   1      12.958  17.049  -1.577  1.00  0.00    +0.000 H 
BRANCH    7    6
ATOM    110  H7  UNL A   1      11.916  19.576  -1.839  1.00  0.00    +0.000 H 
ATOM    109  H6  UNL A   1      13.408  19.597  -2.773  1.00  0.00    +0.000 H 
ATOM      6  C4  UNL A   1      12.865  19.105  -1.994  1.00  0.00    +0.000 C 
BRANCH    6    5
ATOM    108  H5  UNL A   1      14.521  18.789  -0.757  1.00  0.00    +0.000 H 
ATOM      5  N1  UNL A   1      13.623  19.192  -0.762  1.00  0.00    +0.000 N 
BRANCH    5    3
ATOM      3  C3  UNL A   1      13.197  19.789   0.394  1.00  0.00    +0.000 C 
ATOM      4  O1  UNL A   1      12.983  20.999   0.337  1.00  0.00    +0.000 O 
BRANCH    3    2
ATOM      2  C2  UNL A   1      13.002  18.924   1.652  1.00  0.00    +0.000 C 
ATOM    107  H4  UNL A   1      12.934  17.921   1.285  1.00  0.00    +0.000 H 
BRANCH    2    1
ATOM      1  C1  UNL A   1      11.729  19.381   2.377  1.00  0.00    +0.000 C 
ATOM    106  H3  UNL A   1      11.693  20.450   2.394  1.00  0.00    +0.000 H 
ATOM    105  H2  UNL A   1      10.871  19.003   1.863  1.00  0.00    +0.000 H 
ATOM    104  H1  UNL A   1      11.737  19.008   3.380  1.00  0.00    +0.000 H 
ENDBRANCH    2    1
BRANCH    2   78
ATOM    101  C75 UNL A   1      15.690  19.910   4.232  1.00  0.00    +0.000 C 
ATOM    102  F16 UNL A   1      16.184  21.045   4.753  1.00  0.00    +0.000 F 
ATOM    103  C76 UNL A   1      14.759  20.021   3.201  1.00  0.00    +0.000 C 
ATOM    136  H33 UNL A   1      14.275  16.770   2.646  1.00  0.00    +0.000 H 
ATOM    137  H34 UNL A   1      15.872  16.591   4.451  1.00  0.00    +0.000 H 
ATOM     78  C55 UNL A   1      14.166  18.883   2.646  1.00  0.00    +0.000 C 
ATOM     79  C56 UNL A   1      14.630  17.629   3.095  1.00  0.00    +0.000 C 
ATOM     80  C57 UNL A   1      15.561  17.524   4.137  1.00  0.00    +0.000 C 
ATOM     81  C58 UNL A   1      16.072  18.671   4.757  1.00  0.00    +0.000 C 
ATOM    154  H51 UNL A   1      14.505  20.954   2.842  1.00  0.00    +0.000 H 
BRANCH   81   82
ATOM    100  C74 UNL A   1      18.103  17.897   5.952  1.00  0.00    +0.000 C 
ATOM    138  H35 UNL A   1      15.590  19.705   7.233  1.00  0.00    +0.000 H 
ATOM    139  H36 UNL A   1      16.984  19.539   9.210  1.00  0.00    +0.000 H 
ATOM    140  H37 UNL A   1      19.098  18.346   9.115  1.00  0.00    +0.000 H 
ATOM     82  C59 UNL A   1      16.876  18.586   5.985  1.00  0.00    +0.000 C 
ATOM     83  C60 UNL A   1      16.482  19.189   7.187  1.00  0.00    +0.000 C 
ATOM     84  C61 UNL A   1      17.288  19.098   8.327  1.00  0.00    +0.000 C 
ATOM     85  C62 UNL A   1      18.503  18.414   8.275  1.00  0.00    +0.000 C 
ATOM     86  C63 UNL A   1      18.911  17.823   7.081  1.00  0.00    +0.000 C 
ATOM    153  H50 UNL A   1      18.406  17.440   5.078  1.00  0.00    +0.000 H 
BRANCH   86   87
ATOM     87  O3  UNL A   1      20.132  17.111   7.126  1.00  0.00    +0.000 O 
BRANCH   87   88
ATOM     89  O4  UNL A   1      19.765  14.835   7.525  1.00  0.00    +0.000 O 
ATOM     88  C64 UNL A   1      20.319  15.891   7.779  1.00  0.00    +0.000 C 
BRANCH   88   90
ATOM     90  N7  UNL A   1      21.245  15.961   8.789  1.00  0.00    +0.000 N 
ATOM    141  H38 UNL A   1      20.990  16.423   9.619  1.00  0.00    +0.000 H 
BRANCH   90   91
ATOM     91  C65 UNL A   1      22.572  15.396   8.710  1.00  0.00    +0.000 C 
ATOM    142  H39 UNL A   1      23.094  15.880   7.912  1.00  0.00    +0.000 H 
ATOM    143  H40 UNL A   1      22.448  14.345   8.553  1.00  0.00    +0.000 H 
BRANCH   91   92
ATOM    145  H42 UNL A   1      23.086  14.735  10.605  1.00  0.00    +0.000 H 
ATOM     92  C66 UNL A   1      23.401  15.550   9.986  1.00  0.00    +0.000 C 
ATOM    144  H41 UNL A   1      24.432  15.548   9.697  1.00  0.00    +0.000 H 
BRANCH   92   93
ATOM    146  H43 UNL A   1      22.286  17.264  10.494  1.00  0.00    +0.000 H 
ATOM    147  H44 UNL A   1      24.098  17.328  10.755  1.00  0.00    +0.000 H 
ATOM     93  C67 UNL A   1      23.176  16.794  10.856  1.00  0.00    +0.000 C 
BRANCH   93   94
ATOM     97  C71 UNL A   1      22.586  16.580  15.140  1.00  0.00    +0.000 C 
ATOM     98  C72 UNL A   1      22.389  17.767  14.443  1.00  0.00    +0.000 C 
ATOM     99  C73 UNL A   1      22.598  17.805  13.062  1.00  0.00    +0.000 C 
ATOM    148  H45 UNL A   1      23.531  14.632  12.583  1.00  0.00    +0.000 H 
ATOM    149  H46 UNL A   1      23.143  14.558  14.972  1.00  0.00    +0.000 H 
ATOM    150  H47 UNL A   1      22.427  16.546  16.159  1.00  0.00    +0.000 H 
ATOM    151  H48 UNL A   1      22.091  18.617  14.943  1.00  0.00    +0.000 H 
ATOM    152  H49 UNL A   1      22.440  18.687  12.551  1.00  0.00    +0.000 H 
ATOM     94  C68 UNL A   1      23.020  16.664  12.354  1.00  0.00    +0.000 C 
ATOM     95  C69 UNL A   1      23.218  15.484  13.075  1.00  0.00    +0.000 C 
ATOM     96  C70 UNL A   1      22.999  15.441  14.457  1.00  0.00    +0.000 C 
ENDBRANCH   93   94
ENDBRANCH   92   93
ENDBRANCH   91   92
ENDBRANCH   90   91
ENDBRANCH   88   90
ENDBRANCH   87   88
ENDBRANCH   86   87
ENDBRANCH   81   82
ENDBRANCH    2   78
ENDBRANCH    3    2
ENDBRANCH    5    3
ENDBRANCH    6    5
ENDBRANCH    7    6
ENDBRANCH    8    7
ENDBRANCH    9    8
ENDBRANCH   10    9
ENDBRANCH   11   10
ENDBRANCH   12   11
ENDBRANCH   13   12
ENDBRANCH   15   13
ENDBRANCH   19   18
BRANCH   23   24
ATOM     33  C24 UNL A   1      19.135  21.881   3.632  1.00  0.00    +0.000 C 
ATOM     34  F5  UNL A   1      18.731  21.346   4.795  1.00  0.00    +0.000 F 
ATOM     24  C19 UNL A   1      19.998  21.168   2.786  1.00  0.00    +0.000 C 
ATOM     25  C20 UNL A   1      20.384  21.774   1.581  1.00  0.00    +0.000 C 
ATOM     26  F1  UNL A   1      21.217  21.139   0.744  1.00  0.00    +0.000 F 
ATOM     27  C21 UNL A   1      19.947  23.054   1.250  1.00  0.00    +0.000 C 
ATOM     28  F2  UNL A   1      20.367  23.631   0.116  1.00  0.00    +0.000 F 
ATOM     29  C22 UNL A   1      19.089  23.737   2.099  1.00  0.00    +0.000 C 
ATOM     30  F3  UNL A   1      18.665  24.968   1.776  1.00  0.00    +0.000 F 
ATOM     31  C23 UNL A   1      18.677  23.150   3.285  1.00  0.00    +0.000 C 
ATOM     32  F4  UNL A   1      17.841  23.805   4.101  1.00  0.00    +0.000 F 
ENDBRANCH   23   24
BRANCH   40   41
ATOM     41  C30 UNL A   1      25.388  18.091   6.454  1.00  0.00    +0.000 C 
ATOM     42  C31 UNL A   1      26.668  18.175   5.889  1.00  0.00    +0.000 C 
ATOM     43  F6  UNL A   1      26.865  17.817   4.611  1.00  0.00    +0.000 F 
ATOM     44  C32 UNL A   1      27.757  18.595   6.647  1.00  0.00    +0.000 C 
ATOM     45  F7  UNL A   1      28.979  18.628   6.098  1.00  0.00    +0.000 F 
ATOM     46  C33 UNL A   1      27.583  18.965   7.972  1.00  0.00    +0.000 C 
ATOM     47  F8  UNL A   1      28.632  19.374   8.698  1.00  0.00    +0.000 F 
ATOM     48  C34 UNL A   1      26.322  18.905   8.546  1.00  0.00    +0.000 C 
ATOM     49  F9  UNL A   1      26.151  19.272   9.824  1.00  0.00    +0.000 F 
ATOM     50  C35 UNL A   1      25.235  18.461   7.799  1.00  0.00    +0.000 C 
ATOM     51  F10 UNL A   1      24.029  18.402   8.384  1.00  0.00    +0.000 F 
ENDBRANCH   40   41
BRANCH   55   56
ATOM     65  C44 UNL A   1      22.540  11.159   5.935  1.00  0.00    +0.000 C 
ATOM     66  F15 UNL A   1      21.785  11.778   6.855  1.00  0.00    +0.000 F 
ATOM     56  C39 UNL A   1      22.886  11.820   4.749  1.00  0.00    +0.000 C 
ATOM     57  C40 UNL A   1      23.681  11.131   3.822  1.00  0.00    +0.000 C 
ATOM     58  F11 UNL A   1      24.018  11.717   2.664  1.00  0.00    +0.000 F 
ATOM     59  C41 UNL A   1      24.100   9.826   4.066  1.00  0.00    +0.000 C 
ATOM     60  F12 UNL A   1      24.827   9.176   3.146  1.00  0.00    +0.000 F 
ATOM     61  C42 UNL A   1      23.756   9.194   5.250  1.00  0.00    +0.000 C 
ATOM     62  F13 UNL A   1      24.163   7.940   5.486  1.00  0.00    +0.000 F 
ATOM     63  C43 UNL A   1      22.981   9.861   6.188  1.00  0.00    +0.000 C 
ATOM     64  F14 UNL A   1      22.656   9.259   7.340  1.00  0.00    +0.000 F 
ENDBRANCH   55   56
TORSDOF 25
ENDMDL
