MODEL 1
REMARK VINA RESULT:     -10.4      0.000      0.000
ROOT
ATOM     30  C24 UNL A   1      25.287  33.181  46.333  1.00  0.00    +0.000 C 
ATOM     31  C25 UNL A   1      26.165  32.097  46.967  1.00  0.00    +0.000 C 
ATOM     32  N4  UNL A   1      27.193  32.205  47.754  1.00  0.00    +0.000 N 
ATOM     33  C26 UNL A   1      27.707  30.908  47.961  1.00  0.00    +0.000 C 
ATOM     34  C27 UNL A   1      28.930  30.658  48.516  1.00  0.00    +0.000 C 
ATOM     46  C34 UNL A   1      29.562  31.868  48.916  1.00  0.00    +0.000 C 
ATOM     47  C35 UNL A   1      29.409  32.680  50.007  1.00  0.00    +0.000 C 
ATOM     48  C36 UNL A   1      29.777  33.963  49.552  1.00  0.00    +0.000 C 
ATOM     49  C37 UNL A   1      30.213  33.875  48.226  1.00  0.00    +0.000 C 
ATOM     50  N5  UNL A   1      30.324  32.525  47.983  1.00  0.00    +0.000 N 
ATOM     51  C38 UNL A   1      30.349  34.778  47.105  1.00  0.00    +0.000 C 
ATOM     63  C45 UNL A   1      29.980  36.069  47.294  1.00  0.00    +0.000 C 
ATOM     64  N6  UNL A   1      29.254  36.722  46.321  1.00  0.00    +0.000 N 
ATOM     65  C46 UNL A   1      28.324  37.316  47.009  1.00  0.00    +0.000 C 
ATOM     66  C47 UNL A   1      27.063  37.836  46.446  1.00  0.00    +0.000 C 
ATOM     78  C54 UNL A   1      26.312  36.732  46.141  1.00  0.00    +0.000 C 
ATOM     79  C55 UNL A   1      25.013  36.683  45.501  1.00  0.00    +0.000 C 
ATOM     80  C56 UNL A   1      24.558  35.418  45.488  1.00  0.00    +0.000 C 
ATOM     81  C57 UNL A   1      25.521  34.509  46.133  1.00  0.00    +0.000 C 
ATOM     82  N7  UNL A   1      26.569  35.364  46.415  1.00  0.00    +0.000 N 
ATOM     83  C58 UNL A   1      28.532  37.381  48.461  1.00  0.00    +0.000 C 
ATOM     84  C59 UNL A   1      29.691  36.734  48.541  1.00  0.00    +0.000 C 
ATOM     85  C60 UNL A   1      26.768  29.998  47.378  1.00  0.00    +0.000 C 
ATOM     86  C61 UNL A   1      25.820  30.670  46.723  1.00  0.00    +0.000 C 
ATOM    114  H26 UNL A   1      29.095  32.412  50.953  1.00  0.00    +0.000 H 
ATOM    115  H27 UNL A   1      29.731  34.831  50.109  1.00  0.00    +0.000 H 
ATOM    116  H28 UNL A   1      30.854  32.106  47.266  1.00  0.00    +0.000 H 
ATOM    117  H29 UNL A   1      24.514  37.498  45.113  1.00  0.00    +0.000 H 
ATOM    118  H30 UNL A   1      23.655  35.125  45.082  1.00  0.00    +0.000 H 
ATOM    119  H31 UNL A   1      27.428  35.047  46.779  1.00  0.00    +0.000 H 
ATOM    120  H32 UNL A   1      27.950  37.803  49.200  1.00  0.00    +0.000 H 
ATOM    121  H33 UNL A   1      30.298  36.712  49.376  1.00  0.00    +0.000 H 
ATOM    122  H34 UNL A   1      26.818  28.970  47.454  1.00  0.00    +0.000 H 
ATOM    123  H35 UNL A   1      25.032  30.290  46.176  1.00  0.00    +0.000 H 
ENDROOT
BRANCH   30   29
ATOM    124  H36 UNL A   1      24.400  32.873  43.807  1.00  0.00    +0.000 H 
ATOM     29  C23 UNL A   1      23.972  32.681  45.873  1.00  0.00    +0.000 C 
ATOM    112  H24 UNL A   1      21.152  31.359  47.099  1.00  0.00    +0.000 H 
ATOM    113  H25 UNL A   1      23.203  32.430  47.830  1.00  0.00    +0.000 H 
ATOM     87  C62 UNL A   1      23.712  32.544  44.502  1.00  0.00    +0.000 C 
ATOM     88  C63 UNL A   1      22.521  31.962  44.088  1.00  0.00    +0.000 C 
ATOM     26  C20 UNL A   1      21.620  31.472  45.039  1.00  0.00    +0.000 C 
ATOM     27  C21 UNL A   1      21.851  31.666  46.405  1.00  0.00    +0.000 C 
ATOM     28  C22 UNL A   1      23.028  32.277  46.825  1.00  0.00    +0.000 C 
ATOM    125  H37 UNL A   1      22.301  31.892  43.082  1.00  0.00    +0.000 H 
BRANCH   26   24
ATOM     25  O2  UNL A   1      20.192  29.621  45.012  1.00  0.00    +0.000 O 
ATOM     24  C19 UNL A   1      20.384  30.766  44.641  1.00  0.00    +0.000 C 
BRANCH   24   23
ATOM    111  H23 UNL A   1      19.763  32.237  43.413  1.00  0.00    +0.000 H 
ATOM     23  N3  UNL A   1      19.472  31.389  43.820  1.00  0.00    +0.000 N 
BRANCH   23   22
ATOM    110  H22 UNL A   1      18.107  29.873  43.539  1.00  0.00    +0.000 H 
ATOM    109  H21 UNL A   1      17.894  31.271  42.490  1.00  0.00    +0.000 H 
ATOM     22  C18 UNL A   1      18.131  30.941  43.480  1.00  0.00    +0.000 C 
BRANCH   22   21
ATOM    107  H19 UNL A   1      16.313  30.778  44.557  1.00  0.00    +0.000 H 
ATOM    108  H20 UNL A   1      17.607  31.692  45.369  1.00  0.00    +0.000 H 
ATOM     21  C17 UNL A   1      17.096  31.499  44.450  1.00  0.00    +0.000 C 
BRANCH   21   20
ATOM    105  H17 UNL A   1      16.477  32.840  42.933  1.00  0.00    +0.000 H 
ATOM    106  H18 UNL A   1      15.499  32.840  44.448  1.00  0.00    +0.000 H 
ATOM     20  C16 UNL A   1      16.472  32.824  44.003  1.00  0.00    +0.000 C 
BRANCH   20   19
ATOM     19  C15 UNL A   1      17.156  34.103  44.488  1.00  0.00    +0.000 C 
ATOM    103  H15 UNL A   1      17.983  33.817  45.104  1.00  0.00    +0.000 H 
ATOM    104  H16 UNL A   1      17.430  34.635  43.601  1.00  0.00    +0.000 H 
BRANCH   19   18
ATOM     18  C14 UNL A   1      16.286  35.072  45.295  1.00  0.00    +0.000 C 
ATOM    101  H13 UNL A   1      15.426  35.310  44.703  1.00  0.00    +0.000 H 
ATOM    102  H14 UNL A   1      16.064  34.562  46.209  1.00  0.00    +0.000 H 
BRANCH   18   17
ATOM     17  C13 UNL A   1      16.944  36.388  45.710  1.00  0.00    +0.000 C 
ATOM     99  H11 UNL A   1      17.991  36.213  45.842  1.00  0.00    +0.000 H 
ATOM    100  H12 UNL A   1      16.739  37.093  44.933  1.00  0.00    +0.000 H 
BRANCH   17   16
ATOM     98  H10 UNL A   1      15.626  37.536  46.914  1.00  0.00    +0.000 H 
ATOM     16  N2  UNL A   1      16.417  36.951  46.938  1.00  0.00    +0.000 N 
BRANCH   16    2
ATOM      1  O1  UNL A   1      16.584  35.844  48.948  1.00  0.00    +0.000 O 
ATOM      2  C1  UNL A   1      17.031  36.660  48.145  1.00  0.00    +0.000 C 
BRANCH    2    3
ATOM     89  H1  UNL A   1      17.983  38.235  49.152  1.00  0.00    +0.000 H 
ATOM     90  H2  UNL A   1      18.581  37.849  47.485  1.00  0.00    +0.000 H 
ATOM      3  C2  UNL A   1      18.266  37.486  48.441  1.00  0.00    +0.000 C 
BRANCH    3    4
ATOM      4  C3  UNL A   1      19.474  36.777  48.993  1.00  0.00    +0.000 C 
ATOM      5  C4  UNL A   1      19.724  36.566  50.345  1.00  0.00    +0.000 C 
ATOM      6  C5  UNL A   1      20.883  35.776  50.474  1.00  0.00    +0.000 C 
ATOM      7  C6  UNL A   1      21.325  35.511  49.202  1.00  0.00    +0.000 C 
ATOM      8  N1  UNL A   1      20.485  36.128  48.296  1.00  0.00    +0.000 N 
ATOM     91  H3  UNL A   1      19.153  36.928  51.125  1.00  0.00    +0.000 H 
ATOM     92  H4  UNL A   1      21.318  35.459  51.355  1.00  0.00    +0.000 H 
ATOM     93  H5  UNL A   1      22.151  34.941  48.961  1.00  0.00    +0.000 H 
BRANCH    8    9
ATOM     97  H9  UNL A   1      20.304  34.260  44.201  1.00  0.00    +0.000 H 
ATOM      9  C7  UNL A   1      20.766  36.149  46.924  1.00  0.00    +0.000 C 
ATOM     10  C8  UNL A   1      21.319  37.285  46.335  1.00  0.00    +0.000 C 
ATOM     11  C9  UNL A   1      21.537  37.289  44.954  1.00  0.00    +0.000 C 
ATOM     12  C10 UNL A   1      21.182  36.181  44.177  1.00  0.00    +0.000 C 
ATOM     13  C11 UNL A   1      20.585  35.071  44.775  1.00  0.00    +0.000 C 
ATOM     14  C12 UNL A   1      20.371  35.065  46.148  1.00  0.00    +0.000 C 
ATOM     15  F1  UNL A   1      19.780  34.006  46.719  1.00  0.00    +0.000 F 
ATOM     94  H6  UNL A   1      21.564  38.108  46.907  1.00  0.00    +0.000 H 
ATOM     95  H7  UNL A   1      21.963  38.115  44.504  1.00  0.00    +0.000 H 
ATOM     96  H8  UNL A   1      21.362  36.184  43.161  1.00  0.00    +0.000 H 
ENDBRANCH    8    9
ENDBRANCH    3    4
ENDBRANCH    2    3
ENDBRANCH   16    2
ENDBRANCH   17   16
ENDBRANCH   18   17
ENDBRANCH   19   18
ENDBRANCH   20   19
ENDBRANCH   21   20
ENDBRANCH   22   21
ENDBRANCH   23   22
ENDBRANCH   24   23
ENDBRANCH   26   24
ENDBRANCH   30   29
BRANCH   34   35
ATOM     35  C28 UNL A   1      29.738  29.394  48.610  1.00  0.00    +0.000 C 
ATOM     36  C29 UNL A   1      30.923  29.181  47.893  1.00  0.00    +0.000 C 
ATOM     37  F2  UNL A   1      31.269  29.984  46.880  1.00  0.00    +0.000 F 
ATOM     38  C30 UNL A   1      31.832  28.184  48.267  1.00  0.00    +0.000 C 
ATOM     39  F3  UNL A   1      32.974  28.036  47.582  1.00  0.00    +0.000 F 
ATOM     40  C31 UNL A   1      31.597  27.390  49.380  1.00  0.00    +0.000 C 
ATOM     41  F4  UNL A   1      32.516  26.507  49.790  1.00  0.00    +0.000 F 
ATOM     42  C32 UNL A   1      30.417  27.541  50.081  1.00  0.00    +0.000 C 
ATOM     43  F5  UNL A   1      30.187  26.801  51.175  1.00  0.00    +0.000 F 
ATOM     44  C33 UNL A   1      29.490  28.504  49.684  1.00  0.00    +0.000 C 
ATOM     45  F6  UNL A   1      28.363  28.597  50.406  1.00  0.00    +0.000 F 
ENDBRANCH   34   35
BRANCH   51   52
ATOM     52  C39 UNL A   1      30.423  34.387  45.645  1.00  0.00    +0.000 C 
ATOM     53  C40 UNL A   1      29.312  33.969  44.893  1.00  0.00    +0.000 C 
ATOM     54  F7  UNL A   1      28.135  33.763  45.480  1.00  0.00    +0.000 F 
ATOM     55  C41 UNL A   1      29.381  33.748  43.519  1.00  0.00    +0.000 C 
ATOM     56  F8  UNL A   1      28.293  33.332  42.851  1.00  0.00    +0.000 F 
ATOM     57  C42 UNL A   1      30.570  33.953  42.847  1.00  0.00    +0.000 C 
ATOM     58  F9  UNL A   1      30.640  33.742  41.525  1.00  0.00    +0.000 F 
ATOM     59  C43 UNL A   1      31.688  34.362  43.554  1.00  0.00    +0.000 C 
ATOM     60  F10 UNL A   1      32.846  34.557  42.908  1.00  0.00    +0.000 F 
ATOM     61  C44 UNL A   1      31.619  34.571  44.934  1.00  0.00    +0.000 C 
ATOM     62  F11 UNL A   1      32.728  34.962  45.581  1.00  0.00    +0.000 F 
ENDBRANCH   51   52
BRANCH   66   67
ATOM     67  C48 UNL A   1      26.863  39.339  46.447  1.00  0.00    +0.000 C 
ATOM     68  C49 UNL A   1      27.706  40.169  45.653  1.00  0.00    +0.000 C 
ATOM     69  F12 UNL A   1      28.515  39.656  44.716  1.00  0.00    +0.000 F 
ATOM     70  C50 UNL A   1      27.767  41.558  45.783  1.00  0.00    +0.000 C 
ATOM     71  F13 UNL A   1      28.667  42.253  45.073  1.00  0.00    +0.000 F 
ATOM     72  C51 UNL A   1      26.924  42.205  46.654  1.00  0.00    +0.000 C 
ATOM     73  F14 UNL A   1      26.996  43.533  46.808  1.00  0.00    +0.000 F 
ATOM     74  C52 UNL A   1      25.994  41.458  47.350  1.00  0.00    +0.000 C 
ATOM     75  F15 UNL A   1      25.121  42.082  48.154  1.00  0.00    +0.000 F 
ATOM     76  C53 UNL A   1      25.959  40.057  47.242  1.00  0.00    +0.000 C 
ATOM     77  F16 UNL A   1      24.989  39.449  47.927  1.00  0.00    +0.000 F 
ENDBRANCH   66   67
TORSDOF 17
ENDMDL
MODEL 2
REMARK VINA RESULT:     -10.1      3.589      6.123
ROOT
ATOM     30  C24 UNL A   1      25.249  33.234  46.279  1.00  0.00    +0.000 C 
ATOM     31  C25 UNL A   1      26.111  32.148  46.932  1.00  0.00    +0.000 C 
ATOM     32  N4  UNL A   1      27.124  32.254  47.739  1.00  0.00    +0.000 N 
ATOM     33  C26 UNL A   1      27.630  30.955  47.958  1.00  0.00    +0.000 C 
ATOM     34  C27 UNL A   1      28.840  30.702  48.538  1.00  0.00    +0.000 C 
ATOM     46  C34 UNL A   1      29.468  31.911  48.948  1.00  0.00    +0.000 C 
ATOM     47  C35 UNL A   1      29.297  32.725  50.035  1.00  0.00    +0.000 C 
ATOM     48  C36 UNL A   1      29.678  34.006  49.585  1.00  0.00    +0.000 C 
ATOM     49  C37 UNL A   1      30.139  33.914  48.269  1.00  0.00    +0.000 C 
ATOM     50  N5  UNL A   1      30.250  32.564  48.029  1.00  0.00    +0.000 N 
ATOM     51  C38 UNL A   1      30.301  34.815  47.149  1.00  0.00    +0.000 C 
ATOM     63  C45 UNL A   1      29.932  36.108  47.328  1.00  0.00    +0.000 C 
ATOM     64  N6  UNL A   1      29.228  36.761  46.340  1.00  0.00    +0.000 N 
ATOM     65  C46 UNL A   1      28.286  37.359  47.009  1.00  0.00    +0.000 C 
ATOM     66  C47 UNL A   1      27.038  37.882  46.420  1.00  0.00    +0.000 C 
ATOM     78  C54 UNL A   1      26.290  36.780  46.102  1.00  0.00    +0.000 C 
ATOM     79  C55 UNL A   1      25.004  36.735  45.437  1.00  0.00    +0.000 C 
ATOM     80  C56 UNL A   1      24.545  35.472  45.417  1.00  0.00    +0.000 C 
ATOM     81  C57 UNL A   1      25.492  34.561  46.081  1.00  0.00    +0.000 C 
ATOM     82  N7  UNL A   1      26.537  35.412  46.384  1.00  0.00    +0.000 N 
ATOM     83  C58 UNL A   1      28.466  37.426  48.464  1.00  0.00    +0.000 C 
ATOM     84  C59 UNL A   1      29.621  36.776  48.569  1.00  0.00    +0.000 C 
ATOM     85  C60 UNL A   1      26.699  30.047  47.358  1.00  0.00    +0.000 C 
ATOM     86  C61 UNL A   1      25.766  30.721  46.683  1.00  0.00    +0.000 C 
ATOM    114  H26 UNL A   1      28.963  32.460  50.975  1.00  0.00    +0.000 H 
ATOM    115  H27 UNL A   1      29.624  34.875  50.140  1.00  0.00    +0.000 H 
ATOM    116  H28 UNL A   1      30.793  32.142  47.324  1.00  0.00    +0.000 H 
ATOM    117  H29 UNL A   1      24.515  37.551  45.037  1.00  0.00    +0.000 H 
ATOM    118  H30 UNL A   1      23.649  35.181  44.993  1.00  0.00    +0.000 H 
ATOM    119  H31 UNL A   1      27.387  35.093  46.764  1.00  0.00    +0.000 H 
ATOM    120  H32 UNL A   1      27.870  37.851  49.192  1.00  0.00    +0.000 H 
ATOM    121  H33 UNL A   1      30.210  36.753  49.416  1.00  0.00    +0.000 H 
ATOM    122  H34 UNL A   1      26.744  29.019  47.437  1.00  0.00    +0.000 H 
ATOM    123  H35 UNL A   1      24.988  30.342  46.122  1.00  0.00    +0.000 H 
ENDROOT
BRANCH   30   29
ATOM    124  H36 UNL A   1      24.549  32.523  43.776  1.00  0.00    +0.000 H 
ATOM     29  C23 UNL A   1      23.942  32.736  45.794  1.00  0.00    +0.000 C 
ATOM    112  H24 UNL A   1      20.940  31.830  46.965  1.00  0.00    +0.000 H 
ATOM    113  H25 UNL A   1      23.001  32.893  47.684  1.00  0.00    +0.000 H 
ATOM     87  C62 UNL A   1      23.785  32.368  44.451  1.00  0.00    +0.000 C 
ATOM     88  C63 UNL A   1      22.590  31.792  44.036  1.00  0.00    +0.000 C 
ATOM     26  C20 UNL A   1      21.582  31.538  44.971  1.00  0.00    +0.000 C 
ATOM     27  C21 UNL A   1      21.715  31.964  46.296  1.00  0.00    +0.000 C 
ATOM     28  C22 UNL A   1      22.896  32.569  46.710  1.00  0.00    +0.000 C 
ATOM    125  H37 UNL A   1      22.448  31.553  43.042  1.00  0.00    +0.000 H 
BRANCH   26   24
ATOM     25  O2  UNL A   1      20.096  29.734  45.027  1.00  0.00    +0.000 O 
ATOM     24  C19 UNL A   1      20.332  30.846  44.590  1.00  0.00    +0.000 C 
BRANCH   24   23
ATOM    111  H23 UNL A   1      19.398  31.035  42.815  1.00  0.00    +0.000 H 
ATOM     23  N3  UNL A   1      19.458  31.442  43.709  1.00  0.00    +0.000 N 
BRANCH   23   22
ATOM    110  H22 UNL A   1      18.283  32.976  42.998  1.00  0.00    +0.000 H 
ATOM    109  H21 UNL A   1      19.174  33.343  44.472  1.00  0.00    +0.000 H 
ATOM     22  C18 UNL A   1      18.611  32.601  43.944  1.00  0.00    +0.000 C 
BRANCH   22   21
ATOM    107  H19 UNL A   1      17.663  32.210  45.800  1.00  0.00    +0.000 H 
ATOM    108  H20 UNL A   1      16.638  32.972  44.559  1.00  0.00    +0.000 H 
ATOM     21  C17 UNL A   1      17.382  32.233  44.767  1.00  0.00    +0.000 C 
BRANCH   21   20
ATOM    105  H17 UNL A   1      17.574  30.219  44.143  1.00  0.00    +0.000 H 
ATOM    106  H18 UNL A   1      16.214  30.580  45.270  1.00  0.00    +0.000 H 
ATOM     20  C16 UNL A   1      16.772  30.876  44.405  1.00  0.00    +0.000 C 
BRANCH   20   19
ATOM     19  C15 UNL A   1      15.766  30.860  43.254  1.00  0.00    +0.000 C 
ATOM    103  H15 UNL A   1      14.849  30.455  43.628  1.00  0.00    +0.000 H 
ATOM    104  H16 UNL A   1      15.695  31.875  42.922  1.00  0.00    +0.000 H 
BRANCH   19   18
ATOM     18  C14 UNL A   1      16.164  30.050  42.017  1.00  0.00    +0.000 C 
ATOM    101  H13 UNL A   1      15.818  30.580  41.154  1.00  0.00    +0.000 H 
ATOM    102  H14 UNL A   1      17.228  29.947  42.074  1.00  0.00    +0.000 H 
BRANCH   18   17
ATOM     17  C13 UNL A   1      15.619  28.624  41.938  1.00  0.00    +0.000 C 
ATOM     99  H11 UNL A   1      14.830  28.605  41.216  1.00  0.00    +0.000 H 
ATOM    100  H12 UNL A   1      16.441  27.994  41.668  1.00  0.00    +0.000 H 
BRANCH   17   16
ATOM     98  H10 UNL A   1      14.354  28.579  43.641  1.00  0.00    +0.000 H 
ATOM     16  N2  UNL A   1      15.100  28.119  43.194  1.00  0.00    +0.000 N 
BRANCH   16    2
ATOM      1  O1  UNL A   1      16.300  27.007  44.811  1.00  0.00    +0.000 O 
ATOM      2  C1  UNL A   1      15.660  26.986  43.762  1.00  0.00    +0.000 C 
BRANCH    2    3
ATOM     89  H1  UNL A   1      15.932  24.922  43.506  1.00  0.00    +0.000 H 
ATOM     90  H2  UNL A   1      15.953  25.943  42.009  1.00  0.00    +0.000 H 
ATOM      3  C2  UNL A   1      15.490  25.721  42.947  1.00  0.00    +0.000 C 
BRANCH    3    4
ATOM      4  C3  UNL A   1      14.091  25.296  42.587  1.00  0.00    +0.000 C 
ATOM      5  C4  UNL A   1      13.007  25.306  43.459  1.00  0.00    +0.000 C 
ATOM      6  C5  UNL A   1      11.847  24.952  42.744  1.00  0.00    +0.000 C 
ATOM      7  C6  UNL A   1      12.234  24.733  41.446  1.00  0.00    +0.000 C 
ATOM      8  N1  UNL A   1      13.597  24.923  41.344  1.00  0.00    +0.000 N 
ATOM     91  H3  UNL A   1      13.048  25.537  44.465  1.00  0.00    +0.000 H 
ATOM     92  H4  UNL A   1      10.891  24.870  43.124  1.00  0.00    +0.000 H 
ATOM     93  H5  UNL A   1      11.606  24.469  40.670  1.00  0.00    +0.000 H 
BRANCH    8    9
ATOM     97  H9  UNL A   1      15.676  22.020  38.598  1.00  0.00    +0.000 H 
ATOM      9  C7  UNL A   1      14.297  24.635  40.165  1.00  0.00    +0.000 C 
ATOM     10  C8  UNL A   1      14.469  25.616  39.189  1.00  0.00    +0.000 C 
ATOM     11  C9  UNL A   1      15.127  25.277  38.003  1.00  0.00    +0.000 C 
ATOM     12  C10 UNL A   1      15.582  23.971  37.793  1.00  0.00    +0.000 C 
ATOM     13  C11 UNL A   1      15.359  22.989  38.759  1.00  0.00    +0.000 C 
ATOM     14  C12 UNL A   1      14.708  23.326  39.939  1.00  0.00    +0.000 C 
ATOM     15  F1  UNL A   1      14.477  22.379  40.859  1.00  0.00    +0.000 F 
ATOM     94  H6  UNL A   1      14.117  26.574  39.339  1.00  0.00    +0.000 H 
ATOM     95  H7  UNL A   1      15.279  25.995  37.278  1.00  0.00    +0.000 H 
ATOM     96  H8  UNL A   1      16.083  23.733  36.922  1.00  0.00    +0.000 H 
ENDBRANCH    8    9
ENDBRANCH    3    4
ENDBRANCH    2    3
ENDBRANCH   16    2
ENDBRANCH   17   16
ENDBRANCH   18   17
ENDBRANCH   19   18
ENDBRANCH   20   19
ENDBRANCH   21   20
ENDBRANCH   22   21
ENDBRANCH   23   22
ENDBRANCH   24   23
ENDBRANCH   26   24
ENDBRANCH   30   29
BRANCH   34   35
ATOM     35  C28 UNL A   1      29.642  29.435  48.650  1.00  0.00    +0.000 C 
ATOM     36  C29 UNL A   1      30.837  29.215  47.952  1.00  0.00    +0.000 C 
ATOM     37  F2  UNL A   1      31.201  30.012  46.939  1.00  0.00    +0.000 F 
ATOM     38  C30 UNL A   1      31.736  28.216  48.344  1.00  0.00    +0.000 C 
ATOM     39  F3  UNL A   1      32.888  28.060  47.676  1.00  0.00    +0.000 F 
ATOM     40  C31 UNL A   1      31.482  27.429  49.456  1.00  0.00    +0.000 C 
ATOM     41  F4  UNL A   1      32.392  26.544  49.885  1.00  0.00    +0.000 F 
ATOM     42  C32 UNL A   1      30.293  27.587  50.140  1.00  0.00    +0.000 C 
ATOM     43  F5  UNL A   1      30.043  26.854  51.234  1.00  0.00    +0.000 F 
ATOM     44  C33 UNL A   1      29.375  28.552  49.725  1.00  0.00    +0.000 C 
ATOM     45  F6  UNL A   1      28.238  28.653  50.430  1.00  0.00    +0.000 F 
ENDBRANCH   34   35
BRANCH   51   52
ATOM     52  C39 UNL A   1      30.402  34.422  45.691  1.00  0.00    +0.000 C 
ATOM     53  C40 UNL A   1      29.301  34.025  44.913  1.00  0.00    +0.000 C 
ATOM     54  F7  UNL A   1      28.106  33.843  45.471  1.00  0.00    +0.000 F 
ATOM     55  C41 UNL A   1      29.399  33.802  43.541  1.00  0.00    +0.000 C 
ATOM     56  F8  UNL A   1      28.320  33.408  42.847  1.00  0.00    +0.000 F 
ATOM     57  C42 UNL A   1      30.608  33.982  42.897  1.00  0.00    +0.000 C 
ATOM     58  F9  UNL A   1      30.706  33.769  41.578  1.00  0.00    +0.000 F 
ATOM     59  C43 UNL A   1      31.717  34.370  43.632  1.00  0.00    +0.000 C 
ATOM     60  F10 UNL A   1      32.893  34.540  43.014  1.00  0.00    +0.000 F 
ATOM     61  C44 UNL A   1      31.618  34.581  45.009  1.00  0.00    +0.000 C 
ATOM     62  F11 UNL A   1      32.719  34.950  45.683  1.00  0.00    +0.000 F 
ENDBRANCH   51   52
BRANCH   66   67
ATOM     67  C48 UNL A   1      26.843  39.386  46.414  1.00  0.00    +0.000 C 
ATOM     68  C49 UNL A   1      27.691  40.210  45.620  1.00  0.00    +0.000 C 
ATOM     69  F12 UNL A   1      28.501  39.691  44.687  1.00  0.00    +0.000 F 
ATOM     70  C50 UNL A   1      27.757  41.600  45.745  1.00  0.00    +0.000 C 
ATOM     71  F13 UNL A   1      28.661  42.289  45.035  1.00  0.00    +0.000 F 
ATOM     72  C51 UNL A   1      26.914  42.253  46.611  1.00  0.00    +0.000 C 
ATOM     73  F14 UNL A   1      26.989  43.581  46.760  1.00  0.00    +0.000 F 
ATOM     74  C52 UNL A   1      25.979  41.512  47.307  1.00  0.00    +0.000 C 
ATOM     75  F15 UNL A   1      25.106  42.142  48.106  1.00  0.00    +0.000 F 
ATOM     76  C53 UNL A   1      25.940  40.110  47.204  1.00  0.00    +0.000 C 
ATOM     77  F16 UNL A   1      24.965  39.508  47.889  1.00  0.00    +0.000 F 
ENDBRANCH   66   67
TORSDOF 17
ENDMDL
MODEL 3
REMARK VINA RESULT:     -10.1     39.130     42.952
ROOT
ATOM     30  C24 UNL A   1       9.911  50.204   9.891  1.00  0.00    +0.000 C 
ATOM     31  C25 UNL A   1       9.979  49.668  11.325  1.00  0.00    +0.000 C 
ATOM     32  N4  UNL A   1      10.498  50.195  12.393  1.00  0.00    +0.000 N 
ATOM     33  C26 UNL A   1      10.392  49.244  13.430  1.00  0.00    +0.000 C 
ATOM     34  C27 UNL A   1      11.058  49.342  14.618  1.00  0.00    +0.000 C 
ATOM     46  C34 UNL A   1      11.798  50.556  14.686  1.00  0.00    +0.000 C 
ATOM     47  C35 UNL A   1      11.439  51.848  14.961  1.00  0.00    +0.000 C 
ATOM     48  C36 UNL A   1      12.380  52.635  14.265  1.00  0.00    +0.000 C 
ATOM     49  C37 UNL A   1      13.320  51.799  13.655  1.00  0.00    +0.000 C 
ATOM     50  N5  UNL A   1      13.073  50.552  14.181  1.00  0.00    +0.000 N 
ATOM     51  C38 UNL A   1      14.251  51.896  12.552  1.00  0.00    +0.000 C 
ATOM     63  C45 UNL A   1      14.291  53.067  11.870  1.00  0.00    +0.000 C 
ATOM     64  N6  UNL A   1      14.361  53.054  10.493  1.00  0.00    +0.000 N 
ATOM     65  C46 UNL A   1      13.477  53.945  10.154  1.00  0.00    +0.000 C 
ATOM     66  C47 UNL A   1      12.873  54.064   8.813  1.00  0.00    +0.000 C 
ATOM     78  C54 UNL A   1      12.028  52.993   8.693  1.00  0.00    +0.000 C 
ATOM     79  C55 UNL A   1      11.239  52.603   7.542  1.00  0.00    +0.000 C 
ATOM     80  C56 UNL A   1      10.448  51.563   7.862  1.00  0.00    +0.000 C 
ATOM     81  C57 UNL A   1      10.640  51.176   9.271  1.00  0.00    +0.000 C 
ATOM     82  N7  UNL A   1      11.656  52.026   9.661  1.00  0.00    +0.000 N 
ATOM     83  C58 UNL A   1      13.000  54.827  11.227  1.00  0.00    +0.000 C 
ATOM     84  C59 UNL A   1      13.700  54.330  12.242  1.00  0.00    +0.000 C 
ATOM     85  C60 UNL A   1       9.585  48.175  12.923  1.00  0.00    +0.000 C 
ATOM     86  C61 UNL A   1       9.332  48.362  11.627  1.00  0.00    +0.000 C 
ATOM    114  H26 UNL A   1      10.655  52.174  15.548  1.00  0.00    +0.000 H 
ATOM    115  H27 UNL A   1      12.375  53.666  14.213  1.00  0.00    +0.000 H 
ATOM    116  H28 UNL A   1      13.699  49.791  14.192  1.00  0.00    +0.000 H 
ATOM    117  H29 UNL A   1      11.279  53.054   6.615  1.00  0.00    +0.000 H 
ATOM    118  H30 UNL A   1       9.795  51.101   7.210  1.00  0.00    +0.000 H 
ATOM    119  H31 UNL A   1      12.089  51.964  10.543  1.00  0.00    +0.000 H 
ATOM    120  H32 UNL A   1      12.321  55.603  11.200  1.00  0.00    +0.000 H 
ATOM    121  H33 UNL A   1      13.806  54.782  13.163  1.00  0.00    +0.000 H 
ATOM    122  H34 UNL A   1       9.247  47.376  13.482  1.00  0.00    +0.000 H 
ATOM    123  H35 UNL A   1       8.809  47.747  10.985  1.00  0.00    +0.000 H 
ENDROOT
BRANCH   30   29
ATOM    124  H36 UNL A   1      10.196  48.153   8.166  1.00  0.00    +0.000 H 
ATOM     29  C23 UNL A   1       8.875  49.546   9.064  1.00  0.00    +0.000 C 
ATOM    112  H24 UNL A   1       5.565  49.590   8.574  1.00  0.00    +0.000 H 
ATOM    113  H25 UNL A   1       7.318  50.824   9.713  1.00  0.00    +0.000 H 
ATOM     87  C62 UNL A   1       9.212  48.451   8.256  1.00  0.00    +0.000 C 
ATOM     88  C63 UNL A   1       8.209  47.769   7.578  1.00  0.00    +0.000 C 
ATOM     26  C20 UNL A   1       6.874  48.148   7.749  1.00  0.00    +0.000 C 
ATOM     27  C21 UNL A   1       6.546  49.279   8.504  1.00  0.00    +0.000 C 
ATOM     28  C22 UNL A   1       7.549  49.984   9.160  1.00  0.00    +0.000 C 
ATOM    125  H37 UNL A   1       8.449  46.985   6.949  1.00  0.00    +0.000 H 
BRANCH   26   24
ATOM     25  O2  UNL A   1       5.341  46.386   7.650  1.00  0.00    +0.000 O 
ATOM     24  C19 UNL A   1       5.770  47.395   7.118  1.00  0.00    +0.000 C 
BRANCH   24   23
ATOM    111  H23 UNL A   1       4.706  47.156   5.425  1.00  0.00    +0.000 H 
ATOM     23  N3  UNL A   1       5.257  47.811   5.911  1.00  0.00    +0.000 N 
BRANCH   23   22
ATOM    110  H22 UNL A   1       5.769  49.804   6.006  1.00  0.00    +0.000 H 
ATOM    109  H21 UNL A   1       4.493  49.416   4.855  1.00  0.00    +0.000 H 
ATOM     22  C18 UNL A   1       5.429  49.105   5.270  1.00  0.00    +0.000 C 
BRANCH   22   21
ATOM    107  H19 UNL A   1       7.158  48.253   4.386  1.00  0.00    +0.000 H 
ATOM    108  H20 UNL A   1       5.934  48.866   3.246  1.00  0.00    +0.000 H 
ATOM     21  C17 UNL A   1       6.468  49.039   4.157  1.00  0.00    +0.000 C 
BRANCH   21   20
ATOM    105  H17 UNL A   1       7.762  50.272   3.022  1.00  0.00    +0.000 H 
ATOM    106  H18 UNL A   1       6.537  51.120   4.037  1.00  0.00    +0.000 H 
ATOM     20  C16 UNL A   1       7.261  50.335   3.965  1.00  0.00    +0.000 C 
BRANCH   20   19
ATOM     19  C15 UNL A   1       8.312  50.660   5.027  1.00  0.00    +0.000 C 
ATOM    103  H15 UNL A   1       8.474  51.718   5.012  1.00  0.00    +0.000 H 
ATOM    104  H16 UNL A   1       7.914  50.289   5.947  1.00  0.00    +0.000 H 
BRANCH   19   18
ATOM     18  C14 UNL A   1       9.674  49.978   4.864  1.00  0.00    +0.000 C 
ATOM    101  H13 UNL A   1      10.420  50.641   5.252  1.00  0.00    +0.000 H 
ATOM    102  H14 UNL A   1       9.593  49.050   5.390  1.00  0.00    +0.000 H 
BRANCH   18   17
ATOM     17  C13 UNL A   1      10.078  49.605   3.437  1.00  0.00    +0.000 C 
ATOM     99  H11 UNL A   1       9.213  49.236   2.929  1.00  0.00    +0.000 H 
ATOM    100  H12 UNL A   1      10.474  50.491   2.988  1.00  0.00    +0.000 H 
BRANCH   17   16
ATOM     98  H10 UNL A   1      12.058  48.863   3.253  1.00  0.00    +0.000 H 
ATOM     16  N2  UNL A   1      11.117  48.596   3.363  1.00  0.00    +0.000 N 
BRANCH   16    2
ATOM      1  O1  UNL A   1       9.685  46.815   3.098  1.00  0.00    +0.000 O 
ATOM      2  C1  UNL A   1      10.778  47.255   3.447  1.00  0.00    +0.000 C 
BRANCH    2    3
ATOM     89  H1  UNL A   1      12.787  46.819   3.868  1.00  0.00    +0.000 H 
ATOM     90  H2  UNL A   1      11.671  45.408   3.650  1.00  0.00    +0.000 H 
ATOM      3  C2  UNL A   1      11.836  46.375   4.078  1.00  0.00    +0.000 C 
BRANCH    3    4
ATOM      4  C3  UNL A   1      11.768  46.145   5.565  1.00  0.00    +0.000 C 
ATOM      5  C4  UNL A   1      10.830  45.339   6.203  1.00  0.00    +0.000 C 
ATOM      6  C5  UNL A   1      11.144  45.277   7.574  1.00  0.00    +0.000 C 
ATOM      7  C6  UNL A   1      12.269  46.042   7.758  1.00  0.00    +0.000 C 
ATOM      8  N1  UNL A   1      12.646  46.586   6.546  1.00  0.00    +0.000 N 
ATOM     91  H3  UNL A   1      10.036  44.864   5.745  1.00  0.00    +0.000 H 
ATOM     92  H4  UNL A   1      10.627  44.759   8.302  1.00  0.00    +0.000 H 
ATOM     93  H5  UNL A   1      12.756  46.185   8.656  1.00  0.00    +0.000 H 
BRANCH    8    9
ATOM     97  H9  UNL A   1      14.178  50.815   6.800  1.00  0.00    +0.000 H 
ATOM      9  C7  UNL A   1      13.681  47.524   6.448  1.00  0.00    +0.000 C 
ATOM     10  C8  UNL A   1      14.996  47.105   6.244  1.00  0.00    +0.000 C 
ATOM     11  C9  UNL A   1      16.010  48.067   6.203  1.00  0.00    +0.000 C 
ATOM     12  C10 UNL A   1      15.711  49.421   6.390  1.00  0.00    +0.000 C 
ATOM     13  C11 UNL A   1      14.398  49.818   6.642  1.00  0.00    +0.000 C 
ATOM     14  C12 UNL A   1      13.389  48.864   6.679  1.00  0.00    +0.000 C 
ATOM     15  F1  UNL A   1      12.130  49.244   6.940  1.00  0.00    +0.000 F 
ATOM     94  H6  UNL A   1      15.216  46.104   6.124  1.00  0.00    +0.000 H 
ATOM     95  H7  UNL A   1      16.986  47.776   6.035  1.00  0.00    +0.000 H 
ATOM     96  H8  UNL A   1      16.463  50.126   6.341  1.00  0.00    +0.000 H 
ENDBRANCH    8    9
ENDBRANCH    3    4
ENDBRANCH    2    3
ENDBRANCH   16    2
ENDBRANCH   17   16
ENDBRANCH   18   17
ENDBRANCH   19   18
ENDBRANCH   20   19
ENDBRANCH   21   20
ENDBRANCH   22   21
ENDBRANCH   23   22
ENDBRANCH   24   23
ENDBRANCH   26   24
ENDBRANCH   30   29
BRANCH   34   35
ATOM     35  C28 UNL A   1      11.257  48.350  15.730  1.00  0.00    +0.000 C 
ATOM     36  C29 UNL A   1      10.408  48.255  16.840  1.00  0.00    +0.000 C 
ATOM     37  F2  UNL A   1       9.517  49.217  17.111  1.00  0.00    +0.000 F 
ATOM     38  C30 UNL A   1      10.393  47.113  17.650  1.00  0.00    +0.000 C 
ATOM     39  F3  UNL A   1       9.538  47.042  18.680  1.00  0.00    +0.000 F 
ATOM     40  C31 UNL A   1      11.204  46.027  17.361  1.00  0.00    +0.000 C 
ATOM     41  F4  UNL A   1      11.113  44.900  18.080  1.00  0.00    +0.000 F 
ATOM     42  C32 UNL A   1      12.087  46.105  16.302  1.00  0.00    +0.000 C 
ATOM     43  F5  UNL A   1      12.859  45.053  15.992  1.00  0.00    +0.000 F 
ATOM     44  C33 UNL A   1      12.135  47.258  15.520  1.00  0.00    +0.000 C 
ATOM     45  F6  UNL A   1      13.018  47.271  14.510  1.00  0.00    +0.000 F 
ENDBRANCH   34   35
BRANCH   51   52
ATOM     52  C39 UNL A   1      14.854  50.739  11.786  1.00  0.00    +0.000 C 
ATOM     53  C40 UNL A   1      14.092  49.747  11.146  1.00  0.00    +0.000 C 
ATOM     54  F7  UNL A   1      12.771  49.701  11.300  1.00  0.00    +0.000 F 
ATOM     55  C41 UNL A   1      14.668  48.772  10.333  1.00  0.00    +0.000 C 
ATOM     56  F8  UNL A   1      13.896  47.836   9.759  1.00  0.00    +0.000 F 
ATOM     57  C42 UNL A   1      16.034  48.767  10.124  1.00  0.00    +0.000 C 
ATOM     58  F9  UNL A   1      16.591  47.832   9.342  1.00  0.00    +0.000 F 
ATOM     59  C43 UNL A   1      16.818  49.728  10.741  1.00  0.00    +0.000 C 
ATOM     60  F10 UNL A   1      18.144  49.725  10.545  1.00  0.00    +0.000 F 
ATOM     61  C44 UNL A   1      16.239  50.696  11.565  1.00  0.00    +0.000 C 
ATOM     62  F11 UNL A   1      17.037  51.604  12.147  1.00  0.00    +0.000 F 
ENDBRANCH   51   52
BRANCH   66   67
ATOM     67  C48 UNL A   1      13.210  55.299   8.000  1.00  0.00    +0.000 C 
ATOM     68  C49 UNL A   1      14.569  55.697   7.841  1.00  0.00    +0.000 C 
ATOM     69  F12 UNL A   1      15.581  54.887   8.178  1.00  0.00    +0.000 F 
ATOM     70  C50 UNL A   1      14.956  56.940   7.336  1.00  0.00    +0.000 C 
ATOM     71  F13 UNL A   1      16.254  57.277   7.322  1.00  0.00    +0.000 F 
ATOM     72  C51 UNL A   1      14.008  57.823   6.881  1.00  0.00    +0.000 C 
ATOM     73  F14 UNL A   1      14.367  59.029   6.424  1.00  0.00    +0.000 F 
ATOM     74  C52 UNL A   1      12.683  57.432   6.889  1.00  0.00    +0.000 C 
ATOM     75  F15 UNL A   1      11.753  58.257   6.387  1.00  0.00    +0.000 F 
ATOM     76  C53 UNL A   1      12.294  56.194   7.429  1.00  0.00    +0.000 C 
ATOM     77  F16 UNL A   1      10.994  55.908   7.341  1.00  0.00    +0.000 F 
ENDBRANCH   66   67
TORSDOF 17
ENDMDL
MODEL 4
REMARK VINA RESULT:     -10.0      0.975      2.258
ROOT
ATOM     30  C24 UNL A   1      25.609  33.266  46.586  1.00  0.00    +0.000 C 
ATOM     31  C25 UNL A   1      26.538  32.245  47.253  1.00  0.00    +0.000 C 
ATOM     32  N4  UNL A   1      27.577  32.428  48.012  1.00  0.00    +0.000 N 
ATOM     33  C26 UNL A   1      28.141  31.161  48.271  1.00  0.00    +0.000 C 
ATOM     34  C27 UNL A   1      29.382  30.981  48.811  1.00  0.00    +0.000 C 
ATOM     46  C34 UNL A   1      29.978  32.231  49.140  1.00  0.00    +0.000 C 
ATOM     47  C35 UNL A   1      29.816  33.088  50.194  1.00  0.00    +0.000 C 
ATOM     48  C36 UNL A   1      30.129  34.360  49.670  1.00  0.00    +0.000 C 
ATOM     49  C37 UNL A   1      30.543  34.223  48.342  1.00  0.00    +0.000 C 
ATOM     50  N5  UNL A   1      30.697  32.868  48.161  1.00  0.00    +0.000 N 
ATOM     51  C38 UNL A   1      30.625  35.075  47.176  1.00  0.00    +0.000 C 
ATOM     63  C45 UNL A   1      30.214  36.360  47.311  1.00  0.00    +0.000 C 
ATOM     64  N6  UNL A   1      29.446  36.939  46.323  1.00  0.00    +0.000 N 
ATOM     65  C46 UNL A   1      28.508  37.532  47.000  1.00  0.00    +0.000 C 
ATOM     66  C47 UNL A   1      27.219  37.980  46.440  1.00  0.00    +0.000 C 
ATOM     78  C54 UNL A   1      26.503  36.837  46.203  1.00  0.00    +0.000 C 
ATOM     79  C55 UNL A   1      25.195  36.712  45.594  1.00  0.00    +0.000 C 
ATOM     80  C56 UNL A   1      24.785  35.433  45.651  1.00  0.00    +0.000 C 
ATOM     81  C57 UNL A   1      25.792  34.590  46.318  1.00  0.00    +0.000 C 
ATOM     82  N7  UNL A   1      26.814  35.493  46.538  1.00  0.00    +0.000 N 
ATOM     83  C58 UNL A   1      28.742  37.675  48.443  1.00  0.00    +0.000 C 
ATOM     84  C59 UNL A   1      29.924  37.074  48.530  1.00  0.00    +0.000 C 
ATOM     85  C60 UNL A   1      27.224  30.191  47.751  1.00  0.00    +0.000 C 
ATOM     86  C61 UNL A   1      26.240  30.797  47.085  1.00  0.00    +0.000 C 
ATOM    114  H26 UNL A   1      29.530  32.856  51.158  1.00  0.00    +0.000 H 
ATOM    115  H27 UNL A   1      30.063  35.252  50.186  1.00  0.00    +0.000 H 
ATOM    116  H28 UNL A   1      31.228  32.433  47.455  1.00  0.00    +0.000 H 
ATOM    117  H29 UNL A   1      24.659  37.489  45.177  1.00  0.00    +0.000 H 
ATOM    118  H30 UNL A   1      23.885  35.089  45.278  1.00  0.00    +0.000 H 
ATOM    119  H31 UNL A   1      27.690  35.225  46.898  1.00  0.00    +0.000 H 
ATOM    120  H32 UNL A   1      28.159  38.112  49.173  1.00  0.00    +0.000 H 
ATOM    121  H33 UNL A   1      30.547  37.114  49.353  1.00  0.00    +0.000 H 
ATOM    122  H34 UNL A   1      27.312  29.170  47.876  1.00  0.00    +0.000 H 
ATOM    123  H35 UNL A   1      25.456  30.363  46.574  1.00  0.00    +0.000 H 
ENDROOT
BRANCH   30   29
ATOM    124  H36 UNL A   1      24.794  32.540  44.123  1.00  0.00    +0.000 H 
ATOM     29  C23 UNL A   1      24.305  32.698  46.178  1.00  0.00    +0.000 C 
ATOM    112  H24 UNL A   1      21.441  31.606  47.524  1.00  0.00    +0.000 H 
ATOM    113  H25 UNL A   1      23.479  32.781  48.125  1.00  0.00    +0.000 H 
ATOM     87  C62 UNL A   1      24.084  32.334  44.843  1.00  0.00    +0.000 C 
ATOM     88  C63 UNL A   1      22.901  31.693  44.497  1.00  0.00    +0.000 C 
ATOM     26  C20 UNL A   1      21.970  31.371  45.489  1.00  0.00    +0.000 C 
ATOM     27  C21 UNL A   1      22.163  31.792  46.810  1.00  0.00    +0.000 C 
ATOM     28  C22 UNL A   1      23.331  32.461  47.156  1.00  0.00    +0.000 C 
ATOM    125  H37 UNL A   1      22.710  31.455  43.510  1.00  0.00    +0.000 H 
BRANCH   26   24
ATOM     25  O2  UNL A   1      20.722  29.401  45.325  1.00  0.00    +0.000 O 
ATOM     24  C19 UNL A   1      20.741  30.611  45.179  1.00  0.00    +0.000 C 
BRANCH   24   23
ATOM    111  H23 UNL A   1      19.514  32.197  44.984  1.00  0.00    +0.000 H 
ATOM     23  N3  UNL A   1      19.635  31.266  44.687  1.00  0.00    +0.000 N 
BRANCH   23   22
ATOM    110  H22 UNL A   1      17.767  30.465  44.354  1.00  0.00    +0.000 H 
ATOM    109  H21 UNL A   1      19.026  29.900  43.259  1.00  0.00    +0.000 H 
ATOM     22  C18 UNL A   1      18.625  30.746  43.779  1.00  0.00    +0.000 C 
BRANCH   22   21
ATOM    107  H19 UNL A   1      18.250  32.758  43.229  1.00  0.00    +0.000 H 
ATOM    108  H20 UNL A   1      18.864  31.708  41.928  1.00  0.00    +0.000 H 
ATOM     21  C17 UNL A   1      18.199  31.797  42.761  1.00  0.00    +0.000 C 
BRANCH   21   20
ATOM    105  H17 UNL A   1      16.759  30.669  41.693  1.00  0.00    +0.000 H 
ATOM    106  H18 UNL A   1      16.143  31.647  43.077  1.00  0.00    +0.000 H 
ATOM     20  C16 UNL A   1      16.780  31.601  42.218  1.00  0.00    +0.000 C 
BRANCH   20   19
ATOM     19  C15 UNL A   1      16.253  32.679  41.270  1.00  0.00    +0.000 C 
ATOM    103  H15 UNL A   1      17.089  33.085  40.740  1.00  0.00    +0.000 H 
ATOM    104  H16 UNL A   1      15.535  32.186  40.648  1.00  0.00    +0.000 H 
BRANCH   19   18
ATOM     18  C14 UNL A   1      15.502  33.845  41.919  1.00  0.00    +0.000 C 
ATOM    101  H13 UNL A   1      15.873  34.753  41.489  1.00  0.00    +0.000 H 
ATOM    102  H14 UNL A   1      14.465  33.658  41.728  1.00  0.00    +0.000 H 
BRANCH   18   17
ATOM     17  C13 UNL A   1      15.622  33.966  43.438  1.00  0.00    +0.000 C 
ATOM     99  H11 UNL A   1      14.642  34.098  43.844  1.00  0.00    +0.000 H 
ATOM    100  H12 UNL A   1      16.094  33.069  43.782  1.00  0.00    +0.000 H 
BRANCH   17   16
ATOM     98  H10 UNL A   1      16.724  35.769  43.242  1.00  0.00    +0.000 H 
ATOM     16  N2  UNL A   1      16.451  35.071  43.879  1.00  0.00    +0.000 N 
BRANCH   16    2
ATOM      1  O1  UNL A   1      16.321  35.868  46.033  1.00  0.00    +0.000 O 
ATOM      2  C1  UNL A   1      16.857  35.138  45.202  1.00  0.00    +0.000 C 
BRANCH    2    3
ATOM     89  H1  UNL A   1      18.042  33.433  44.904  1.00  0.00    +0.000 H 
ATOM     90  H2  UNL A   1      17.989  34.109  46.584  1.00  0.00    +0.000 H 
ATOM      3  C2  UNL A   1      18.072  34.297  45.534  1.00  0.00    +0.000 C 
BRANCH    3    4
ATOM      4  C3  UNL A   1      19.431  34.925  45.370  1.00  0.00    +0.000 C 
ATOM      5  C4  UNL A   1      20.276  34.721  44.283  1.00  0.00    +0.000 C 
ATOM      6  C5  UNL A   1      21.403  35.553  44.423  1.00  0.00    +0.000 C 
ATOM      7  C6  UNL A   1      21.233  36.258  45.588  1.00  0.00    +0.000 C 
ATOM      8  N1  UNL A   1      20.047  35.872  46.179  1.00  0.00    +0.000 N 
ATOM     91  H3  UNL A   1      20.104  34.067  43.504  1.00  0.00    +0.000 H 
ATOM     92  H4  UNL A   1      22.204  35.619  43.775  1.00  0.00    +0.000 H 
ATOM     93  H5  UNL A   1      21.886  36.964  45.963  1.00  0.00    +0.000 H 
BRANCH    8    9
ATOM     97  H9  UNL A   1      20.058  35.470  50.666  1.00  0.00    +0.000 H 
ATOM      9  C7  UNL A   1      19.675  36.321  47.453  1.00  0.00    +0.000 C 
ATOM     10  C8  UNL A   1      19.022  37.544  47.606  1.00  0.00    +0.000 C 
ATOM     11  C9  UNL A   1      18.713  37.985  48.896  1.00  0.00    +0.000 C 
ATOM     12  C10 UNL A   1      19.076  37.222  50.012  1.00  0.00    +0.000 C 
ATOM     13  C11 UNL A   1      19.771  36.025  49.843  1.00  0.00    +0.000 C 
ATOM     14  C12 UNL A   1      20.076  35.584  48.561  1.00  0.00    +0.000 C 
ATOM     15  F1  UNL A   1      20.761  34.443  48.400  1.00  0.00    +0.000 F 
ATOM     94  H6  UNL A   1      18.772  38.113  46.782  1.00  0.00    +0.000 H 
ATOM     95  H7  UNL A   1      18.214  38.879  49.027  1.00  0.00    +0.000 H 
ATOM     96  H8  UNL A   1      18.829  37.546  50.960  1.00  0.00    +0.000 H 
ENDBRANCH    8    9
ENDBRANCH    3    4
ENDBRANCH    2    3
ENDBRANCH   16    2
ENDBRANCH   17   16
ENDBRANCH   18   17
ENDBRANCH   19   18
ENDBRANCH   20   19
ENDBRANCH   21   20
ENDBRANCH   22   21
ENDBRANCH   23   22
ENDBRANCH   24   23
ENDBRANCH   26   24
ENDBRANCH   30   29
BRANCH   34   35
ATOM     35  C28 UNL A   1      30.237  29.752  48.949  1.00  0.00    +0.000 C 
ATOM     36  C29 UNL A   1      30.091  28.823  49.988  1.00  0.00    +0.000 C 
ATOM     37  F2  UNL A   1      29.356  29.110  51.070  1.00  0.00    +0.000 F 
ATOM     38  C30 UNL A   1      30.627  27.533  49.893  1.00  0.00    +0.000 C 
ATOM     39  F3  UNL A   1      30.433  26.659  50.891  1.00  0.00    +0.000 F 
ATOM     40  C31 UNL A   1      31.299  27.126  48.751  1.00  0.00    +0.000 C 
ATOM     41  F4  UNL A   1      31.722  25.861  48.626  1.00  0.00    +0.000 F 
ATOM     42  C32 UNL A   1      31.502  28.030  47.727  1.00  0.00    +0.000 C 
ATOM     43  F5  UNL A   1      32.126  27.645  46.605  1.00  0.00    +0.000 F 
ATOM     44  C33 UNL A   1      31.007  29.329  47.838  1.00  0.00    +0.000 C 
ATOM     45  F6  UNL A   1      31.242  30.159  46.810  1.00  0.00    +0.000 F 
ENDBRANCH   34   35
BRANCH   51   52
ATOM     52  C39 UNL A   1      30.685  34.616  45.735  1.00  0.00    +0.000 C 
ATOM     53  C40 UNL A   1      29.576  34.122  45.028  1.00  0.00    +0.000 C 
ATOM     54  F7  UNL A   1      28.419  33.901  45.649  1.00  0.00    +0.000 F 
ATOM     55  C41 UNL A   1      29.626  33.837  43.665  1.00  0.00    +0.000 C 
ATOM     56  F8  UNL A   1      28.542  33.349  43.041  1.00  0.00    +0.000 F 
ATOM     57  C42 UNL A   1      30.794  34.052  42.958  1.00  0.00    +0.000 C 
ATOM     58  F9  UNL A   1      30.846  33.780  41.647  1.00  0.00    +0.000 F 
ATOM     59  C43 UNL A   1      31.910  34.536  43.622  1.00  0.00    +0.000 C 
ATOM     60  F10 UNL A   1      33.046  34.741  42.942  1.00  0.00    +0.000 F 
ATOM     61  C44 UNL A   1      31.859  34.809  44.991  1.00  0.00    +0.000 C 
ATOM     62  F11 UNL A   1      32.965  35.271  45.595  1.00  0.00    +0.000 F 
ENDBRANCH   51   52
BRANCH   66   67
ATOM     67  C48 UNL A   1      26.965  39.473  46.372  1.00  0.00    +0.000 C 
ATOM     68  C49 UNL A   1      27.882  40.320  45.685  1.00  0.00    +0.000 C 
ATOM     69  F12 UNL A   1      28.835  39.822  44.887  1.00  0.00    +0.000 F 
ATOM     70  C50 UNL A   1      27.872  41.713  45.786  1.00  0.00    +0.000 C 
ATOM     71  F13 UNL A   1      28.837  42.430  45.194  1.00  0.00    +0.000 F 
ATOM     72  C51 UNL A   1      26.889  42.343  46.511  1.00  0.00    +0.000 C 
ATOM     73  F14 UNL A   1      26.889  43.676  46.639  1.00  0.00    +0.000 F 
ATOM     74  C52 UNL A   1      25.898  41.574  47.087  1.00  0.00    +0.000 C 
ATOM     75  F15 UNL A   1      24.896  42.178  47.742  1.00  0.00    +0.000 F 
ATOM     76  C53 UNL A   1      25.931  40.170  47.012  1.00  0.00    +0.000 C 
ATOM     77  F16 UNL A   1      24.896  39.537  47.568  1.00  0.00    +0.000 F 
ENDBRANCH   66   67
TORSDOF 17
ENDMDL
MODEL 5
REMARK VINA RESULT:     -10.0     46.814     51.854
ROOT
ATOM     30  C24 UNL A   1      52.534  17.653   6.360  1.00  0.00    +0.000 C 
ATOM     31  C25 UNL A   1      53.210  16.941   5.183  1.00  0.00    +0.000 C 
ATOM     32  N4  UNL A   1      54.327  16.279   5.133  1.00  0.00    +0.000 N 
ATOM     33  C26 UNL A   1      54.548  15.921   3.787  1.00  0.00    +0.000 C 
ATOM     34  C27 UNL A   1      55.740  15.449   3.316  1.00  0.00    +0.000 C 
ATOM     46  C34 UNL A   1      56.681  15.301   4.373  1.00  0.00    +0.000 C 
ATOM     47  C35 UNL A   1      56.859  14.340   5.330  1.00  0.00    +0.000 C 
ATOM     48  C36 UNL A   1      57.454  15.021   6.413  1.00  0.00    +0.000 C 
ATOM     49  C37 UNL A   1      57.686  16.351   6.050  1.00  0.00    +0.000 C 
ATOM     50  N5  UNL A   1      57.449  16.391   4.695  1.00  0.00    +0.000 N 
ATOM     51  C38 UNL A   1      57.885  17.607   6.739  1.00  0.00    +0.000 C 
ATOM     63  C45 UNL A   1      57.852  17.587   8.095  1.00  0.00    +0.000 C 
ATOM     64  N6  UNL A   1      57.180  18.579   8.776  1.00  0.00    +0.000 N 
ATOM     65  C46 UNL A   1      56.507  17.909   9.665  1.00  0.00    +0.000 C 
ATOM     66  C47 UNL A   1      55.340  18.428  10.404  1.00  0.00    +0.000 C 
ATOM     78  C54 UNL A   1      54.322  18.487   9.491  1.00  0.00    +0.000 C 
ATOM     79  C55 UNL A   1      52.977  18.990   9.684  1.00  0.00    +0.000 C 
ATOM     80  C56 UNL A   1      52.242  18.764   8.580  1.00  0.00    +0.000 C 
ATOM     81  C57 UNL A   1      53.043  18.078   7.551  1.00  0.00    +0.000 C 
ATOM     82  N7  UNL A   1      54.287  18.029   8.149  1.00  0.00    +0.000 N 
ATOM     83  C58 UNL A   1      56.907  16.511   9.862  1.00  0.00    +0.000 C 
ATOM     84  C59 UNL A   1      57.885  16.437   8.965  1.00  0.00    +0.000 C 
ATOM     85  C60 UNL A   1      53.358  16.266   3.070  1.00  0.00    +0.000 C 
ATOM     86  C61 UNL A   1      52.516  16.928   3.866  1.00  0.00    +0.000 C 
ATOM    114  H26 UNL A   1      56.614  13.339   5.272  1.00  0.00    +0.000 H 
ATOM    115  H27 UNL A   1      57.681  14.603   7.329  1.00  0.00    +0.000 H 
ATOM    116  H28 UNL A   1      57.772  17.079   4.069  1.00  0.00    +0.000 H 
ATOM    117  H29 UNL A   1      52.634  19.452  10.540  1.00  0.00    +0.000 H 
ATOM    118  H30 UNL A   1      51.252  19.035   8.470  1.00  0.00    +0.000 H 
ATOM    119  H31 UNL A   1      55.088  17.701   7.679  1.00  0.00    +0.000 H 
ATOM    120  H32 UNL A   1      56.537  15.795  10.507  1.00  0.00    +0.000 H 
ATOM    121  H33 UNL A   1      58.571  15.668   8.901  1.00  0.00    +0.000 H 
ATOM    122  H34 UNL A   1      53.177  16.036   2.081  1.00  0.00    +0.000 H 
ATOM    123  H35 UNL A   1      51.598  17.334   3.626  1.00  0.00    +0.000 H 
ENDROOT
BRANCH   30   29
ATOM    124  H36 UNL A   1      51.359  19.796   5.225  1.00  0.00    +0.000 H 
ATOM     29  C23 UNL A   1      51.092  17.907   6.145  1.00  0.00    +0.000 C 
ATOM    112  H24 UNL A   1      48.133  16.381   6.493  1.00  0.00    +0.000 H 
ATOM    113  H25 UNL A   1      50.473  16.108   7.074  1.00  0.00    +0.000 H 
ATOM     87  C62 UNL A   1      50.673  19.071   5.486  1.00  0.00    +0.000 C 
ATOM     88  C63 UNL A   1      49.327  19.239   5.186  1.00  0.00    +0.000 C 
ATOM     26  C20 UNL A   1      48.415  18.226   5.497  1.00  0.00    +0.000 C 
ATOM     27  C21 UNL A   1      48.823  17.094   6.211  1.00  0.00    +0.000 C 
ATOM     28  C22 UNL A   1      50.164  16.935   6.542  1.00  0.00    +0.000 C 
ATOM    125  H37 UNL A   1      49.001  20.109   4.736  1.00  0.00    +0.000 H 
BRANCH   26   24
ATOM     25  O2  UNL A   1      46.159  17.643   5.689  1.00  0.00    +0.000 O 
ATOM     24  C19 UNL A   1      46.990  18.325   5.116  1.00  0.00    +0.000 C 
BRANCH   24   23
ATOM    111  H23 UNL A   1      47.337  19.498   3.516  1.00  0.00    +0.000 H 
ATOM     23  N3  UNL A   1      46.611  19.156   4.087  1.00  0.00    +0.000 N 
BRANCH   23   22
ATOM    110  H22 UNL A   1      45.045  20.478   4.291  1.00  0.00    +0.000 H 
ATOM    109  H21 UNL A   1      44.576  18.807   3.990  1.00  0.00    +0.000 H 
ATOM     22  C18 UNL A   1      45.266  19.587   3.741  1.00  0.00    +0.000 C 
BRANCH   22   21
ATOM    107  H19 UNL A   1      46.131  19.914   1.834  1.00  0.00    +0.000 H 
ATOM    108  H20 UNL A   1      44.529  19.136   1.827  1.00  0.00    +0.000 H 
ATOM     21  C17 UNL A   1      45.147  19.898   2.254  1.00  0.00    +0.000 C 
BRANCH   21   20
ATOM    105  H17 UNL A   1      44.483  21.820   2.847  1.00  0.00    +0.000 H 
ATOM    106  H18 UNL A   1      45.031  21.656   1.137  1.00  0.00    +0.000 H 
ATOM     20  C16 UNL A   1      44.472  21.238   1.949  1.00  0.00    +0.000 C 
BRANCH   20   19
ATOM     19  C15 UNL A   1      43.026  21.182   1.453  1.00  0.00    +0.000 C 
ATOM    103  H15 UNL A   1      42.391  21.458   2.269  1.00  0.00    +0.000 H 
ATOM    104  H16 UNL A   1      42.984  21.848   0.617  1.00  0.00    +0.000 H 
BRANCH   19   18
ATOM     18  C14 UNL A   1      42.543  19.828   0.923  1.00  0.00    +0.000 C 
ATOM    101  H13 UNL A   1      43.360  19.139   0.996  1.00  0.00    +0.000 H 
ATOM    102  H14 UNL A   1      41.696  19.572   1.524  1.00  0.00    +0.000 H 
BRANCH   18   17
ATOM     17  C13 UNL A   1      42.042  19.806  -0.521  1.00  0.00    +0.000 C 
ATOM     99  H11 UNL A   1      42.750  20.325  -1.131  1.00  0.00    +0.000 H 
ATOM    100  H12 UNL A   1      41.938  18.777  -0.795  1.00  0.00    +0.000 H 
BRANCH   17   16
ATOM     98  H10 UNL A   1      40.580  21.012  -1.475  1.00  0.00    +0.000 H 
ATOM     16  N2  UNL A   1      40.743  20.423  -0.704  1.00  0.00    +0.000 N 
BRANCH   16    2
ATOM      1  O1  UNL A   1      39.200  19.078   0.347  1.00  0.00    +0.000 O 
ATOM      2  C1  UNL A   1      39.732  20.178   0.211  1.00  0.00    +0.000 C 
BRANCH    2    3
ATOM     89  H1  UNL A   1      39.203  22.206   0.290  1.00  0.00    +0.000 H 
ATOM     90  H2  UNL A   1      39.998  21.510   1.762  1.00  0.00    +0.000 H 
ATOM      3  C2  UNL A   1      39.271  21.395   0.985  1.00  0.00    +0.000 C 
BRANCH    3    4
ATOM      4  C3  UNL A   1      37.954  21.314   1.710  1.00  0.00    +0.000 C 
ATOM      5  C4  UNL A   1      37.797  20.908   3.032  1.00  0.00    +0.000 C 
ATOM      6  C5  UNL A   1      36.446  21.065   3.397  1.00  0.00    +0.000 C 
ATOM      7  C6  UNL A   1      35.795  21.567   2.298  1.00  0.00    +0.000 C 
ATOM      8  N1  UNL A   1      36.699  21.706   1.264  1.00  0.00    +0.000 N 
ATOM     91  H3  UNL A   1      38.548  20.551   3.644  1.00  0.00    +0.000 H 
ATOM     92  H4  UNL A   1      36.026  20.844   4.313  1.00  0.00    +0.000 H 
ATOM     93  H5  UNL A   1      34.792  21.804   2.252  1.00  0.00    +0.000 H 
BRANCH    8    9
ATOM     97  H9  UNL A   1      35.230  20.632  -2.857  1.00  0.00    +0.000 H 
ATOM      9  C7  UNL A   1      36.294  22.067  -0.028  1.00  0.00    +0.000 C 
ATOM     10  C8  UNL A   1      36.137  23.410  -0.368  1.00  0.00    +0.000 C 
ATOM     11  C9  UNL A   1      35.681  23.731  -1.650  1.00  0.00    +0.000 C 
ATOM     12  C10 UNL A   1      35.365  22.720  -2.564  1.00  0.00    +0.000 C 
ATOM     13  C11 UNL A   1      35.482  21.380  -2.192  1.00  0.00    +0.000 C 
ATOM     14  C12 UNL A   1      35.938  21.061  -0.919  1.00  0.00    +0.000 C 
ATOM     15  F1  UNL A   1      36.031  19.774  -0.555  1.00  0.00    +0.000 F 
ATOM     94  H6  UNL A   1      36.354  24.154   0.314  1.00  0.00    +0.000 H 
ATOM     95  H7  UNL A   1      35.576  24.720  -1.924  1.00  0.00    +0.000 H 
ATOM     96  H8  UNL A   1      35.046  22.965  -3.514  1.00  0.00    +0.000 H 
ENDBRANCH    8    9
ENDBRANCH    3    4
ENDBRANCH    2    3
ENDBRANCH   16    2
ENDBRANCH   17   16
ENDBRANCH   18   17
ENDBRANCH   19   18
ENDBRANCH   20   19
ENDBRANCH   21   20
ENDBRANCH   22   21
ENDBRANCH   23   22
ENDBRANCH   24   23
ENDBRANCH   26   24
ENDBRANCH   30   29
BRANCH   34   35
ATOM     35  C28 UNL A   1      56.238  15.234   1.913  1.00  0.00    +0.000 C 
ATOM     36  C29 UNL A   1      55.912  14.111   1.142  1.00  0.00    +0.000 C 
ATOM     37  F2  UNL A   1      55.349  13.032   1.700  1.00  0.00    +0.000 F 
ATOM     38  C30 UNL A   1      56.073  14.110  -0.249  1.00  0.00    +0.000 C 
ATOM     39  F3  UNL A   1      55.713  13.031  -0.958  1.00  0.00    +0.000 F 
ATOM     40  C31 UNL A   1      56.539  15.235  -0.910  1.00  0.00    +0.000 C 
ATOM     41  F4  UNL A   1      56.597  15.262  -2.248  1.00  0.00    +0.000 F 
ATOM     42  C32 UNL A   1      56.915  16.344  -0.177  1.00  0.00    +0.000 C 
ATOM     43  F5  UNL A   1      57.342  17.450  -0.802  1.00  0.00    +0.000 F 
ATOM     44  C33 UNL A   1      56.797  16.331   1.212  1.00  0.00    +0.000 C 
ATOM     45  F6  UNL A   1      57.182  17.439   1.865  1.00  0.00    +0.000 F 
ENDBRANCH   34   35
BRANCH   51   52
ATOM     52  C39 UNL A   1      57.680  18.989   6.158  1.00  0.00    +0.000 C 
ATOM     53  C40 UNL A   1      58.689  19.965   6.098  1.00  0.00    +0.000 C 
ATOM     54  F7  UNL A   1      59.866  19.763   6.687  1.00  0.00    +0.000 F 
ATOM     55  C41 UNL A   1      58.515  21.178   5.434  1.00  0.00    +0.000 C 
ATOM     56  F8  UNL A   1      59.506  22.084   5.421  1.00  0.00    +0.000 F 
ATOM     57  C42 UNL A   1      57.321  21.449   4.794  1.00  0.00    +0.000 C 
ATOM     58  F9  UNL A   1      57.150  22.614   4.154  1.00  0.00    +0.000 F 
ATOM     59  C43 UNL A   1      56.302  20.511   4.833  1.00  0.00    +0.000 C 
ATOM     60  F10 UNL A   1      55.140  20.771   4.219  1.00  0.00    +0.000 F 
ATOM     61  C44 UNL A   1      56.476  19.301   5.510  1.00  0.00    +0.000 C 
ATOM     62  F11 UNL A   1      55.460  18.425   5.528  1.00  0.00    +0.000 F 
ENDBRANCH   51   52
BRANCH   66   67
ATOM     67  C48 UNL A   1      55.496  18.643  11.897  1.00  0.00    +0.000 C 
ATOM     68  C49 UNL A   1      55.427  19.959  12.438  1.00  0.00    +0.000 C 
ATOM     69  F12 UNL A   1      54.989  20.995  11.710  1.00  0.00    +0.000 F 
ATOM     70  C50 UNL A   1      55.809  20.280  13.742  1.00  0.00    +0.000 C 
ATOM     71  F13 UNL A   1      55.818  21.561  14.136  1.00  0.00    +0.000 F 
ATOM     72  C51 UNL A   1      56.199  19.287  14.608  1.00  0.00    +0.000 C 
ATOM     73  F14 UNL A   1      56.596  19.588  15.851  1.00  0.00    +0.000 F 
ATOM     74  C52 UNL A   1      56.154  17.977  14.174  1.00  0.00    +0.000 C 
ATOM     75  F15 UNL A   1      56.468  16.992  15.028  1.00  0.00    +0.000 F 
ATOM     76  C53 UNL A   1      55.803  17.661  12.850  1.00  0.00    +0.000 C 
ATOM     77  F16 UNL A   1      55.751  16.360  12.560  1.00  0.00    +0.000 F 
ENDBRANCH   66   67
TORSDOF 17
ENDMDL
MODEL 6
REMARK VINA RESULT:     -10.0      5.890     10.375
ROOT
ATOM     30  C24 UNL A   1      22.573  34.466  46.661  1.00  0.00    +0.000 C 
ATOM     31  C25 UNL A   1      23.898  34.520  45.892  1.00  0.00    +0.000 C 
ATOM     32  N4  UNL A   1      25.120  34.555  46.331  1.00  0.00    +0.000 N 
ATOM     33  C26 UNL A   1      25.967  34.712  45.214  1.00  0.00    +0.000 C 
ATOM     34  C27 UNL A   1      27.288  35.047  45.307  1.00  0.00    +0.000 C 
ATOM     46  C34 UNL A   1      27.693  35.138  46.668  1.00  0.00    +0.000 C 
ATOM     47  C35 UNL A   1      28.030  34.196  47.602  1.00  0.00    +0.000 C 
ATOM     48  C36 UNL A   1      27.700  34.787  48.840  1.00  0.00    +0.000 C 
ATOM     49  C37 UNL A   1      27.247  36.091  48.622  1.00  0.00    +0.000 C 
ATOM     50  N5  UNL A   1      27.530  36.345  47.300  1.00  0.00    +0.000 N 
ATOM     51  C38 UNL A   1      26.436  37.053  49.336  1.00  0.00    +0.000 C 
ATOM     63  C45 UNL A   1      25.940  36.679  50.541  1.00  0.00    +0.000 C 
ATOM     64  N6  UNL A   1      24.635  36.982  50.867  1.00  0.00    +0.000 N 
ATOM     65  C46 UNL A   1      24.199  35.865  51.369  1.00  0.00    +0.000 C 
ATOM     66  C47 UNL A   1      22.775  35.512  51.528  1.00  0.00    +0.000 C 
ATOM     78  C54 UNL A   1      22.311  35.274  50.263  1.00  0.00    +0.000 C 
ATOM     79  C55 UNL A   1      20.958  34.955  49.852  1.00  0.00    +0.000 C 
ATOM     80  C56 UNL A   1      20.934  34.674  48.538  1.00  0.00    +0.000 C 
ATOM     81  C57 UNL A   1      22.285  34.774  47.957  1.00  0.00    +0.000 C 
ATOM     82  N7  UNL A   1      23.023  35.216  49.037  1.00  0.00    +0.000 N 
ATOM     83  C58 UNL A   1      25.219  34.867  51.713  1.00  0.00    +0.000 C 
ATOM     84  C59 UNL A   1      26.307  35.530  51.333  1.00  0.00    +0.000 C 
ATOM     85  C60 UNL A   1      25.143  34.571  44.052  1.00  0.00    +0.000 C 
ATOM     86  C61 UNL A   1      23.858  34.488  44.405  1.00  0.00    +0.000 C 
ATOM    114  H26 UNL A   1      28.437  33.262  47.437  1.00  0.00    +0.000 H 
ATOM    115  H27 UNL A   1      27.779  34.328  49.761  1.00  0.00    +0.000 H 
ATOM    116  H28 UNL A   1      27.603  37.234  46.881  1.00  0.00    +0.000 H 
ATOM    117  H29 UNL A   1      20.137  34.946  50.476  1.00  0.00    +0.000 H 
ATOM    118  H30 UNL A   1      20.085  34.421  48.008  1.00  0.00    +0.000 H 
ATOM    119  H31 UNL A   1      23.971  35.472  48.962  1.00  0.00    +0.000 H 
ATOM    120  H32 UNL A   1      25.120  33.927  52.128  1.00  0.00    +0.000 H 
ATOM    121  H33 UNL A   1      27.275  35.261  51.570  1.00  0.00    +0.000 H 
ATOM    122  H34 UNL A   1      25.492  34.539  43.082  1.00  0.00    +0.000 H 
ATOM    123  H35 UNL A   1      23.033  34.416  43.791  1.00  0.00    +0.000 H 
ENDROOT
BRANCH   30   29
ATOM    124  H36 UNL A   1      21.747  31.937  46.228  1.00  0.00    +0.000 H 
ATOM     29  C23 UNL A   1      21.434  33.996  45.840  1.00  0.00    +0.000 C 
ATOM    112  H24 UNL A   1      18.864  35.211  44.073  1.00  0.00    +0.000 H 
ATOM    113  H25 UNL A   1      20.887  35.938  45.200  1.00  0.00    +0.000 H 
ATOM     87  C62 UNL A   1      21.130  32.629  45.776  1.00  0.00    +0.000 C 
ATOM     88  C63 UNL A   1      19.989  32.214  45.100  1.00  0.00    +0.000 C 
ATOM     26  C20 UNL A   1      19.132  33.165  44.537  1.00  0.00    +0.000 C 
ATOM     27  C21 UNL A   1      19.470  34.522  44.546  1.00  0.00    +0.000 C 
ATOM     28  C22 UNL A   1      20.626  34.940  45.195  1.00  0.00    +0.000 C 
ATOM    125  H37 UNL A   1      19.776  31.207  45.013  1.00  0.00    +0.000 H 
BRANCH   26   24
ATOM     25  O2  UNL A   1      17.299  33.551  43.139  1.00  0.00    +0.000 O 
ATOM     24  C19 UNL A   1      17.864  32.773  43.887  1.00  0.00    +0.000 C 
BRANCH   24   23
ATOM    111  H23 UNL A   1      16.867  31.455  45.040  1.00  0.00    +0.000 H 
ATOM     23  N3  UNL A   1      17.302  31.546  44.161  1.00  0.00    +0.000 N 
BRANCH   23   22
ATOM    110  H22 UNL A   1      17.747  30.617  42.378  1.00  0.00    +0.000 H 
ATOM    109  H21 UNL A   1      16.256  30.080  43.146  1.00  0.00    +0.000 H 
ATOM     22  C18 UNL A   1      17.274  30.371  43.305  1.00  0.00    +0.000 C 
BRANCH   22   21
ATOM    107  H19 UNL A   1      19.049  29.254  43.614  1.00  0.00    +0.000 H 
ATOM    108  H20 UNL A   1      17.926  29.309  44.995  1.00  0.00    +0.000 H 
ATOM     21  C17 UNL A   1      18.029  29.207  43.935  1.00  0.00    +0.000 C 
BRANCH   21   20
ATOM    105  H17 UNL A   1      17.859  27.569  42.604  1.00  0.00    +0.000 H 
ATOM    106  H18 UNL A   1      17.778  27.181  44.363  1.00  0.00    +0.000 H 
ATOM     20  C16 UNL A   1      17.472  27.829  43.567  1.00  0.00    +0.000 C 
BRANCH   20   19
ATOM     19  C15 UNL A   1      15.950  27.697  43.506  1.00  0.00    +0.000 C 
ATOM    103  H15 UNL A   1      15.532  28.441  44.152  1.00  0.00    +0.000 H 
ATOM    104  H16 UNL A   1      15.694  27.817  42.474  1.00  0.00    +0.000 H 
BRANCH   19   18
ATOM     18  C14 UNL A   1      15.370  26.341  43.918  1.00  0.00    +0.000 C 
ATOM    101  H13 UNL A   1      15.981  25.578  43.482  1.00  0.00    +0.000 H 
ATOM    102  H14 UNL A   1      15.368  26.345  44.989  1.00  0.00    +0.000 H 
BRANCH   18   17
ATOM     17  C13 UNL A   1      13.922  26.071  43.508  1.00  0.00    +0.000 C 
ATOM     99  H11 UNL A   1      13.466  25.466  44.263  1.00  0.00    +0.000 H 
ATOM    100  H12 UNL A   1      13.449  27.024  43.401  1.00  0.00    +0.000 H 
BRANCH   17   16
ATOM     98  H10 UNL A   1      13.940  25.879  41.395  1.00  0.00    +0.000 H 
ATOM     16  N2  UNL A   1      13.786  25.390  42.235  1.00  0.00    +0.000 N 
BRANCH   16    2
ATOM      1  O1  UNL A   1      12.390  23.617  42.678  1.00  0.00    +0.000 O 
ATOM      2  C1  UNL A   1      13.440  24.049  42.208  1.00  0.00    +0.000 C 
BRANCH    2    3
ATOM     89  H1  UNL A   1      14.393  22.184  42.099  1.00  0.00    +0.000 H 
ATOM     90  H2  UNL A   1      15.418  23.646  41.792  1.00  0.00    +0.000 H 
ATOM      3  C2  UNL A   1      14.495  23.135  41.619  1.00  0.00    +0.000 C 
BRANCH    3    4
ATOM      4  C3  UNL A   1      14.470  22.894  40.133  1.00  0.00    +0.000 C 
ATOM      5  C4  UNL A   1      15.048  23.728  39.182  1.00  0.00    +0.000 C 
ATOM      6  C5  UNL A   1      14.922  23.127  37.915  1.00  0.00    +0.000 C 
ATOM      7  C6  UNL A   1      14.272  21.933  38.107  1.00  0.00    +0.000 C 
ATOM      8  N1  UNL A   1      13.979  21.790  39.448  1.00  0.00    +0.000 N 
ATOM     91  H3  UNL A   1      15.497  24.638  39.374  1.00  0.00    +0.000 H 
ATOM     92  H4  UNL A   1      15.252  23.510  37.015  1.00  0.00    +0.000 H 
ATOM     93  H5  UNL A   1      14.041  21.251  37.367  1.00  0.00    +0.000 H 
BRANCH    8    9
ATOM     97  H9  UNL A   1       9.979  19.822  40.097  1.00  0.00    +0.000 H 
ATOM      9  C7  UNL A   1      13.194  20.732  39.924  1.00  0.00    +0.000 C 
ATOM     10  C8  UNL A   1      13.796  19.576  40.420  1.00  0.00    +0.000 C 
ATOM     11  C9  UNL A   1      12.981  18.519  40.838  1.00  0.00    +0.000 C 
ATOM     12  C10 UNL A   1      11.589  18.614  40.736  1.00  0.00    +0.000 C 
ATOM     13  C11 UNL A   1      11.005  19.758  40.192  1.00  0.00    +0.000 C 
ATOM     14  C12 UNL A   1      11.814  20.810  39.779  1.00  0.00    +0.000 C 
ATOM     15  F1  UNL A   1      11.253  21.901  39.239  1.00  0.00    +0.000 F 
ATOM     94  H6  UNL A   1      14.824  19.501  40.478  1.00  0.00    +0.000 H 
ATOM     95  H7  UNL A   1      13.410  17.663  41.224  1.00  0.00    +0.000 H 
ATOM     96  H8  UNL A   1      10.994  17.837  41.062  1.00  0.00    +0.000 H 
ENDBRANCH    8    9
ENDBRANCH    3    4
ENDBRANCH    2    3
ENDBRANCH   16    2
ENDBRANCH   17   16
ENDBRANCH   18   17
ENDBRANCH   19   18
ENDBRANCH   20   19
ENDBRANCH   21   20
ENDBRANCH   22   21
ENDBRANCH   23   22
ENDBRANCH   24   23
ENDBRANCH   26   24
ENDBRANCH   30   29
BRANCH   34   35
ATOM     35  C28 UNL A   1      28.279  35.477  44.262  1.00  0.00    +0.000 C 
ATOM     36  C29 UNL A   1      28.826  36.766  44.201  1.00  0.00    +0.000 C 
ATOM     37  F2  UNL A   1      28.299  37.772  44.910  1.00  0.00    +0.000 F 
ATOM     38  C30 UNL A   1      29.993  37.029  43.473  1.00  0.00    +0.000 C 
ATOM     39  F3  UNL A   1      30.508  38.266  43.470  1.00  0.00    +0.000 F 
ATOM     40  C31 UNL A   1      30.660  36.011  42.810  1.00  0.00    +0.000 C 
ATOM     41  F4  UNL A   1      31.829  36.250  42.200  1.00  0.00    +0.000 F 
ATOM     42  C32 UNL A   1      30.125  34.738  42.810  1.00  0.00    +0.000 C 
ATOM     43  F5  UNL A   1      30.772  33.737  42.197  1.00  0.00    +0.000 F 
ATOM     44  C33 UNL A   1      28.939  34.483  43.498  1.00  0.00    +0.000 C 
ATOM     45  F6  UNL A   1      28.470  33.226  43.455  1.00  0.00    +0.000 F 
ENDBRANCH   34   35
BRANCH   51   52
ATOM     52  C39 UNL A   1      25.707  38.234  48.732  1.00  0.00    +0.000 C 
ATOM     53  C40 UNL A   1      24.714  38.114  47.745  1.00  0.00    +0.000 C 
ATOM     54  F7  UNL A   1      24.454  36.935  47.183  1.00  0.00    +0.000 F 
ATOM     55  C41 UNL A   1      23.963  39.202  47.306  1.00  0.00    +0.000 C 
ATOM     56  F8  UNL A   1      23.037  39.036  46.348  1.00  0.00    +0.000 F 
ATOM     57  C42 UNL A   1      24.175  40.453  47.854  1.00  0.00    +0.000 C 
ATOM     58  F9  UNL A   1      23.455  41.502  47.435  1.00  0.00    +0.000 F 
ATOM     59  C43 UNL A   1      25.148  40.611  48.828  1.00  0.00    +0.000 C 
ATOM     60  F10 UNL A   1      25.362  41.822  49.359  1.00  0.00    +0.000 F 
ATOM     61  C44 UNL A   1      25.908  39.519  49.257  1.00  0.00    +0.000 C 
ATOM     62  F11 UNL A   1      26.844  39.719  50.197  1.00  0.00    +0.000 F 
ENDBRANCH   51   52
BRANCH   66   67
ATOM     67  C48 UNL A   1      22.237  35.392  52.941  1.00  0.00    +0.000 C 
ATOM     68  C49 UNL A   1      21.410  36.421  53.477  1.00  0.00    +0.000 C 
ATOM     69  F12 UNL A   1      20.889  37.379  52.700  1.00  0.00    +0.000 F 
ATOM     70  C50 UNL A   1      21.084  36.524  54.831  1.00  0.00    +0.000 C 
ATOM     71  F13 UNL A   1      20.392  37.584  55.270  1.00  0.00    +0.000 F 
ATOM     72  C51 UNL A   1      21.494  35.553  55.713  1.00  0.00    +0.000 C 
ATOM     73  F14 UNL A   1      21.213  35.659  57.017  1.00  0.00    +0.000 F 
ATOM     74  C52 UNL A   1      22.185  34.464  55.221  1.00  0.00    +0.000 C 
ATOM     75  F15 UNL A   1      22.534  33.476  56.057  1.00  0.00    +0.000 F 
ATOM     76  C53 UNL A   1      22.541  34.381  53.863  1.00  0.00    +0.000 C 
ATOM     77  F16 UNL A   1      23.167  33.261  53.497  1.00  0.00    +0.000 F 
ENDBRANCH   66   67
TORSDOF 17
ENDMDL
MODEL 7
REMARK VINA RESULT:      -9.9     40.563     45.706
ROOT
ATOM     30  C24 UNL A   1      22.125  15.781   8.659  1.00  0.00    +0.000 C 
ATOM     31  C25 UNL A   1      20.902  16.549   8.146  1.00  0.00    +0.000 C 
ATOM     32  N4  UNL A   1      19.847  16.122   7.519  1.00  0.00    +0.000 N 
ATOM     33  C26 UNL A   1      19.073  17.250   7.174  1.00  0.00    +0.000 C 
ATOM     34  C27 UNL A   1      18.035  17.213   6.288  1.00  0.00    +0.000 C 
ATOM     46  C34 UNL A   1      17.804  15.886   5.832  1.00  0.00    +0.000 C 
ATOM     47  C35 UNL A   1      17.161  14.812   6.386  1.00  0.00    +0.000 C 
ATOM     48  C36 UNL A   1      17.799  13.686   5.825  1.00  0.00    +0.000 C 
ATOM     49  C37 UNL A   1      18.751  14.111   4.895  1.00  0.00    +0.000 C 
ATOM     50  N5  UNL A   1      18.513  15.457   4.739  1.00  0.00    +0.000 N 
ATOM     51  C38 UNL A   1      19.944  13.561   4.289  1.00  0.00    +0.000 C 
ATOM     63  C45 UNL A   1      20.315  12.311   4.662  1.00  0.00    +0.000 C 
ATOM     64  N6  UNL A   1      21.642  12.038   4.913  1.00  0.00    +0.000 N 
ATOM     65  C46 UNL A   1      21.590  11.361   6.022  1.00  0.00    +0.000 C 
ATOM     66  C47 UNL A   1      22.732  11.147   6.932  1.00  0.00    +0.000 C 
ATOM     78  C54 UNL A   1      22.959  12.357   7.530  1.00  0.00    +0.000 C 
ATOM     79  C55 UNL A   1      24.011  12.710   8.461  1.00  0.00    +0.000 C 
ATOM     80  C56 UNL A   1      23.820  13.962   8.913  1.00  0.00    +0.000 C 
ATOM     81  C57 UNL A   1      22.607  14.551   8.321  1.00  0.00    +0.000 C 
ATOM     82  N7  UNL A   1      22.207  13.557   7.450  1.00  0.00    +0.000 N 
ATOM     83  C58 UNL A   1      20.267  10.861   6.415  1.00  0.00    +0.000 C 
ATOM     84  C59 UNL A   1      19.546  11.345   5.408  1.00  0.00    +0.000 C 
ATOM     85  C60 UNL A   1      19.674  18.374   7.827  1.00  0.00    +0.000 C 
ATOM     86  C61 UNL A   1      20.819  18.012   8.408  1.00  0.00    +0.000 C 
ATOM    114  H26 UNL A   1      16.382  14.824   7.064  1.00  0.00    +0.000 H 
ATOM    115  H27 UNL A   1      17.594  12.703   6.064  1.00  0.00    +0.000 H 
ATOM    116  H28 UNL A   1      18.799  16.013   3.978  1.00  0.00    +0.000 H 
ATOM    117  H29 UNL A   1      24.791  12.092   8.736  1.00  0.00    +0.000 H 
ATOM    118  H30 UNL A   1      24.440  14.443   9.585  1.00  0.00    +0.000 H 
ATOM    119  H31 UNL A   1      21.458  13.673   6.821  1.00  0.00    +0.000 H 
ATOM    120  H32 UNL A   1      19.981  10.300   7.233  1.00  0.00    +0.000 H 
ATOM    121  H33 UNL A   1      18.575  11.068   5.191  1.00  0.00    +0.000 H 
ATOM    122  H34 UNL A   1      19.278  19.327   7.845  1.00  0.00    +0.000 H 
ATOM    123  H35 UNL A   1      21.489  18.606   8.921  1.00  0.00    +0.000 H 
ENDROOT
BRANCH   30   29
ATOM    124  H36 UNL A   1      24.113  17.568   8.319  1.00  0.00    +0.000 H 
ATOM     29  C23 UNL A   1      22.891  16.515   9.691  1.00  0.00    +0.000 C 
ATOM    112  H24 UNL A   1      22.952  16.972  13.006  1.00  0.00    +0.000 H 
ATOM    113  H25 UNL A   1      21.897  15.587  11.315  1.00  0.00    +0.000 H 
ATOM     87  C62 UNL A   1      23.864  17.450   9.313  1.00  0.00    +0.000 C 
ATOM     88  C63 UNL A   1      24.490  18.216  10.289  1.00  0.00    +0.000 C 
ATOM     26  C20 UNL A   1      24.107  18.084  11.627  1.00  0.00    +0.000 C 
ATOM     27  C21 UNL A   1      23.182  17.107  12.010  1.00  0.00    +0.000 C 
ATOM     28  C22 UNL A   1      22.575  16.315  11.041  1.00  0.00    +0.000 C 
ATOM    125  H37 UNL A   1      25.237  18.879  10.026  1.00  0.00    +0.000 H 
BRANCH   26   24
ATOM     25  O2  UNL A   1      25.074  18.443  13.725  1.00  0.00    +0.000 O 
ATOM     24  C19 UNL A   1      24.683  18.942  12.684  1.00  0.00    +0.000 C 
BRANCH   24   23
ATOM    111  H23 UNL A   1      23.910  20.736  12.194  1.00  0.00    +0.000 H 
ATOM     23  N3  UNL A   1      24.739  20.305  12.507  1.00  0.00    +0.000 N 
BRANCH   23   22
ATOM    110  H22 UNL A   1      26.475  20.770  13.512  1.00  0.00    +0.000 H 
ATOM    109  H21 UNL A   1      25.516  22.156  13.001  1.00  0.00    +0.000 H 
ATOM     22  C18 UNL A   1      25.875  21.185  12.729  1.00  0.00    +0.000 C 
BRANCH   22   21
ATOM    107  H19 UNL A   1      26.089  21.393  10.630  1.00  0.00    +0.000 H 
ATOM    108  H20 UNL A   1      27.356  22.168  11.612  1.00  0.00    +0.000 H 
ATOM     21  C17 UNL A   1      26.737  21.307  11.477  1.00  0.00    +0.000 C 
BRANCH   21   20
ATOM    105  H17 UNL A   1      28.617  20.357  11.693  1.00  0.00    +0.000 H 
ATOM    106  H18 UNL A   1      27.173  19.277  11.681  1.00  0.00    +0.000 H 
ATOM     20  C16 UNL A   1      27.674  20.118  11.247  1.00  0.00    +0.000 C 
BRANCH   20   19
ATOM     19  C15 UNL A   1      27.938  19.722   9.794  1.00  0.00    +0.000 C 
ATOM    103  H15 UNL A   1      28.998  19.694   9.650  1.00  0.00    +0.000 H 
ATOM    104  H16 UNL A   1      27.451  18.779   9.662  1.00  0.00    +0.000 H 
BRANCH   19   18
ATOM     18  C14 UNL A   1      27.346  20.643   8.722  1.00  0.00    +0.000 C 
ATOM    101  H13 UNL A   1      26.736  21.371   9.218  1.00  0.00    +0.000 H 
ATOM    102  H14 UNL A   1      28.186  21.053   8.203  1.00  0.00    +0.000 H 
BRANCH   18   17
ATOM     17  C13 UNL A   1      26.490  19.971   7.649  1.00  0.00    +0.000 C 
ATOM     99  H11 UNL A   1      26.229  18.992   7.991  1.00  0.00    +0.000 H 
ATOM    100  H12 UNL A   1      25.636  20.597   7.499  1.00  0.00    +0.000 H 
BRANCH   17   16
ATOM     98  H10 UNL A   1      28.121  19.972   6.291  1.00  0.00    +0.000 H 
ATOM     16  N2  UNL A   1      27.148  19.844   6.363  1.00  0.00    +0.000 N 
BRANCH   16    2
ATOM      1  O1  UNL A   1      25.654  20.349   4.688  1.00  0.00    +0.000 O 
ATOM      2  C1  UNL A   1      26.400  19.541   5.237  1.00  0.00    +0.000 C 
BRANCH    2    3
ATOM     89  H1  UNL A   1      27.265  18.071   4.016  1.00  0.00    +0.000 H 
ATOM     90  H2  UNL A   1      25.521  17.849   4.453  1.00  0.00    +0.000 H 
ATOM      3  C2  UNL A   1      26.510  18.104   4.773  1.00  0.00    +0.000 C 
BRANCH    3    4
ATOM      4  C3  UNL A   1      26.856  17.056   5.797  1.00  0.00    +0.000 C 
ATOM      5  C4  UNL A   1      25.929  16.336   6.544  1.00  0.00    +0.000 C 
ATOM      6  C5  UNL A   1      26.614  15.375   7.312  1.00  0.00    +0.000 C 
ATOM      7  C6  UNL A   1      27.948  15.515   7.024  1.00  0.00    +0.000 C 
ATOM      8  N1  UNL A   1      28.107  16.544   6.118  1.00  0.00    +0.000 N 
ATOM     91  H3  UNL A   1      24.907  16.483   6.536  1.00  0.00    +0.000 H 
ATOM     92  H4  UNL A   1      26.194  14.696   7.967  1.00  0.00    +0.000 H 
ATOM     93  H5  UNL A   1      28.711  14.943   7.420  1.00  0.00    +0.000 H 
BRANCH    8    9
ATOM     97  H9  UNL A   1      31.866  18.878   6.968  1.00  0.00    +0.000 H 
ATOM      9  C7  UNL A   1      29.374  17.010   5.743  1.00  0.00    +0.000 C 
ATOM     10  C8  UNL A   1      29.967  16.566   4.562  1.00  0.00    +0.000 C 
ATOM     11  C9  UNL A   1      31.254  17.012   4.246  1.00  0.00    +0.000 C 
ATOM     12  C10 UNL A   1      31.941  17.867   5.114  1.00  0.00    +0.000 C 
ATOM     13  C11 UNL A   1      31.353  18.263   6.316  1.00  0.00    +0.000 C 
ATOM     14  C12 UNL A   1      30.072  17.823   6.628  1.00  0.00    +0.000 C 
ATOM     15  F1  UNL A   1      29.515  18.189   7.791  1.00  0.00    +0.000 F 
ATOM     94  H6  UNL A   1      29.466  15.921   3.932  1.00  0.00    +0.000 H 
ATOM     95  H7  UNL A   1      31.701  16.707   3.367  1.00  0.00    +0.000 H 
ATOM     96  H8  UNL A   1      32.884  18.206   4.866  1.00  0.00    +0.000 H 
ENDBRANCH    8    9
ENDBRANCH    3    4
ENDBRANCH    2    3
ENDBRANCH   16    2
ENDBRANCH   17   16
ENDBRANCH   18   17
ENDBRANCH   19   18
ENDBRANCH   20   19
ENDBRANCH   21   20
ENDBRANCH   22   21
ENDBRANCH   23   22
ENDBRANCH   24   23
ENDBRANCH   26   24
ENDBRANCH   30   29
BRANCH   34   35
ATOM     35  C28 UNL A   1      17.253  18.315   5.627  1.00  0.00    +0.000 C 
ATOM     36  C29 UNL A   1      16.075  18.852   6.160  1.00  0.00    +0.000 C 
ATOM     37  F2  UNL A   1      15.427  18.237   7.158  1.00  0.00    +0.000 F 
ATOM     38  C30 UNL A   1      15.582  20.092   5.737  1.00  0.00    +0.000 C 
ATOM     39  F3  UNL A   1      14.473  20.592   6.299  1.00  0.00    +0.000 F 
ATOM     40  C31 UNL A   1      16.265  20.842   4.792  1.00  0.00    +0.000 C 
ATOM     41  F4  UNL A   1      15.842  22.071   4.466  1.00  0.00    +0.000 F 
ATOM     42  C32 UNL A   1      17.404  20.323   4.211  1.00  0.00    +0.000 C 
ATOM     43  F5  UNL A   1      18.091  21.046   3.315  1.00  0.00    +0.000 F 
ATOM     44  C33 UNL A   1      17.872  19.068   4.598  1.00  0.00    +0.000 C 
ATOM     45  F6  UNL A   1      18.983  18.619   3.992  1.00  0.00    +0.000 F 
ENDBRANCH   34   35
BRANCH   51   52
ATOM     52  C39 UNL A   1      21.065  14.348   3.645  1.00  0.00    +0.000 C 
ATOM     53  C40 UNL A   1      21.802  15.341   4.312  1.00  0.00    +0.000 C 
ATOM     54  F7  UNL A   1      21.451  15.743   5.532  1.00  0.00    +0.000 F 
ATOM     55  C41 UNL A   1      22.917  15.953   3.741  1.00  0.00    +0.000 C 
ATOM     56  F8  UNL A   1      23.576  16.909   4.414  1.00  0.00    +0.000 F 
ATOM     57  C42 UNL A   1      23.340  15.576   2.481  1.00  0.00    +0.000 C 
ATOM     58  F9  UNL A   1      24.413  16.161   1.929  1.00  0.00    +0.000 F 
ATOM     59  C43 UNL A   1      22.637  14.601   1.792  1.00  0.00    +0.000 C 
ATOM     60  F10 UNL A   1      23.040  14.236   0.567  1.00  0.00    +0.000 F 
ATOM     61  C44 UNL A   1      21.513  14.000   2.362  1.00  0.00    +0.000 C 
ATOM     62  F11 UNL A   1      20.858  13.065   1.656  1.00  0.00    +0.000 F 
ENDBRANCH   51   52
BRANCH   66   67
ATOM     67  C48 UNL A   1      23.264   9.733   7.067  1.00  0.00    +0.000 C 
ATOM     68  C49 UNL A   1      23.906   9.105   5.960  1.00  0.00    +0.000 C 
ATOM     69  F12 UNL A   1      24.275   9.801   4.877  1.00  0.00    +0.000 F 
ATOM     70  C50 UNL A   1      24.193   7.740   5.906  1.00  0.00    +0.000 C 
ATOM     71  F13 UNL A   1      24.699   7.211   4.783  1.00  0.00    +0.000 F 
ATOM     72  C51 UNL A   1      23.934   6.939   6.992  1.00  0.00    +0.000 C 
ATOM     73  F14 UNL A   1      24.177   5.624   6.938  1.00  0.00    +0.000 F 
ATOM     74  C52 UNL A   1      23.435   7.523   8.139  1.00  0.00    +0.000 C 
ATOM     75  F15 UNL A   1      23.239   6.767   9.229  1.00  0.00    +0.000 F 
ATOM     76  C53 UNL A   1      23.115   8.892   8.178  1.00  0.00    +0.000 C 
ATOM     77  F16 UNL A   1      22.683   9.351   9.354  1.00  0.00    +0.000 F 
ENDBRANCH   66   67
TORSDOF 17
ENDMDL
MODEL 8
REMARK VINA RESULT:      -9.7      3.973      6.727
ROOT
ATOM     30  C24 UNL A   1      27.691  35.137  46.149  1.00  0.00    +0.000 C 
ATOM     31  C25 UNL A   1      28.136  33.784  46.714  1.00  0.00    +0.000 C 
ATOM     32  N4  UNL A   1      29.226  33.453  47.338  1.00  0.00    +0.000 N 
ATOM     33  C26 UNL A   1      29.190  32.058  47.546  1.00  0.00    +0.000 C 
ATOM     34  C27 UNL A   1      30.273  31.323  47.935  1.00  0.00    +0.000 C 
ATOM     46  C34 UNL A   1      31.399  32.161  48.168  1.00  0.00    +0.000 C 
ATOM     47  C35 UNL A   1      31.762  32.958  49.220  1.00  0.00    +0.000 C 
ATOM     48  C36 UNL A   1      32.547  33.977  48.641  1.00  0.00    +0.000 C 
ATOM     49  C37 UNL A   1      32.698  33.723  47.275  1.00  0.00    +0.000 C 
ATOM     50  N5  UNL A   1      32.208  32.449  47.098  1.00  0.00    +0.000 N 
ATOM     51  C38 UNL A   1      33.017  34.494  46.094  1.00  0.00    +0.000 C 
ATOM     63  C45 UNL A   1      33.242  35.822  46.256  1.00  0.00    +0.000 C 
ATOM     64  N6  UNL A   1      32.706  36.721  45.360  1.00  0.00    +0.000 N 
ATOM     65  C46 UNL A   1      32.219  37.643  46.137  1.00  0.00    +0.000 C 
ATOM     66  C47 UNL A   1      31.210  38.640  45.730  1.00  0.00    +0.000 C 
ATOM     78  C54 UNL A   1      30.037  37.947  45.601  1.00  0.00    +0.000 C 
ATOM     79  C55 UNL A   1      28.750  38.443  45.157  1.00  0.00    +0.000 C 
ATOM     80  C56 UNL A   1      27.821  37.479  45.285  1.00  0.00    +0.000 C 
ATOM     81  C57 UNL A   1      28.415  36.250  45.838  1.00  0.00    +0.000 C 
ATOM     82  N7  UNL A   1      29.750  36.593  45.917  1.00  0.00    +0.000 N 
ATOM     83  C58 UNL A   1      32.657  37.608  47.537  1.00  0.00    +0.000 C 
ATOM     84  C59 UNL A   1      33.447  36.541  47.490  1.00  0.00    +0.000 C 
ATOM     85  C60 UNL A   1      27.883  31.621  47.159  1.00  0.00    +0.000 C 
ATOM     86  C61 UNL A   1      27.204  32.628  46.607  1.00  0.00    +0.000 C 
ATOM    114  H26 UNL A   1      31.516  32.840  50.215  1.00  0.00    +0.000 H 
ATOM    115  H27 UNL A   1      32.947  34.783  49.146  1.00  0.00    +0.000 H 
ATOM    116  H28 UNL A   1      32.402  31.852  46.340  1.00  0.00    +0.000 H 
ATOM    117  H29 UNL A   1      28.574  39.393  44.797  1.00  0.00    +0.000 H 
ATOM    118  H30 UNL A   1      26.826  37.588  45.030  1.00  0.00    +0.000 H 
ATOM    119  H31 UNL A   1      30.450  35.949  46.172  1.00  0.00    +0.000 H 
ATOM    120  H32 UNL A   1      32.420  38.230  48.326  1.00  0.00    +0.000 H 
ATOM    121  H33 UNL A   1      34.113  36.266  48.230  1.00  0.00    +0.000 H 
ATOM    122  H34 UNL A   1      27.519  30.664  47.289  1.00  0.00    +0.000 H 
ATOM    123  H35 UNL A   1      26.255  32.610  46.202  1.00  0.00    +0.000 H 
ENDROOT
BRANCH   30   29
ATOM    124  H36 UNL A   1      26.324  34.605  43.888  1.00  0.00    +0.000 H 
ATOM     29  C23 UNL A   1      26.233  35.227  45.911  1.00  0.00    +0.000 C 
ATOM    112  H24 UNL A   1      23.390  35.830  47.572  1.00  0.00    +0.000 H 
ATOM    113  H25 UNL A   1      25.799  35.934  47.859  1.00  0.00    +0.000 H 
ATOM     87  C62 UNL A   1      25.699  34.857  44.669  1.00  0.00    +0.000 C 
ATOM     88  C63 UNL A   1      24.320  34.833  44.500  1.00  0.00    +0.000 C 
ATOM     26  C20 UNL A   1      23.482  35.125  45.580  1.00  0.00    +0.000 C 
ATOM     27  C21 UNL A   1      24.017  35.555  46.800  1.00  0.00    +0.000 C 
ATOM     28  C22 UNL A   1      25.396  35.611  46.966  1.00  0.00    +0.000 C 
ATOM    125  H37 UNL A   1      23.916  34.600  43.578  1.00  0.00    +0.000 H 
BRANCH   26   24
ATOM     25  O2  UNL A   1      21.337  36.036  45.396  1.00  0.00    +0.000 O 
ATOM     24  C19 UNL A   1      22.012  35.024  45.468  1.00  0.00    +0.000 C 
BRANCH   24   23
ATOM    111  H23 UNL A   1      21.445  33.299  46.339  1.00  0.00    +0.000 H 
ATOM     23  N3  UNL A   1      21.405  33.789  45.486  1.00  0.00    +0.000 N 
BRANCH   23   22
ATOM    110  H22 UNL A   1      20.913  33.657  43.491  1.00  0.00    +0.000 H 
ATOM    109  H21 UNL A   1      19.662  33.113  44.604  1.00  0.00    +0.000 H 
ATOM     22  C18 UNL A   1      20.712  33.123  44.395  1.00  0.00    +0.000 C 
BRANCH   22   21
ATOM    107  H19 UNL A   1      20.972  31.375  43.224  1.00  0.00    +0.000 H 
ATOM    108  H20 UNL A   1      22.245  31.688  44.430  1.00  0.00    +0.000 H 
ATOM     21  C17 UNL A   1      21.195  31.687  44.223  1.00  0.00    +0.000 C 
BRANCH   21   20
ATOM    105  H17 UNL A   1      21.341  30.123  45.642  1.00  0.00    +0.000 H 
ATOM    106  H18 UNL A   1      19.988  31.291  45.877  1.00  0.00    +0.000 H 
ATOM     20  C16 UNL A   1      20.554  30.692  45.194  1.00  0.00    +0.000 C 
BRANCH   20   19
ATOM     19  C15 UNL A   1      19.549  29.704  44.600  1.00  0.00    +0.000 C 
ATOM    103  H15 UNL A   1      19.912  29.407  43.638  1.00  0.00    +0.000 H 
ATOM    104  H16 UNL A   1      19.479  28.906  45.309  1.00  0.00    +0.000 H 
BRANCH   19   18
ATOM     18  C14 UNL A   1      18.117  30.219  44.420  1.00  0.00    +0.000 C 
ATOM    101  H13 UNL A   1      17.648  30.223  45.382  1.00  0.00    +0.000 H 
ATOM    102  H14 UNL A   1      18.217  31.187  43.974  1.00  0.00    +0.000 H 
BRANCH   18   17
ATOM     17  C13 UNL A   1      17.225  29.421  43.470  1.00  0.00    +0.000 C 
ATOM     99  H11 UNL A   1      16.214  29.503  43.809  1.00  0.00    +0.000 H 
ATOM    100  H12 UNL A   1      17.368  29.834  42.493  1.00  0.00    +0.000 H 
BRANCH   17   16
ATOM     98  H10 UNL A   1      18.443  27.737  43.037  1.00  0.00    +0.000 H 
ATOM     16  N2  UNL A   1      17.565  28.013  43.383  1.00  0.00    +0.000 N 
BRANCH   16    2
ATOM      1  O1  UNL A   1      16.935  26.119  44.526  1.00  0.00    +0.000 O 
ATOM      2  C1  UNL A   1      16.646  27.060  43.791  1.00  0.00    +0.000 C 
BRANCH    2    3
ATOM     89  H1  UNL A   1      14.952  28.227  43.379  1.00  0.00    +0.000 H 
ATOM     90  H2  UNL A   1      14.677  26.460  43.668  1.00  0.00    +0.000 H 
ATOM      3  C2  UNL A   1      15.263  27.220  43.195  1.00  0.00    +0.000 C 
BRANCH    3    4
ATOM      4  C3  UNL A   1      15.095  26.962  41.721  1.00  0.00    +0.000 C 
ATOM      5  C4  UNL A   1      15.404  27.871  40.714  1.00  0.00    +0.000 C 
ATOM      6  C5  UNL A   1      15.224  27.243  39.466  1.00  0.00    +0.000 C 
ATOM      7  C6  UNL A   1      14.812  25.960  39.724  1.00  0.00    +0.000 C 
ATOM      8  N1  UNL A   1      14.715  25.784  41.090  1.00  0.00    +0.000 N 
ATOM     91  H3  UNL A   1      15.715  28.844  40.859  1.00  0.00    +0.000 H 
ATOM     92  H4  UNL A   1      15.372  27.667  38.536  1.00  0.00    +0.000 H 
ATOM     93  H5  UNL A   1      14.608  25.241  39.012  1.00  0.00    +0.000 H 
BRANCH    8    9
ATOM     97  H9  UNL A   1      11.225  23.351  42.572  1.00  0.00    +0.000 H 
ATOM      9  C7  UNL A   1      14.182  24.615  41.649  1.00  0.00    +0.000 C 
ATOM     10  C8  UNL A   1      14.993  23.498  41.851  1.00  0.00    +0.000 C 
ATOM     11  C9  UNL A   1      14.416  22.332  42.361  1.00  0.00    +0.000 C 
ATOM     12  C10 UNL A   1      13.046  22.282  42.640  1.00  0.00    +0.000 C 
ATOM     13  C11 UNL A   1      12.240  23.392  42.386  1.00  0.00    +0.000 C 
ATOM     14  C12 UNL A   1      12.813  24.553  41.882  1.00  0.00    +0.000 C 
ATOM     15  F1  UNL A   1      12.036  25.613  41.620  1.00  0.00    +0.000 F 
ATOM     94  H6  UNL A   1      16.000  23.532  41.628  1.00  0.00    +0.000 H 
ATOM     95  H7  UNL A   1      15.004  21.502  42.534  1.00  0.00    +0.000 H 
ATOM     96  H8  UNL A   1      12.630  21.423  43.033  1.00  0.00    +0.000 H 
ENDBRANCH    8    9
ENDBRANCH    3    4
ENDBRANCH    2    3
ENDBRANCH   16    2
ENDBRANCH   17   16
ENDBRANCH   18   17
ENDBRANCH   19   18
ENDBRANCH   20   19
ENDBRANCH   21   20
ENDBRANCH   22   21
ENDBRANCH   23   22
ENDBRANCH   24   23
ENDBRANCH   26   24
ENDBRANCH   30   29
BRANCH   34   35
ATOM     35  C28 UNL A   1      30.497  29.837  47.988  1.00  0.00    +0.000 C 
ATOM     36  C29 UNL A   1      31.478  29.178  47.235  1.00  0.00    +0.000 C 
ATOM     37  F2  UNL A   1      32.100  29.795  46.223  1.00  0.00    +0.000 F 
ATOM     38  C30 UNL A   1      31.908  27.888  47.568  1.00  0.00    +0.000 C 
ATOM     39  F3  UNL A   1      32.876  27.304  46.848  1.00  0.00    +0.000 F 
ATOM     40  C31 UNL A   1      31.393  27.232  48.675  1.00  0.00    +0.000 C 
ATOM     41  F4  UNL A   1      31.880  26.040  49.047  1.00  0.00    +0.000 F 
ATOM     42  C32 UNL A   1      30.392  27.833  49.413  1.00  0.00    +0.000 C 
ATOM     43  F5  UNL A   1      29.902  27.224  50.502  1.00  0.00    +0.000 F 
ATOM     44  C33 UNL A   1      29.930  29.099  49.056  1.00  0.00    +0.000 C 
ATOM     45  F6  UNL A   1      28.954  29.625  49.812  1.00  0.00    +0.000 F 
ENDBRANCH   34   35
BRANCH   51   52
ATOM     52  C39 UNL A   1      32.698  34.115  44.664  1.00  0.00    +0.000 C 
ATOM     53  C40 UNL A   1      31.392  33.927  44.181  1.00  0.00    +0.000 C 
ATOM     54  F7  UNL A   1      30.352  33.942  45.012  1.00  0.00    +0.000 F 
ATOM     55  C41 UNL A   1      31.118  33.714  42.831  1.00  0.00    +0.000 C 
ATOM     56  F8  UNL A   1      29.853  33.523  42.425  1.00  0.00    +0.000 F 
ATOM     57  C42 UNL A   1      32.151  33.696  41.913  1.00  0.00    +0.000 C 
ATOM     58  F9  UNL A   1      31.892  33.492  40.614  1.00  0.00    +0.000 F 
ATOM     59  C43 UNL A   1      33.453  33.874  42.352  1.00  0.00    +0.000 C 
ATOM     60  F10 UNL A   1      34.458  33.852  41.467  1.00  0.00    +0.000 F 
ATOM     61  C44 UNL A   1      33.724  34.075  43.708  1.00  0.00    +0.000 C 
ATOM     62  F11 UNL A   1      35.000  34.238  44.090  1.00  0.00    +0.000 F 
ENDBRANCH   51   52
BRANCH   66   67
ATOM     67  C48 UNL A   1      31.646  40.091  45.669  1.00  0.00    +0.000 C 
ATOM     68  C49 UNL A   1      32.827  40.451  44.958  1.00  0.00    +0.000 C 
ATOM     69  F12 UNL A   1      33.440  39.590  44.135  1.00  0.00    +0.000 F 
ATOM     70  C50 UNL A   1      33.440  41.702  45.059  1.00  0.00    +0.000 C 
ATOM     71  F13 UNL A   1      34.609  41.921  44.442  1.00  0.00    +0.000 F 
ATOM     72  C51 UNL A   1      32.857  42.694  45.810  1.00  0.00    +0.000 C 
ATOM     73  F14 UNL A   1      33.452  43.886  45.938  1.00  0.00    +0.000 F 
ATOM     74  C52 UNL A   1      31.641  42.439  46.412  1.00  0.00    +0.000 C 
ATOM     75  F15 UNL A   1      31.027  43.418  47.093  1.00  0.00    +0.000 F 
ATOM     76  C53 UNL A   1      31.044  41.168  46.336  1.00  0.00    +0.000 C 
ATOM     77  F16 UNL A   1      29.849  41.054  46.918  1.00  0.00    +0.000 F 
ENDBRANCH   66   67
TORSDOF 17
ENDMDL
MODEL 9
REMARK VINA RESULT:      -9.7      4.447      9.490
ROOT
ATOM     30  C24 UNL A   1      22.835  36.279  49.969  1.00  0.00    +0.000 C 
ATOM     31  C25 UNL A   1      23.949  36.352  48.919  1.00  0.00    +0.000 C 
ATOM     32  N4  UNL A   1      23.903  36.721  47.674  1.00  0.00    +0.000 N 
ATOM     33  C26 UNL A   1      25.180  36.497  47.118  1.00  0.00    +0.000 C 
ATOM     34  C27 UNL A   1      25.436  36.520  45.777  1.00  0.00    +0.000 C 
ATOM     46  C34 UNL A   1      24.269  36.873  45.043  1.00  0.00    +0.000 C 
ATOM     47  C35 UNL A   1      23.659  38.071  44.787  1.00  0.00    +0.000 C 
ATOM     48  C36 UNL A   1      22.297  37.748  44.613  1.00  0.00    +0.000 C 
ATOM     49  C37 UNL A   1      22.138  36.361  44.693  1.00  0.00    +0.000 C 
ATOM     50  N5  UNL A   1      23.419  35.860  44.677  1.00  0.00    +0.000 N 
ATOM     51  C38 UNL A   1      21.057  35.444  44.978  1.00  0.00    +0.000 C 
ATOM     63  C45 UNL A   1      19.841  35.978  45.254  1.00  0.00    +0.000 C 
ATOM     64  N6  UNL A   1      19.087  35.464  46.286  1.00  0.00    +0.000 N 
ATOM     65  C46 UNL A   1      18.677  36.534  46.901  1.00  0.00    +0.000 C 
ATOM     66  C47 UNL A   1      18.156  36.565  48.281  1.00  0.00    +0.000 C 
ATOM     78  C54 UNL A   1      19.242  36.360  49.090  1.00  0.00    +0.000 C 
ATOM     79  C55 UNL A   1      19.270  36.234  50.533  1.00  0.00    +0.000 C 
ATOM     80  C56 UNL A   1      20.543  36.163  50.960  1.00  0.00    +0.000 C 
ATOM     81  C57 UNL A   1      21.480  36.245  49.826  1.00  0.00    +0.000 C 
ATOM     82  N7  UNL A   1      20.616  36.278  48.749  1.00  0.00    +0.000 N 
ATOM     83  C58 UNL A   1      18.837  37.800  46.176  1.00  0.00    +0.000 C 
ATOM     84  C59 UNL A   1      19.410  37.342  45.067  1.00  0.00    +0.000 C 
ATOM     85  C60 UNL A   1      26.042  36.140  48.204  1.00  0.00    +0.000 C 
ATOM     86  C61 UNL A   1      25.336  36.000  49.327  1.00  0.00    +0.000 C 
ATOM    114  H26 UNL A   1      24.098  39.003  44.733  1.00  0.00    +0.000 H 
ATOM    115  H27 UNL A   1      21.538  38.428  44.453  1.00  0.00    +0.000 H 
ATOM    116  H28 UNL A   1      23.680  34.939  44.446  1.00  0.00    +0.000 H 
ATOM    117  H29 UNL A   1      18.437  36.202  51.141  1.00  0.00    +0.000 H 
ATOM    118  H30 UNL A   1      20.825  36.064  51.949  1.00  0.00    +0.000 H 
ATOM    119  H31 UNL A   1      20.930  36.245  47.816  1.00  0.00    +0.000 H 
ATOM    120  H32 UNL A   1      18.581  38.762  46.447  1.00  0.00    +0.000 H 
ATOM    121  H33 UNL A   1      19.528  37.885  44.197  1.00  0.00    +0.000 H 
ATOM    122  H34 UNL A   1      27.063  36.011  48.128  1.00  0.00    +0.000 H 
ATOM    123  H35 UNL A   1      25.673  35.717  50.260  1.00  0.00    +0.000 H 
ENDROOT
BRANCH   30   29
ATOM    124  H36 UNL A   1      23.567  38.341  51.543  1.00  0.00    +0.000 H 
ATOM     29  C23 UNL A   1      23.339  36.243  51.361  1.00  0.00    +0.000 C 
ATOM    112  H24 UNL A   1      23.862  34.066  53.849  1.00  0.00    +0.000 H 
ATOM    113  H25 UNL A   1      23.296  34.130  51.490  1.00  0.00    +0.000 H 
ATOM     87  C62 UNL A   1      23.624  37.437  52.037  1.00  0.00    +0.000 C 
ATOM     88  C63 UNL A   1      23.981  37.392  53.379  1.00  0.00    +0.000 C 
ATOM     26  C20 UNL A   1      24.002  36.167  54.052  1.00  0.00    +0.000 C 
ATOM     27  C21 UNL A   1      23.781  34.971  53.360  1.00  0.00    +0.000 C 
ATOM     28  C22 UNL A   1      23.454  35.007  52.009  1.00  0.00    +0.000 C 
ATOM    125  H37 UNL A   1      24.231  38.262  53.877  1.00  0.00    +0.000 H 
BRANCH   26   24
ATOM     25  O2  UNL A   1      25.148  36.797  55.989  1.00  0.00    +0.000 O 
ATOM     24  C19 UNL A   1      24.290  36.084  55.499  1.00  0.00    +0.000 C 
BRANCH   24   23
ATOM    111  H23 UNL A   1      23.998  34.267  56.317  1.00  0.00    +0.000 H 
ATOM     23  N3  UNL A   1      23.617  35.174  56.282  1.00  0.00    +0.000 N 
BRANCH   23   22
ATOM    110  H22 UNL A   1      22.491  36.348  57.545  1.00  0.00    +0.000 H 
ATOM    109  H21 UNL A   1      22.319  34.612  57.790  1.00  0.00    +0.000 H 
ATOM     22  C18 UNL A   1      22.412  35.395  57.065  1.00  0.00    +0.000 C 
BRANCH   22   21
ATOM    107  H19 UNL A   1      21.389  34.858  55.288  1.00  0.00    +0.000 H 
ATOM    108  H20 UNL A   1      20.382  34.959  56.753  1.00  0.00    +0.000 H 
ATOM     21  C17 UNL A   1      21.169  35.403  56.182  1.00  0.00    +0.000 C 
BRANCH   21   20
ATOM    105  H17 UNL A   1      20.024  37.146  56.548  1.00  0.00    +0.000 H 
ATOM    106  H18 UNL A   1      21.587  37.384  55.682  1.00  0.00    +0.000 H 
ATOM     20  C16 UNL A   1      20.694  36.804  55.787  1.00  0.00    +0.000 C 
BRANCH   20   19
ATOM     19  C15 UNL A   1      19.972  36.931  54.445  1.00  0.00    +0.000 C 
ATOM    103  H15 UNL A   1      20.259  37.866  54.008  1.00  0.00    +0.000 H 
ATOM    104  H16 UNL A   1      20.267  36.073  53.879  1.00  0.00    +0.000 H 
BRANCH   19   18
ATOM     18  C14 UNL A   1      18.442  36.887  54.491  1.00  0.00    +0.000 C 
ATOM    101  H13 UNL A   1      18.124  36.018  53.951  1.00  0.00    +0.000 H 
ATOM    102  H14 UNL A   1      18.188  36.877  55.530  1.00  0.00    +0.000 H 
BRANCH   18   17
ATOM     17  C13 UNL A   1      17.712  38.094  53.903  1.00  0.00    +0.000 C 
ATOM     99  H11 UNL A   1      18.019  38.211  52.886  1.00  0.00    +0.000 H 
ATOM    100  H12 UNL A   1      16.665  37.897  53.998  1.00  0.00    +0.000 H 
BRANCH   17   16
ATOM     98  H10 UNL A   1      17.710  39.436  55.548  1.00  0.00    +0.000 H 
ATOM     16  N2  UNL A   1      17.968  39.338  54.603  1.00  0.00    +0.000 N 
BRANCH   16    2
ATOM      1  O1  UNL A   1      18.713  41.507  54.423  1.00  0.00    +0.000 O 
ATOM      2  C1  UNL A   1      18.579  40.387  53.936  1.00  0.00    +0.000 C 
BRANCH    2    3
ATOM     89  H1  UNL A   1      18.549  39.140  52.249  1.00  0.00    +0.000 H 
ATOM     90  H2  UNL A   1      20.073  40.073  52.550  1.00  0.00    +0.000 H 
ATOM      3  C2  UNL A   1      19.004  40.071  52.517  1.00  0.00    +0.000 C 
BRANCH    3    4
ATOM      4  C3  UNL A   1      18.659  41.065  51.439  1.00  0.00    +0.000 C 
ATOM      5  C4  UNL A   1      17.460  41.767  51.359  1.00  0.00    +0.000 C 
ATOM      6  C5  UNL A   1      17.540  42.680  50.289  1.00  0.00    +0.000 C 
ATOM      7  C6  UNL A   1      18.786  42.528  49.732  1.00  0.00    +0.000 C 
ATOM      8  N1  UNL A   1      19.466  41.539  50.413  1.00  0.00    +0.000 N 
ATOM     91  H3  UNL A   1      16.647  41.639  51.981  1.00  0.00    +0.000 H 
ATOM     92  H4  UNL A   1      16.805  43.335  49.982  1.00  0.00    +0.000 H 
ATOM     93  H5  UNL A   1      19.155  43.068  48.934  1.00  0.00    +0.000 H 
BRANCH    8    9
ATOM     97  H9  UNL A   1      21.989  38.869  47.805  1.00  0.00    +0.000 H 
ATOM      9  C7  UNL A   1      20.713  41.068  49.981  1.00  0.00    +0.000 C 
ATOM     10  C8  UNL A   1      21.888  41.670  50.429  1.00  0.00    +0.000 C 
ATOM     11  C9  UNL A   1      23.111  41.207  49.935  1.00  0.00    +0.000 C 
ATOM     12  C10 UNL A   1      23.151  40.176  48.991  1.00  0.00    +0.000 C 
ATOM     13  C11 UNL A   1      21.964  39.617  48.517  1.00  0.00    +0.000 C 
ATOM     14  C12 UNL A   1      20.747  40.074  49.009  1.00  0.00    +0.000 C 
ATOM     15  F1  UNL A   1      19.606  39.550  48.540  1.00  0.00    +0.000 F 
ATOM     94  H6  UNL A   1      21.855  42.443  51.111  1.00  0.00    +0.000 H 
ATOM     95  H7  UNL A   1      23.991  41.630  50.270  1.00  0.00    +0.000 H 
ATOM     96  H8  UNL A   1      24.059  39.828  48.645  1.00  0.00    +0.000 H 
ENDBRANCH    8    9
ENDBRANCH    3    4
ENDBRANCH    2    3
ENDBRANCH   16    2
ENDBRANCH   17   16
ENDBRANCH   18   17
ENDBRANCH   19   18
ENDBRANCH   20   19
ENDBRANCH   21   20
ENDBRANCH   22   21
ENDBRANCH   23   22
ENDBRANCH   24   23
ENDBRANCH   26   24
ENDBRANCH   30   29
BRANCH   34   35
ATOM     35  C28 UNL A   1      26.643  36.092  44.988  1.00  0.00    +0.000 C 
ATOM     36  C29 UNL A   1      27.757  36.915  44.776  1.00  0.00    +0.000 C 
ATOM     37  F2  UNL A   1      27.706  38.226  45.038  1.00  0.00    +0.000 F 
ATOM     38  C30 UNL A   1      28.988  36.384  44.373  1.00  0.00    +0.000 C 
ATOM     39  F3  UNL A   1      30.043  37.197  44.218  1.00  0.00    +0.000 F 
ATOM     40  C31 UNL A   1      29.149  35.018  44.196  1.00  0.00    +0.000 C 
ATOM     41  F4  UNL A   1      30.353  34.508  43.908  1.00  0.00    +0.000 F 
ATOM     42  C32 UNL A   1      28.060  34.183  44.351  1.00  0.00    +0.000 C 
ATOM     43  F5  UNL A   1      28.205  32.858  44.211  1.00  0.00    +0.000 F 
ATOM     44  C33 UNL A   1      26.822  34.715  44.710  1.00  0.00    +0.000 C 
ATOM     45  F6  UNL A   1      25.804  33.850  44.840  1.00  0.00    +0.000 F 
ENDBRANCH   34   35
BRANCH   51   52
ATOM     52  C39 UNL A   1      21.197  34.011  45.443  1.00  0.00    +0.000 C 
ATOM     53  C40 UNL A   1      20.638  32.914  44.766  1.00  0.00    +0.000 C 
ATOM     54  F7  UNL A   1      19.824  33.099  43.729  1.00  0.00    +0.000 F 
ATOM     55  C41 UNL A   1      20.898  31.596  45.138  1.00  0.00    +0.000 C 
ATOM     56  F8  UNL A   1      20.325  30.584  44.467  1.00  0.00    +0.000 F 
ATOM     57  C42 UNL A   1      21.743  31.333  46.199  1.00  0.00    +0.000 C 
ATOM     58  F9  UNL A   1      21.996  30.067  46.559  1.00  0.00    +0.000 F 
ATOM     59  C43 UNL A   1      22.310  32.389  46.893  1.00  0.00    +0.000 C 
ATOM     60  F10 UNL A   1      23.126  32.140  47.926  1.00  0.00    +0.000 F 
ATOM     61  C44 UNL A   1      22.038  33.709  46.525  1.00  0.00    +0.000 C 
ATOM     62  F11 UNL A   1      22.604  34.702  47.229  1.00  0.00    +0.000 F 
ENDBRANCH   51   52
BRANCH   66   67
ATOM     67  C48 UNL A   1      16.689  36.902  48.469  1.00  0.00    +0.000 C 
ATOM     68  C49 UNL A   1      16.299  37.862  49.446  1.00  0.00    +0.000 C 
ATOM     69  F12 UNL A   1      17.195  38.660  50.042  1.00  0.00    +0.000 F 
ATOM     70  C50 UNL A   1      14.979  38.047  49.864  1.00  0.00    +0.000 C 
ATOM     71  F13 UNL A   1      14.713  38.896  50.867  1.00  0.00    +0.000 F 
ATOM     72  C51 UNL A   1      13.963  37.343  49.265  1.00  0.00    +0.000 C 
ATOM     73  F14 UNL A   1      12.699  37.491  49.679  1.00  0.00    +0.000 F 
ATOM     74  C52 UNL A   1      14.273  36.497  48.219  1.00  0.00    +0.000 C 
ATOM     75  F15 UNL A   1      13.285  35.853  47.581  1.00  0.00    +0.000 F 
ATOM     76  C53 UNL A   1      15.606  36.287  47.825  1.00  0.00    +0.000 C 
ATOM     77  F16 UNL A   1      15.779  35.483  46.774  1.00  0.00    +0.000 F 
ENDBRANCH   66   67
TORSDOF 17
ENDMDL
MODEL 10
REMARK VINA RESULT:      -9.7     44.724     49.894
ROOT
ATOM     30  C24 UNL A   1      52.870  19.270   7.623  1.00  0.00    +0.000 C 
ATOM     31  C25 UNL A   1      52.553  19.733   9.049  1.00  0.00    +0.000 C 
ATOM     32  N4  UNL A   1      53.053  20.710   9.744  1.00  0.00    +0.000 N 
ATOM     33  C26 UNL A   1      52.498  20.638  11.039  1.00  0.00    +0.000 C 
ATOM     34  C27 UNL A   1      52.980  21.335  12.109  1.00  0.00    +0.000 C 
ATOM     46  C34 UNL A   1      54.053  22.185  11.720  1.00  0.00    +0.000 C 
ATOM     47  C35 UNL A   1      54.094  23.407  11.106  1.00  0.00    +0.000 C 
ATOM     48  C36 UNL A   1      55.329  23.423  10.424  1.00  0.00    +0.000 C 
ATOM     49  C37 UNL A   1      56.027  22.246  10.708  1.00  0.00    +0.000 C 
ATOM     50  N5  UNL A   1      55.318  21.654  11.728  1.00  0.00    +0.000 N 
ATOM     51  C38 UNL A   1      57.089  21.482  10.091  1.00  0.00    +0.000 C 
ATOM     63  C45 UNL A   1      57.603  21.953   8.928  1.00  0.00    +0.000 C 
ATOM     64  N6  UNL A   1      57.863  21.081   7.893  1.00  0.00    +0.000 N 
ATOM     65  C46 UNL A   1      57.373  21.704   6.863  1.00  0.00    +0.000 C 
ATOM     66  C47 UNL A   1      57.041  21.069   5.573  1.00  0.00    +0.000 C 
ATOM     78  C54 UNL A   1      55.923  20.315   5.811  1.00  0.00    +0.000 C 
ATOM     79  C55 UNL A   1      55.226  19.437   4.893  1.00  0.00    +0.000 C 
ATOM     80  C56 UNL A   1      54.105  18.970   5.470  1.00  0.00    +0.000 C 
ATOM     81  C57 UNL A   1      53.955  19.510   6.833  1.00  0.00    +0.000 C 
ATOM     82  N7  UNL A   1      55.123  20.233   6.979  1.00  0.00    +0.000 N 
ATOM     83  C58 UNL A   1      57.055  23.125   7.056  1.00  0.00    +0.000 C 
ATOM     84  C59 UNL A   1      57.403  23.252   8.333  1.00  0.00    +0.000 C 
ATOM     85  C60 UNL A   1      51.472  19.640  10.989  1.00  0.00    +0.000 C 
ATOM     86  C61 UNL A   1      51.483  19.026   9.805  1.00  0.00    +0.000 C 
ATOM    114  H26 UNL A   1      53.380  24.153  11.136  1.00  0.00    +0.000 H 
ATOM    115  H27 UNL A   1      55.663  24.184   9.812  1.00  0.00    +0.000 H 
ATOM    116  H28 UNL A   1      55.657  20.972  12.352  1.00  0.00    +0.000 H 
ATOM    117  H29 UNL A   1      55.544  19.205   3.939  1.00  0.00    +0.000 H 
ATOM    118  H30 UNL A   1      53.440  18.322   5.019  1.00  0.00    +0.000 H 
ATOM    119  H31 UNL A   1      55.380  20.658   7.830  1.00  0.00    +0.000 H 
ATOM    120  H32 UNL A   1      56.674  23.819   6.395  1.00  0.00    +0.000 H 
ATOM    121  H33 UNL A   1      57.514  24.151   8.827  1.00  0.00    +0.000 H 
ATOM    122  H34 UNL A   1      50.817  19.428  11.758  1.00  0.00    +0.000 H 
ATOM    123  H35 UNL A   1      50.889  18.245   9.487  1.00  0.00    +0.000 H 
ENDROOT
BRANCH   30   29
ATOM    124  H36 UNL A   1      50.725  20.042   6.186  1.00  0.00    +0.000 H 
ATOM     29  C23 UNL A   1      51.809  18.428   7.027  1.00  0.00    +0.000 C 
ATOM    112  H24 UNL A   1      51.029  15.202   6.590  1.00  0.00    +0.000 H 
ATOM    113  H25 UNL A   1      52.603  16.616   7.781  1.00  0.00    +0.000 H 
ATOM     87  C62 UNL A   1      50.791  19.015   6.264  1.00  0.00    +0.000 C 
ATOM     88  C63 UNL A   1      49.871  18.203   5.612  1.00  0.00    +0.000 C 
ATOM     26  C20 UNL A   1      50.002  16.812   5.681  1.00  0.00    +0.000 C 
ATOM     27  C21 UNL A   1      50.980  16.228   6.494  1.00  0.00    +0.000 C 
ATOM     28  C22 UNL A   1      51.883  17.037   7.174  1.00  0.00    +0.000 C 
ATOM    125  H37 UNL A   1      49.094  18.625   5.080  1.00  0.00    +0.000 H 
BRANCH   26   24
ATOM     25  O2  UNL A   1      49.479  14.800   4.613  1.00  0.00    +0.000 O 
ATOM     24  C19 UNL A   1      49.100  15.913   4.931  1.00  0.00    +0.000 C 
BRANCH   24   23
ATOM    111  H23 UNL A   1      47.740  16.593   3.610  1.00  0.00    +0.000 H 
ATOM     23  N3  UNL A   1      47.850  16.350   4.558  1.00  0.00    +0.000 N 
BRANCH   23   22
ATOM    110  H22 UNL A   1      46.904  16.122   6.373  1.00  0.00    +0.000 H 
ATOM    109  H21 UNL A   1      45.864  15.939   4.963  1.00  0.00    +0.000 H 
ATOM     22  C18 UNL A   1      46.671  16.493   5.397  1.00  0.00    +0.000 C 
BRANCH   22   21
ATOM    107  H19 UNL A   1      45.251  17.987   5.894  1.00  0.00    +0.000 H 
ATOM    108  H20 UNL A   1      46.953  18.416   6.193  1.00  0.00    +0.000 H 
ATOM     21  C17 UNL A   1      46.255  17.954   5.526  1.00  0.00    +0.000 C 
BRANCH   21   20
ATOM    105  H17 UNL A   1      47.339  18.802   3.917  1.00  0.00    +0.000 H 
ATOM    106  H18 UNL A   1      45.684  18.198   3.536  1.00  0.00    +0.000 H 
ATOM     20  C16 UNL A   1      46.313  18.738   4.213  1.00  0.00    +0.000 C 
BRANCH   20   19
ATOM     19  C15 UNL A   1      45.749  20.160   4.236  1.00  0.00    +0.000 C 
ATOM    103  H15 UNL A   1      45.621  20.443   5.260  1.00  0.00    +0.000 H 
ATOM    104  H16 UNL A   1      46.457  20.757   3.700  1.00  0.00    +0.000 H 
BRANCH   19   18
ATOM     18  C14 UNL A   1      44.411  20.370   3.521  1.00  0.00    +0.000 C 
ATOM    101  H13 UNL A   1      43.637  20.336   4.260  1.00  0.00    +0.000 H 
ATOM    102  H14 UNL A   1      44.500  21.311   3.019  1.00  0.00    +0.000 H 
BRANCH   18   17
ATOM     17  C13 UNL A   1      44.059  19.358   2.431  1.00  0.00    +0.000 C 
ATOM     99  H11 UNL A   1      44.404  19.739   1.494  1.00  0.00    +0.000 H 
ATOM    100  H12 UNL A   1      44.532  18.437   2.702  1.00  0.00    +0.000 H 
BRANCH   17   16
ATOM     98  H10 UNL A   1      42.228  18.376   2.865  1.00  0.00    +0.000 H 
ATOM     16  N2  UNL A   1      42.640  19.082   2.317  1.00  0.00    +0.000 N 
BRANCH   16    2
ATOM      1  O1  UNL A   1      42.232  20.888   0.952  1.00  0.00    +0.000 O 
ATOM      2  C1  UNL A   1      41.867  19.818   1.434  1.00  0.00    +0.000 C 
BRANCH    2    3
ATOM     89  H1  UNL A   1      40.574  18.177   1.244  1.00  0.00    +0.000 H 
ATOM     90  H2  UNL A   1      40.231  19.615   0.196  1.00  0.00    +0.000 H 
ATOM      3  C2  UNL A   1      40.493  19.241   1.164  1.00  0.00    +0.000 C 
BRANCH    3    4
ATOM      4  C3  UNL A   1      39.359  19.673   2.055  1.00  0.00    +0.000 C 
ATOM      5  C4  UNL A   1      39.150  19.218   3.353  1.00  0.00    +0.000 C 
ATOM      6  C5  UNL A   1      38.064  19.921   3.910  1.00  0.00    +0.000 C 
ATOM      7  C6  UNL A   1      37.625  20.797   2.949  1.00  0.00    +0.000 C 
ATOM      8  N1  UNL A   1      38.394  20.642   1.814  1.00  0.00    +0.000 N 
ATOM     91  H3  UNL A   1      39.701  18.487   3.829  1.00  0.00    +0.000 H 
ATOM     92  H4  UNL A   1      37.672  19.800   4.857  1.00  0.00    +0.000 H 
ATOM     93  H5  UNL A   1      36.846  21.465   3.058  1.00  0.00    +0.000 H 
BRANCH    8    9
ATOM     97  H9  UNL A   1      35.633  21.475  -1.647  1.00  0.00    +0.000 H 
ATOM      9  C7  UNL A   1      38.089  21.307   0.618  1.00  0.00    +0.000 C 
ATOM     10  C8  UNL A   1      38.923  22.318   0.142  1.00  0.00    +0.000 C 
ATOM     11  C9  UNL A   1      38.559  22.995  -1.026  1.00  0.00    +0.000 C 
ATOM     12  C10 UNL A   1      37.368  22.678  -1.688  1.00  0.00    +0.000 C 
ATOM     13  C11 UNL A   1      36.522  21.697  -1.172  1.00  0.00    +0.000 C 
ATOM     14  C12 UNL A   1      36.884  21.021  -0.012  1.00  0.00    +0.000 C 
ATOM     15  F1  UNL A   1      36.061  20.092   0.494  1.00  0.00    +0.000 F 
ATOM     94  H6  UNL A   1      39.792  22.563   0.642  1.00  0.00    +0.000 H 
ATOM     95  H7  UNL A   1      39.174  23.734  -1.402  1.00  0.00    +0.000 H 
ATOM     96  H8  UNL A   1      37.116  23.170  -2.559  1.00  0.00    +0.000 H 
ENDBRANCH    8    9
ENDBRANCH    3    4
ENDBRANCH    2    3
ENDBRANCH   16    2
ENDBRANCH   17   16
ENDBRANCH   18   17
ENDBRANCH   19   18
ENDBRANCH   20   19
ENDBRANCH   21   20
ENDBRANCH   22   21
ENDBRANCH   23   22
ENDBRANCH   24   23
ENDBRANCH   26   24
ENDBRANCH   30   29
BRANCH   34   35
ATOM     35  C28 UNL A   1      52.685  21.227  13.580  1.00  0.00    +0.000 C 
ATOM     36  C29 UNL A   1      53.567  20.649  14.503  1.00  0.00    +0.000 C 
ATOM     37  F2  UNL A   1      54.612  19.920  14.093  1.00  0.00    +0.000 F 
ATOM     38  C30 UNL A   1      53.444  20.888  15.877  1.00  0.00    +0.000 C 
ATOM     39  F3  UNL A   1      54.330  20.350  16.726  1.00  0.00    +0.000 F 
ATOM     40  C31 UNL A   1      52.457  21.730  16.365  1.00  0.00    +0.000 C 
ATOM     41  F4  UNL A   1      52.406  22.033  17.669  1.00  0.00    +0.000 F 
ATOM     42  C32 UNL A   1      51.542  22.279  15.489  1.00  0.00    +0.000 C 
ATOM     43  F5  UNL A   1      50.597  23.116  15.941  1.00  0.00    +0.000 F 
ATOM     44  C33 UNL A   1      51.635  22.007  14.125  1.00  0.00    +0.000 C 
ATOM     45  F6  UNL A   1      50.713  22.569  13.328  1.00  0.00    +0.000 F 
ENDBRANCH   34   35
BRANCH   51   52
ATOM     52  C39 UNL A   1      57.392  20.018  10.327  1.00  0.00    +0.000 C 
ATOM     53  C40 UNL A   1      56.479  18.982  10.065  1.00  0.00    +0.000 C 
ATOM     54  F7  UNL A   1      55.225  19.255   9.714  1.00  0.00    +0.000 F 
ATOM     55  C41 UNL A   1      56.831  17.637  10.160  1.00  0.00    +0.000 C 
ATOM     56  F8  UNL A   1      55.916  16.685   9.915  1.00  0.00    +0.000 F 
ATOM     57  C42 UNL A   1      58.120  17.284  10.510  1.00  0.00    +0.000 C 
ATOM     58  F9  UNL A   1      58.462  15.991  10.602  1.00  0.00    +0.000 F 
ATOM     59  C43 UNL A   1      59.047  18.278  10.779  1.00  0.00    +0.000 C 
ATOM     60  F10 UNL A   1      60.296  17.941  11.125  1.00  0.00    +0.000 F 
ATOM     61  C44 UNL A   1      58.688  19.625  10.695  1.00  0.00    +0.000 C 
ATOM     62  F11 UNL A   1      59.615  20.555  10.970  1.00  0.00    +0.000 F 
ENDBRANCH   51   52
BRANCH   66   67
ATOM     67  C48 UNL A   1      57.872  21.458   4.366  1.00  0.00    +0.000 C 
ATOM     68  C49 UNL A   1      58.828  20.545   3.836  1.00  0.00    +0.000 C 
ATOM     69  F12 UNL A   1      58.855  19.259   4.212  1.00  0.00    +0.000 F 
ATOM     70  C50 UNL A   1      59.805  20.903   2.905  1.00  0.00    +0.000 C 
ATOM     71  F13 UNL A   1      60.735  20.009   2.540  1.00  0.00    +0.000 F 
ATOM     72  C51 UNL A   1      59.826  22.174   2.384  1.00  0.00    +0.000 C 
ATOM     73  F14 UNL A   1      60.777  22.535   1.514  1.00  0.00    +0.000 F 
ATOM     74  C52 UNL A   1      58.838  23.060   2.765  1.00  0.00    +0.000 C 
ATOM     75  F15 UNL A   1      58.806  24.283   2.215  1.00  0.00    +0.000 F 
ATOM     76  C53 UNL A   1      57.877  22.707   3.729  1.00  0.00    +0.000 C 
ATOM     77  F16 UNL A   1      56.947  23.629   3.982  1.00  0.00    +0.000 F 
ENDBRANCH   66   67
TORSDOF 17
ENDMDL
