MODEL 1
REMARK VINA RESULT:     -11.7      0.000      0.000
ROOT
ATOM    129  H38 UNL A   1      37.690  30.391  27.880  1.00  0.00    +0.000 H 
ATOM     33  C27 UNL A   1      37.853  31.315  30.578  1.00  0.00    +0.000 C 
ATOM     34  C28 UNL A   1      38.753  30.336  29.883  1.00  0.00    +0.000 C 
ATOM     35  N4  UNL A   1      39.801  29.707  30.353  1.00  0.00    +0.000 N 
ATOM     36  C29 UNL A   1      40.260  28.904  29.318  1.00  0.00    +0.000 C 
ATOM     37  C30 UNL A   1      41.333  28.077  29.311  1.00  0.00    +0.000 C 
ATOM     49  C37 UNL A   1      42.227  27.894  30.426  1.00  0.00    +0.000 C 
ATOM     50  C38 UNL A   1      43.375  27.124  30.494  1.00  0.00    +0.000 C 
ATOM     51  C39 UNL A   1      43.886  27.211  31.793  1.00  0.00    +0.000 C 
ATOM     52  C40 UNL A   1      43.082  28.070  32.523  1.00  0.00    +0.000 C 
ATOM     53  N5  UNL A   1      42.068  28.483  31.672  1.00  0.00    +0.000 N 
ATOM     54  C41 UNL A   1      43.223  28.479  33.896  1.00  0.00    +0.000 C 
ATOM     66  C48 UNL A   1      42.421  29.366  34.532  1.00  0.00    +0.000 C 
ATOM     67  N6  UNL A   1      41.317  30.048  34.043  1.00  0.00    +0.000 N 
ATOM     68  C49 UNL A   1      40.862  30.759  35.046  1.00  0.00    +0.000 C 
ATOM     69  C50 UNL A   1      39.690  31.694  35.086  1.00  0.00    +0.000 C 
ATOM     81  C57 UNL A   1      38.951  31.861  33.974  1.00  0.00    +0.000 C 
ATOM     82  C58 UNL A   1      37.782  32.724  33.863  1.00  0.00    +0.000 C 
ATOM     83  C59 UNL A   1      37.252  32.583  32.641  1.00  0.00    +0.000 C 
ATOM     84  C60 UNL A   1      38.079  31.659  31.861  1.00  0.00    +0.000 C 
ATOM     85  N7  UNL A   1      39.070  31.285  32.732  1.00  0.00    +0.000 N 
ATOM     86  C61 UNL A   1      41.623  30.600  36.292  1.00  0.00    +0.000 C 
ATOM     87  C62 UNL A   1      42.583  29.769  35.914  1.00  0.00    +0.000 C 
ATOM     88  C63 UNL A   1      39.369  29.111  28.197  1.00  0.00    +0.000 C 
ATOM     89  C64 UNL A   1      38.439  30.014  28.483  1.00  0.00    +0.000 C 
ATOM    120  H29 UNL A   1      43.786  26.580  29.718  1.00  0.00    +0.000 H 
ATOM    121  H30 UNL A   1      44.721  26.717  32.147  1.00  0.00    +0.000 H 
ATOM    122  H31 UNL A   1      41.344  29.103  31.917  1.00  0.00    +0.000 H 
ATOM    123  H32 UNL A   1      37.422  33.344  34.607  1.00  0.00    +0.000 H 
ATOM    124  H33 UNL A   1      36.395  33.049  32.303  1.00  0.00    +0.000 H 
ATOM    125  H34 UNL A   1      39.795  30.664  32.491  1.00  0.00    +0.000 H 
ATOM    126  H35 UNL A   1      41.454  31.024  37.217  1.00  0.00    +0.000 H 
ATOM    127  H36 UNL A   1      43.351  29.449  36.526  1.00  0.00    +0.000 H 
ATOM    128  H37 UNL A   1      39.446  28.620  27.291  1.00  0.00    +0.000 H 
ENDROOT
BRANCH   33   32
ATOM    130  H39 UNL A   1      35.292  30.439  30.355  1.00  0.00    +0.000 H 
ATOM    131  H40 UNL A   1      33.417  31.560  29.293  1.00  0.00    +0.000 H 
ATOM    118  H27 UNL A   1      35.896  34.837  28.385  1.00  0.00    +0.000 H 
ATOM    119  H28 UNL A   1      37.814  33.619  29.224  1.00  0.00    +0.000 H 
ATOM     90  C65 UNL A   1      35.429  31.355  29.899  1.00  0.00    +0.000 C 
ATOM     91  C66 UNL A   1      34.347  32.005  29.301  1.00  0.00    +0.000 C 
ATOM     29  C23 UNL A   1      34.528  33.260  28.714  1.00  0.00    +0.000 C 
ATOM     30  C24 UNL A   1      35.782  33.879  28.749  1.00  0.00    +0.000 C 
ATOM     31  C25 UNL A   1      36.874  33.198  29.276  1.00  0.00    +0.000 C 
ATOM     32  C26 UNL A   1      36.704  31.942  29.879  1.00  0.00    +0.000 C 
BRANCH   29    2
ATOM      1  O1  UNL A   1      33.008  35.033  28.494  1.00  0.00    +0.000 O 
ATOM      2  C1  UNL A   1      33.375  33.936  28.083  1.00  0.00    +0.000 C 
BRANCH    2    3
ATOM      3  N1  UNL A   1      32.714  33.325  27.045  1.00  0.00    +0.000 N 
ATOM     92  H1  UNL A   1      33.115  33.446  26.153  1.00  0.00    +0.000 H 
BRANCH    3    4
ATOM      4  C2  UNL A   1      31.504  32.522  27.089  1.00  0.00    +0.000 C 
ATOM     93  H2  UNL A   1      30.698  33.094  26.677  1.00  0.00    +0.000 H 
ATOM     94  H3  UNL A   1      31.319  32.264  28.110  1.00  0.00    +0.000 H 
BRANCH    4    5
ATOM      5  C3  UNL A   1      31.642  31.229  26.297  1.00  0.00    +0.000 C 
ATOM     95  H4  UNL A   1      32.135  31.452  25.375  1.00  0.00    +0.000 H 
ATOM     96  H5  UNL A   1      30.650  30.850  26.161  1.00  0.00    +0.000 H 
BRANCH    5    6
ATOM     97  H6  UNL A   1      32.806  30.533  27.926  1.00  0.00    +0.000 H 
ATOM     98  H7  UNL A   1      33.202  29.830  26.329  1.00  0.00    +0.000 H 
ATOM      6  C4  UNL A   1      32.433  30.130  27.009  1.00  0.00    +0.000 C 
BRANCH    6    7
ATOM     99  H8  UNL A   1      30.615  29.033  27.064  1.00  0.00    +0.000 H 
ATOM    100  H9  UNL A   1      31.778  28.688  28.383  1.00  0.00    +0.000 H 
ATOM      7  C5  UNL A   1      31.636  28.862  27.337  1.00  0.00    +0.000 C 
BRANCH    7    8
ATOM    101  H10 UNL A   1      31.580  27.501  25.700  1.00  0.00    +0.000 H 
ATOM    102  H11 UNL A   1      31.909  26.772  27.294  1.00  0.00    +0.000 H 
ATOM      8  C6  UNL A   1      32.108  27.585  26.628  1.00  0.00    +0.000 C 
BRANCH    8    9
ATOM      9  C7  UNL A   1      33.607  27.549  26.329  1.00  0.00    +0.000 C 
ATOM    103  H12 UNL A   1      34.049  26.730  26.857  1.00  0.00    +0.000 H 
ATOM    104  H13 UNL A   1      34.039  28.476  26.644  1.00  0.00    +0.000 H 
BRANCH    9   10
ATOM    105  H14 UNL A   1      34.503  28.013  24.525  1.00  0.00    +0.000 H 
ATOM     10  N2  UNL A   1      33.852  27.385  24.911  1.00  0.00    +0.000 N 
BRANCH   10   11
ATOM     11  C8  UNL A   1      33.316  26.488  24.031  1.00  0.00    +0.000 C 
ATOM     12  O2  UNL A   1      33.633  25.307  24.175  1.00  0.00    +0.000 O 
BRANCH   11   13
ATOM    106  H15 UNL A   1      32.706  26.448  22.078  1.00  0.00    +0.000 H 
ATOM    107  H16 UNL A   1      33.142  28.789  21.958  1.00  0.00    +0.000 H 
ATOM    108  H17 UNL A   1      32.850  29.018  23.641  1.00  0.00    +0.000 H 
ATOM     13  C9  UNL A   1      32.387  27.007  22.934  1.00  0.00    +0.000 C 
ATOM     14  C10 UNL A   1      32.474  28.544  22.758  1.00  0.00    +0.000 C 
ATOM     15  C11 UNL A   1      31.050  29.014  22.428  1.00  0.00    +0.000 C 
ATOM     16  N3  UNL A   1      30.217  27.946  22.948  1.00  0.00    +0.000 N 
ATOM    109  H18 UNL A   1      30.918  29.124  21.372  1.00  0.00    +0.000 H 
ATOM    110  H19 UNL A   1      30.817  29.970  22.849  1.00  0.00    +0.000 H 
ATOM     17  C12 UNL A   1      28.902  27.796  23.269  1.00  0.00    +0.000 C 
ATOM    116  H25 UNL A   1      27.952  26.072  24.165  1.00  0.00    +0.000 H 
ATOM    117  H26 UNL A   1      30.338  24.946  24.106  1.00  0.00    +0.000 H 
ATOM     26  C20 UNL A   1      28.814  26.510  23.807  1.00  0.00    +0.000 C 
ATOM     27  C21 UNL A   1      30.096  25.896  23.786  1.00  0.00    +0.000 C 
ATOM     28  C22 UNL A   1      30.943  26.829  23.253  1.00  0.00    +0.000 C 
BRANCH   17   18
ATOM     18  C13 UNL A   1      27.801  28.742  23.163  1.00  0.00    +0.000 C 
ATOM     19  O3  UNL A   1      26.640  28.450  23.443  1.00  0.00    +0.000 O 
BRANCH   18   20
ATOM    111  H20 UNL A   1      27.763  29.667  20.677  1.00  0.00    +0.000 H 
ATOM    112  H21 UNL A   1      28.135  31.936  19.897  1.00  0.00    +0.000 H 
ATOM    113  H22 UNL A   1      28.629  33.699  21.489  1.00  0.00    +0.000 H 
ATOM    114  H23 UNL A   1      28.799  33.193  23.855  1.00  0.00    +0.000 H 
ATOM    115  H24 UNL A   1      28.453  30.918  24.641  1.00  0.00    +0.000 H 
ATOM     20  C14 UNL A   1      28.035  30.134  22.721  1.00  0.00    +0.000 C 
ATOM     21  C15 UNL A   1      27.971  30.418  21.353  1.00  0.00    +0.000 C 
ATOM     22  C16 UNL A   1      28.189  31.721  20.905  1.00  0.00    +0.000 C 
ATOM     23  C17 UNL A   1      28.481  32.732  21.820  1.00  0.00    +0.000 C 
ATOM     24  C18 UNL A   1      28.574  32.443  23.183  1.00  0.00    +0.000 C 
ATOM     25  C19 UNL A   1      28.366  31.139  23.637  1.00  0.00    +0.000 C 
ENDBRANCH   18   20
ENDBRANCH   17   18
ENDBRANCH   11   13
ENDBRANCH   10   11
ENDBRANCH    9   10
ENDBRANCH    8    9
ENDBRANCH    7    8
ENDBRANCH    6    7
ENDBRANCH    5    6
ENDBRANCH    4    5
ENDBRANCH    3    4
ENDBRANCH    2    3
ENDBRANCH   29    2
ENDBRANCH   33   32
BRANCH   37   38
ATOM     38  C31 UNL A   1      41.609  27.290  28.064  1.00  0.00    +0.000 C 
ATOM     39  C32 UNL A   1      42.481  27.762  27.074  1.00  0.00    +0.000 C 
ATOM     40  F1  UNL A   1      43.020  28.987  27.177  1.00  0.00    +0.000 F 
ATOM     41  C33 UNL A   1      42.796  26.981  25.965  1.00  0.00    +0.000 C 
ATOM     42  F2  UNL A   1      43.617  27.460  25.019  1.00  0.00    +0.000 F 
ATOM     43  C34 UNL A   1      42.262  25.707  25.836  1.00  0.00    +0.000 C 
ATOM     44  F3  UNL A   1      42.581  24.949  24.776  1.00  0.00    +0.000 F 
ATOM     45  C35 UNL A   1      41.399  25.218  26.804  1.00  0.00    +0.000 C 
ATOM     46  F4  UNL A   1      40.893  23.983  26.687  1.00  0.00    +0.000 F 
ATOM     47  C36 UNL A   1      41.067  26.005  27.904  1.00  0.00    +0.000 C 
ATOM     48  F5  UNL A   1      40.231  25.504  28.826  1.00  0.00    +0.000 F 
ENDBRANCH   37   38
BRANCH   54   55
ATOM     65  F10 UNL A   1      45.781  29.705  34.093  1.00  0.00    +0.000 F 
ATOM     55  C42 UNL A   1      44.353  27.897  34.691  1.00  0.00    +0.000 C 
ATOM     56  C43 UNL A   1      44.211  26.688  35.387  1.00  0.00    +0.000 C 
ATOM     57  F6  UNL A   1      43.036  26.040  35.380  1.00  0.00    +0.000 F 
ATOM     58  C44 UNL A   1      45.265  26.163  36.128  1.00  0.00    +0.000 C 
ATOM     59  F7  UNL A   1      45.092  25.031  36.826  1.00  0.00    +0.000 F 
ATOM     60  C45 UNL A   1      46.487  26.818  36.162  1.00  0.00    +0.000 C 
ATOM     61  F8  UNL A   1      47.501  26.309  36.875  1.00  0.00    +0.000 F 
ATOM     62  C46 UNL A   1      46.655  28.005  35.464  1.00  0.00    +0.000 C 
ATOM     63  F9  UNL A   1      47.838  28.634  35.488  1.00  0.00    +0.000 F 
ATOM     64  C47 UNL A   1      45.596  28.547  34.744  1.00  0.00    +0.000 C 
ENDBRANCH   54   55
BRANCH   69   70
ATOM     70  C51 UNL A   1      39.327  32.420  36.330  1.00  0.00    +0.000 C 
ATOM     71  C52 UNL A   1      39.925  33.645  36.653  1.00  0.00    +0.000 C 
ATOM     72  F11 UNL A   1      40.857  34.169  35.843  1.00  0.00    +0.000 F 
ATOM     73  C53 UNL A   1      39.597  34.315  37.829  1.00  0.00    +0.000 C 
ATOM     74  F12 UNL A   1      40.217  35.463  38.138  1.00  0.00    +0.000 F 
ATOM     75  C54 UNL A   1      38.641  33.792  38.687  1.00  0.00    +0.000 C 
ATOM     76  F13 UNL A   1      38.323  34.440  39.815  1.00  0.00    +0.000 F 
ATOM     77  C55 UNL A   1      38.021  32.591  38.377  1.00  0.00    +0.000 C 
ATOM     78  F14 UNL A   1      37.086  32.088  39.194  1.00  0.00    +0.000 F 
ATOM     79  C56 UNL A   1      38.371  31.903  37.218  1.00  0.00    +0.000 C 
ATOM     80  F15 UNL A   1      37.765  30.738  36.949  1.00  0.00    +0.000 F 
ENDBRANCH   69   70
TORSDOF 17
ENDMDL
MODEL 2
REMARK VINA RESULT:     -11.3      1.695      2.772
ROOT
ATOM    129  H38 UNL A   1      38.263  28.995  27.369  1.00  0.00    +0.000 H 
ATOM     33  C27 UNL A   1      38.207  30.188  29.963  1.00  0.00    +0.000 C 
ATOM     34  C28 UNL A   1      39.313  29.389  29.340  1.00  0.00    +0.000 C 
ATOM     35  N4  UNL A   1      40.483  29.077  29.840  1.00  0.00    +0.000 N 
ATOM     36  C29 UNL A   1      41.118  28.310  28.872  1.00  0.00    +0.000 C 
ATOM     37  C30 UNL A   1      42.358  27.765  28.915  1.00  0.00    +0.000 C 
ATOM     49  C37 UNL A   1      43.272  27.910  30.018  1.00  0.00    +0.000 C 
ATOM     50  C38 UNL A   1      44.572  27.446  30.129  1.00  0.00    +0.000 C 
ATOM     51  C39 UNL A   1      45.051  27.777  31.400  1.00  0.00    +0.000 C 
ATOM     52  C40 UNL A   1      44.066  28.487  32.067  1.00  0.00    +0.000 C 
ATOM     53  N5  UNL A   1      42.981  28.562  31.208  1.00  0.00    +0.000 N 
ATOM     54  C41 UNL A   1      44.109  29.048  33.392  1.00  0.00    +0.000 C 
ATOM     66  C48 UNL A   1      43.119  29.776  33.962  1.00  0.00    +0.000 C 
ATOM     67  N6  UNL A   1      41.883  30.125  33.441  1.00  0.00    +0.000 N 
ATOM     68  C49 UNL A   1      41.274  30.801  34.384  1.00  0.00    +0.000 C 
ATOM     69  C50 UNL A   1      39.911  31.429  34.367  1.00  0.00    +0.000 C 
ATOM     81  C57 UNL A   1      39.151  31.306  33.264  1.00  0.00    +0.000 C 
ATOM     82  C58 UNL A   1      37.809  31.851  33.104  1.00  0.00    +0.000 C 
ATOM     83  C59 UNL A   1      37.325  31.470  31.914  1.00  0.00    +0.000 C 
ATOM     84  C60 UNL A   1      38.348  30.699  31.203  1.00  0.00    +0.000 C 
ATOM     85  N7  UNL A   1      39.401  30.658  32.079  1.00  0.00    +0.000 N 
ATOM     86  C61 UNL A   1      42.054  30.949  35.619  1.00  0.00    +0.000 C 
ATOM     87  C62 UNL A   1      43.184  30.338  35.296  1.00  0.00    +0.000 C 
ATOM     88  C63 UNL A   1      40.200  28.189  27.760  1.00  0.00    +0.000 C 
ATOM     89  C64 UNL A   1      39.082  28.867  27.984  1.00  0.00    +0.000 C 
ATOM    120  H29 UNL A   1      45.099  26.942  29.397  1.00  0.00    +0.000 H 
ATOM    121  H30 UNL A   1      45.981  27.533  31.777  1.00  0.00    +0.000 H 
ATOM    122  H31 UNL A   1      42.130  29.012  31.412  1.00  0.00    +0.000 H 
ATOM    123  H32 UNL A   1      37.313  32.436  33.795  1.00  0.00    +0.000 H 
ATOM    124  H33 UNL A   1      36.381  31.683  31.556  1.00  0.00    +0.000 H 
ATOM    125  H34 UNL A   1      40.253  30.207  31.878  1.00  0.00    +0.000 H 
ATOM    126  H35 UNL A   1      41.790  31.408  36.506  1.00  0.00    +0.000 H 
ATOM    127  H36 UNL A   1      44.007  30.271  35.916  1.00  0.00    +0.000 H 
ATOM    128  H37 UNL A   1      40.391  27.645  26.902  1.00  0.00    +0.000 H 
ENDROOT
BRANCH   33   32
ATOM    130  H39 UNL A   1      37.373  32.461  28.733  1.00  0.00    +0.000 H 
ATOM    131  H40 UNL A   1      35.333  32.809  27.461  1.00  0.00    +0.000 H 
ATOM    118  H27 UNL A   1      34.267  28.784  28.079  1.00  0.00    +0.000 H 
ATOM    119  H28 UNL A   1      36.173  28.504  29.547  1.00  0.00    +0.000 H 
ATOM     90  C65 UNL A   1      36.692  31.692  28.630  1.00  0.00    +0.000 C 
ATOM     91  C66 UNL A   1      35.525  31.889  27.886  1.00  0.00    +0.000 C 
ATOM     29  C23 UNL A   1      34.622  30.836  27.718  1.00  0.00    +0.000 C 
ATOM     30  C24 UNL A   1      34.896  29.580  28.268  1.00  0.00    +0.000 C 
ATOM     31  C25 UNL A   1      36.017  29.406  29.071  1.00  0.00    +0.000 C 
ATOM     32  C26 UNL A   1      36.939  30.452  29.239  1.00  0.00    +0.000 C 
BRANCH   29    2
ATOM      1  O1  UNL A   1      32.750  32.095  27.077  1.00  0.00    +0.000 O 
ATOM      2  C1  UNL A   1      33.391  31.059  26.930  1.00  0.00    +0.000 C 
BRANCH    2    3
ATOM      3  N1  UNL A   1      32.967  30.098  26.045  1.00  0.00    +0.000 N 
ATOM     92  H1  UNL A   1      33.431  30.083  25.176  1.00  0.00    +0.000 H 
BRANCH    3    4
ATOM      4  C2  UNL A   1      31.927  29.100  26.221  1.00  0.00    +0.000 C 
ATOM     93  H2  UNL A   1      31.464  28.915  25.274  1.00  0.00    +0.000 H 
ATOM     94  H3  UNL A   1      31.223  29.481  26.931  1.00  0.00    +0.000 H 
BRANCH    4    5
ATOM      5  C3  UNL A   1      32.474  27.786  26.764  1.00  0.00    +0.000 C 
ATOM     95  H4  UNL A   1      31.648  27.137  26.962  1.00  0.00    +0.000 H 
ATOM     96  H5  UNL A   1      33.035  28.031  27.642  1.00  0.00    +0.000 H 
BRANCH    5    6
ATOM     97  H6  UNL A   1      34.413  27.474  25.966  1.00  0.00    +0.000 H 
ATOM     98  H7  UNL A   1      33.052  27.209  24.835  1.00  0.00    +0.000 H 
ATOM      6  C4  UNL A   1      33.437  27.063  25.821  1.00  0.00    +0.000 C 
BRANCH    6    7
ATOM     99  H8  UNL A   1      32.579  25.121  25.766  1.00  0.00    +0.000 H 
ATOM    100  H9  UNL A   1      33.801  25.400  27.046  1.00  0.00    +0.000 H 
ATOM      7  C5  UNL A   1      33.527  25.545  26.022  1.00  0.00    +0.000 C 
BRANCH    7    8
ATOM    101  H10 UNL A   1      35.563  25.191  25.507  1.00  0.00    +0.000 H 
ATOM    102  H11 UNL A   1      34.397  25.056  24.165  1.00  0.00    +0.000 H 
ATOM      8  C6  UNL A   1      34.604  24.834  25.191  1.00  0.00    +0.000 C 
BRANCH    8    9
ATOM      9  C7  UNL A   1      34.595  23.311  25.320  1.00  0.00    +0.000 C 
ATOM    103  H12 UNL A   1      34.078  23.039  26.217  1.00  0.00    +0.000 H 
ATOM    104  H13 UNL A   1      35.607  22.966  25.351  1.00  0.00    +0.000 H 
BRANCH    9   10
ATOM    105  H14 UNL A   1      34.535  22.311  23.512  1.00  0.00    +0.000 H 
ATOM     10  N2  UNL A   1      33.934  22.696  24.189  1.00  0.00    +0.000 N 
BRANCH   10   11
ATOM     11  C8  UNL A   1      32.599  22.568  23.921  1.00  0.00    +0.000 C 
ATOM     12  O2  UNL A   1      31.984  21.706  24.547  1.00  0.00    +0.000 O 
BRANCH   11   13
ATOM    106  H15 UNL A   1      31.363  22.803  22.308  1.00  0.00    +0.000 H 
ATOM    107  H16 UNL A   1      33.212  23.699  21.098  1.00  0.00    +0.000 H 
ATOM    108  H17 UNL A   1      33.977  24.281  22.529  1.00  0.00    +0.000 H 
ATOM     13  C9  UNL A   1      31.976  23.480  22.866  1.00  0.00    +0.000 C 
ATOM     14  C10 UNL A   1      33.039  24.222  22.017  1.00  0.00    +0.000 C 
ATOM     15  C11 UNL A   1      32.461  25.617  21.736  1.00  0.00    +0.000 C 
ATOM     16  N3  UNL A   1      31.486  25.793  22.797  1.00  0.00    +0.000 N 
ATOM    109  H18 UNL A   1      31.992  25.652  20.775  1.00  0.00    +0.000 H 
ATOM    110  H19 UNL A   1      33.207  26.384  21.721  1.00  0.00    +0.000 H 
ATOM     17  C12 UNL A   1      30.817  26.844  23.349  1.00  0.00    +0.000 C 
ATOM    116  H25 UNL A   1      29.483  26.808  25.051  1.00  0.00    +0.000 H 
ATOM    117  H26 UNL A   1      29.935  24.209  25.129  1.00  0.00    +0.000 H 
ATOM     26  C20 UNL A   1      30.096  26.285  24.408  1.00  0.00    +0.000 C 
ATOM     27  C21 UNL A   1      30.338  24.886  24.463  1.00  0.00    +0.000 C 
ATOM     28  C22 UNL A   1      31.217  24.622  23.449  1.00  0.00    +0.000 C 
BRANCH   17   18
ATOM     18  C13 UNL A   1      30.853  28.257  23.007  1.00  0.00    +0.000 C 
ATOM     19  O3  UNL A   1      31.863  28.816  22.582  1.00  0.00    +0.000 O 
BRANCH   18   20
ATOM    111  H20 UNL A   1      30.740  30.781  23.813  1.00  0.00    +0.000 H 
ATOM    112  H21 UNL A   1      28.793  32.213  24.045  1.00  0.00    +0.000 H 
ATOM    113  H22 UNL A   1      26.587  31.355  23.513  1.00  0.00    +0.000 H 
ATOM    114  H23 UNL A   1      26.314  29.054  22.795  1.00  0.00    +0.000 H 
ATOM    115  H24 UNL A   1      28.256  27.606  22.586  1.00  0.00    +0.000 H 
ATOM     20  C14 UNL A   1      29.647  29.101  23.138  1.00  0.00    +0.000 C 
ATOM     21  C15 UNL A   1      29.801  30.419  23.586  1.00  0.00    +0.000 C 
ATOM     22  C16 UNL A   1      28.682  31.240  23.723  1.00  0.00    +0.000 C 
ATOM     23  C17 UNL A   1      27.413  30.743  23.424  1.00  0.00    +0.000 C 
ATOM     24  C18 UNL A   1      27.256  29.420  23.007  1.00  0.00    +0.000 C 
ATOM     25  C19 UNL A   1      28.371  28.590  22.876  1.00  0.00    +0.000 C 
ENDBRANCH   18   20
ENDBRANCH   17   18
ENDBRANCH   11   13
ENDBRANCH   10   11
ENDBRANCH    9   10
ENDBRANCH    8    9
ENDBRANCH    7    8
ENDBRANCH    6    7
ENDBRANCH    5    6
ENDBRANCH    4    5
ENDBRANCH    3    4
ENDBRANCH    2    3
ENDBRANCH   29    2
ENDBRANCH   33   32
BRANCH   37   38
ATOM     38  C31 UNL A   1      42.811  26.950  27.740  1.00  0.00    +0.000 C 
ATOM     39  C32 UNL A   1      43.611  27.498  26.728  1.00  0.00    +0.000 C 
ATOM     40  F1  UNL A   1      43.912  28.807  26.740  1.00  0.00    +0.000 F 
ATOM     41  C33 UNL A   1      44.097  26.706  25.691  1.00  0.00    +0.000 C 
ATOM     42  F2  UNL A   1      44.843  27.256  24.722  1.00  0.00    +0.000 F 
ATOM     43  C34 UNL A   1      43.811  25.349  25.657  1.00  0.00    +0.000 C 
ATOM     44  F3  UNL A   1      44.295  24.585  24.668  1.00  0.00    +0.000 F 
ATOM     45  C35 UNL A   1      43.024  24.785  26.649  1.00  0.00    +0.000 C 
ATOM     46  F4  UNL A   1      42.757  23.471  26.625  1.00  0.00    +0.000 F 
ATOM     47  C36 UNL A   1      42.520  25.578  27.676  1.00  0.00    +0.000 C 
ATOM     48  F5  UNL A   1      41.764  25.003  28.623  1.00  0.00    +0.000 F 
ENDBRANCH   37   38
BRANCH   54   55
ATOM     65  F10 UNL A   1      44.458  26.830  35.137  1.00  0.00    +0.000 F 
ATOM     55  C42 UNL A   1      45.348  28.833  34.208  1.00  0.00    +0.000 C 
ATOM     56  C43 UNL A   1      46.420  29.736  34.163  1.00  0.00    +0.000 C 
ATOM     57  F6  UNL A   1      46.367  30.804  33.351  1.00  0.00    +0.000 F 
ATOM     58  C44 UNL A   1      47.568  29.521  34.918  1.00  0.00    +0.000 C 
ATOM     59  F7  UNL A   1      48.600  30.370  34.821  1.00  0.00    +0.000 F 
ATOM     60  C45 UNL A   1      47.653  28.418  35.756  1.00  0.00    +0.000 C 
ATOM     61  F8  UNL A   1      48.760  28.214  36.484  1.00  0.00    +0.000 F 
ATOM     62  C46 UNL A   1      46.597  27.523  35.831  1.00  0.00    +0.000 C 
ATOM     63  F9  UNL A   1      46.674  26.463  36.647  1.00  0.00    +0.000 F 
ATOM     64  C47 UNL A   1      45.458  27.721  35.057  1.00  0.00    +0.000 C 
ENDBRANCH   54   55
BRANCH   69   70
ATOM     70  C51 UNL A   1      39.389  32.164  35.547  1.00  0.00    +0.000 C 
ATOM     71  C52 UNL A   1      38.593  31.523  36.504  1.00  0.00    +0.000 C 
ATOM     72  F11 UNL A   1      38.275  30.229  36.353  1.00  0.00    +0.000 F 
ATOM     73  C53 UNL A   1      38.088  32.219  37.600  1.00  0.00    +0.000 C 
ATOM     74  F12 UNL A   1      37.291  31.593  38.478  1.00  0.00    +0.000 F 
ATOM     75  C54 UNL A   1      38.397  33.559  37.778  1.00  0.00    +0.000 C 
ATOM     76  F13 UNL A   1      37.915  34.226  38.835  1.00  0.00    +0.000 F 
ATOM     77  C55 UNL A   1      39.200  34.209  36.853  1.00  0.00    +0.000 C 
ATOM     78  F14 UNL A   1      39.514  35.501  37.028  1.00  0.00    +0.000 F 
ATOM     79  C56 UNL A   1      39.678  33.524  35.740  1.00  0.00    +0.000 C 
ATOM     80  F15 UNL A   1      40.442  34.180  34.855  1.00  0.00    +0.000 F 
ENDBRANCH   69   70
TORSDOF 17
ENDMDL
MODEL 3
REMARK VINA RESULT:     -11.1     32.239     38.581
ROOT
ATOM    129  H38 UNL A   1      22.515  24.505  -1.806  1.00  0.00    +0.000 H 
ATOM     33  C27 UNL A   1      19.775  23.990  -2.424  1.00  0.00    +0.000 C 
ATOM     34  C28 UNL A   1      20.385  25.271  -1.937  1.00  0.00    +0.000 C 
ATOM     35  N4  UNL A   1      19.802  26.420  -1.700  1.00  0.00    +0.000 N 
ATOM     36  C29 UNL A   1      20.803  27.268  -1.246  1.00  0.00    +0.000 C 
ATOM     37  C30 UNL A   1      20.700  28.571  -0.888  1.00  0.00    +0.000 C 
ATOM     49  C37 UNL A   1      19.478  29.333  -0.935  1.00  0.00    +0.000 C 
ATOM     50  C38 UNL A   1      19.285  30.674  -0.650  1.00  0.00    +0.000 C 
ATOM     51  C39 UNL A   1      17.923  30.960  -0.780  1.00  0.00    +0.000 C 
ATOM     52  C40 UNL A   1      17.271  29.809  -1.190  1.00  0.00    +0.000 C 
ATOM     53  N5  UNL A   1      18.236  28.818  -1.282  1.00  0.00    +0.000 N 
ATOM     54  C41 UNL A   1      15.871  29.624  -1.470  1.00  0.00    +0.000 C 
ATOM     66  C48 UNL A   1      15.311  28.474  -1.917  1.00  0.00    +0.000 C 
ATOM     67  N6  UNL A   1      15.917  27.256  -2.183  1.00  0.00    +0.000 N 
ATOM     68  C49 UNL A   1      14.953  26.451  -2.558  1.00  0.00    +0.000 C 
ATOM     69  C50 UNL A   1      15.032  25.011  -2.974  1.00  0.00    +0.000 C 
ATOM     81  C57 UNL A   1      16.230  24.398  -2.970  1.00  0.00    +0.000 C 
ATOM     82  C58 UNL A   1      16.461  23.006  -3.338  1.00  0.00    +0.000 C 
ATOM     83  C59 UNL A   1      17.754  22.715  -3.142  1.00  0.00    +0.000 C 
ATOM     84  C60 UNL A   1      18.455  23.918  -2.687  1.00  0.00    +0.000 C 
ATOM     85  N7  UNL A   1      17.471  24.870  -2.620  1.00  0.00    +0.000 N 
ATOM     86  C61 UNL A   1      13.620  27.067  -2.561  1.00  0.00    +0.000 C 
ATOM     87  C62 UNL A   1      13.899  28.310  -2.199  1.00  0.00    +0.000 C 
ATOM     88  C63 UNL A   1      22.029  26.500  -1.224  1.00  0.00    +0.000 C 
ATOM     89  C64 UNL A   1      21.832  25.268  -1.674  1.00  0.00    +0.000 C 
ATOM    120  H29 UNL A   1      20.022  31.348  -0.387  1.00  0.00    +0.000 H 
ATOM    121  H30 UNL A   1      17.479  31.875  -0.601  1.00  0.00    +0.000 H 
ATOM    122  H31 UNL A   1      18.066  27.888  -1.554  1.00  0.00    +0.000 H 
ATOM    123  H32 UNL A   1      15.745  22.353  -3.693  1.00  0.00    +0.000 H 
ATOM    124  H33 UNL A   1      18.187  21.789  -3.286  1.00  0.00    +0.000 H 
ATOM    125  H34 UNL A   1      17.638  25.801  -2.347  1.00  0.00    +0.000 H 
ATOM    126  H35 UNL A   1      12.706  26.642  -2.788  1.00  0.00    +0.000 H 
ATOM    127  H36 UNL A   1      13.200  29.066  -2.126  1.00  0.00    +0.000 H 
ATOM    128  H37 UNL A   1      22.940  26.864  -0.900  1.00  0.00    +0.000 H 
ENDROOT
BRANCH   33   32
ATOM    130  H39 UNL A   1      20.587  22.867  -4.760  1.00  0.00    +0.000 H 
ATOM    131  H40 UNL A   1      22.032  20.939  -5.068  1.00  0.00    +0.000 H 
ATOM    118  H27 UNL A   1      22.463  20.602  -0.895  1.00  0.00    +0.000 H 
ATOM    119  H28 UNL A   1      20.835  22.367  -0.583  1.00  0.00    +0.000 H 
ATOM     90  C65 UNL A   1      20.952  22.360  -3.939  1.00  0.00    +0.000 C 
ATOM     91  C66 UNL A   1      21.794  21.259  -4.117  1.00  0.00    +0.000 C 
ATOM     29  C23 UNL A   1      22.314  20.594  -3.002  1.00  0.00    +0.000 C 
ATOM     30  C24 UNL A   1      22.017  21.045  -1.713  1.00  0.00    +0.000 C 
ATOM     31  C25 UNL A   1      21.120  22.092  -1.536  1.00  0.00    +0.000 C 
ATOM     32  C26 UNL A   1      20.598  22.776  -2.646  1.00  0.00    +0.000 C 
BRANCH   29    2
ATOM      1  O1  UNL A   1      22.726  18.346  -3.530  1.00  0.00    +0.000 O 
ATOM      2  C1  UNL A   1      23.202  19.430  -3.206  1.00  0.00    +0.000 C 
BRANCH    2    3
ATOM      3  N1  UNL A   1      24.556  19.568  -3.020  1.00  0.00    +0.000 N 
ATOM     92  H1  UNL A   1      25.049  19.986  -3.764  1.00  0.00    +0.000 H 
BRANCH    3    4
ATOM      4  C2  UNL A   1      25.358  19.180  -1.872  1.00  0.00    +0.000 C 
ATOM     93  H2  UNL A   1      25.668  20.064  -1.355  1.00  0.00    +0.000 H 
ATOM     94  H3  UNL A   1      26.197  18.623  -2.231  1.00  0.00    +0.000 H 
BRANCH    4    5
ATOM      5  C3  UNL A   1      24.586  18.292  -0.905  1.00  0.00    +0.000 C 
ATOM     95  H4  UNL A   1      25.053  17.331  -0.888  1.00  0.00    +0.000 H 
ATOM     96  H5  UNL A   1      23.577  18.262  -1.260  1.00  0.00    +0.000 H 
BRANCH    5    6
ATOM     97  H6  UNL A   1      24.210  18.019   1.163  1.00  0.00    +0.000 H 
ATOM     98  H7  UNL A   1      23.848  19.646   0.514  1.00  0.00    +0.000 H 
ATOM      6  C4  UNL A   1      24.526  18.820   0.529  1.00  0.00    +0.000 C 
BRANCH    6    7
ATOM     99  H8  UNL A   1      25.780  20.434   1.106  1.00  0.00    +0.000 H 
ATOM    100  H9  UNL A   1      26.613  19.002   0.424  1.00  0.00    +0.000 H 
ATOM      7  C5  UNL A   1      25.849  19.366   1.079  1.00  0.00    +0.000 C 
BRANCH    7    8
ATOM    101  H10 UNL A   1      26.389  19.739   3.104  1.00  0.00    +0.000 H 
ATOM    102  H11 UNL A   1      27.108  18.279   2.374  1.00  0.00    +0.000 H 
ATOM      8  C6  UNL A   1      26.230  18.881   2.484  1.00  0.00    +0.000 C 
BRANCH    8    9
ATOM      9  C7  UNL A   1      25.176  17.998   3.152  1.00  0.00    +0.000 C 
ATOM    103  H12 UNL A   1      25.667  17.258   3.749  1.00  0.00    +0.000 H 
ATOM    104  H13 UNL A   1      24.586  17.535   2.389  1.00  0.00    +0.000 H 
BRANCH    9   10
ATOM    105  H14 UNL A   1      24.756  19.365   4.645  1.00  0.00    +0.000 H 
ATOM     10  N2  UNL A   1      24.299  18.782   3.997  1.00  0.00    +0.000 N 
BRANCH   10   11
ATOM     11  C8  UNL A   1      22.934  18.834   4.029  1.00  0.00    +0.000 C 
ATOM     12  O2  UNL A   1      22.329  17.806   3.723  1.00  0.00    +0.000 O 
BRANCH   11   13
ATOM    106  H15 UNL A   1      22.797  20.430   5.302  1.00  0.00    +0.000 H 
ATOM    107  H16 UNL A   1      20.507  19.870   5.659  1.00  0.00    +0.000 H 
ATOM    108  H17 UNL A   1      20.352  19.144   4.104  1.00  0.00    +0.000 H 
ATOM     13  C9  UNL A   1      22.262  20.149   4.418  1.00  0.00    +0.000 C 
ATOM     14  C10 UNL A   1      20.733  20.000   4.621  1.00  0.00    +0.000 C 
ATOM     15  C11 UNL A   1      20.106  21.301   4.097  1.00  0.00    +0.000 C 
ATOM     16  N3  UNL A   1      21.117  21.817   3.193  1.00  0.00    +0.000 N 
ATOM    109  H18 UNL A   1      19.921  21.986   4.897  1.00  0.00    +0.000 H 
ATOM    110  H19 UNL A   1      19.159  21.147   3.623  1.00  0.00    +0.000 H 
ATOM     17  C12 UNL A   1      21.156  22.736   2.188  1.00  0.00    +0.000 C 
ATOM    116  H25 UNL A   1      22.829  23.213   0.903  1.00  0.00    +0.000 H 
ATOM    117  H26 UNL A   1      24.178  21.415   2.286  1.00  0.00    +0.000 H 
ATOM     26  C20 UNL A   1      22.458  22.654   1.686  1.00  0.00    +0.000 C 
ATOM     27  C21 UNL A   1      23.191  21.684   2.420  1.00  0.00    +0.000 C 
ATOM     28  C22 UNL A   1      22.316  21.179   3.342  1.00  0.00    +0.000 C 
BRANCH   17   18
ATOM     18  C13 UNL A   1      20.102  23.591   1.663  1.00  0.00    +0.000 C 
ATOM     19  O3  UNL A   1      20.200  24.815   1.611  1.00  0.00    +0.000 O 
BRANCH   18   20
ATOM    111  H20 UNL A   1      19.712  21.118   0.787  1.00  0.00    +0.000 H 
ATOM    112  H21 UNL A   1      17.675  20.119  -0.077  1.00  0.00    +0.000 H 
ATOM    113  H22 UNL A   1      15.646  21.440  -0.225  1.00  0.00    +0.000 H 
ATOM    114  H23 UNL A   1      15.657  23.772   0.441  1.00  0.00    +0.000 H 
ATOM    115  H24 UNL A   1      17.700  24.787   1.282  1.00  0.00    +0.000 H 
ATOM     20  C14 UNL A   1      18.845  23.014   1.141  1.00  0.00    +0.000 C 
ATOM     21  C15 UNL A   1      18.848  21.678   0.724  1.00  0.00    +0.000 C 
ATOM     22  C16 UNL A   1      17.678  21.105   0.224  1.00  0.00    +0.000 C 
ATOM     23  C17 UNL A   1      16.514  21.868   0.132  1.00  0.00    +0.000 C 
ATOM     24  C18 UNL A   1      16.519  23.210   0.520  1.00  0.00    +0.000 C 
ATOM     25  C19 UNL A   1      17.689  23.791   1.013  1.00  0.00    +0.000 C 
ENDBRANCH   18   20
ENDBRANCH   17   18
ENDBRANCH   11   13
ENDBRANCH   10   11
ENDBRANCH    9   10
ENDBRANCH    8    9
ENDBRANCH    7    8
ENDBRANCH    6    7
ENDBRANCH    5    6
ENDBRANCH    4    5
ENDBRANCH    3    4
ENDBRANCH    2    3
ENDBRANCH   29    2
ENDBRANCH   33   32
BRANCH   37   38
ATOM     38  C31 UNL A   1      21.935  29.270  -0.403  1.00  0.00    +0.000 C 
ATOM     39  C32 UNL A   1      22.217  29.401   0.963  1.00  0.00    +0.000 C 
ATOM     40  F1  UNL A   1      21.330  28.983   1.879  1.00  0.00    +0.000 F 
ATOM     41  C33 UNL A   1      23.411  29.974   1.396  1.00  0.00    +0.000 C 
ATOM     42  F2  UNL A   1      23.651  30.109   2.708  1.00  0.00    +0.000 F 
ATOM     43  C34 UNL A   1      24.352  30.407   0.473  1.00  0.00    +0.000 C 
ATOM     44  F3  UNL A   1      25.507  30.941   0.892  1.00  0.00    +0.000 F 
ATOM     45  C35 UNL A   1      24.094  30.284  -0.884  1.00  0.00    +0.000 C 
ATOM     46  F4  UNL A   1      25.008  30.690  -1.777  1.00  0.00    +0.000 F 
ATOM     47  C36 UNL A   1      22.893  29.730  -1.319  1.00  0.00    +0.000 C 
ATOM     48  F5  UNL A   1      22.675  29.623  -2.639  1.00  0.00    +0.000 F 
ENDBRANCH   37   38
BRANCH   54   55
ATOM     65  F10 UNL A   1      14.533  30.932  -3.611  1.00  0.00    +0.000 F 
ATOM     55  C42 UNL A   1      14.954  30.793  -1.273  1.00  0.00    +0.000 C 
ATOM     56  C43 UNL A   1      14.707  31.322   0.002  1.00  0.00    +0.000 C 
ATOM     57  F6  UNL A   1      15.270  30.762   1.085  1.00  0.00    +0.000 F 
ATOM     58  C44 UNL A   1      13.847  32.402   0.173  1.00  0.00    +0.000 C 
ATOM     59  F7  UNL A   1      13.587  32.859   1.406  1.00  0.00    +0.000 F 
ATOM     60  C45 UNL A   1      13.243  32.992  -0.927  1.00  0.00    +0.000 C 
ATOM     61  F8  UNL A   1      12.415  34.032  -0.760  1.00  0.00    +0.000 F 
ATOM     62  C46 UNL A   1      13.488  32.497  -2.199  1.00  0.00    +0.000 C 
ATOM     63  F9  UNL A   1      12.913  33.072  -3.264  1.00  0.00    +0.000 F 
ATOM     64  C47 UNL A   1      14.327  31.400  -2.372  1.00  0.00    +0.000 C 
ENDBRANCH   54   55
BRANCH   69   70
ATOM     70  C51 UNL A   1      13.816  24.257  -3.371  1.00  0.00    +0.000 C 
ATOM     71  C52 UNL A   1      13.224  24.449  -4.626  1.00  0.00    +0.000 C 
ATOM     72  F11 UNL A   1      13.744  25.340  -5.482  1.00  0.00    +0.000 F 
ATOM     73  C53 UNL A   1      12.073  23.754  -4.989  1.00  0.00    +0.000 C 
ATOM     74  F12 UNL A   1      11.499  23.988  -6.178  1.00  0.00    +0.000 F 
ATOM     75  C54 UNL A   1      11.511  22.831  -4.119  1.00  0.00    +0.000 C 
ATOM     76  F13 UNL A   1      10.407  22.160  -4.472  1.00  0.00    +0.000 F 
ATOM     77  C55 UNL A   1      12.092  22.611  -2.879  1.00  0.00    +0.000 C 
ATOM     78  F14 UNL A   1      11.563  21.708  -2.041  1.00  0.00    +0.000 F 
ATOM     79  C56 UNL A   1      13.224  23.327  -2.502  1.00  0.00    +0.000 C 
ATOM     80  F15 UNL A   1      13.758  23.103  -1.292  1.00  0.00    +0.000 F 
ENDBRANCH   69   70
TORSDOF 17
ENDMDL
MODEL 4
REMARK VINA RESULT:     -11.0      1.756      2.632
ROOT
ATOM    129  H38 UNL A   1      38.320  28.933  27.447  1.00  0.00    +0.000 H 
ATOM     33  C27 UNL A   1      38.263  30.183  30.014  1.00  0.00    +0.000 C 
ATOM     34  C28 UNL A   1      39.363  29.356  29.415  1.00  0.00    +0.000 C 
ATOM     35  N4  UNL A   1      40.525  29.039  29.929  1.00  0.00    +0.000 N 
ATOM     36  C29 UNL A   1      41.156  28.243  28.983  1.00  0.00    +0.000 C 
ATOM     37  C30 UNL A   1      42.388  27.684  29.045  1.00  0.00    +0.000 C 
ATOM     49  C37 UNL A   1      43.298  27.840  30.152  1.00  0.00    +0.000 C 
ATOM     50  C38 UNL A   1      44.591  27.361  30.280  1.00  0.00    +0.000 C 
ATOM     51  C39 UNL A   1      45.066  27.714  31.547  1.00  0.00    +0.000 C 
ATOM     52  C40 UNL A   1      44.086  28.450  32.192  1.00  0.00    +0.000 C 
ATOM     53  N5  UNL A   1      43.008  28.521  31.325  1.00  0.00    +0.000 N 
ATOM     54  C41 UNL A   1      44.128  29.040  33.505  1.00  0.00    +0.000 C 
ATOM     66  C48 UNL A   1      43.145  29.793  34.053  1.00  0.00    +0.000 C 
ATOM     67  N6  UNL A   1      41.916  30.146  33.516  1.00  0.00    +0.000 N 
ATOM     68  C49 UNL A   1      41.310  30.851  34.441  1.00  0.00    +0.000 C 
ATOM     69  C50 UNL A   1      39.956  31.496  34.401  1.00  0.00    +0.000 C 
ATOM     81  C57 UNL A   1      39.202  31.359  33.296  1.00  0.00    +0.000 C 
ATOM     82  C58 UNL A   1      37.868  31.918  33.115  1.00  0.00    +0.000 C 
ATOM     83  C59 UNL A   1      37.386  31.518  31.931  1.00  0.00    +0.000 C 
ATOM     84  C60 UNL A   1      38.403  30.718  31.243  1.00  0.00    +0.000 C 
ATOM     85  N7  UNL A   1      39.450  30.682  32.127  1.00  0.00    +0.000 N 
ATOM     86  C61 UNL A   1      42.084  31.015  35.678  1.00  0.00    +0.000 C 
ATOM     87  C62 UNL A   1      43.209  30.383  35.375  1.00  0.00    +0.000 C 
ATOM     88  C63 UNL A   1      40.244  28.110  27.868  1.00  0.00    +0.000 C 
ATOM     89  C64 UNL A   1      39.133  28.808  28.070  1.00  0.00    +0.000 C 
ATOM    120  H29 UNL A   1      45.115  26.835  29.563  1.00  0.00    +0.000 H 
ATOM    121  H30 UNL A   1      45.990  27.466  31.936  1.00  0.00    +0.000 H 
ATOM    122  H31 UNL A   1      42.161  28.987  31.514  1.00  0.00    +0.000 H 
ATOM    123  H32 UNL A   1      37.375  32.525  33.790  1.00  0.00    +0.000 H 
ATOM    124  H33 UNL A   1      36.447  31.736  31.562  1.00  0.00    +0.000 H 
ATOM    125  H34 UNL A   1      40.298  30.216  31.941  1.00  0.00    +0.000 H 
ATOM    126  H35 UNL A   1      41.821  31.497  36.552  1.00  0.00    +0.000 H 
ATOM    127  H36 UNL A   1      44.027  30.318  36.001  1.00  0.00    +0.000 H 
ATOM    128  H37 UNL A   1      40.432  27.546  27.023  1.00  0.00    +0.000 H 
ENDROOT
BRANCH   33   32
ATOM    130  H39 UNL A   1      37.491  32.420  28.682  1.00  0.00    +0.000 H 
ATOM    131  H40 UNL A   1      35.462  32.765  27.391  1.00  0.00    +0.000 H 
ATOM    118  H27 UNL A   1      34.290  28.801  28.185  1.00  0.00    +0.000 H 
ATOM    119  H28 UNL A   1      36.186  28.536  29.668  1.00  0.00    +0.000 H 
ATOM     90  C65 UNL A   1      36.790  31.665  28.611  1.00  0.00    +0.000 C 
ATOM     91  C66 UNL A   1      35.630  31.860  27.857  1.00  0.00    +0.000 C 
ATOM     29  C23 UNL A   1      34.699  30.824  27.734  1.00  0.00    +0.000 C 
ATOM     30  C24 UNL A   1      34.939  29.588  28.340  1.00  0.00    +0.000 C 
ATOM     31  C25 UNL A   1      36.055  29.420  29.153  1.00  0.00    +0.000 C 
ATOM     32  C26 UNL A   1      37.004  30.448  29.276  1.00  0.00    +0.000 C 
BRANCH   29    2
ATOM      1  O1  UNL A   1      32.782  32.037  27.138  1.00  0.00    +0.000 O 
ATOM      2  C1  UNL A   1      33.475  31.045  26.935  1.00  0.00    +0.000 C 
BRANCH    2    3
ATOM      3  N1  UNL A   1      33.118  30.130  25.975  1.00  0.00    +0.000 N 
ATOM     92  H1  UNL A   1      33.704  30.089  25.184  1.00  0.00    +0.000 H 
BRANCH    3    4
ATOM      4  C2  UNL A   1      31.989  29.215  25.971  1.00  0.00    +0.000 C 
ATOM     93  H2  UNL A   1      31.738  28.983  24.956  1.00  0.00    +0.000 H 
ATOM     94  H3  UNL A   1      31.176  29.694  26.474  1.00  0.00    +0.000 H 
BRANCH    4    5
ATOM      5  C3  UNL A   1      32.296  27.919  26.708  1.00  0.00    +0.000 C 
ATOM     95  H4  UNL A   1      31.380  27.384  26.841  1.00  0.00    +0.000 H 
ATOM     96  H5  UNL A   1      32.757  28.197  27.633  1.00  0.00    +0.000 H 
BRANCH    5    6
ATOM     97  H6  UNL A   1      34.271  27.252  26.321  1.00  0.00    +0.000 H 
ATOM     98  H7  UNL A   1      33.132  27.158  24.944  1.00  0.00    +0.000 H 
ATOM      6  C4  UNL A   1      33.286  27.000  25.990  1.00  0.00    +0.000 C 
BRANCH    6    7
ATOM     99  H8  UNL A   1      32.147  25.221  25.773  1.00  0.00    +0.000 H 
ATOM    100  H9  UNL A   1      33.089  25.367  27.291  1.00  0.00    +0.000 H 
ATOM      7  C5  UNL A   1      33.074  25.500  26.229  1.00  0.00    +0.000 C 
BRANCH    7    8
ATOM    101  H10 UNL A   1      35.100  24.854  26.132  1.00  0.00    +0.000 H 
ATOM    102  H11 UNL A   1      34.178  24.720  24.611  1.00  0.00    +0.000 H 
ATOM      8  C6  UNL A   1      34.172  24.583  25.673  1.00  0.00    +0.000 C 
BRANCH    8    9
ATOM      9  C7  UNL A   1      33.933  23.093  25.921  1.00  0.00    +0.000 C 
ATOM    103  H12 UNL A   1      33.032  22.973  26.487  1.00  0.00    +0.000 H 
ATOM    104  H13 UNL A   1      34.770  22.699  26.458  1.00  0.00    +0.000 H 
BRANCH    9   10
ATOM    105  H14 UNL A   1      34.656  22.085  24.267  1.00  0.00    +0.000 H 
ATOM     10  N2  UNL A   1      33.807  22.371  24.672  1.00  0.00    +0.000 N 
BRANCH   10   11
ATOM     11  C8  UNL A   1      32.684  22.025  23.974  1.00  0.00    +0.000 C 
ATOM     12  O2  UNL A   1      32.123  20.980  24.302  1.00  0.00    +0.000 O 
BRANCH   11   13
ATOM    106  H15 UNL A   1      31.652  22.270  22.224  1.00  0.00    +0.000 H 
ATOM    107  H16 UNL A   1      33.659  23.081  21.225  1.00  0.00    +0.000 H 
ATOM    108  H17 UNL A   1      34.273  23.664  22.726  1.00  0.00    +0.000 H 
ATOM     13  C9  UNL A   1      32.220  22.937  22.839  1.00  0.00    +0.000 C 
ATOM     14  C10 UNL A   1      33.399  23.627  22.109  1.00  0.00    +0.000 C 
ATOM     15  C11 UNL A   1      32.908  25.034  21.742  1.00  0.00    +0.000 C 
ATOM     16  N3  UNL A   1      31.823  25.263  22.680  1.00  0.00    +0.000 N 
ATOM    109  H18 UNL A   1      32.555  25.067  20.733  1.00  0.00    +0.000 H 
ATOM    110  H19 UNL A   1      33.677  25.776  21.803  1.00  0.00    +0.000 H 
ATOM     17  C12 UNL A   1      31.133  26.345  23.134  1.00  0.00    +0.000 C 
ATOM    116  H25 UNL A   1      29.609  26.387  24.669  1.00  0.00    +0.000 H 
ATOM    117  H26 UNL A   1      29.957  23.776  24.838  1.00  0.00    +0.000 H 
ATOM     26  C20 UNL A   1      30.274  25.831  24.110  1.00  0.00    +0.000 C 
ATOM     27  C21 UNL A   1      30.458  24.426  24.213  1.00  0.00    +0.000 C 
ATOM     28  C22 UNL A   1      31.439  24.115  23.313  1.00  0.00    +0.000 C 
BRANCH   17   18
ATOM     18  C13 UNL A   1      31.258  27.750  22.777  1.00  0.00    +0.000 C 
ATOM     19  O3  UNL A   1      32.343  28.305  22.619  1.00  0.00    +0.000 O 
BRANCH   18   20
ATOM    111  H20 UNL A   1      28.796  27.287  23.651  1.00  0.00    +0.000 H 
ATOM    112  H21 UNL A   1      26.798  28.630  23.337  1.00  0.00    +0.000 H 
ATOM    113  H22 UNL A   1      26.912  30.694  22.067  1.00  0.00    +0.000 H 
ATOM    114  H23 UNL A   1      29.007  31.397  21.068  1.00  0.00    +0.000 H 
ATOM    115  H24 UNL A   1      31.007  30.044  21.356  1.00  0.00    +0.000 H 
ATOM     20  C14 UNL A   1      30.059  28.590  22.565  1.00  0.00    +0.000 C 
ATOM     21  C15 UNL A   1      28.843  28.166  23.113  1.00  0.00    +0.000 C 
ATOM     22  C16 UNL A   1      27.695  28.935  22.928  1.00  0.00    +0.000 C 
ATOM     23  C17 UNL A   1      27.759  30.118  22.191  1.00  0.00    +0.000 C 
ATOM     24  C18 UNL A   1      28.966  30.526  21.620  1.00  0.00    +0.000 C 
ATOM     25  C19 UNL A   1      30.118  29.756  21.793  1.00  0.00    +0.000 C 
ENDBRANCH   18   20
ENDBRANCH   17   18
ENDBRANCH   11   13
ENDBRANCH   10   11
ENDBRANCH    9   10
ENDBRANCH    8    9
ENDBRANCH    7    8
ENDBRANCH    6    7
ENDBRANCH    5    6
ENDBRANCH    4    5
ENDBRANCH    3    4
ENDBRANCH    2    3
ENDBRANCH   29    2
ENDBRANCH   33   32
BRANCH   37   38
ATOM     38  C31 UNL A   1      42.838  26.837  27.891  1.00  0.00    +0.000 C 
ATOM     39  C32 UNL A   1      42.412  25.510  27.742  1.00  0.00    +0.000 C 
ATOM     40  F1  UNL A   1      41.660  24.932  28.691  1.00  0.00    +0.000 F 
ATOM     41  C33 UNL A   1      42.768  24.766  26.620  1.00  0.00    +0.000 C 
ATOM     42  F2  UNL A   1      42.366  23.491  26.507  1.00  0.00    +0.000 F 
ATOM     43  C34 UNL A   1      43.536  25.340  25.618  1.00  0.00    +0.000 C 
ATOM     44  F3  UNL A   1      43.861  24.627  24.530  1.00  0.00    +0.000 F 
ATOM     45  C35 UNL A   1      43.967  26.651  25.743  1.00  0.00    +0.000 C 
ATOM     46  F4  UNL A   1      44.699  27.211  24.769  1.00  0.00    +0.000 F 
ATOM     47  C36 UNL A   1      43.630  27.391  26.874  1.00  0.00    +0.000 C 
ATOM     48  F5  UNL A   1      44.059  28.659  26.965  1.00  0.00    +0.000 F 
ENDBRANCH   37   38
BRANCH   54   55
ATOM     65  F10 UNL A   1      46.368  30.791  33.449  1.00  0.00    +0.000 F 
ATOM     55  C42 UNL A   1      45.359  28.826  34.334  1.00  0.00    +0.000 C 
ATOM     56  C43 UNL A   1      45.480  27.723  35.192  1.00  0.00    +0.000 C 
ATOM     57  F6  UNL A   1      44.469  26.848  35.312  1.00  0.00    +0.000 F 
ATOM     58  C44 UNL A   1      46.624  27.539  35.962  1.00  0.00    +0.000 C 
ATOM     59  F7  UNL A   1      46.697  26.506  36.813  1.00  0.00    +0.000 F 
ATOM     60  C45 UNL A   1      47.678  28.435  35.866  1.00  0.00    +0.000 C 
ATOM     61  F8  UNL A   1      48.780  28.255  36.609  1.00  0.00    +0.000 F 
ATOM     62  C46 UNL A   1      47.588  29.521  35.009  1.00  0.00    +0.000 C 
ATOM     63  F9  UNL A   1      48.610  30.382  34.909  1.00  0.00    +0.000 F 
ATOM     64  C47 UNL A   1      46.435  29.723  34.257  1.00  0.00    +0.000 C 
ENDBRANCH   54   55
BRANCH   69   70
ATOM     70  C51 UNL A   1      39.436  32.264  35.561  1.00  0.00    +0.000 C 
ATOM     71  C52 UNL A   1      39.790  33.604  35.759  1.00  0.00    +0.000 C 
ATOM     72  F11 UNL A   1      40.628  34.208  34.903  1.00  0.00    +0.000 F 
ATOM     73  C53 UNL A   1      39.315  34.317  36.857  1.00  0.00    +0.000 C 
ATOM     74  F12 UNL A   1      39.706  35.585  37.048  1.00  0.00    +0.000 F 
ATOM     75  C54 UNL A   1      38.453  33.715  37.760  1.00  0.00    +0.000 C 
ATOM     76  F13 UNL A   1      37.993  34.403  38.813  1.00  0.00    +0.000 F 
ATOM     77  C55 UNL A   1      38.073  32.394  37.573  1.00  0.00    +0.000 C 
ATOM     78  F14 UNL A   1      37.226  31.811  38.434  1.00  0.00    +0.000 F 
ATOM     79  C56 UNL A   1      38.571  31.670  36.494  1.00  0.00    +0.000 C 
ATOM     80  F15 UNL A   1      38.197  30.391  36.344  1.00  0.00    +0.000 F 
ENDBRANCH   69   70
TORSDOF 17
ENDMDL
MODEL 5
REMARK VINA RESULT:     -11.0     32.035     38.502
ROOT
ATOM    129  H38 UNL A   1      22.534  24.461  -1.793  1.00  0.00    +0.000 H 
ATOM     33  C27 UNL A   1      19.793  23.925  -2.393  1.00  0.00    +0.000 C 
ATOM     34  C28 UNL A   1      20.401  25.218  -1.936  1.00  0.00    +0.000 C 
ATOM     35  N4  UNL A   1      19.816  26.371  -1.724  1.00  0.00    +0.000 N 
ATOM     36  C29 UNL A   1      20.816  27.231  -1.291  1.00  0.00    +0.000 C 
ATOM     37  C30 UNL A   1      20.710  28.541  -0.962  1.00  0.00    +0.000 C 
ATOM     49  C37 UNL A   1      19.486  29.299  -1.022  1.00  0.00    +0.000 C 
ATOM     50  C38 UNL A   1      19.291  30.646  -0.767  1.00  0.00    +0.000 C 
ATOM     51  C39 UNL A   1      17.927  30.926  -0.900  1.00  0.00    +0.000 C 
ATOM     52  C40 UNL A   1      17.278  29.764  -1.282  1.00  0.00    +0.000 C 
ATOM     53  N5  UNL A   1      18.245  28.774  -1.355  1.00  0.00    +0.000 N 
ATOM     54  C41 UNL A   1      15.877  29.569  -1.555  1.00  0.00    +0.000 C 
ATOM     66  C48 UNL A   1      15.319  28.408  -1.974  1.00  0.00    +0.000 C 
ATOM     67  N6  UNL A   1      15.927  27.186  -2.214  1.00  0.00    +0.000 N 
ATOM     68  C49 UNL A   1      14.964  26.370  -2.569  1.00  0.00    +0.000 C 
ATOM     69  C50 UNL A   1      15.046  24.922  -2.953  1.00  0.00    +0.000 C 
ATOM     81  C57 UNL A   1      16.246  24.311  -2.939  1.00  0.00    +0.000 C 
ATOM     82  C58 UNL A   1      16.479  22.912  -3.276  1.00  0.00    +0.000 C 
ATOM     83  C59 UNL A   1      17.773  22.629  -3.076  1.00  0.00    +0.000 C 
ATOM     84  C60 UNL A   1      18.473  23.844  -2.650  1.00  0.00    +0.000 C 
ATOM     85  N7  UNL A   1      17.486  24.795  -2.602  1.00  0.00    +0.000 N 
ATOM     86  C61 UNL A   1      13.630  26.982  -2.582  1.00  0.00    +0.000 C 
ATOM     87  C62 UNL A   1      13.907  28.234  -2.248  1.00  0.00    +0.000 C 
ATOM     88  C63 UNL A   1      22.044  26.467  -1.255  1.00  0.00    +0.000 C 
ATOM     89  C64 UNL A   1      21.849  25.224  -1.677  1.00  0.00    +0.000 C 
ATOM    120  H29 UNL A   1      20.027  31.328  -0.521  1.00  0.00    +0.000 H 
ATOM    121  H30 UNL A   1      17.481  31.843  -0.740  1.00  0.00    +0.000 H 
ATOM    122  H31 UNL A   1      18.077  27.837  -1.605  1.00  0.00    +0.000 H 
ATOM    123  H32 UNL A   1      15.764  22.250  -3.614  1.00  0.00    +0.000 H 
ATOM    124  H33 UNL A   1      18.209  21.701  -3.201  1.00  0.00    +0.000 H 
ATOM    125  H34 UNL A   1      17.652  25.732  -2.350  1.00  0.00    +0.000 H 
ATOM    126  H35 UNL A   1      12.717  26.551  -2.797  1.00  0.00    +0.000 H 
ATOM    127  H36 UNL A   1      13.206  28.990  -2.190  1.00  0.00    +0.000 H 
ATOM    128  H37 UNL A   1      22.955  26.840  -0.941  1.00  0.00    +0.000 H 
ENDROOT
BRANCH   33   32
ATOM    130  H39 UNL A   1      20.594  22.747  -4.705  1.00  0.00    +0.000 H 
ATOM    131  H40 UNL A   1      22.043  20.816  -4.974  1.00  0.00    +0.000 H 
ATOM    118  H27 UNL A   1      22.503  20.585  -0.797  1.00  0.00    +0.000 H 
ATOM    119  H28 UNL A   1      20.870  22.352  -0.519  1.00  0.00    +0.000 H 
ATOM     90  C65 UNL A   1      20.966  22.261  -3.874  1.00  0.00    +0.000 C 
ATOM     91  C66 UNL A   1      21.811  21.159  -4.030  1.00  0.00    +0.000 C 
ATOM     29  C23 UNL A   1      22.340  20.524  -2.903  1.00  0.00    +0.000 C 
ATOM     30  C24 UNL A   1      22.050  21.006  -1.623  1.00  0.00    +0.000 C 
ATOM     31  C25 UNL A   1      21.150  22.054  -1.466  1.00  0.00    +0.000 C 
ATOM     32  C26 UNL A   1      20.619  22.708  -2.590  1.00  0.00    +0.000 C 
BRANCH   29    2
ATOM      1  O1  UNL A   1      22.755  18.263  -3.370  1.00  0.00    +0.000 O 
ATOM      2  C1  UNL A   1      23.231  19.358  -3.083  1.00  0.00    +0.000 C 
BRANCH    2    3
ATOM      3  N1  UNL A   1      24.586  19.506  -2.917  1.00  0.00    +0.000 N 
ATOM     92  H1  UNL A   1      25.094  19.726  -3.731  1.00  0.00    +0.000 H 
BRANCH    3    4
ATOM      4  C2  UNL A   1      25.368  19.382  -1.699  1.00  0.00    +0.000 C 
ATOM     93  H2  UNL A   1      25.544  20.361  -1.303  1.00  0.00    +0.000 H 
ATOM     94  H3  UNL A   1      26.285  18.890  -1.946  1.00  0.00    +0.000 H 
BRANCH    4    5
ATOM      5  C3  UNL A   1      24.659  18.546  -0.642  1.00  0.00    +0.000 C 
ATOM     95  H4  UNL A   1      25.271  17.697  -0.421  1.00  0.00    +0.000 H 
ATOM     96  H5  UNL A   1      23.707  18.282  -1.052  1.00  0.00    +0.000 H 
BRANCH    5    6
ATOM     97  H6  UNL A   1      23.407  18.996   1.009  1.00  0.00    +0.000 H 
ATOM     98  H7  UNL A   1      24.460  20.328   0.444  1.00  0.00    +0.000 H 
ATOM      6  C4  UNL A   1      24.378  19.285   0.668  1.00  0.00    +0.000 C 
BRANCH    6    7
ATOM     99  H8  UNL A   1      26.265  18.601   1.361  1.00  0.00    +0.000 H 
ATOM    100  H9  UNL A   1      24.884  18.349   2.475  1.00  0.00    +0.000 H 
ATOM      7  C5  UNL A   1      25.378  19.013   1.797  1.00  0.00    +0.000 C 
BRANCH    7    8
ATOM    101  H10 UNL A   1      26.387  20.875   2.013  1.00  0.00    +0.000 H 
ATOM    102  H11 UNL A   1      26.311  19.869   3.484  1.00  0.00    +0.000 H 
ATOM      8  C6  UNL A   1      25.785  20.238   2.627  1.00  0.00    +0.000 C 
BRANCH    8    9
ATOM      9  C7  UNL A   1      24.608  21.059   3.156  1.00  0.00    +0.000 C 
ATOM    103  H12 UNL A   1      24.656  21.091   4.225  1.00  0.00    +0.000 H 
ATOM    104  H13 UNL A   1      23.699  20.596   2.835  1.00  0.00    +0.000 H 
BRANCH    9   10
ATOM    105  H14 UNL A   1      25.406  22.617   2.056  1.00  0.00    +0.000 H 
ATOM     10  N2  UNL A   1      24.643  22.411   2.641  1.00  0.00    +0.000 N 
BRANCH   10   11
ATOM     11  C8  UNL A   1      23.772  23.445   2.845  1.00  0.00    +0.000 C 
ATOM     12  O2  UNL A   1      23.964  24.150   3.835  1.00  0.00    +0.000 O 
BRANCH   11   13
ATOM    106  H15 UNL A   1      23.107  23.486   0.910  1.00  0.00    +0.000 H 
ATOM    107  H16 UNL A   1      22.342  25.713   1.283  1.00  0.00    +0.000 H 
ATOM    108  H17 UNL A   1      22.109  25.443   2.970  1.00  0.00    +0.000 H 
ATOM     13  C9  UNL A   1      22.626  23.641   1.854  1.00  0.00    +0.000 C 
ATOM     14  C10 UNL A   1      21.942  25.024   1.999  1.00  0.00    +0.000 C 
ATOM     15  C11 UNL A   1      20.448  24.789   1.736  1.00  0.00    +0.000 C 
ATOM     16  N3  UNL A   1      20.281  23.372   2.004  1.00  0.00    +0.000 N 
ATOM    109  H18 UNL A   1      20.196  25.020   0.722  1.00  0.00    +0.000 H 
ATOM    110  H19 UNL A   1      19.814  25.407   2.338  1.00  0.00    +0.000 H 
ATOM     17  C12 UNL A   1      19.233  22.539   2.253  1.00  0.00    +0.000 C 
ATOM    116  H25 UNL A   1      19.311  20.436   2.753  1.00  0.00    +0.000 H 
ATOM    117  H26 UNL A   1      21.931  20.660   2.526  1.00  0.00    +0.000 H 
ATOM     26  C20 UNL A   1      19.822  21.300   2.514  1.00  0.00    +0.000 C 
ATOM     27  C21 UNL A   1      21.234  21.410   2.400  1.00  0.00    +0.000 C 
ATOM     28  C22 UNL A   1      21.478  22.720   2.092  1.00  0.00    +0.000 C 
BRANCH   17   18
ATOM     18  C13 UNL A   1      17.807  22.824   2.315  1.00  0.00    +0.000 C 
ATOM     19  O3  UNL A   1      17.106  22.945   1.312  1.00  0.00    +0.000 O 
BRANCH   18   20
ATOM    111  H20 UNL A   1      18.862  23.618   4.616  1.00  0.00    +0.000 H 
ATOM    112  H21 UNL A   1      17.778  23.875   6.773  1.00  0.00    +0.000 H 
ATOM    113  H22 UNL A   1      15.418  23.366   7.010  1.00  0.00    +0.000 H 
ATOM    114  H23 UNL A   1      14.147  22.554   5.110  1.00  0.00    +0.000 H 
ATOM    115  H24 UNL A   1      15.232  22.269   2.953  1.00  0.00    +0.000 H 
ATOM     20  C14 UNL A   1      17.117  22.968   3.614  1.00  0.00    +0.000 C 
ATOM     21  C15 UNL A   1      17.858  23.404   4.718  1.00  0.00    +0.000 C 
ATOM     22  C16 UNL A   1      17.236  23.547   5.958  1.00  0.00    +0.000 C 
ATOM     23  C17 UNL A   1      15.881  23.246   6.096  1.00  0.00    +0.000 C 
ATOM     24  C18 UNL A   1      15.148  22.783   5.001  1.00  0.00    +0.000 C 
ATOM     25  C19 UNL A   1      15.767  22.629   3.759  1.00  0.00    +0.000 C 
ENDBRANCH   18   20
ENDBRANCH   17   18
ENDBRANCH   11   13
ENDBRANCH   10   11
ENDBRANCH    9   10
ENDBRANCH    8    9
ENDBRANCH    7    8
ENDBRANCH    6    7
ENDBRANCH    5    6
ENDBRANCH    4    5
ENDBRANCH    3    4
ENDBRANCH    2    3
ENDBRANCH   29    2
ENDBRANCH   33   32
BRANCH   37   38
ATOM     38  C31 UNL A   1      21.945  29.254  -0.496  1.00  0.00    +0.000 C 
ATOM     39  C32 UNL A   1      22.248  29.387   0.866  1.00  0.00    +0.000 C 
ATOM     40  F1  UNL A   1      21.381  28.956   1.795  1.00  0.00    +0.000 F 
ATOM     41  C33 UNL A   1      23.442  29.973   1.280  1.00  0.00    +0.000 C 
ATOM     42  F2  UNL A   1      23.703  30.108   2.588  1.00  0.00    +0.000 F 
ATOM     43  C34 UNL A   1      24.362  30.418   0.342  1.00  0.00    +0.000 C 
ATOM     44  F3  UNL A   1      25.518  30.965   0.743  1.00  0.00    +0.000 F 
ATOM     45  C35 UNL A   1      24.084  30.295  -1.010  1.00  0.00    +0.000 C 
ATOM     46  F4  UNL A   1      24.978  30.713  -1.918  1.00  0.00    +0.000 F 
ATOM     47  C36 UNL A   1      22.882  29.728  -1.427  1.00  0.00    +0.000 C 
ATOM     48  F5  UNL A   1      22.643  29.620  -2.743  1.00  0.00    +0.000 F 
ENDBRANCH   37   38
BRANCH   54   55
ATOM     65  F10 UNL A   1      14.554  30.845  -3.724  1.00  0.00    +0.000 F 
ATOM     55  C42 UNL A   1      14.958  30.739  -1.381  1.00  0.00    +0.000 C 
ATOM     56  C43 UNL A   1      14.701  31.287  -0.115  1.00  0.00    +0.000 C 
ATOM     57  F6  UNL A   1      15.256  30.743   0.979  1.00  0.00    +0.000 F 
ATOM     58  C44 UNL A   1      13.838  32.368   0.034  1.00  0.00    +0.000 C 
ATOM     59  F7  UNL A   1      13.569  32.844   1.258  1.00  0.00    +0.000 F 
ATOM     60  C45 UNL A   1      13.242  32.942  -1.080  1.00  0.00    +0.000 C 
ATOM     61  F8  UNL A   1      12.413  33.984  -0.933  1.00  0.00    +0.000 F 
ATOM     62  C46 UNL A   1      13.498  32.429  -2.343  1.00  0.00    +0.000 C 
ATOM     63  F9  UNL A   1      12.930  32.988  -3.420  1.00  0.00    +0.000 F 
ATOM     64  C47 UNL A   1      14.339  31.331  -2.493  1.00  0.00    +0.000 C 
ENDBRANCH   54   55
BRANCH   69   70
ATOM     70  C51 UNL A   1      13.831  24.156  -3.329  1.00  0.00    +0.000 C 
ATOM     71  C52 UNL A   1      13.241  23.252  -2.437  1.00  0.00    +0.000 C 
ATOM     72  F11 UNL A   1      13.785  23.053  -1.227  1.00  0.00    +0.000 F 
ATOM     73  C53 UNL A   1      12.111  22.522  -2.798  1.00  0.00    +0.000 C 
ATOM     74  F12 UNL A   1      11.592  21.630  -1.943  1.00  0.00    +0.000 F 
ATOM     75  C54 UNL A   1      11.532  22.704  -4.045  1.00  0.00    +0.000 C 
ATOM     76  F13 UNL A   1      10.443  22.005  -4.390  1.00  0.00    +0.000 F 
ATOM     77  C55 UNL A   1      12.088  23.608  -4.937  1.00  0.00    +0.000 C 
ATOM     78  F14 UNL A   1      11.523  23.801  -6.138  1.00  0.00    +0.000 F 
ATOM     79  C56 UNL A   1      13.235  24.316  -4.590  1.00  0.00    +0.000 C 
ATOM     80  F15 UNL A   1      13.759  25.175  -5.476  1.00  0.00    +0.000 F 
ENDBRANCH   69   70
TORSDOF 17
ENDMDL
MODEL 6
REMARK VINA RESULT:     -10.9     38.382     44.366
ROOT
ATOM    129  H38 UNL A   1      25.351  24.019  -8.221  1.00  0.00    +0.000 H 
ATOM     33  C27 UNL A   1      27.870  24.373  -9.519  1.00  0.00    +0.000 C 
ATOM     34  C28 UNL A   1      26.504  24.689 -10.055  1.00  0.00    +0.000 C 
ATOM     35  N4  UNL A   1      26.175  25.198 -11.216  1.00  0.00    +0.000 N 
ATOM     36  C29 UNL A   1      24.789  25.268 -11.222  1.00  0.00    +0.000 C 
ATOM     37  C30 UNL A   1      23.977  25.741 -12.198  1.00  0.00    +0.000 C 
ATOM     49  C37 UNL A   1      24.441  26.290 -13.447  1.00  0.00    +0.000 C 
ATOM     50  C38 UNL A   1      23.699  26.850 -14.472  1.00  0.00    +0.000 C 
ATOM     51  C39 UNL A   1      24.572  27.197 -15.508  1.00  0.00    +0.000 C 
ATOM     52  C40 UNL A   1      25.864  26.896 -15.111  1.00  0.00    +0.000 C 
ATOM     53  N5  UNL A   1      25.770  26.341 -13.844  1.00  0.00    +0.000 N 
ATOM     54  C41 UNL A   1      27.092  27.093 -15.835  1.00  0.00    +0.000 C 
ATOM     66  C48 UNL A   1      28.330  26.817 -15.360  1.00  0.00    +0.000 C 
ATOM     67  N6  UNL A   1      28.694  26.290 -14.130  1.00  0.00    +0.000 N 
ATOM     68  C49 UNL A   1      30.000  26.179 -14.160  1.00  0.00    +0.000 C 
ATOM     69  C50 UNL A   1      30.929  25.674 -13.095  1.00  0.00    +0.000 C 
ATOM     81  C57 UNL A   1      30.413  25.248 -11.928  1.00  0.00    +0.000 C 
ATOM     82  C58 UNL A   1      31.186  24.724 -10.809  1.00  0.00    +0.000 C 
ATOM     83  C59 UNL A   1      30.343  24.324  -9.848  1.00  0.00    +0.000 C 
ATOM     84  C60 UNL A   1      28.968  24.617 -10.262  1.00  0.00    +0.000 C 
ATOM     85  N7  UNL A   1      29.107  25.171 -11.508  1.00  0.00    +0.000 N 
ATOM     86  C61 UNL A   1      30.613  26.614 -15.420  1.00  0.00    +0.000 C 
ATOM     87  C62 UNL A   1      29.556  27.028 -16.103  1.00  0.00    +0.000 C 
ATOM     88  C63 UNL A   1      24.334  24.735  -9.955  1.00  0.00    +0.000 C 
ATOM     89  C64 UNL A   1      25.357  24.394  -9.182  1.00  0.00    +0.000 C 
ATOM    120  H29 UNL A   1      22.675  26.988 -14.472  1.00  0.00    +0.000 H 
ATOM    121  H30 UNL A   1      24.299  27.609 -16.414  1.00  0.00    +0.000 H 
ATOM    122  H31 UNL A   1      26.533  26.029 -13.306  1.00  0.00    +0.000 H 
ATOM    123  H32 UNL A   1      32.216  24.671 -10.765  1.00  0.00    +0.000 H 
ATOM    124  H33 UNL A   1      30.618  23.878  -8.959  1.00  0.00    +0.000 H 
ATOM    125  H34 UNL A   1      28.345  25.481 -12.049  1.00  0.00    +0.000 H 
ATOM    126  H35 UNL A   1      31.607  26.601 -15.700  1.00  0.00    +0.000 H 
ATOM    127  H36 UNL A   1      29.599  27.447 -17.046  1.00  0.00    +0.000 H 
ATOM    128  H37 UNL A   1      23.342  24.634  -9.687  1.00  0.00    +0.000 H 
ENDROOT
BRANCH   33   32
ATOM    130  H39 UNL A   1      28.714  25.589  -7.243  1.00  0.00    +0.000 H 
ATOM    131  H40 UNL A   1      28.896  24.632  -5.017  1.00  0.00    +0.000 H 
ATOM    118  H27 UNL A   1      27.388  20.981  -6.469  1.00  0.00    +0.000 H 
ATOM    119  H28 UNL A   1      27.437  21.857  -8.726  1.00  0.00    +0.000 H 
ATOM     90  C65 UNL A   1      28.473  24.597  -7.086  1.00  0.00    +0.000 C 
ATOM     91  C66 UNL A   1      28.564  24.052  -5.803  1.00  0.00    +0.000 C 
ATOM     29  C23 UNL A   1      28.204  22.719  -5.587  1.00  0.00    +0.000 C 
ATOM     30  C24 UNL A   1      27.726  21.939  -6.645  1.00  0.00    +0.000 C 
ATOM     31  C25 UNL A   1      27.708  22.460  -7.934  1.00  0.00    +0.000 C 
ATOM     32  C26 UNL A   1      28.057  23.800  -8.163  1.00  0.00    +0.000 C 
BRANCH   29    2
ATOM      1  O1  UNL A   1      29.213  22.516  -3.479  1.00  0.00    +0.000 O 
ATOM      2  C1  UNL A   1      28.307  22.154  -4.224  1.00  0.00    +0.000 C 
BRANCH    2    3
ATOM      3  N1  UNL A   1      27.393  21.219  -3.805  1.00  0.00    +0.000 N 
ATOM     92  H1  UNL A   1      27.765  20.348  -3.536  1.00  0.00    +0.000 H 
BRANCH    3    4
ATOM      4  C2  UNL A   1      25.949  21.345  -3.706  1.00  0.00    +0.000 C 
ATOM     93  H2  UNL A   1      25.635  22.178  -4.301  1.00  0.00    +0.000 H 
ATOM     94  H3  UNL A   1      25.702  21.486  -2.675  1.00  0.00    +0.000 H 
BRANCH    4    5
ATOM      5  C3  UNL A   1      25.227  20.096  -4.194  1.00  0.00    +0.000 C 
ATOM     95  H4  UNL A   1      25.933  19.295  -4.230  1.00  0.00    +0.000 H 
ATOM     96  H5  UNL A   1      24.816  20.338  -5.152  1.00  0.00    +0.000 H 
BRANCH    5    6
ATOM     97  H6  UNL A   1      24.203  20.063  -2.338  1.00  0.00    +0.000 H 
ATOM     98  H7  UNL A   1      24.043  18.591  -3.343  1.00  0.00    +0.000 H 
ATOM      6  C4  UNL A   1      24.052  19.660  -3.317  1.00  0.00    +0.000 C 
BRANCH    6    7
ATOM     99  H8  UNL A   1      21.992  19.292  -3.675  1.00  0.00    +0.000 H 
ATOM    100  H9  UNL A   1      22.800  20.399  -4.829  1.00  0.00    +0.000 H 
ATOM      7  C5  UNL A   1      22.670  20.109  -3.807  1.00  0.00    +0.000 C 
BRANCH    7    8
ATOM    101  H10 UNL A   1      22.894  21.939  -2.743  1.00  0.00    +0.000 H 
ATOM    102  H11 UNL A   1      21.472  20.960  -2.295  1.00  0.00    +0.000 H 
ATOM      8  C6  UNL A   1      22.083  21.333  -3.091  1.00  0.00    +0.000 C 
BRANCH    8    9
ATOM      9  C7  UNL A   1      21.180  22.201  -3.968  1.00  0.00    +0.000 C 
ATOM    103  H12 UNL A   1      20.665  22.906  -3.348  1.00  0.00    +0.000 H 
ATOM    104  H13 UNL A   1      20.483  21.566  -4.473  1.00  0.00    +0.000 H 
BRANCH    9   10
ATOM    105  H14 UNL A   1      22.072  22.449  -5.816  1.00  0.00    +0.000 H 
ATOM     10  N2  UNL A   1      21.951  22.919  -4.961  1.00  0.00    +0.000 N 
BRANCH   10   11
ATOM     11  C8  UNL A   1      22.536  24.152  -4.888  1.00  0.00    +0.000 C 
ATOM     12  O2  UNL A   1      22.220  24.864  -3.934  1.00  0.00    +0.000 O 
BRANCH   11   13
ATOM    106  H15 UNL A   1      23.420  23.762  -6.692  1.00  0.00    +0.000 H 
ATOM    107  H16 UNL A   1      25.541  23.902  -5.613  1.00  0.00    +0.000 H 
ATOM    108  H17 UNL A   1      24.954  24.983  -4.407  1.00  0.00    +0.000 H 
ATOM     13  C9  UNL A   1      23.512  24.564  -5.989  1.00  0.00    +0.000 C 
ATOM     14  C10 UNL A   1      24.951  24.782  -5.458  1.00  0.00    +0.000 C 
ATOM     15  C11 UNL A   1      25.526  25.959  -6.259  1.00  0.00    +0.000 C 
ATOM     16  N3  UNL A   1      24.341  26.651  -6.731  1.00  0.00    +0.000 N 
ATOM    109  H18 UNL A   1      26.119  25.612  -7.078  1.00  0.00    +0.000 H 
ATOM    110  H19 UNL A   1      26.173  26.584  -5.679  1.00  0.00    +0.000 H 
ATOM     17  C12 UNL A   1      24.063  27.885  -7.236  1.00  0.00    +0.000 C 
ATOM    116  H25 UNL A   1      22.122  28.692  -7.749  1.00  0.00    +0.000 H 
ATOM    117  H26 UNL A   1      21.148  26.355  -7.003  1.00  0.00    +0.000 H 
ATOM     26  C20 UNL A   1      22.674  27.896  -7.393  1.00  0.00    +0.000 C 
ATOM     27  C21 UNL A   1      22.139  26.644  -6.988  1.00  0.00    +0.000 C 
ATOM     28  C22 UNL A   1      23.209  25.901  -6.573  1.00  0.00    +0.000 C 
BRANCH   17   18
ATOM     18  C13 UNL A   1      24.951  29.004  -7.508  1.00  0.00    +0.000 C 
ATOM     19  O3  UNL A   1      25.598  29.573  -6.630  1.00  0.00    +0.000 O 
BRANCH   18   20
ATOM    111  H20 UNL A   1      25.272  27.572  -9.717  1.00  0.00    +0.000 H 
ATOM    112  H21 UNL A   1      25.575  28.348 -11.998  1.00  0.00    +0.000 H 
ATOM    113  H22 UNL A   1      25.619  30.727 -12.472  1.00  0.00    +0.000 H 
ATOM    114  H23 UNL A   1      25.411  32.335 -10.668  1.00  0.00    +0.000 H 
ATOM    115  H24 UNL A   1      25.134  31.565  -8.378  1.00  0.00    +0.000 H 
ATOM     20  C14 UNL A   1      25.135  29.511  -8.885  1.00  0.00    +0.000 C 
ATOM     21  C15 UNL A   1      25.289  28.583  -9.921  1.00  0.00    +0.000 C 
ATOM     22  C16 UNL A   1      25.468  29.029 -11.230  1.00  0.00    +0.000 C 
ATOM     23  C17 UNL A   1      25.501  30.398 -11.501  1.00  0.00    +0.000 C 
ATOM     24  C18 UNL A   1      25.377  31.324 -10.463  1.00  0.00    +0.000 C 
ATOM     25  C19 UNL A   1      25.207  30.883  -9.149  1.00  0.00    +0.000 C 
ENDBRANCH   18   20
ENDBRANCH   17   18
ENDBRANCH   11   13
ENDBRANCH   10   11
ENDBRANCH    9   10
ENDBRANCH    8    9
ENDBRANCH    7    8
ENDBRANCH    6    7
ENDBRANCH    5    6
ENDBRANCH    4    5
ENDBRANCH    3    4
ENDBRANCH    2    3
ENDBRANCH   29    2
ENDBRANCH   33   32
BRANCH   37   38
ATOM     38  C31 UNL A   1      22.495  25.686 -11.972  1.00  0.00    +0.000 C 
ATOM     39  C32 UNL A   1      21.789  26.779 -11.450  1.00  0.00    +0.000 C 
ATOM     40  F1  UNL A   1      22.447  27.877 -11.045  1.00  0.00    +0.000 F 
ATOM     41  C33 UNL A   1      20.402  26.743 -11.329  1.00  0.00    +0.000 C 
ATOM     42  F2  UNL A   1      19.749  27.792 -10.807  1.00  0.00    +0.000 F 
ATOM     43  C34 UNL A   1      19.694  25.626 -11.748  1.00  0.00    +0.000 C 
ATOM     44  F3  UNL A   1      18.358  25.602 -11.648  1.00  0.00    +0.000 F 
ATOM     45  C35 UNL A   1      20.372  24.535 -12.270  1.00  0.00    +0.000 C 
ATOM     46  F4  UNL A   1      19.688  23.460 -12.687  1.00  0.00    +0.000 F 
ATOM     47  C36 UNL A   1      21.760  24.560 -12.373  1.00  0.00    +0.000 C 
ATOM     48  F5  UNL A   1      22.387  23.490 -12.885  1.00  0.00    +0.000 F 
ENDBRANCH   37   38
BRANCH   54   55
ATOM     65  F10 UNL A   1      26.794  25.491 -18.166  1.00  0.00    +0.000 F 
ATOM     55  C42 UNL A   1      27.009  27.663 -17.219  1.00  0.00    +0.000 C 
ATOM     56  C43 UNL A   1      27.086  29.045 -17.445  1.00  0.00    +0.000 C 
ATOM     57  F6  UNL A   1      27.202  29.893 -16.411  1.00  0.00    +0.000 F 
ATOM     58  C44 UNL A   1      27.000  29.564 -18.734  1.00  0.00    +0.000 C 
ATOM     59  F7  UNL A   1      27.025  30.891 -18.922  1.00  0.00    +0.000 F 
ATOM     60  C45 UNL A   1      26.867  28.711 -19.819  1.00  0.00    +0.000 C 
ATOM     61  F8  UNL A   1      26.786  29.213 -21.059  1.00  0.00    +0.000 F 
ATOM     62  C46 UNL A   1      26.810  27.340 -19.620  1.00  0.00    +0.000 C 
ATOM     63  F9  UNL A   1      26.691  26.515 -20.669  1.00  0.00    +0.000 F 
ATOM     64  C47 UNL A   1      26.869  26.820 -18.331  1.00  0.00    +0.000 C 
ENDBRANCH   54   55
BRANCH   69   70
ATOM     70  C51 UNL A   1      32.397  25.625 -13.317  1.00  0.00    +0.000 C 
ATOM     71  C52 UNL A   1      33.032  24.433 -13.689  1.00  0.00    +0.000 C 
ATOM     72  F11 UNL A   1      32.315  23.308 -13.831  1.00  0.00    +0.000 F 
ATOM     73  C53 UNL A   1      34.411  24.384 -13.879  1.00  0.00    +0.000 C 
ATOM     74  F12 UNL A   1      35.000  23.221 -14.190  1.00  0.00    +0.000 F 
ATOM     75  C54 UNL A   1      35.176  25.531 -13.732  1.00  0.00    +0.000 C 
ATOM     76  F13 UNL A   1      36.501  25.484 -13.919  1.00  0.00    +0.000 F 
ATOM     77  C55 UNL A   1      34.566  26.726 -13.383  1.00  0.00    +0.000 C 
ATOM     78  F14 UNL A   1      35.298  27.842 -13.255  1.00  0.00    +0.000 F 
ATOM     79  C56 UNL A   1      33.192  26.771 -13.162  1.00  0.00    +0.000 C 
ATOM     80  F15 UNL A   1      32.630  27.937 -12.814  1.00  0.00    +0.000 F 
ENDBRANCH   69   70
TORSDOF 17
ENDMDL
MODEL 7
REMARK VINA RESULT:     -10.9     38.367     44.427
ROOT
ATOM    129  H38 UNL A   1      25.435  24.183  -8.365  1.00  0.00    +0.000 H 
ATOM     33  C27 UNL A   1      27.958  24.539  -9.655  1.00  0.00    +0.000 C 
ATOM     34  C28 UNL A   1      26.592  24.822 -10.208  1.00  0.00    +0.000 C 
ATOM     35  N4  UNL A   1      26.264  25.296 -11.384  1.00  0.00    +0.000 N 
ATOM     36  C29 UNL A   1      24.877  25.346 -11.401  1.00  0.00    +0.000 C 
ATOM     37  C30 UNL A   1      24.066  25.783 -12.395  1.00  0.00    +0.000 C 
ATOM     49  C37 UNL A   1      24.532  26.305 -13.654  1.00  0.00    +0.000 C 
ATOM     50  C38 UNL A   1      23.789  26.828 -14.699  1.00  0.00    +0.000 C 
ATOM     51  C39 UNL A   1      24.665  27.161 -15.737  1.00  0.00    +0.000 C 
ATOM     52  C40 UNL A   1      25.958  26.888 -15.323  1.00  0.00    +0.000 C 
ATOM     53  N5  UNL A   1      25.862  26.365 -14.044  1.00  0.00    +0.000 N 
ATOM     54  C41 UNL A   1      27.189  27.084 -16.044  1.00  0.00    +0.000 C 
ATOM     66  C48 UNL A   1      28.427  26.838 -15.553  1.00  0.00    +0.000 C 
ATOM     67  N6  UNL A   1      28.789  26.348 -14.307  1.00  0.00    +0.000 N 
ATOM     68  C49 UNL A   1      30.096  26.255 -14.325  1.00  0.00    +0.000 C 
ATOM     69  C50 UNL A   1      31.025  25.791 -13.242  1.00  0.00    +0.000 C 
ATOM     81  C57 UNL A   1      30.506  25.388 -12.067  1.00  0.00    +0.000 C 
ATOM     82  C58 UNL A   1      31.278  24.903 -10.930  1.00  0.00    +0.000 C 
ATOM     83  C59 UNL A   1      30.434  24.517  -9.965  1.00  0.00    +0.000 C 
ATOM     84  C60 UNL A   1      29.058  24.779 -10.396  1.00  0.00    +0.000 C 
ATOM     85  N7  UNL A   1      29.199  25.303 -11.655  1.00  0.00    +0.000 N 
ATOM     86  C61 UNL A   1      30.713  26.666 -15.593  1.00  0.00    +0.000 C 
ATOM     87  C62 UNL A   1      29.655  27.047 -16.293  1.00  0.00    +0.000 C 
ATOM     88  C63 UNL A   1      24.421  24.840 -10.125  1.00  0.00    +0.000 C 
ATOM     89  C64 UNL A   1      25.443  24.533  -9.336  1.00  0.00    +0.000 C 
ATOM    120  H29 UNL A   1      22.764  26.952 -14.710  1.00  0.00    +0.000 H 
ATOM    121  H30 UNL A   1      24.393  27.545 -16.656  1.00  0.00    +0.000 H 
ATOM    122  H31 UNL A   1      26.626  26.078 -13.492  1.00  0.00    +0.000 H 
ATOM    123  H32 UNL A   1      32.309  24.866 -10.878  1.00  0.00    +0.000 H 
ATOM    124  H33 UNL A   1      30.708  24.098  -9.063  1.00  0.00    +0.000 H 
ATOM    125  H34 UNL A   1      28.437  25.588 -12.209  1.00  0.00    +0.000 H 
ATOM    126  H35 UNL A   1      31.709  26.660 -15.865  1.00  0.00    +0.000 H 
ATOM    127  H36 UNL A   1      29.699  27.442 -17.246  1.00  0.00    +0.000 H 
ATOM    128  H37 UNL A   1      23.428  24.731  -9.861  1.00  0.00    +0.000 H 
ENDROOT
BRANCH   33   32
ATOM    130  H39 UNL A   1      28.852  25.803  -7.424  1.00  0.00    +0.000 H 
ATOM    131  H40 UNL A   1      29.030  24.912  -5.171  1.00  0.00    +0.000 H 
ATOM    118  H27 UNL A   1      27.420  21.256  -6.496  1.00  0.00    +0.000 H 
ATOM    119  H28 UNL A   1      27.471  22.060  -8.780  1.00  0.00    +0.000 H 
ATOM     90  C65 UNL A   1      28.588  24.823  -7.235  1.00  0.00    +0.000 C 
ATOM     91  C66 UNL A   1      28.677  24.316  -5.936  1.00  0.00    +0.000 C 
ATOM     29  C23 UNL A   1      28.286  22.999  -5.676  1.00  0.00    +0.000 C 
ATOM     30  C24 UNL A   1      27.780  22.200  -6.705  1.00  0.00    +0.000 C 
ATOM     31  C25 UNL A   1      27.764  22.680  -8.009  1.00  0.00    +0.000 C 
ATOM     32  C26 UNL A   1      28.143  24.004  -8.283  1.00  0.00    +0.000 C 
BRANCH   29    2
ATOM      1  O1  UNL A   1      29.254  22.905  -3.541  1.00  0.00    +0.000 O 
ATOM      2  C1  UNL A   1      28.388  22.475  -4.297  1.00  0.00    +0.000 C 
BRANCH    2    3
ATOM      3  N1  UNL A   1      27.516  21.501  -3.875  1.00  0.00    +0.000 N 
ATOM     92  H1  UNL A   1      27.924  20.637  -3.635  1.00  0.00    +0.000 H 
BRANCH    3    4
ATOM      4  C2  UNL A   1      26.072  21.577  -3.734  1.00  0.00    +0.000 C 
ATOM     93  H2  UNL A   1      25.726  22.464  -4.224  1.00  0.00    +0.000 H 
ATOM     94  H3  UNL A   1      25.844  21.593  -2.690  1.00  0.00    +0.000 H 
BRANCH    4    5
ATOM      5  C3  UNL A   1      25.370  20.374  -4.348  1.00  0.00    +0.000 C 
ATOM     95  H4  UNL A   1      26.112  19.648  -4.604  1.00  0.00    +0.000 H 
ATOM     96  H5  UNL A   1      24.829  20.738  -5.196  1.00  0.00    +0.000 H 
BRANCH    5    6
ATOM     97  H6  UNL A   1      24.541  20.016  -2.430  1.00  0.00    +0.000 H 
ATOM     98  H7  UNL A   1      24.451  18.652  -3.584  1.00  0.00    +0.000 H 
ATOM      6  C4  UNL A   1      24.342  19.705  -3.433  1.00  0.00    +0.000 C 
BRANCH    6    7
ATOM     99  H8  UNL A   1      22.278  19.208  -3.420  1.00  0.00    +0.000 H 
ATOM    100  H9  UNL A   1      22.835  20.199  -4.805  1.00  0.00    +0.000 H 
ATOM      7  C5  UNL A   1      22.878  20.031  -3.749  1.00  0.00    +0.000 C 
BRANCH    7    8
ATOM    101  H10 UNL A   1      23.156  21.956  -2.884  1.00  0.00    +0.000 H 
ATOM    102  H11 UNL A   1      21.807  21.000  -2.214  1.00  0.00    +0.000 H 
ATOM      8  C6  UNL A   1      22.331  21.307  -3.096  1.00  0.00    +0.000 C 
BRANCH    8    9
ATOM      9  C7  UNL A   1      21.328  22.075  -3.957  1.00  0.00    +0.000 C 
ATOM    103  H12 UNL A   1      20.767  22.739  -3.332  1.00  0.00    +0.000 H 
ATOM    104  H13 UNL A   1      20.679  21.370  -4.433  1.00  0.00    +0.000 H 
BRANCH    9   10
ATOM    105  H14 UNL A   1      22.059  22.410  -5.861  1.00  0.00    +0.000 H 
ATOM     10  N2  UNL A   1      22.002  22.845  -4.981  1.00  0.00    +0.000 N 
BRANCH   10   11
ATOM     11  C8  UNL A   1      22.569  24.087  -4.907  1.00  0.00    +0.000 C 
ATOM     12  O2  UNL A   1      22.240  24.795  -3.956  1.00  0.00    +0.000 O 
BRANCH   11   13
ATOM    106  H15 UNL A   1      23.461  23.709  -6.710  1.00  0.00    +0.000 H 
ATOM    107  H16 UNL A   1      25.578  23.867  -5.627  1.00  0.00    +0.000 H 
ATOM    108  H17 UNL A   1      24.978  24.940  -4.419  1.00  0.00    +0.000 H 
ATOM     13  C9  UNL A   1      23.543  24.510  -6.005  1.00  0.00    +0.000 C 
ATOM     14  C10 UNL A   1      24.979  24.741  -5.471  1.00  0.00    +0.000 C 
ATOM     15  C11 UNL A   1      25.545  25.925  -6.268  1.00  0.00    +0.000 C 
ATOM     16  N3  UNL A   1      24.354  26.606  -6.742  1.00  0.00    +0.000 N 
ATOM    109  H18 UNL A   1      26.143  25.585  -7.087  1.00  0.00    +0.000 H 
ATOM    110  H19 UNL A   1      26.184  26.555  -5.685  1.00  0.00    +0.000 H 
ATOM     17  C12 UNL A   1      24.065  27.839  -7.245  1.00  0.00    +0.000 C 
ATOM    116  H25 UNL A   1      22.118  28.627  -7.761  1.00  0.00    +0.000 H 
ATOM    117  H26 UNL A   1      21.165  26.280  -7.021  1.00  0.00    +0.000 H 
ATOM     26  C20 UNL A   1      22.676  27.837  -7.405  1.00  0.00    +0.000 C 
ATOM     27  C21 UNL A   1      22.152  26.578  -7.004  1.00  0.00    +0.000 C 
ATOM     28  C22 UNL A   1      23.229  25.845  -6.588  1.00  0.00    +0.000 C 
BRANCH   17   18
ATOM     18  C13 UNL A   1      24.942  28.967  -7.513  1.00  0.00    +0.000 C 
ATOM     19  O3  UNL A   1      25.555  29.562  -6.628  1.00  0.00    +0.000 O 
BRANCH   18   20
ATOM    111  H20 UNL A   1      25.058  31.487  -8.332  1.00  0.00    +0.000 H 
ATOM    112  H21 UNL A   1      25.412  32.337 -10.579  1.00  0.00    +0.000 H 
ATOM    113  H22 UNL A   1      25.705  30.792 -12.426  1.00  0.00    +0.000 H 
ATOM    114  H23 UNL A   1      25.598  28.399 -12.044  1.00  0.00    +0.000 H 
ATOM    115  H24 UNL A   1      25.218  27.541  -9.801  1.00  0.00    +0.000 H 
ATOM     20  C14 UNL A   1      25.158  29.451  -8.893  1.00  0.00    +0.000 C 
ATOM     21  C15 UNL A   1      25.185  30.832  -9.118  1.00  0.00    +0.000 C 
ATOM     22  C16 UNL A   1      25.383  31.320 -10.410  1.00  0.00    +0.000 C 
ATOM     23  C17 UNL A   1      25.544  30.431 -11.473  1.00  0.00    +0.000 C 
ATOM     24  C18 UNL A   1      25.487  29.053 -11.253  1.00  0.00    +0.000 C 
ATOM     25  C19 UNL A   1      25.280  28.558  -9.964  1.00  0.00    +0.000 C 
ENDBRANCH   18   20
ENDBRANCH   17   18
ENDBRANCH   11   13
ENDBRANCH   10   11
ENDBRANCH    9   10
ENDBRANCH    8    9
ENDBRANCH    7    8
ENDBRANCH    6    7
ENDBRANCH    5    6
ENDBRANCH    4    5
ENDBRANCH    3    4
ENDBRANCH    2    3
ENDBRANCH   29    2
ENDBRANCH   33   32
BRANCH   37   38
ATOM     38  C31 UNL A   1      22.584  25.713 -12.178  1.00  0.00    +0.000 C 
ATOM     39  C32 UNL A   1      21.858  24.539 -12.425  1.00  0.00    +0.000 C 
ATOM     40  F1  UNL A   1      22.468  23.468 -12.958  1.00  0.00    +0.000 F 
ATOM     41  C33 UNL A   1      20.498  24.463 -12.135  1.00  0.00    +0.000 C 
ATOM     42  F2  UNL A   1      19.820  23.337 -12.399  1.00  0.00    +0.000 F 
ATOM     43  C34 UNL A   1      19.843  25.550 -11.575  1.00  0.00    +0.000 C 
ATOM     44  F3  UNL A   1      18.538  25.468 -11.280  1.00  0.00    +0.000 F 
ATOM     45  C35 UNL A   1      20.541  26.720 -11.320  1.00  0.00    +0.000 C 
ATOM     46  F4  UNL A   1      19.912  27.767 -10.767  1.00  0.00    +0.000 F 
ATOM     47  C36 UNL A   1      21.897  26.806 -11.628  1.00  0.00    +0.000 C 
ATOM     48  F5  UNL A   1      22.545  27.951 -11.366  1.00  0.00    +0.000 F 
ENDBRANCH   37   38
BRANCH   54   55
ATOM     65  F10 UNL A   1      27.241  29.860 -16.657  1.00  0.00    +0.000 F 
ATOM     55  C42 UNL A   1      27.108  27.618 -17.442  1.00  0.00    +0.000 C 
ATOM     56  C43 UNL A   1      26.990  26.760 -18.547  1.00  0.00    +0.000 C 
ATOM     57  F6  UNL A   1      26.982  25.430 -18.370  1.00  0.00    +0.000 F 
ATOM     58  C44 UNL A   1      26.925  27.268 -19.841  1.00  0.00    +0.000 C 
ATOM     59  F7  UNL A   1      26.863  26.429 -20.884  1.00  0.00    +0.000 F 
ATOM     60  C45 UNL A   1      26.944  28.638 -20.053  1.00  0.00    +0.000 C 
ATOM     61  F8  UNL A   1      26.880  29.124 -21.300  1.00  0.00    +0.000 F 
ATOM     62  C46 UNL A   1      27.040  29.504 -18.974  1.00  0.00    +0.000 C 
ATOM     63  F9  UNL A   1      27.049  30.828 -19.177  1.00  0.00    +0.000 F 
ATOM     64  C47 UNL A   1      27.132  29.000 -17.680  1.00  0.00    +0.000 C 
ENDBRANCH   54   55
BRANCH   69   70
ATOM     70  C51 UNL A   1      32.495  25.756 -13.451  1.00  0.00    +0.000 C 
ATOM     71  C52 UNL A   1      33.282  26.895 -13.239  1.00  0.00    +0.000 C 
ATOM     72  F11 UNL A   1      32.708  28.045 -12.859  1.00  0.00    +0.000 F 
ATOM     73  C53 UNL A   1      34.658  26.865 -13.453  1.00  0.00    +0.000 C 
ATOM     74  F12 UNL A   1      35.384  27.980 -13.286  1.00  0.00    +0.000 F 
ATOM     75  C54 UNL A   1      35.277  25.690 -13.852  1.00  0.00    +0.000 C 
ATOM     76  F13 UNL A   1      36.601  25.661 -14.054  1.00  0.00    +0.000 F 
ATOM     77  C55 UNL A   1      34.519  24.545 -14.050  1.00  0.00    +0.000 C 
ATOM     78  F14 UNL A   1      35.114  23.402 -14.420  1.00  0.00    +0.000 F 
ATOM     79  C56 UNL A   1      33.140  24.581 -13.866  1.00  0.00    +0.000 C 
ATOM     80  F15 UNL A   1      32.430  23.463 -14.076  1.00  0.00    +0.000 F 
ENDBRANCH   69   70
TORSDOF 17
ENDMDL
MODEL 8
REMARK VINA RESULT:     -10.9      2.150      4.848
ROOT
ATOM    129  H38 UNL A   1      38.077  29.007  27.293  1.00  0.00    +0.000 H 
ATOM     33  C27 UNL A   1      38.024  30.178  29.898  1.00  0.00    +0.000 C 
ATOM     34  C28 UNL A   1      39.132  29.388  29.264  1.00  0.00    +0.000 C 
ATOM     35  N4  UNL A   1      40.304  29.076  29.758  1.00  0.00    +0.000 N 
ATOM     36  C29 UNL A   1      40.939  28.320  28.782  1.00  0.00    +0.000 C 
ATOM     37  C30 UNL A   1      42.181  27.780  28.815  1.00  0.00    +0.000 C 
ATOM     49  C37 UNL A   1      43.099  27.918  29.918  1.00  0.00    +0.000 C 
ATOM     50  C38 UNL A   1      44.401  27.458  30.020  1.00  0.00    +0.000 C 
ATOM     51  C39 UNL A   1      44.882  27.780  31.293  1.00  0.00    +0.000 C 
ATOM     52  C40 UNL A   1      43.896  28.480  31.969  1.00  0.00    +0.000 C 
ATOM     53  N5  UNL A   1      42.808  28.559  31.114  1.00  0.00    +0.000 N 
ATOM     54  C41 UNL A   1      43.941  29.030  33.299  1.00  0.00    +0.000 C 
ATOM     66  C48 UNL A   1      42.951  29.749  33.878  1.00  0.00    +0.000 C 
ATOM     67  N6  UNL A   1      41.711  30.098  33.364  1.00  0.00    +0.000 N 
ATOM     68  C49 UNL A   1      41.103  30.763  34.315  1.00  0.00    +0.000 C 
ATOM     69  C50 UNL A   1      39.738  31.386  34.308  1.00  0.00    +0.000 C 
ATOM     81  C57 UNL A   1      38.975  31.270  33.205  1.00  0.00    +0.000 C 
ATOM     82  C58 UNL A   1      37.630  31.811  33.054  1.00  0.00    +0.000 C 
ATOM     83  C59 UNL A   1      37.143  31.439  31.863  1.00  0.00    +0.000 C 
ATOM     84  C60 UNL A   1      38.167  30.678  31.142  1.00  0.00    +0.000 C 
ATOM     85  N7  UNL A   1      39.223  30.633  32.014  1.00  0.00    +0.000 N 
ATOM     86  C61 UNL A   1      41.886  30.903  35.549  1.00  0.00    +0.000 C 
ATOM     87  C62 UNL A   1      43.018  30.300  35.217  1.00  0.00    +0.000 C 
ATOM     88  C63 UNL A   1      40.018  28.206  27.671  1.00  0.00    +0.000 C 
ATOM     89  C64 UNL A   1      38.898  28.877  27.905  1.00  0.00    +0.000 C 
ATOM    120  H29 UNL A   1      44.927  26.963  29.282  1.00  0.00    +0.000 H 
ATOM    121  H30 UNL A   1      45.814  27.537  31.665  1.00  0.00    +0.000 H 
ATOM    122  H31 UNL A   1      41.956  29.004  31.324  1.00  0.00    +0.000 H 
ATOM    123  H32 UNL A   1      37.134  32.389  33.752  1.00  0.00    +0.000 H 
ATOM    124  H33 UNL A   1      36.197  31.652  31.510  1.00  0.00    +0.000 H 
ATOM    125  H34 UNL A   1      40.076  30.187  31.807  1.00  0.00    +0.000 H 
ATOM    126  H35 UNL A   1      41.623  31.354  36.440  1.00  0.00    +0.000 H 
ATOM    127  H36 UNL A   1      43.843  30.231  35.833  1.00  0.00    +0.000 H 
ATOM    128  H37 UNL A   1      40.208  27.670  26.808  1.00  0.00    +0.000 H 
ENDROOT
BRANCH   33   32
ATOM    130  H39 UNL A   1      37.207  32.436  28.630  1.00  0.00    +0.000 H 
ATOM    131  H40 UNL A   1      35.160  32.784  27.370  1.00  0.00    +0.000 H 
ATOM    118  H27 UNL A   1      34.050  28.787  28.077  1.00  0.00    +0.000 H 
ATOM    119  H28 UNL A   1      35.966  28.512  29.533  1.00  0.00    +0.000 H 
ATOM     90  C65 UNL A   1      36.516  31.674  28.548  1.00  0.00    +0.000 C 
ATOM     91  C66 UNL A   1      35.345  31.871  27.811  1.00  0.00    +0.000 C 
ATOM     29  C23 UNL A   1      34.427  30.826  27.673  1.00  0.00    +0.000 C 
ATOM     30  C24 UNL A   1      34.690  29.578  28.245  1.00  0.00    +0.000 C 
ATOM     31  C25 UNL A   1      35.817  29.406  29.041  1.00  0.00    +0.000 C 
ATOM     32  C26 UNL A   1      36.753  30.443  29.180  1.00  0.00    +0.000 C 
BRANCH   29    2
ATOM      1  O1  UNL A   1      32.557  32.090  27.034  1.00  0.00    +0.000 O 
ATOM      2  C1  UNL A   1      33.192  31.049  26.891  1.00  0.00    +0.000 C 
BRANCH    2    3
ATOM      3  N1  UNL A   1      32.758  30.083  26.017  1.00  0.00    +0.000 N 
ATOM     92  H1  UNL A   1      31.809  29.830  26.096  1.00  0.00    +0.000 H 
BRANCH    3    4
ATOM      4  C2  UNL A   1      33.513  29.386  24.990  1.00  0.00    +0.000 C 
ATOM     93  H2  UNL A   1      34.071  28.597  25.450  1.00  0.00    +0.000 H 
ATOM     94  H3  UNL A   1      34.157  30.096  24.516  1.00  0.00    +0.000 H 
BRANCH    4    5
ATOM      5  C3  UNL A   1      32.611  28.786  23.919  1.00  0.00    +0.000 C 
ATOM     95  H4  UNL A   1      32.767  27.729  23.904  1.00  0.00    +0.000 H 
ATOM     96  H5  UNL A   1      32.875  29.263  22.998  1.00  0.00    +0.000 H 
BRANCH    5    6
ATOM     97  H6  UNL A   1      30.936  30.086  23.960  1.00  0.00    +0.000 H 
ATOM     98  H7  UNL A   1      30.899  28.729  25.127  1.00  0.00    +0.000 H 
ATOM      6  C4  UNL A   1      31.118  29.046  24.129  1.00  0.00    +0.000 C 
BRANCH    6    7
ATOM     99  H8  UNL A   1      30.365  28.554  22.206  1.00  0.00    +0.000 H 
ATOM    100  H9  UNL A   1      29.190  28.455  23.554  1.00  0.00    +0.000 H 
ATOM      7  C5  UNL A   1      30.183  28.246  23.214  1.00  0.00    +0.000 C 
BRANCH    7    8
ATOM    101  H10 UNL A   1      31.359  26.500  23.529  1.00  0.00    +0.000 H 
ATOM    102  H11 UNL A   1      30.055  26.340  22.323  1.00  0.00    +0.000 H 
ATOM      8  C6  UNL A   1      30.341  26.721  23.281  1.00  0.00    +0.000 C 
BRANCH    8    9
ATOM      9  C7  UNL A   1      29.440  26.039  24.310  1.00  0.00    +0.000 C 
ATOM    103  H12 UNL A   1      29.267  25.027  24.008  1.00  0.00    +0.000 H 
ATOM    104  H13 UNL A   1      28.518  26.578  24.365  1.00  0.00    +0.000 H 
BRANCH    9   10
ATOM    105  H14 UNL A   1      29.503  26.430  26.340  1.00  0.00    +0.000 H 
ATOM     10  N2  UNL A   1      30.053  26.041  25.622  1.00  0.00    +0.000 N 
BRANCH   10   11
ATOM     11  C8  UNL A   1      31.279  25.583  26.013  1.00  0.00    +0.000 C 
ATOM     12  O2  UNL A   1      32.035  26.395  26.546  1.00  0.00    +0.000 O 
BRANCH   11   13
ATOM    106  H15 UNL A   1      30.736  23.745  25.296  1.00  0.00    +0.000 H 
ATOM    107  H16 UNL A   1      31.220  22.831  27.444  1.00  0.00    +0.000 H 
ATOM    108  H17 UNL A   1      32.393  24.044  27.792  1.00  0.00    +0.000 H 
ATOM     13  C9  UNL A   1      31.630  24.119  25.750  1.00  0.00    +0.000 C 
ATOM     14  C10 UNL A   1      32.052  23.367  27.037  1.00  0.00    +0.000 C 
ATOM     15  C11 UNL A   1      33.160  22.391  26.614  1.00  0.00    +0.000 C 
ATOM     16  N3  UNL A   1      33.667  22.974  25.385  1.00  0.00    +0.000 N 
ATOM    109  H18 UNL A   1      32.763  21.413  26.440  1.00  0.00    +0.000 H 
ATOM    110  H19 UNL A   1      33.916  22.266  27.362  1.00  0.00    +0.000 H 
ATOM     17  C12 UNL A   1      34.790  22.838  24.627  1.00  0.00    +0.000 C 
ATOM    116  H25 UNL A   1      35.332  23.967  22.863  1.00  0.00    +0.000 H 
ATOM    117  H26 UNL A   1      33.035  25.229  23.178  1.00  0.00    +0.000 H 
ATOM     26  C20 UNL A   1      34.648  23.791  23.614  1.00  0.00    +0.000 C 
ATOM     27  C21 UNL A   1      33.416  24.481  23.778  1.00  0.00    +0.000 C 
ATOM     28  C22 UNL A   1      32.841  23.948  24.899  1.00  0.00    +0.000 C 
BRANCH   17   18
ATOM     18  C13 UNL A   1      35.941  21.969  24.810  1.00  0.00    +0.000 C 
ATOM     19  O3  UNL A   1      35.971  20.806  24.411  1.00  0.00    +0.000 O 
BRANCH   18   20
ATOM    111  H20 UNL A   1      38.158  20.600  25.309  1.00  0.00    +0.000 H 
ATOM    112  H21 UNL A   1      40.190  21.351  26.405  1.00  0.00    +0.000 H 
ATOM    113  H22 UNL A   1      40.357  23.631  27.215  1.00  0.00    +0.000 H 
ATOM    114  H23 UNL A   1      38.483  25.152  26.976  1.00  0.00    +0.000 H 
ATOM    115  H24 UNL A   1      36.435  24.399  25.903  1.00  0.00    +0.000 H 
ATOM     20  C14 UNL A   1      37.163  22.457  25.484  1.00  0.00    +0.000 C 
ATOM     21  C15 UNL A   1      38.232  21.570  25.652  1.00  0.00    +0.000 C 
ATOM     22  C16 UNL A   1      39.397  22.000  26.286  1.00  0.00    +0.000 C 
ATOM     23  C17 UNL A   1      39.490  23.310  26.759  1.00  0.00    +0.000 C 
ATOM     24  C18 UNL A   1      38.413  24.187  26.617  1.00  0.00    +0.000 C 
ATOM     25  C19 UNL A   1      37.240  23.759  25.991  1.00  0.00    +0.000 C 
ENDBRANCH   18   20
ENDBRANCH   17   18
ENDBRANCH   11   13
ENDBRANCH   10   11
ENDBRANCH    9   10
ENDBRANCH    8    9
ENDBRANCH    7    8
ENDBRANCH    6    7
ENDBRANCH    5    6
ENDBRANCH    4    5
ENDBRANCH    3    4
ENDBRANCH    2    3
ENDBRANCH   29    2
ENDBRANCH   33   32
BRANCH   37   38
ATOM     38  C31 UNL A   1      42.634  26.977  27.632  1.00  0.00    +0.000 C 
ATOM     39  C32 UNL A   1      43.393  27.548  26.602  1.00  0.00    +0.000 C 
ATOM     40  F1  UNL A   1      43.652  28.865  26.605  1.00  0.00    +0.000 F 
ATOM     41  C33 UNL A   1      43.881  26.769  25.555  1.00  0.00    +0.000 C 
ATOM     42  F2  UNL A   1      44.587  27.340  24.569  1.00  0.00    +0.000 F 
ATOM     43  C34 UNL A   1      43.637  25.404  25.530  1.00  0.00    +0.000 C 
ATOM     44  F3  UNL A   1      44.123  24.653  24.532  1.00  0.00    +0.000 F 
ATOM     45  C35 UNL A   1      42.891  24.817  26.540  1.00  0.00    +0.000 C 
ATOM     46  F4  UNL A   1      42.666  23.495  26.524  1.00  0.00    +0.000 F 
ATOM     47  C36 UNL A   1      42.385  25.597  27.577  1.00  0.00    +0.000 C 
ATOM     48  F5  UNL A   1      41.669  24.999  28.542  1.00  0.00    +0.000 F 
ENDBRANCH   37   38
BRANCH   54   55
ATOM     65  F10 UNL A   1      46.156  30.814  33.266  1.00  0.00    +0.000 F 
ATOM     55  C42 UNL A   1      45.183  28.812  34.109  1.00  0.00    +0.000 C 
ATOM     56  C43 UNL A   1      45.329  27.689  34.936  1.00  0.00    +0.000 C 
ATOM     57  F6  UNL A   1      44.331  26.797  35.044  1.00  0.00    +0.000 F 
ATOM     58  C44 UNL A   1      46.483  27.502  35.691  1.00  0.00    +0.000 C 
ATOM     59  F7  UNL A   1      46.580  26.448  36.513  1.00  0.00    +0.000 F 
ATOM     60  C45 UNL A   1      47.524  28.415  35.607  1.00  0.00    +0.000 C 
ATOM     61  F8  UNL A   1      48.635  28.231  36.334  1.00  0.00    +0.000 F 
ATOM     62  C46 UNL A   1      47.409  29.522  34.780  1.00  0.00    +0.000 C 
ATOM     63  F9  UNL A   1      48.418  30.399  34.691  1.00  0.00    +0.000 F 
ATOM     64  C47 UNL A   1      46.246  29.726  34.045  1.00  0.00    +0.000 C 
ENDBRANCH   54   55
BRANCH   69   70
ATOM     70  C51 UNL A   1      39.216  32.109  35.495  1.00  0.00    +0.000 C 
ATOM     71  C52 UNL A   1      38.433  31.454  36.454  1.00  0.00    +0.000 C 
ATOM     72  F11 UNL A   1      38.127  30.158  36.297  1.00  0.00    +0.000 F 
ATOM     73  C53 UNL A   1      37.930  32.138  37.558  1.00  0.00    +0.000 C 
ATOM     74  F12 UNL A   1      37.145  31.500  38.438  1.00  0.00    +0.000 F 
ATOM     75  C54 UNL A   1      38.226  33.480  37.741  1.00  0.00    +0.000 C 
ATOM     76  F13 UNL A   1      37.745  34.136  38.806  1.00  0.00    +0.000 F 
ATOM     77  C55 UNL A   1      39.015  34.144  36.815  1.00  0.00    +0.000 C 
ATOM     78  F14 UNL A   1      39.318  35.438  36.995  1.00  0.00    +0.000 F 
ATOM     79  C56 UNL A   1      39.493  33.470  35.695  1.00  0.00    +0.000 C 
ATOM     80  F15 UNL A   1      40.244  34.140  34.808  1.00  0.00    +0.000 F 
ENDBRANCH   69   70
TORSDOF 17
ENDMDL
MODEL 9
REMARK VINA RESULT:     -10.8     20.740     28.397
ROOT
ATOM    129  H38 UNL A   1      44.335   8.842  48.073  1.00  0.00    +0.000 H 
ATOM     33  C27 UNL A   1      46.316  10.891  47.879  1.00  0.00    +0.000 C 
ATOM     34  C28 UNL A   1      46.234   9.780  48.885  1.00  0.00    +0.000 C 
ATOM     35  N4  UNL A   1      47.046   9.506  49.874  1.00  0.00    +0.000 N 
ATOM     36  C29 UNL A   1      46.509   8.397  50.513  1.00  0.00    +0.000 C 
ATOM     37  C30 UNL A   1      46.999   7.728  51.584  1.00  0.00    +0.000 C 
ATOM     49  C37 UNL A   1      48.224   8.064  52.263  1.00  0.00    +0.000 C 
ATOM     50  C38 UNL A   1      48.833   7.408  53.320  1.00  0.00    +0.000 C 
ATOM     51  C39 UNL A   1      49.977   8.127  53.683  1.00  0.00    +0.000 C 
ATOM     52  C40 UNL A   1      50.106   9.205  52.823  1.00  0.00    +0.000 C 
ATOM     53  N5  UNL A   1      49.026   9.154  51.957  1.00  0.00    +0.000 N 
ATOM     54  C41 UNL A   1      51.136  10.212  52.799  1.00  0.00    +0.000 C 
ATOM     66  C48 UNL A   1      51.224  11.214  51.892  1.00  0.00    +0.000 C 
ATOM     67  N6  UNL A   1      50.378  11.508  50.833  1.00  0.00    +0.000 N 
ATOM     68  C49 UNL A   1      50.867  12.588  50.273  1.00  0.00    +0.000 C 
ATOM     69  C50 UNL A   1      50.362  13.345  49.081  1.00  0.00    +0.000 C 
ATOM     81  C57 UNL A   1      49.247  12.917  48.462  1.00  0.00    +0.000 C 
ATOM     82  C58 UNL A   1      48.633  13.552  47.303  1.00  0.00    +0.000 C 
ATOM     83  C59 UNL A   1      47.498  12.906  47.003  1.00  0.00    +0.000 C 
ATOM     84  C60 UNL A   1      47.334  11.773  47.918  1.00  0.00    +0.000 C 
ATOM     85  N7  UNL A   1      48.424  11.854  48.746  1.00  0.00    +0.000 N 
ATOM     86  C61 UNL A   1      52.076  13.109  50.923  1.00  0.00    +0.000 C 
ATOM     87  C62 UNL A   1      52.272  12.215  51.881  1.00  0.00    +0.000 C 
ATOM     88  C63 UNL A   1      45.291   8.055  49.811  1.00  0.00    +0.000 C 
ATOM     89  C64 UNL A   1      45.092   8.859  48.774  1.00  0.00    +0.000 C 
ATOM    120  H29 UNL A   1      48.500   6.537  53.764  1.00  0.00    +0.000 H 
ATOM    121  H30 UNL A   1      50.615   7.893  54.459  1.00  0.00    +0.000 H 
ATOM    122  H31 UNL A   1      48.853   9.797  51.232  1.00  0.00    +0.000 H 
ATOM    123  H32 UNL A   1      49.012  14.368  46.795  1.00  0.00    +0.000 H 
ATOM    124  H33 UNL A   1      46.843  13.166  46.250  1.00  0.00    +0.000 H 
ATOM    125  H34 UNL A   1      48.598  11.214  49.473  1.00  0.00    +0.000 H 
ATOM    126  H35 UNL A   1      52.628  13.951  50.693  1.00  0.00    +0.000 H 
ATOM    127  H36 UNL A   1      53.070  12.228  52.536  1.00  0.00    +0.000 H 
ATOM    128  H37 UNL A   1      44.658   7.284  50.081  1.00  0.00    +0.000 H 
ENDROOT
BRANCH   33   32
ATOM    130  H39 UNL A   1      44.045  12.379  47.871  1.00  0.00    +0.000 H 
ATOM    131  H40 UNL A   1      42.466  12.687  46.051  1.00  0.00    +0.000 H 
ATOM    118  H27 UNL A   1      44.851  10.255  43.578  1.00  0.00    +0.000 H 
ATOM    119  H28 UNL A   1      46.291   9.753  45.460  1.00  0.00    +0.000 H 
ATOM     90  C65 UNL A   1      44.193  11.894  46.972  1.00  0.00    +0.000 C 
ATOM     91  C66 UNL A   1      43.292  12.083  45.921  1.00  0.00    +0.000 C 
ATOM     29  C23 UNL A   1      43.514  11.452  44.694  1.00  0.00    +0.000 C 
ATOM     30  C24 UNL A   1      44.649  10.657  44.507  1.00  0.00    +0.000 C 
ATOM     31  C25 UNL A   1      45.503  10.409  45.575  1.00  0.00    +0.000 C 
ATOM     32  C26 UNL A   1      45.298  11.045  46.810  1.00  0.00    +0.000 C 
BRANCH   29    2
ATOM      1  O1  UNL A   1      41.878  10.719  43.182  1.00  0.00    +0.000 O 
ATOM      2  C1  UNL A   1      42.551  11.659  43.591  1.00  0.00    +0.000 C 
BRANCH    2    3
ATOM      3  N1  UNL A   1      42.425  12.904  43.025  1.00  0.00    +0.000 N 
ATOM     92  H1  UNL A   1      42.998  13.078  42.242  1.00  0.00    +0.000 H 
BRANCH    3    4
ATOM      4  C2  UNL A   1      41.558  13.999  43.427  1.00  0.00    +0.000 C 
ATOM     93  H2  UNL A   1      41.878  14.356  44.384  1.00  0.00    +0.000 H 
ATOM     94  H3  UNL A   1      40.556  13.627  43.463  1.00  0.00    +0.000 H 
BRANCH    4    5
ATOM      5  C3  UNL A   1      41.593  15.155  42.437  1.00  0.00    +0.000 C 
ATOM     95  H4  UNL A   1      42.196  15.933  42.853  1.00  0.00    +0.000 H 
ATOM     96  H5  UNL A   1      40.577  15.450  42.279  1.00  0.00    +0.000 H 
BRANCH    5    6
ATOM     97  H6  UNL A   1      41.439  14.188  40.556  1.00  0.00    +0.000 H 
ATOM     98  H7  UNL A   1      43.088  14.297  41.244  1.00  0.00    +0.000 H 
ATOM      6  C4  UNL A   1      42.159  14.796  41.062  1.00  0.00    +0.000 C 
BRANCH    6    7
ATOM     99  H8  UNL A   1      42.767  16.812  40.788  1.00  0.00    +0.000 H 
ATOM    100  H9  UNL A   1      41.608  16.174  39.580  1.00  0.00    +0.000 H 
ATOM      7  C5  UNL A   1      42.488  15.991  40.160  1.00  0.00    +0.000 C 
BRANCH    7    8
ATOM    101  H10 UNL A   1      43.362  16.260  38.237  1.00  0.00    +0.000 H 
ATOM    102  H11 UNL A   1      43.717  14.703  39.030  1.00  0.00    +0.000 H 
ATOM      8  C6  UNL A   1      43.620  15.762  39.149  1.00  0.00    +0.000 C 
BRANCH    8    9
ATOM      9  C7  UNL A   1      44.985  16.279  39.605  1.00  0.00    +0.000 C 
ATOM    103  H12 UNL A   1      45.612  16.412  38.748  1.00  0.00    +0.000 H 
ATOM    104  H13 UNL A   1      45.413  15.564  40.276  1.00  0.00    +0.000 H 
BRANCH    9   10
ATOM    105  H14 UNL A   1      44.301  18.215  39.846  1.00  0.00    +0.000 H 
ATOM     10  N2  UNL A   1      44.859  17.543  40.299  1.00  0.00    +0.000 N 
BRANCH   10   11
ATOM     11  C8  UNL A   1      45.397  17.941  41.491  1.00  0.00    +0.000 C 
ATOM     12  O2  UNL A   1      46.568  18.318  41.477  1.00  0.00    +0.000 O 
BRANCH   11   13
ATOM    106  H15 UNL A   1      43.535  17.866  42.337  1.00  0.00    +0.000 H 
ATOM    107  H16 UNL A   1      44.084  19.829  43.574  1.00  0.00    +0.000 H 
ATOM    108  H17 UNL A   1      45.769  19.468  43.565  1.00  0.00    +0.000 H 
ATOM     13  C9  UNL A   1      44.525  17.875  42.744  1.00  0.00    +0.000 C 
ATOM     14  C10 UNL A   1      44.799  19.045  43.722  1.00  0.00    +0.000 C 
ATOM     15  C11 UNL A   1      44.662  18.459  45.135  1.00  0.00    +0.000 C 
ATOM     16  N3  UNL A   1      44.875  17.038  44.928  1.00  0.00    +0.000 N 
ATOM    109  H18 UNL A   1      43.688  18.646  45.535  1.00  0.00    +0.000 H 
ATOM    110  H19 UNL A   1      45.348  18.889  45.835  1.00  0.00    +0.000 H 
ATOM     17  C12 UNL A   1      45.178  15.968  45.715  1.00  0.00    +0.000 C 
ATOM    116  H25 UNL A   1      45.566  13.936  45.082  1.00  0.00    +0.000 H 
ATOM    117  H26 UNL A   1      45.112  14.799  42.629  1.00  0.00    +0.000 H 
ATOM     26  C20 UNL A   1      45.324  14.904  44.820  1.00  0.00    +0.000 C 
ATOM     27  C21 UNL A   1      45.088  15.360  43.495  1.00  0.00    +0.000 C 
ATOM     28  C22 UNL A   1      44.822  16.696  43.606  1.00  0.00    +0.000 C 
BRANCH   17   18
ATOM     18  C13 UNL A   1      45.384  15.895  47.153  1.00  0.00    +0.000 C 
ATOM     19  O3  UNL A   1      46.374  16.364  47.711  1.00  0.00    +0.000 O 
BRANCH   18   20
ATOM    111  H20 UNL A   1      42.749  15.883  46.844  1.00  0.00    +0.000 H 
ATOM    112  H21 UNL A   1      41.062  14.849  48.250  1.00  0.00    +0.000 H 
ATOM    113  H22 UNL A   1      41.724  13.638  50.245  1.00  0.00    +0.000 H 
ATOM    114  H23 UNL A   1      44.064  13.496  50.866  1.00  0.00    +0.000 H 
ATOM    115  H24 UNL A   1      45.758  14.552  49.477  1.00  0.00    +0.000 H 
ATOM     20  C14 UNL A   1      44.382  15.255  48.032  1.00  0.00    +0.000 C 
ATOM     21  C15 UNL A   1      43.029  15.366  47.691  1.00  0.00    +0.000 C 
ATOM     22  C16 UNL A   1      42.059  14.776  48.502  1.00  0.00    +0.000 C 
ATOM     23  C17 UNL A   1      42.440  14.086  49.653  1.00  0.00    +0.000 C 
ATOM     24  C18 UNL A   1      43.788  14.000  50.009  1.00  0.00    +0.000 C 
ATOM     25  C19 UNL A   1      44.762  14.597  49.207  1.00  0.00    +0.000 C 
ENDBRANCH   18   20
ENDBRANCH   17   18
ENDBRANCH   11   13
ENDBRANCH   10   11
ENDBRANCH    9   10
ENDBRANCH    8    9
ENDBRANCH    7    8
ENDBRANCH    6    7
ENDBRANCH    5    6
ENDBRANCH    4    5
ENDBRANCH    3    4
ENDBRANCH    2    3
ENDBRANCH   29    2
ENDBRANCH   33   32
BRANCH   37   38
ATOM     38  C31 UNL A   1      46.212   6.563  52.108  1.00  0.00    +0.000 C 
ATOM     39  C32 UNL A   1      45.048   6.742  52.867  1.00  0.00    +0.000 C 
ATOM     40  F1  UNL A   1      44.660   7.976  53.226  1.00  0.00    +0.000 F 
ATOM     41  C33 UNL A   1      44.281   5.652  53.271  1.00  0.00    +0.000 C 
ATOM     42  F2  UNL A   1      43.181   5.846  54.014  1.00  0.00    +0.000 F 
ATOM     43  C34 UNL A   1      44.651   4.366  52.907  1.00  0.00    +0.000 C 
ATOM     44  F3  UNL A   1      43.901   3.320  53.281  1.00  0.00    +0.000 F 
ATOM     45  C35 UNL A   1      45.798   4.165  52.155  1.00  0.00    +0.000 C 
ATOM     46  F4  UNL A   1      46.150   2.923  51.791  1.00  0.00    +0.000 F 
ATOM     47  C36 UNL A   1      46.578   5.251  51.767  1.00  0.00    +0.000 C 
ATOM     48  F5  UNL A   1      47.680   5.025  51.036  1.00  0.00    +0.000 F 
ENDBRANCH   37   38
BRANCH   54   55
ATOM     65  F10 UNL A   1      50.929  11.489  55.331  1.00  0.00    +0.000 F 
ATOM     55  C42 UNL A   1      52.210  10.145  53.842  1.00  0.00    +0.000 C 
ATOM     56  C43 UNL A   1      53.404   9.444  53.618  1.00  0.00    +0.000 C 
ATOM     57  F6  UNL A   1      53.592   8.784  52.465  1.00  0.00    +0.000 F 
ATOM     58  C44 UNL A   1      54.390   9.382  54.597  1.00  0.00    +0.000 C 
ATOM     59  F7  UNL A   1      55.502   8.665  54.381  1.00  0.00    +0.000 F 
ATOM     60  C45 UNL A   1      54.216  10.046  55.803  1.00  0.00    +0.000 C 
ATOM     61  F8  UNL A   1      55.168   9.986  56.744  1.00  0.00    +0.000 F 
ATOM     62  C46 UNL A   1      53.052  10.762  56.037  1.00  0.00    +0.000 C 
ATOM     63  F9  UNL A   1      52.887  11.410  57.198  1.00  0.00    +0.000 F 
ATOM     64  C47 UNL A   1      52.052  10.803  55.071  1.00  0.00    +0.000 C 
ENDBRANCH   54   55
BRANCH   69   70
ATOM     70  C51 UNL A   1      51.060  14.560  48.589  1.00  0.00    +0.000 C 
ATOM     71  C52 UNL A   1      52.133  14.465  47.694  1.00  0.00    +0.000 C 
ATOM     72  F11 UNL A   1      52.558  13.260  47.283  1.00  0.00    +0.000 F 
ATOM     73  C53 UNL A   1      52.798  15.604  47.247  1.00  0.00    +0.000 C 
ATOM     74  F12 UNL A   1      53.851  15.483  46.426  1.00  0.00    +0.000 F 
ATOM     75  C54 UNL A   1      52.383  16.861  47.661  1.00  0.00    +0.000 C 
ATOM     76  F13 UNL A   1      53.021  17.956  47.227  1.00  0.00    +0.000 F 
ATOM     77  C55 UNL A   1      51.311  16.980  48.531  1.00  0.00    +0.000 C 
ATOM     78  F14 UNL A   1      50.895  18.194  48.922  1.00  0.00    +0.000 F 
ATOM     79  C56 UNL A   1      50.665  15.842  49.003  1.00  0.00    +0.000 C 
ATOM     80  F15 UNL A   1      49.638  15.985  49.854  1.00  0.00    +0.000 F 
ENDBRANCH   69   70
TORSDOF 17
ENDMDL
MODEL 10
REMARK VINA RESULT:     -10.8     16.846     22.673
ROOT
ATOM    129  H38 UNL A   1      23.513  36.605  48.849  1.00  0.00    +0.000 H 
ATOM     33  C27 UNL A   1      25.879  38.188  48.629  1.00  0.00    +0.000 C 
ATOM     34  C28 UNL A   1      25.539  36.931  47.884  1.00  0.00    +0.000 C 
ATOM     35  N4  UNL A   1      26.240  36.299  46.977  1.00  0.00    +0.000 N 
ATOM     36  C29 UNL A   1      25.491  35.185  46.624  1.00  0.00    +0.000 C 
ATOM     37  C30 UNL A   1      25.786  34.231  45.708  1.00  0.00    +0.000 C 
ATOM     49  C37 UNL A   1      26.978  34.222  44.899  1.00  0.00    +0.000 C 
ATOM     50  C38 UNL A   1      27.338  33.331  43.902  1.00  0.00    +0.000 C 
ATOM     51  C39 UNL A   1      28.606  33.686  43.431  1.00  0.00    +0.000 C 
ATOM     52  C40 UNL A   1      29.019  34.825  44.103  1.00  0.00    +0.000 C 
ATOM     53  N5  UNL A   1      28.011  35.143  45.000  1.00  0.00    +0.000 N 
ATOM     54  C41 UNL A   1      30.244  35.563  43.944  1.00  0.00    +0.000 C 
ATOM     66  C48 UNL A   1      30.559  36.703  44.606  1.00  0.00    +0.000 C 
ATOM     67  N6  UNL A   1      29.822  37.389  45.560  1.00  0.00    +0.000 N 
ATOM     68  C49 UNL A   1      30.565  38.406  45.922  1.00  0.00    +0.000 C 
ATOM     69  C50 UNL A   1      30.265  39.486  46.919  1.00  0.00    +0.000 C 
ATOM     81  C57 UNL A   1      29.092  39.457  47.578  1.00  0.00    +0.000 C 
ATOM     82  C58 UNL A   1      28.666  40.428  48.578  1.00  0.00    +0.000 C 
ATOM     83  C59 UNL A   1      27.485  40.045  49.080  1.00  0.00    +0.000 C 
ATOM     84  C60 UNL A   1      27.042  38.828  48.394  1.00  0.00    +0.000 C 
ATOM     85  N7  UNL A   1      28.057  38.556  47.514  1.00  0.00    +0.000 N 
ATOM     86  C61 UNL A   1      31.866  38.474  45.246  1.00  0.00    +0.000 C 
ATOM     87  C62 UNL A   1      31.797  37.435  44.427  1.00  0.00    +0.000 C 
ATOM     88  C63 UNL A   1      24.286  35.216  47.425  1.00  0.00    +0.000 C 
ATOM     89  C64 UNL A   1      24.251  36.294  48.198  1.00  0.00    +0.000 C 
ATOM    120  H29 UNL A   1      26.767  32.540  43.563  1.00  0.00    +0.000 H 
ATOM    121  H30 UNL A   1      29.142  33.185  42.706  1.00  0.00    +0.000 H 
ATOM    122  H31 UNL A   1      28.026  35.910  45.617  1.00  0.00    +0.000 H 
ATOM    123  H32 UNL A   1      29.190  41.274  48.854  1.00  0.00    +0.000 H 
ATOM    124  H33 UNL A   1      26.969  40.528  49.832  1.00  0.00    +0.000 H 
ATOM    125  H34 UNL A   1      28.046  37.788  46.897  1.00  0.00    +0.000 H 
ATOM    126  H35 UNL A   1      32.632  39.155  45.374  1.00  0.00    +0.000 H 
ATOM    127  H36 UNL A   1      32.531  37.178  43.749  1.00  0.00    +0.000 H 
ATOM    128  H37 UNL A   1      23.549  34.492  47.400  1.00  0.00    +0.000 H 
ENDROOT
BRANCH   33   32
ATOM    130  H39 UNL A   1      23.625  39.649  48.232  1.00  0.00    +0.000 H 
ATOM    131  H40 UNL A   1      22.074  40.488  49.903  1.00  0.00    +0.000 H 
ATOM    118  H27 UNL A   1      24.359  38.665  52.931  1.00  0.00    +0.000 H 
ATOM    119  H28 UNL A   1      26.030  38.039  51.294  1.00  0.00    +0.000 H 
ATOM     90  C65 UNL A   1      23.803  39.476  49.234  1.00  0.00    +0.000 C 
ATOM     91  C66 UNL A   1      22.903  39.947  50.193  1.00  0.00    +0.000 C 
ATOM     29  C23 UNL A   1      23.129  39.683  51.547  1.00  0.00    +0.000 C 
ATOM     30  C24 UNL A   1      24.236  38.925  51.940  1.00  0.00    +0.000 C 
ATOM     31  C25 UNL A   1      25.170  38.523  50.993  1.00  0.00    +0.000 C 
ATOM     32  C26 UNL A   1      24.951  38.772  49.628  1.00  0.00    +0.000 C 
BRANCH   29    2
ATOM      1  O1  UNL A   1      21.761  41.344  52.480  1.00  0.00    +0.000 O 
ATOM      2  C1  UNL A   1      22.169  40.188  52.552  1.00  0.00    +0.000 C 
BRANCH    2    3
ATOM      3  N1  UNL A   1      21.749  39.362  53.565  1.00  0.00    +0.000 N 
ATOM     92  H1  UNL A   1      21.989  39.649  54.477  1.00  0.00    +0.000 H 
BRANCH    3    4
ATOM      4  C2  UNL A   1      20.996  38.123  53.471  1.00  0.00    +0.000 C 
ATOM     93  H2  UNL A   1      20.633  38.018  52.469  1.00  0.00    +0.000 H 
ATOM     94  H3  UNL A   1      20.192  38.173  54.174  1.00  0.00    +0.000 H 
BRANCH    4    5
ATOM      5  C3  UNL A   1      21.844  36.907  53.815  1.00  0.00    +0.000 C 
ATOM     95  H4  UNL A   1      21.487  36.501  54.738  1.00  0.00    +0.000 H 
ATOM     96  H5  UNL A   1      22.857  37.248  53.871  1.00  0.00    +0.000 H 
BRANCH    5    6
ATOM     97  H6  UNL A   1      20.927  35.223  52.910  1.00  0.00    +0.000 H 
ATOM     98  H7  UNL A   1      22.717  35.234  52.902  1.00  0.00    +0.000 H 
ATOM      6  C4  UNL A   1      21.818  35.797  52.763  1.00  0.00    +0.000 C 
BRANCH    6    7
ATOM     99  H8  UNL A   1      22.547  35.681  50.772  1.00  0.00    +0.000 H 
ATOM    100  H9  UNL A   1      22.092  37.317  51.345  1.00  0.00    +0.000 H 
ATOM      7  C5  UNL A   1      21.838  36.278  51.308  1.00  0.00    +0.000 C 
BRANCH    7    8
ATOM    101  H10 UNL A   1      19.716  36.108  51.297  1.00  0.00    +0.000 H 
ATOM    102  H11 UNL A   1      20.554  35.350  49.917  1.00  0.00    +0.000 H 
ATOM      8  C6  UNL A   1      20.495  36.197  50.569  1.00  0.00    +0.000 C 
BRANCH    8    9
ATOM      9  C7  UNL A   1      20.188  37.407  49.687  1.00  0.00    +0.000 C 
ATOM    103  H12 UNL A   1      20.475  38.299  50.205  1.00  0.00    +0.000 H 
ATOM    104  H13 UNL A   1      19.140  37.417  49.475  1.00  0.00    +0.000 H 
BRANCH    9   10
ATOM    105  H14 UNL A   1      21.889  37.376  48.512  1.00  0.00    +0.000 H 
ATOM     10  N2  UNL A   1      20.910  37.336  48.433  1.00  0.00    +0.000 N 
BRANCH   10   11
ATOM     11  C8  UNL A   1      20.433  37.219  47.158  1.00  0.00    +0.000 C 
ATOM     12  O2  UNL A   1      19.575  38.028  46.806  1.00  0.00    +0.000 O 
BRANCH   11   13
ATOM    106  H15 UNL A   1      22.034  36.175  46.426  1.00  0.00    +0.000 H 
ATOM    107  H16 UNL A   1      21.303  36.715  44.223  1.00  0.00    +0.000 H 
ATOM    108  H17 UNL A   1      19.652  36.832  44.706  1.00  0.00    +0.000 H 
ATOM     13  C9  UNL A   1      20.977  36.097  46.275  1.00  0.00    +0.000 C 
ATOM     14  C10 UNL A   1      20.536  36.235  44.796  1.00  0.00    +0.000 C 
ATOM     15  C11 UNL A   1      20.304  34.805  44.286  1.00  0.00    +0.000 C 
ATOM     16  N3  UNL A   1      20.077  34.050  45.505  1.00  0.00    +0.000 N 
ATOM    109  H18 UNL A   1      21.163  34.440  43.764  1.00  0.00    +0.000 H 
ATOM    110  H19 UNL A   1      19.492  34.734  43.592  1.00  0.00    +0.000 H 
ATOM     17  C12 UNL A   1      19.545  32.837  45.821  1.00  0.00    +0.000 C 
ATOM    116  H25 UNL A   1      19.221  32.014  47.795  1.00  0.00    +0.000 H 
ATOM    117  H26 UNL A   1      20.286  34.249  48.710  1.00  0.00    +0.000 H 
ATOM     26  C20 UNL A   1      19.564  32.797  47.218  1.00  0.00    +0.000 C 
ATOM     27  C21 UNL A   1      20.131  33.999  47.721  1.00  0.00    +0.000 C 
ATOM     28  C22 UNL A   1      20.427  34.756  46.621  1.00  0.00    +0.000 C 
BRANCH   17   18
ATOM     18  C13 UNL A   1      19.000  31.802  44.956  1.00  0.00    +0.000 C 
ATOM     19  O3  UNL A   1      19.402  30.640  44.969  1.00  0.00    +0.000 O 
BRANCH   18   20
ATOM    111  H20 UNL A   1      18.941  31.310  42.350  1.00  0.00    +0.000 H 
ATOM    112  H21 UNL A   1      17.168  31.776  40.758  1.00  0.00    +0.000 H 
ATOM    113  H22 UNL A   1      15.118  32.838  41.504  1.00  0.00    +0.000 H 
ATOM    114  H23 UNL A   1      14.853  33.482  43.828  1.00  0.00    +0.000 H 
ATOM    115  H24 UNL A   1      16.636  33.043  45.423  1.00  0.00    +0.000 H 
ATOM     20  C14 UNL A   1      17.901  32.101  44.013  1.00  0.00    +0.000 C 
ATOM     21  C15 UNL A   1      18.068  31.760  42.666  1.00  0.00    +0.000 C 
ATOM     22  C16 UNL A   1      17.051  32.032  41.751  1.00  0.00    +0.000 C 
ATOM     23  C17 UNL A   1      15.876  32.650  42.179  1.00  0.00    +0.000 C 
ATOM     24  C18 UNL A   1      15.721  33.017  43.517  1.00  0.00    +0.000 C 
ATOM     25  C19 UNL A   1      16.739  32.756  44.437  1.00  0.00    +0.000 C 
ENDBRANCH   18   20
ENDBRANCH   17   18
ENDBRANCH   11   13
ENDBRANCH   10   11
ENDBRANCH    9   10
ENDBRANCH    8    9
ENDBRANCH    7    8
ENDBRANCH    6    7
ENDBRANCH    5    6
ENDBRANCH    4    5
ENDBRANCH    3    4
ENDBRANCH    2    3
ENDBRANCH   29    2
ENDBRANCH   33   32
BRANCH   37   38
ATOM     38  C31 UNL A   1      24.814  33.103  45.525  1.00  0.00    +0.000 C 
ATOM     39  C32 UNL A   1      23.760  33.182  44.604  1.00  0.00    +0.000 C 
ATOM     40  F1  UNL A   1      23.539  34.320  43.928  1.00  0.00    +0.000 F 
ATOM     41  C33 UNL A   1      22.921  32.093  44.382  1.00  0.00    +0.000 C 
ATOM     42  F2  UNL A   1      21.906  32.197  43.512  1.00  0.00    +0.000 F 
ATOM     43  C34 UNL A   1      23.132  30.901  45.059  1.00  0.00    +0.000 C 
ATOM     44  F3  UNL A   1      22.333  29.848  44.831  1.00  0.00    +0.000 F 
ATOM     45  C35 UNL A   1      24.169  30.800  45.973  1.00  0.00    +0.000 C 
ATOM     46  F4  UNL A   1      24.382  29.644  46.618  1.00  0.00    +0.000 F 
ATOM     47  C36 UNL A   1      24.998  31.893  46.212  1.00  0.00    +0.000 C 
ATOM     48  F5  UNL A   1      25.996  31.763  47.099  1.00  0.00    +0.000 F 
ENDBRANCH   37   38
BRANCH   54   55
ATOM     65  F10 UNL A   1      32.116  33.512  44.554  1.00  0.00    +0.000 F 
ATOM     55  C42 UNL A   1      31.251  35.052  42.959  1.00  0.00    +0.000 C 
ATOM     56  C43 UNL A   1      31.334  35.574  41.660  1.00  0.00    +0.000 C 
ATOM     57  F6  UNL A   1      30.479  36.529  41.262  1.00  0.00    +0.000 F 
ATOM     58  C44 UNL A   1      32.268  35.085  40.752  1.00  0.00    +0.000 C 
ATOM     59  F7  UNL A   1      32.296  35.564  39.500  1.00  0.00    +0.000 F 
ATOM     60  C45 UNL A   1      33.155  34.089  41.134  1.00  0.00    +0.000 C 
ATOM     61  F8  UNL A   1      34.054  33.621  40.258  1.00  0.00    +0.000 F 
ATOM     62  C46 UNL A   1      33.104  33.573  42.420  1.00  0.00    +0.000 C 
ATOM     63  F9  UNL A   1      33.967  32.619  42.793  1.00  0.00    +0.000 F 
ATOM     64  C47 UNL A   1      32.154  34.041  43.322  1.00  0.00    +0.000 C 
ENDBRANCH   54   55
BRANCH   69   70
ATOM     70  C51 UNL A   1      31.242  40.569  47.198  1.00  0.00    +0.000 C 
ATOM     71  C52 UNL A   1      31.142  41.814  46.565  1.00  0.00    +0.000 C 
ATOM     72  F11 UNL A   1      30.163  42.037  45.676  1.00  0.00    +0.000 F 
ATOM     73  C53 UNL A   1      32.070  42.822  46.814  1.00  0.00    +0.000 C 
ATOM     74  F12 UNL A   1      31.979  43.989  46.161  1.00  0.00    +0.000 F 
ATOM     75  C54 UNL A   1      33.096  42.616  47.724  1.00  0.00    +0.000 C 
ATOM     76  F13 UNL A   1      33.985  43.588  47.966  1.00  0.00    +0.000 F 
ATOM     77  C55 UNL A   1      33.203  41.398  48.377  1.00  0.00    +0.000 C 
ATOM     78  F14 UNL A   1      34.183  41.199  49.270  1.00  0.00    +0.000 F 
ATOM     79  C56 UNL A   1      32.295  40.379  48.106  1.00  0.00    +0.000 C 
ATOM     80  F15 UNL A   1      32.429  39.206  48.743  1.00  0.00    +0.000 F 
ENDBRANCH   69   70
TORSDOF 17
ENDMDL
