MODEL 1
REMARK VINA RESULT:      -5.8      0.000      0.000
ROOT
ATOM    149  H47 UNL A   1      18.741  34.031  47.717  1.00  0.00    +0.000 H 
ATOM    150  H48 UNL A   1      16.948  35.428  48.996  1.00  0.00    +0.000 H 
ATOM    151  H49 UNL A   1      20.283  37.813  48.414  1.00  0.00    +0.000 H 
ATOM    152  H50 UNL A   1      23.288  43.388  49.261  1.00  0.00    +0.000 H 
ATOM    153  H51 UNL A   1      25.033  42.024  48.013  1.00  0.00    +0.000 H 
ATOM    154  H52 UNL A   1      21.684  39.620  48.551  1.00  0.00    +0.000 H 
ATOM    155  H53 UNL A   1      18.307  42.441  50.964  1.00  0.00    +0.000 H 
ATOM    156  H54 UNL A   1      16.827  40.354  51.056  1.00  0.00    +0.000 H 
ATOM    157  H55 UNL A   1      23.633  35.157  45.813  1.00  0.00    +0.000 H 
ATOM    158  H56 UNL A   1      25.325  37.048  46.157  1.00  0.00    +0.000 H 
ATOM     44  C33 UNL A   1      24.223  39.356  47.413  1.00  0.00    +0.000 C 
ATOM     45  C34 UNL A   1      23.551  38.035  47.170  1.00  0.00    +0.000 C 
ATOM     46  N6  UNL A   1      22.336  37.653  47.477  1.00  0.00    +0.000 N 
ATOM     47  C35 UNL A   1      22.216  36.356  46.996  1.00  0.00    +0.000 C 
ATOM     48  C36 UNL A   1      21.173  35.501  47.125  1.00  0.00    +0.000 C 
ATOM     60  C43 UNL A   1      19.949  35.817  47.810  1.00  0.00    +0.000 C 
ATOM     61  C44 UNL A   1      18.843  35.012  48.022  1.00  0.00    +0.000 C 
ATOM     62  C45 UNL A   1      17.887  35.758  48.719  1.00  0.00    +0.000 C 
ATOM     63  C46 UNL A   1      18.412  37.013  48.976  1.00  0.00    +0.000 C 
ATOM     64  N7  UNL A   1      19.672  37.040  48.403  1.00  0.00    +0.000 N 
ATOM     65  C47 UNL A   1      17.812  38.106  49.695  1.00  0.00    +0.000 C 
ATOM     77  C54 UNL A   1      18.379  39.323  49.883  1.00  0.00    +0.000 C 
ATOM     78  N8  UNL A   1      19.619  39.783  49.463  1.00  0.00    +0.000 N 
ATOM     79  C55 UNL A   1      19.702  41.025  49.876  1.00  0.00    +0.000 C 
ATOM     80  C56 UNL A   1      20.839  42.000  49.732  1.00  0.00    +0.000 C 
ATOM     92  C63 UNL A   1      21.975  41.598  49.132  1.00  0.00    +0.000 C 
ATOM     93  C64 UNL A   1      23.171  42.412  48.944  1.00  0.00    +0.000 C 
ATOM     94  C65 UNL A   1      24.096  41.689  48.291  1.00  0.00    +0.000 C 
ATOM     95  C66 UNL A   1      23.564  40.349  48.038  1.00  0.00    +0.000 C 
ATOM     96  N9  UNL A   1      22.300  40.387  48.570  1.00  0.00    +0.000 N 
ATOM     97  C67 UNL A   1      18.506  41.503  50.581  1.00  0.00    +0.000 C 
ATOM     98  C68 UNL A   1      17.749  40.415  50.596  1.00  0.00    +0.000 C 
ATOM     99  C69 UNL A   1      23.457  36.034  46.328  1.00  0.00    +0.000 C 
ATOM    100  C70 UNL A   1      24.340  37.012  46.465  1.00  0.00    +0.000 C 
ENDROOT
BRANCH   44   43
ATOM    101  C71 UNL A   1      26.692  39.081  47.658  1.00  0.00    +0.000 C 
ATOM    102  C72 UNL A   1      27.995  39.340  47.243  1.00  0.00    +0.000 C 
ATOM     40  C29 UNL A   1      28.220  40.020  46.042  1.00  0.00    +0.000 C 
ATOM     41  C30 UNL A   1      27.146  40.529  45.308  1.00  0.00    +0.000 C 
ATOM     42  C31 UNL A   1      25.842  40.323  45.758  1.00  0.00    +0.000 C 
ATOM     43  C32 UNL A   1      25.605  39.581  46.926  1.00  0.00    +0.000 C 
ATOM    147  H45 UNL A   1      27.317  41.055  44.436  1.00  0.00    +0.000 H 
ATOM    148  H46 UNL A   1      25.049  40.717  45.229  1.00  0.00    +0.000 H 
ATOM    159  H57 UNL A   1      26.526  38.517  48.507  1.00  0.00    +0.000 H 
ATOM    160  H58 UNL A   1      28.794  39.032  47.820  1.00  0.00    +0.000 H 
BRANCH   40   38
ATOM     38  C28 UNL A   1      29.588  40.226  45.523  1.00  0.00    +0.000 C 
ATOM     39  O6  UNL A   1      30.216  39.279  45.061  1.00  0.00    +0.000 O 
BRANCH   38   37
ATOM    146  H44 UNL A   1      30.658  41.757  44.797  1.00  0.00    +0.000 H 
ATOM     37  N5  UNL A   1      30.159  41.471  45.596  1.00  0.00    +0.000 N 
BRANCH   37   36
ATOM    145  H43 UNL A   1      31.053  42.953  46.682  1.00  0.00    +0.000 H 
ATOM     36  C27 UNL A   1      30.125  42.420  46.690  1.00  0.00    +0.000 C 
ATOM    144  H42 UNL A   1      29.984  41.883  47.604  1.00  0.00    +0.000 H 
BRANCH   36   35
ATOM     35  C26 UNL A   1      29.007  43.443  46.547  1.00  0.00    +0.000 C 
ATOM    142  H40 UNL A   1      29.205  44.029  45.674  1.00  0.00    +0.000 H 
ATOM    143  H41 UNL A   1      28.098  42.883  46.490  1.00  0.00    +0.000 H 
BRANCH   35   34
ATOM     34  C25 UNL A   1      28.840  44.401  47.730  1.00  0.00    +0.000 C 
ATOM    140  H38 UNL A   1      27.911  44.916  47.607  1.00  0.00    +0.000 H 
ATOM    141  H39 UNL A   1      28.887  43.790  48.607  1.00  0.00    +0.000 H 
BRANCH   34   33
ATOM     33  C24 UNL A   1      29.942  45.453  47.895  1.00  0.00    +0.000 C 
ATOM    138  H36 UNL A   1      30.868  44.939  48.044  1.00  0.00    +0.000 H 
ATOM    139  H37 UNL A   1      29.916  46.046  47.006  1.00  0.00    +0.000 H 
BRANCH   33   32
ATOM    137  H35 UNL A   1      30.733  46.685  49.405  1.00  0.00    +0.000 H 
ATOM    136  H34 UNL A   1      29.155  45.953  49.804  1.00  0.00    +0.000 H 
ATOM     32  C23 UNL A   1      29.753  46.432  49.058  1.00  0.00    +0.000 C 
BRANCH   32   31
ATOM    135  H33 UNL A   1      29.414  48.018  47.698  1.00  0.00    +0.000 H 
ATOM    134  H32 UNL A   1      29.336  48.489  49.394  1.00  0.00    +0.000 H 
ATOM     31  C22 UNL A   1      29.078  47.740  48.674  1.00  0.00    +0.000 C 
BRANCH   31   30
ATOM    133  H31 UNL A   1      27.219  47.735  47.755  1.00  0.00    +0.000 H 
ATOM     30  N4  UNL A   1      27.639  47.604  48.636  1.00  0.00    +0.000 N 
BRANCH   30   28
ATOM     28  C21 UNL A   1      26.794  47.316  49.663  1.00  0.00    +0.000 C 
ATOM     29  O5  UNL A   1      26.587  48.189  50.510  1.00  0.00    +0.000 O 
BRANCH   28    5
ATOM      5  C5  UNL A   1      26.165  45.917  49.809  1.00  0.00    +0.000 C 
ATOM    112  H10 UNL A   1      26.640  45.301  49.074  1.00  0.00    +0.000 H 
BRANCH    5    4
ATOM      4  C4  UNL A   1      24.683  45.839  49.425  1.00  0.00    +0.000 C 
ATOM    110  H8  UNL A   1      24.441  44.809  49.270  1.00  0.00    +0.000 H 
ATOM    111  H9  UNL A   1      24.155  46.301  50.233  1.00  0.00    +0.000 H 
BRANCH    4    2
ATOM      2  C2  UNL A   1      24.260  46.621  48.155  1.00  0.00    +0.000 C 
ATOM    106  H4  UNL A   1      24.924  47.459  48.116  1.00  0.00    +0.000 H 
BRANCH    2    1
ATOM      1  C1  UNL A   1      24.438  45.881  46.826  1.00  0.00    +0.000 C 
ATOM    105  H3  UNL A   1      25.281  45.226  46.893  1.00  0.00    +0.000 H 
ATOM    103  H1  UNL A   1      24.598  46.591  46.041  1.00  0.00    +0.000 H 
ATOM    104  H2  UNL A   1      23.558  45.310  46.616  1.00  0.00    +0.000 H 
ENDBRANCH    2    1
BRANCH    2    3
ATOM      3  C3  UNL A   1      22.788  47.027  48.280  1.00  0.00    +0.000 C 
ATOM    108  H6  UNL A   1      22.321  46.445  49.048  1.00  0.00    +0.000 H 
ATOM    109  H7  UNL A   1      22.290  46.852  47.349  1.00  0.00    +0.000 H 
ATOM    107  H5  UNL A   1      22.723  48.065  48.531  1.00  0.00    +0.000 H 
ENDBRANCH    2    3
ENDBRANCH    4    2
ENDBRANCH    5    4
BRANCH    5    6
ATOM    113  H11 UNL A   1      27.349  44.935  51.213  1.00  0.00    +0.000 H 
ATOM      6  N1  UNL A   1      26.457  45.344  51.124  1.00  0.00    +0.000 N 
BRANCH    6    7
ATOM      7  C6  UNL A   1      25.683  45.290  52.243  1.00  0.00    +0.000 C 
ATOM      8  O1  UNL A   1      25.767  46.252  53.016  1.00  0.00    +0.000 O 
BRANCH    7    9
ATOM      9  C7  UNL A   1      24.774  44.101  52.603  1.00  0.00    +0.000 C 
ATOM    114  H12 UNL A   1      23.891  44.185  52.005  1.00  0.00    +0.000 H 
ATOM    115  H13 UNL A   1      24.632  44.187  53.660  1.00  0.00    +0.000 H 
BRANCH    9   10
ATOM     10  N2  UNL A   1      25.292  42.763  52.419  1.00  0.00    +0.000 N 
ATOM    116  H14 UNL A   1      26.192  42.748  52.017  1.00  0.00    +0.000 H 
BRANCH   10   11
ATOM     11  C8  UNL A   1      24.803  41.528  52.681  1.00  0.00    +0.000 C 
ATOM     12  O2  UNL A   1      24.639  40.818  51.679  1.00  0.00    +0.000 O 
BRANCH   11   13
ATOM    117  H15 UNL A   1      23.907  41.816  54.587  1.00  0.00    +0.000 H 
ATOM     13  C9  UNL A   1      24.373  40.993  54.086  1.00  0.00    +0.000 C 
BRANCH   13   14
ATOM    118  H16 UNL A   1      23.548  39.094  54.001  1.00  0.00    +0.000 H 
ATOM     14  N3  UNL A   1      23.261  40.033  54.069  1.00  0.00    +0.000 N 
BRANCH   14   15
ATOM     15  C10 UNL A   1      21.917  40.192  54.131  1.00  0.00    +0.000 C 
ATOM     16  O3  UNL A   1      21.365  40.375  55.208  1.00  0.00    +0.000 O 
BRANCH   15   17
ATOM     17  O4  UNL A   1      21.289  40.051  52.947  1.00  0.00    +0.000 O 
BRANCH   17   18
ATOM     18  C11 UNL A   1      20.487  38.867  52.827  1.00  0.00    +0.000 C 
ATOM    119  H17 UNL A   1      19.597  39.116  52.288  1.00  0.00    +0.000 H 
ATOM    120  H18 UNL A   1      20.284  38.526  53.821  1.00  0.00    +0.000 H 
BRANCH   18   19
ATOM     19  C12 UNL A   1      21.182  37.726  52.102  1.00  0.00    +0.000 C 
ATOM     20  C13 UNL A   1      22.371  37.981  51.404  1.00  0.00    +0.000 C 
ATOM     21  C14 UNL A   1      22.994  36.978  50.656  1.00  0.00    +0.000 C 
ATOM     22  C15 UNL A   1      22.434  35.705  50.586  1.00  0.00    +0.000 C 
ATOM     23  C16 UNL A   1      21.255  35.432  51.267  1.00  0.00    +0.000 C 
ATOM     24  C17 UNL A   1      20.635  36.435  52.015  1.00  0.00    +0.000 C 
ATOM    121  H19 UNL A   1      22.792  38.924  51.444  1.00  0.00    +0.000 H 
ATOM    122  H20 UNL A   1      23.872  37.181  50.154  1.00  0.00    +0.000 H 
ATOM    123  H21 UNL A   1      22.895  34.966  50.030  1.00  0.00    +0.000 H 
ATOM    124  H22 UNL A   1      20.836  34.490  51.218  1.00  0.00    +0.000 H 
ATOM    125  H23 UNL A   1      19.756  36.223  52.513  1.00  0.00    +0.000 H 
ENDBRANCH   18   19
ENDBRANCH   17   18
ENDBRANCH   15   17
ENDBRANCH   14   15
ENDBRANCH   13   14
BRANCH   13   25
ATOM     25  C18 UNL A   1      25.576  40.666  54.998  1.00  0.00    +0.000 C 
ATOM    126  H24 UNL A   1      26.450  40.977  54.465  1.00  0.00    +0.000 H 
BRANCH   25   26
ATOM    129  H27 UNL A   1      26.366  41.199  56.922  1.00  0.00    +0.000 H 
ATOM     26  C19 UNL A   1      25.491  41.410  56.342  1.00  0.00    +0.000 C 
ATOM    127  H25 UNL A   1      24.623  41.084  56.875  1.00  0.00    +0.000 H 
ATOM    128  H26 UNL A   1      25.426  42.463  56.164  1.00  0.00    +0.000 H 
ENDBRANCH   25   26
BRANCH   25   27
ATOM    130  H28 UNL A   1      24.992  38.943  56.135  1.00  0.00    +0.000 H 
ATOM     27  C20 UNL A   1      25.636  39.162  55.309  1.00  0.00    +0.000 C 
ATOM    132  H30 UNL A   1      25.319  38.607  54.452  1.00  0.00    +0.000 H 
ATOM    131  H29 UNL A   1      26.640  38.890  55.559  1.00  0.00    +0.000 H 
ENDBRANCH   25   27
ENDBRANCH   13   25
ENDBRANCH   11   13
ENDBRANCH   10   11
ENDBRANCH    9   10
ENDBRANCH    7    9
ENDBRANCH    6    7
ENDBRANCH    5    6
ENDBRANCH   28    5
ENDBRANCH   30   28
ENDBRANCH   31   30
ENDBRANCH   32   31
ENDBRANCH   33   32
ENDBRANCH   34   33
ENDBRANCH   35   34
ENDBRANCH   36   35
ENDBRANCH   37   36
ENDBRANCH   38   37
ENDBRANCH   40   38
ENDBRANCH   44   43
BRANCH   48   49
ATOM     49  C37 UNL A   1      21.323  34.136  46.522  1.00  0.00    +0.000 C 
ATOM     50  C38 UNL A   1      21.930  33.086  47.230  1.00  0.00    +0.000 C 
ATOM     51  F1  UNL A   1      22.426  33.299  48.458  1.00  0.00    +0.000 F 
ATOM     52  C39 UNL A   1      22.067  31.823  46.662  1.00  0.00    +0.000 C 
ATOM     53  F2  UNL A   1      22.692  30.850  47.339  1.00  0.00    +0.000 F 
ATOM     54  C40 UNL A   1      21.570  31.574  45.391  1.00  0.00    +0.000 C 
ATOM     55  F3  UNL A   1      21.698  30.356  44.847  1.00  0.00    +0.000 F 
ATOM     56  C41 UNL A   1      20.949  32.591  44.681  1.00  0.00    +0.000 C 
ATOM     57  F4  UNL A   1      20.460  32.348  43.456  1.00  0.00    +0.000 F 
ATOM     58  C42 UNL A   1      20.836  33.864  45.236  1.00  0.00    +0.000 C 
ATOM     59  F5  UNL A   1      20.245  34.830  44.517  1.00  0.00    +0.000 F 
ENDBRANCH   48   49
BRANCH   65   66
ATOM     66  C48 UNL A   1      16.459  37.882  50.305  1.00  0.00    +0.000 C 
ATOM     67  C49 UNL A   1      15.298  37.838  49.521  1.00  0.00    +0.000 C 
ATOM     68  F6  UNL A   1      15.368  38.045  48.197  1.00  0.00    +0.000 F 
ATOM     69  C50 UNL A   1      14.052  37.623  50.104  1.00  0.00    +0.000 C 
ATOM     70  F7  UNL A   1      12.948  37.632  49.343  1.00  0.00    +0.000 F 
ATOM     71  C51 UNL A   1      13.949  37.417  51.473  1.00  0.00    +0.000 C 
ATOM     72  F8  UNL A   1      12.749  37.207  52.031  1.00  0.00    +0.000 F 
ATOM     73  C52 UNL A   1      15.089  37.435  52.263  1.00  0.00    +0.000 C 
ATOM     74  F9  UNL A   1      14.991  37.226  53.582  1.00  0.00    +0.000 F 
ATOM     75  C53 UNL A   1      16.332  37.676  51.687  1.00  0.00    +0.000 C 
ATOM     76  F10 UNL A   1      17.416  37.703  52.477  1.00  0.00    +0.000 F 
ENDBRANCH   65   66
BRANCH   80   81
ATOM     81  C57 UNL A   1      20.731  43.379  50.273  1.00  0.00    +0.000 C 
ATOM     82  C58 UNL A   1      21.245  43.699  51.537  1.00  0.00    +0.000 C 
ATOM     83  F11 UNL A   1      21.836  42.749  52.277  1.00  0.00    +0.000 F 
ATOM     84  C59 UNL A   1      21.116  44.982  52.063  1.00  0.00    +0.000 C 
ATOM     85  F12 UNL A   1      21.574  45.247  53.294  1.00  0.00    +0.000 F 
ATOM     86  C60 UNL A   1      20.497  45.978  51.323  1.00  0.00    +0.000 C 
ATOM     87  F13 UNL A   1      20.371  47.212  51.830  1.00  0.00    +0.000 F 
ATOM     88  C61 UNL A   1      19.999  45.690  50.061  1.00  0.00    +0.000 C 
ATOM     89  F14 UNL A   1      19.413  46.653  49.337  1.00  0.00    +0.000 F 
ATOM     90  C62 UNL A   1      20.106  44.401  49.544  1.00  0.00    +0.000 C 
ATOM     91  F15 UNL A   1      19.604  44.147  48.327  1.00  0.00    +0.000 F 
ENDBRANCH   80   81
TORSDOF 33
ENDMDL
MODEL 2
REMARK VINA RESULT:      -5.6     33.213     39.841
ROOT
ATOM    149  H47 UNL A   1      44.641  44.677  20.787  1.00  0.00    +0.000 H 
ATOM    150  H48 UNL A   1      44.721  43.105  22.866  1.00  0.00    +0.000 H 
ATOM    151  H49 UNL A   1      47.566  46.073  23.367  1.00  0.00    +0.000 H 
ATOM    152  H50 UNL A   1      52.273  48.669  26.821  1.00  0.00    +0.000 H 
ATOM    153  H51 UNL A   1      52.190  50.201  24.795  1.00  0.00    +0.000 H 
ATOM    154  H52 UNL A   1      49.301  47.255  24.283  1.00  0.00    +0.000 H 
ATOM    155  H53 UNL A   1      49.529  44.345  28.366  1.00  0.00    +0.000 H 
ATOM    156  H54 UNL A   1      47.775  42.859  27.241  1.00  0.00    +0.000 H 
ATOM    157  H55 UNL A   1      47.267  49.164  19.443  1.00  0.00    +0.000 H 
ATOM    158  H56 UNL A   1      49.361  50.365  20.293  1.00  0.00    +0.000 H 
ATOM     44  C33 UNL A   1      50.250  49.453  22.841  1.00  0.00    +0.000 C 
ATOM     45  C34 UNL A   1      49.136  48.893  22.004  1.00  0.00    +0.000 C 
ATOM     46  N6  UNL A   1      48.343  47.880  22.248  1.00  0.00    +0.000 N 
ATOM     47  C35 UNL A   1      47.472  47.813  21.169  1.00  0.00    +0.000 C 
ATOM     48  C36 UNL A   1      46.509  46.895  20.916  1.00  0.00    +0.000 C 
ATOM     60  C43 UNL A   1      46.207  45.783  21.776  1.00  0.00    +0.000 C 
ATOM     61  C44 UNL A   1      45.270  44.780  21.598  1.00  0.00    +0.000 C 
ATOM     62  C45 UNL A   1      45.324  43.929  22.707  1.00  0.00    +0.000 C 
ATOM     63  C46 UNL A   1      46.320  44.379  23.558  1.00  0.00    +0.000 C 
ATOM     64  N7  UNL A   1      46.845  45.523  22.981  1.00  0.00    +0.000 N 
ATOM     65  C47 UNL A   1      46.763  43.808  24.802  1.00  0.00    +0.000 C 
ATOM     77  C54 UNL A   1      47.732  44.324  25.598  1.00  0.00    +0.000 C 
ATOM     78  N8  UNL A   1      48.501  45.463  25.410  1.00  0.00    +0.000 N 
ATOM     79  C55 UNL A   1      49.283  45.546  26.459  1.00  0.00    +0.000 C 
ATOM     80  C56 UNL A   1      50.348  46.562  26.772  1.00  0.00    +0.000 C 
ATOM     92  C63 UNL A   1      50.610  47.534  25.878  1.00  0.00    +0.000 C 
ATOM     93  C64 UNL A   1      51.627  48.570  26.022  1.00  0.00    +0.000 C 
ATOM     94  C65 UNL A   1      51.589  49.375  24.947  1.00  0.00    +0.000 C 
ATOM     95  C66 UNL A   1      50.558  48.893  24.026  1.00  0.00    +0.000 C 
ATOM     96  N9  UNL A   1      50.028  47.799  24.662  1.00  0.00    +0.000 N 
ATOM     97  C67 UNL A   1      49.074  44.481  27.449  1.00  0.00    +0.000 C 
ATOM     98  C68 UNL A   1      48.150  43.740  26.856  1.00  0.00    +0.000 C 
ATOM     99  C69 UNL A   1      47.795  48.919  20.295  1.00  0.00    +0.000 C 
ATOM    100  C70 UNL A   1      48.858  49.577  20.731  1.00  0.00    +0.000 C 
ENDROOT
BRANCH   44   43
ATOM    101  C71 UNL A   1      52.175  50.502  21.647  1.00  0.00    +0.000 C 
ATOM    102  C72 UNL A   1      52.908  51.621  21.262  1.00  0.00    +0.000 C 
ATOM     40  C29 UNL A   1      52.412  52.902  21.526  1.00  0.00    +0.000 C 
ATOM     41  C30 UNL A   1      51.235  53.065  22.261  1.00  0.00    +0.000 C 
ATOM     42  C31 UNL A   1      50.534  51.942  22.700  1.00  0.00    +0.000 C 
ATOM     43  C32 UNL A   1      50.989  50.653  22.380  1.00  0.00    +0.000 C 
ATOM    147  H45 UNL A   1      50.887  54.012  22.478  1.00  0.00    +0.000 H 
ATOM    148  H46 UNL A   1      49.677  52.060  23.263  1.00  0.00    +0.000 H 
ATOM    159  H57 UNL A   1      52.505  49.559  21.389  1.00  0.00    +0.000 H 
ATOM    160  H58 UNL A   1      53.816  51.507  20.784  1.00  0.00    +0.000 H 
BRANCH   40   38
ATOM     38  C28 UNL A   1      53.116  54.109  21.046  1.00  0.00    +0.000 C 
ATOM     39  O6  UNL A   1      54.019  54.598  21.717  1.00  0.00    +0.000 O 
BRANCH   38   37
ATOM    146  H44 UNL A   1      52.816  55.675  19.831  1.00  0.00    +0.000 H 
ATOM     37  N5  UNL A   1      52.728  54.695  19.869  1.00  0.00    +0.000 N 
BRANCH   37   36
ATOM    145  H43 UNL A   1      52.119  53.018  18.872  1.00  0.00    +0.000 H 
ATOM     36  C27 UNL A   1      52.206  54.065  18.673  1.00  0.00    +0.000 C 
ATOM    144  H42 UNL A   1      52.877  54.261  17.863  1.00  0.00    +0.000 H 
BRANCH   36   35
ATOM     35  C26 UNL A   1      50.823  54.576  18.294  1.00  0.00    +0.000 C 
ATOM    142  H40 UNL A   1      50.940  55.303  17.518  1.00  0.00    +0.000 H 
ATOM    143  H41 UNL A   1      50.260  53.716  17.995  1.00  0.00    +0.000 H 
BRANCH   35   34
ATOM     34  C25 UNL A   1      50.029  55.224  19.432  1.00  0.00    +0.000 C 
ATOM    140  H38 UNL A   1      50.678  55.312  20.277  1.00  0.00    +0.000 H 
ATOM    141  H39 UNL A   1      49.684  56.161  19.048  1.00  0.00    +0.000 H 
BRANCH   34   33
ATOM     33  C24 UNL A   1      48.772  54.470  19.880  1.00  0.00    +0.000 C 
ATOM    138  H36 UNL A   1      48.815  54.361  20.943  1.00  0.00    +0.000 H 
ATOM    139  H37 UNL A   1      47.943  55.053  19.539  1.00  0.00    +0.000 H 
BRANCH   33   32
ATOM    137  H35 UNL A   1      48.148  52.467  20.034  1.00  0.00    +0.000 H 
ATOM    136  H34 UNL A   1      49.540  52.723  18.946  1.00  0.00    +0.000 H 
ATOM     32  C23 UNL A   1      48.584  53.078  19.270  1.00  0.00    +0.000 C 
BRANCH   32   31
ATOM    135  H33 UNL A   1      47.584  54.013  17.656  1.00  0.00    +0.000 H 
ATOM    134  H32 UNL A   1      46.669  52.717  18.423  1.00  0.00    +0.000 H 
ATOM     31  C22 UNL A   1      47.633  53.034  18.084  1.00  0.00    +0.000 C 
BRANCH   31   30
ATOM    133  H31 UNL A   1      48.537  52.529  16.287  1.00  0.00    +0.000 H 
ATOM     30  N4  UNL A   1      48.096  52.118  17.065  1.00  0.00    +0.000 N 
BRANCH   30   28
ATOM     28  C21 UNL A   1      47.998  50.760  17.048  1.00  0.00    +0.000 C 
ATOM     29  O5  UNL A   1      46.879  50.255  17.161  1.00  0.00    +0.000 O 
BRANCH   28    5
ATOM      5  C5  UNL A   1      49.255  49.874  16.962  1.00  0.00    +0.000 C 
ATOM    112  H10 UNL A   1      49.080  49.047  17.619  1.00  0.00    +0.000 H 
BRANCH    5    4
ATOM      4  C4  UNL A   1      50.528  50.511  17.532  1.00  0.00    +0.000 C 
ATOM    110  H8  UNL A   1      50.739  51.387  16.956  1.00  0.00    +0.000 H 
ATOM    111  H9  UNL A   1      50.316  50.700  18.563  1.00  0.00    +0.000 H 
BRANCH    4    2
ATOM      2  C2  UNL A   1      51.800  49.625  17.528  1.00  0.00    +0.000 C 
ATOM    106  H4  UNL A   1      51.897  49.289  16.518  1.00  0.00    +0.000 H 
BRANCH    2    1
ATOM      1  C1  UNL A   1      53.112  50.341  17.861  1.00  0.00    +0.000 C 
ATOM    105  H3  UNL A   1      53.099  50.653  18.885  1.00  0.00    +0.000 H 
ATOM    103  H1  UNL A   1      53.223  51.197  17.228  1.00  0.00    +0.000 H 
ATOM    104  H2  UNL A   1      53.933  49.673  17.703  1.00  0.00    +0.000 H 
ENDBRANCH    2    1
BRANCH    2    3
ATOM      3  C3  UNL A   1      51.618  48.478  18.528  1.00  0.00    +0.000 C 
ATOM    108  H6  UNL A   1      52.525  48.336  19.077  1.00  0.00    +0.000 H 
ATOM    109  H7  UNL A   1      51.377  47.579  17.999  1.00  0.00    +0.000 H 
ATOM    107  H5  UNL A   1      50.825  48.718  19.205  1.00  0.00    +0.000 H 
ENDBRANCH    2    3
ENDBRANCH    4    2
ENDBRANCH    5    4
BRANCH    5    6
ATOM    113  H11 UNL A   1      49.958  49.902  15.002  1.00  0.00    +0.000 H 
ATOM      6  N1  UNL A   1      49.428  49.338  15.611  1.00  0.00    +0.000 N 
BRANCH    6    7
ATOM      7  C6  UNL A   1      48.967  48.177  15.067  1.00  0.00    +0.000 C 
ATOM      8  O1  UNL A   1      48.774  48.182  13.845  1.00  0.00    +0.000 O 
BRANCH    7    9
ATOM      9  C7  UNL A   1      48.639  46.915  15.884  1.00  0.00    +0.000 C 
ATOM    114  H12 UNL A   1      48.066  46.268  15.253  1.00  0.00    +0.000 H 
ATOM    115  H13 UNL A   1      48.136  47.286  16.753  1.00  0.00    +0.000 H 
BRANCH    9   10
ATOM     10  N2  UNL A   1      49.739  46.137  16.411  1.00  0.00    +0.000 N 
ATOM    116  H14 UNL A   1      50.178  46.559  17.185  1.00  0.00    +0.000 H 
BRANCH   10   11
ATOM     11  C8  UNL A   1      50.292  44.950  16.064  1.00  0.00    +0.000 C 
ATOM     12  O2  UNL A   1      49.744  44.388  15.105  1.00  0.00    +0.000 O 
BRANCH   11   13
ATOM    117  H15 UNL A   1      52.127  45.012  17.136  1.00  0.00    +0.000 H 
ATOM     13  C9  UNL A   1      51.467  44.236  16.809  1.00  0.00    +0.000 C 
BRANCH   13   14
ATOM    118  H16 UNL A   1      51.401  42.703  18.202  1.00  0.00    +0.000 H 
ATOM     14  N3  UNL A   1      51.107  43.636  18.101  1.00  0.00    +0.000 N 
BRANCH   14   15
ATOM     15  C10 UNL A   1      50.450  44.123  19.182  1.00  0.00    +0.000 C 
ATOM     16  O3  UNL A   1      49.392  43.623  19.539  1.00  0.00    +0.000 O 
BRANCH   15   17
ATOM     17  O4  UNL A   1      51.025  45.209  19.734  1.00  0.00    +0.000 O 
BRANCH   17   18
ATOM     18  C11 UNL A   1      50.524  45.562  21.032  1.00  0.00    +0.000 C 
ATOM    119  H17 UNL A   1      49.947  44.742  21.406  1.00  0.00    +0.000 H 
ATOM    120  H18 UNL A   1      49.942  46.452  20.909  1.00  0.00    +0.000 H 
BRANCH   18   19
ATOM     19  C12 UNL A   1      51.612  45.883  22.044  1.00  0.00    +0.000 C 
ATOM     20  C13 UNL A   1      52.534  46.901  21.758  1.00  0.00    +0.000 C 
ATOM     21  C14 UNL A   1      53.599  47.169  22.624  1.00  0.00    +0.000 C 
ATOM     22  C15 UNL A   1      53.765  46.418  23.785  1.00  0.00    +0.000 C 
ATOM     23  C16 UNL A   1      52.866  45.403  24.084  1.00  0.00    +0.000 C 
ATOM     24  C17 UNL A   1      51.802  45.138  23.219  1.00  0.00    +0.000 C 
ATOM    121  H19 UNL A   1      52.424  47.460  20.896  1.00  0.00    +0.000 H 
ATOM    122  H20 UNL A   1      54.264  47.925  22.401  1.00  0.00    +0.000 H 
ATOM    123  H21 UNL A   1      54.554  46.616  24.421  1.00  0.00    +0.000 H 
ATOM    124  H22 UNL A   1      52.984  44.844  24.943  1.00  0.00    +0.000 H 
ATOM    125  H23 UNL A   1      51.142  44.378  23.449  1.00  0.00    +0.000 H 
ENDBRANCH   18   19
ENDBRANCH   17   18
ENDBRANCH   15   17
ENDBRANCH   14   15
ENDBRANCH   13   14
BRANCH   13   25
ATOM     25  C18 UNL A   1      52.356  43.397  15.864  1.00  0.00    +0.000 C 
ATOM    126  H24 UNL A   1      51.688  42.832  15.248  1.00  0.00    +0.000 H 
BRANCH   25   26
ATOM    129  H27 UNL A   1      54.279  44.060  15.176  1.00  0.00    +0.000 H 
ATOM     26  C19 UNL A   1      53.251  44.288  14.984  1.00  0.00    +0.000 C 
ATOM    127  H25 UNL A   1      53.065  45.316  15.213  1.00  0.00    +0.000 H 
ATOM    128  H26 UNL A   1      53.032  44.106  13.952  1.00  0.00    +0.000 H 
ENDBRANCH   25   26
BRANCH   25   27
ATOM    130  H28 UNL A   1      53.418  41.551  16.122  1.00  0.00    +0.000 H 
ATOM     27  C20 UNL A   1      53.280  42.465  16.662  1.00  0.00    +0.000 C 
ATOM    132  H30 UNL A   1      54.227  42.940  16.808  1.00  0.00    +0.000 H 
ATOM    131  H29 UNL A   1      52.837  42.253  17.613  1.00  0.00    +0.000 H 
ENDBRANCH   25   27
ENDBRANCH   13   25
ENDBRANCH   11   13
ENDBRANCH   10   11
ENDBRANCH    9   10
ENDBRANCH    7    9
ENDBRANCH    6    7
ENDBRANCH    5    6
ENDBRANCH   28    5
ENDBRANCH   30   28
ENDBRANCH   31   30
ENDBRANCH   32   31
ENDBRANCH   33   32
ENDBRANCH   34   33
ENDBRANCH   35   34
ENDBRANCH   36   35
ENDBRANCH   37   36
ENDBRANCH   38   37
ENDBRANCH   40   38
ENDBRANCH   44   43
BRANCH   48   49
ATOM     49  C37 UNL A   1      45.723  47.052  19.648  1.00  0.00    +0.000 C 
ATOM     50  C38 UNL A   1      45.952  46.222  18.539  1.00  0.00    +0.000 C 
ATOM     51  F1  UNL A   1      46.914  45.288  18.582  1.00  0.00    +0.000 F 
ATOM     52  C39 UNL A   1      45.220  46.376  17.365  1.00  0.00    +0.000 C 
ATOM     53  F2  UNL A   1      45.488  45.603  16.304  1.00  0.00    +0.000 F 
ATOM     54  C40 UNL A   1      44.222  47.337  17.288  1.00  0.00    +0.000 C 
ATOM     55  F3  UNL A   1      43.514  47.481  16.159  1.00  0.00    +0.000 F 
ATOM     56  C41 UNL A   1      43.966  48.154  18.379  1.00  0.00    +0.000 C 
ATOM     57  F4  UNL A   1      42.995  49.077  18.309  1.00  0.00    +0.000 F 
ATOM     58  C42 UNL A   1      44.716  48.022  19.545  1.00  0.00    +0.000 C 
ATOM     59  F5  UNL A   1      44.455  48.839  20.577  1.00  0.00    +0.000 F 
ENDBRANCH   48   49
BRANCH   65   66
ATOM     66  C48 UNL A   1      46.122  42.527  25.249  1.00  0.00    +0.000 C 
ATOM     67  C49 UNL A   1      46.709  41.281  24.990  1.00  0.00    +0.000 C 
ATOM     68  F6  UNL A   1      47.848  41.204  24.286  1.00  0.00    +0.000 F 
ATOM     69  C50 UNL A   1      46.102  40.103  25.418  1.00  0.00    +0.000 C 
ATOM     70  F7  UNL A   1      46.655  38.920  25.118  1.00  0.00    +0.000 F 
ATOM     71  C51 UNL A   1      44.917  40.153  26.140  1.00  0.00    +0.000 C 
ATOM     72  F8  UNL A   1      44.337  39.019  26.554  1.00  0.00    +0.000 F 
ATOM     73  C52 UNL A   1      44.331  41.377  26.426  1.00  0.00    +0.000 C 
ATOM     74  F9  UNL A   1      43.194  41.426  27.132  1.00  0.00    +0.000 F 
ATOM     75  C53 UNL A   1      44.921  42.554  25.976  1.00  0.00    +0.000 C 
ATOM     76  F10 UNL A   1      44.325  43.723  26.254  1.00  0.00    +0.000 F 
ENDBRANCH   65   66
BRANCH   80   81
ATOM     81  C57 UNL A   1      51.130  46.481  28.032  1.00  0.00    +0.000 C 
ATOM     82  C58 UNL A   1      52.245  45.638  28.136  1.00  0.00    +0.000 C 
ATOM     83  F11 UNL A   1      52.611  44.884  27.088  1.00  0.00    +0.000 F 
ATOM     84  C59 UNL A   1      52.960  45.532  29.326  1.00  0.00    +0.000 C 
ATOM     85  F12 UNL A   1      53.992  44.682  29.411  1.00  0.00    +0.000 F 
ATOM     86  C60 UNL A   1      52.593  46.290  30.427  1.00  0.00    +0.000 C 
ATOM     87  F13 UNL A   1      53.280  46.187  31.573  1.00  0.00    +0.000 F 
ATOM     88  C61 UNL A   1      51.506  47.147  30.343  1.00  0.00    +0.000 C 
ATOM     89  F14 UNL A   1      51.157  47.892  31.401  1.00  0.00    +0.000 F 
ATOM     90  C62 UNL A   1      50.775  47.235  29.160  1.00  0.00    +0.000 C 
ATOM     91  F15 UNL A   1      49.721  48.062  29.110  1.00  0.00    +0.000 F 
ENDBRANCH   80   81
TORSDOF 33
ENDMDL
MODEL 3
REMARK VINA RESULT:      -5.3      4.898     11.680
ROOT
ATOM    149  H47 UNL A   1      23.337  44.828  51.017  1.00  0.00    +0.000 H 
ATOM    150  H48 UNL A   1      21.091  43.525  51.259  1.00  0.00    +0.000 H 
ATOM    151  H49 UNL A   1      23.674  41.250  48.956  1.00  0.00    +0.000 H 
ATOM    152  H50 UNL A   1      24.808  35.988  45.513  1.00  0.00    +0.000 H 
ATOM    153  H51 UNL A   1      26.996  37.260  45.282  1.00  0.00    +0.000 H 
ATOM    154  H52 UNL A   1      24.437  39.547  47.627  1.00  0.00    +0.000 H 
ATOM    155  H53 UNL A   1      20.192  36.905  48.054  1.00  0.00    +0.000 H 
ATOM    156  H54 UNL A   1      19.228  38.910  49.319  1.00  0.00    +0.000 H 
ATOM    157  H55 UNL A   1      28.026  43.704  48.655  1.00  0.00    +0.000 H 
ATOM    158  H56 UNL A   1      28.835  41.959  46.965  1.00  0.00    +0.000 H 
ATOM     44  C33 UNL A   1      27.029  39.784  46.610  1.00  0.00    +0.000 C 
ATOM     45  C34 UNL A   1      26.818  41.028  47.426  1.00  0.00    +0.000 C 
ATOM     46  N6  UNL A   1      25.780  41.386  48.138  1.00  0.00    +0.000 N 
ATOM     47  C35 UNL A   1      26.120  42.602  48.716  1.00  0.00    +0.000 C 
ATOM     48  C36 UNL A   1      25.358  43.415  49.486  1.00  0.00    +0.000 C 
ATOM     60  C43 UNL A   1      23.998  43.131  49.860  1.00  0.00    +0.000 C 
ATOM     61  C44 UNL A   1      23.129  43.901  50.612  1.00  0.00    +0.000 C 
ATOM     62  C45 UNL A   1      21.920  43.208  50.730  1.00  0.00    +0.000 C 
ATOM     63  C46 UNL A   1      22.023  42.024  50.019  1.00  0.00    +0.000 C 
ATOM     64  N7  UNL A   1      23.306  41.984  49.500  1.00  0.00    +0.000 N 
ATOM     65  C47 UNL A   1      21.024  41.006  49.822  1.00  0.00    +0.000 C 
ATOM     77  C54 UNL A   1      21.208  39.854  49.132  1.00  0.00    +0.000 C 
ATOM     78  N8  UNL A   1      22.341  39.404  48.469  1.00  0.00    +0.000 N 
ATOM     79  C55 UNL A   1      22.026  38.233  47.972  1.00  0.00    +0.000 C 
ATOM     80  C56 UNL A   1      22.858  37.304  47.129  1.00  0.00    +0.000 C 
ATOM     92  C63 UNL A   1      24.100  37.679  46.771  1.00  0.00    +0.000 C 
ATOM     93  C64 UNL A   1      25.015  36.906  45.937  1.00  0.00    +0.000 C 
ATOM     94  C65 UNL A   1      26.168  37.583  45.807  1.00  0.00    +0.000 C 
ATOM     95  C66 UNL A   1      26.063  38.850  46.532  1.00  0.00    +0.000 C 
ATOM     96  N9  UNL A   1      24.803  38.820  47.074  1.00  0.00    +0.000 N 
ATOM     97  C67 UNL A   1      20.662  37.793  48.291  1.00  0.00    +0.000 C 
ATOM     98  C68 UNL A   1      20.193  38.834  48.962  1.00  0.00    +0.000 C 
ATOM     99  C69 UNL A   1      27.480  42.894  48.320  1.00  0.00    +0.000 C 
ATOM    100  C70 UNL A   1      27.934  41.987  47.468  1.00  0.00    +0.000 C 
ENDROOT
BRANCH   44   43
ATOM    101  C71 UNL A   1      29.338  38.837  46.555  1.00  0.00    +0.000 C 
ATOM    102  C72 UNL A   1      30.577  38.678  45.941  1.00  0.00    +0.000 C 
ATOM     40  C29 UNL A   1      30.778  39.166  44.645  1.00  0.00    +0.000 C 
ATOM     41  C30 UNL A   1      29.777  39.898  44.004  1.00  0.00    +0.000 C 
ATOM     42  C31 UNL A   1      28.557  40.111  44.646  1.00  0.00    +0.000 C 
ATOM     43  C32 UNL A   1      28.323  39.565  45.919  1.00  0.00    +0.000 C 
ATOM    147  H45 UNL A   1      29.939  40.280  43.059  1.00  0.00    +0.000 H 
ATOM    148  H46 UNL A   1      27.824  40.671  44.184  1.00  0.00    +0.000 H 
ATOM    159  H57 UNL A   1      29.167  38.415  47.482  1.00  0.00    +0.000 H 
ATOM    160  H58 UNL A   1      31.346  38.203  46.440  1.00  0.00    +0.000 H 
BRANCH   40   38
ATOM     38  C28 UNL A   1      32.048  38.929  43.927  1.00  0.00    +0.000 C 
ATOM     39  O6  UNL A   1      32.292  37.818  43.467  1.00  0.00    +0.000 O 
BRANCH   38   37
ATOM    146  H44 UNL A   1      32.821  40.558  43.052  1.00  0.00    +0.000 H 
ATOM     37  N5  UNL A   1      32.959  39.946  43.811  1.00  0.00    +0.000 N 
BRANCH   37   36
ATOM    145  H43 UNL A   1      34.743  40.899  44.111  1.00  0.00    +0.000 H 
ATOM     36  C27 UNL A   1      34.098  40.242  44.657  1.00  0.00    +0.000 C 
ATOM    144  H42 UNL A   1      34.587  39.323  44.905  1.00  0.00    +0.000 H 
BRANCH   36   35
ATOM     35  C26 UNL A   1      33.706  40.950  45.946  1.00  0.00    +0.000 C 
ATOM    142  H40 UNL A   1      33.162  40.256  46.552  1.00  0.00    +0.000 H 
ATOM    143  H41 UNL A   1      34.621  41.283  46.392  1.00  0.00    +0.000 H 
BRANCH   35   34
ATOM     34  C25 UNL A   1      32.842  42.202  45.771  1.00  0.00    +0.000 C 
ATOM    140  H38 UNL A   1      33.431  43.049  46.052  1.00  0.00    +0.000 H 
ATOM    141  H39 UNL A   1      32.539  42.203  44.745  1.00  0.00    +0.000 H 
BRANCH   34   33
ATOM     33  C24 UNL A   1      31.547  42.236  46.589  1.00  0.00    +0.000 C 
ATOM    138  H36 UNL A   1      30.831  41.610  46.098  1.00  0.00    +0.000 H 
ATOM    139  H37 UNL A   1      31.811  41.901  47.570  1.00  0.00    +0.000 H 
BRANCH   33   32
ATOM    137  H35 UNL A   1      29.995  43.468  47.295  1.00  0.00    +0.000 H 
ATOM    136  H34 UNL A   1      30.783  44.057  45.807  1.00  0.00    +0.000 H 
ATOM     32  C23 UNL A   1      30.917  43.619  46.773  1.00  0.00    +0.000 C 
BRANCH   32   31
ATOM    135  H33 UNL A   1      32.760  44.519  47.297  1.00  0.00    +0.000 H 
ATOM    134  H32 UNL A   1      31.651  44.299  48.649  1.00  0.00    +0.000 H 
ATOM     31  C22 UNL A   1      31.742  44.577  47.619  1.00  0.00    +0.000 C 
BRANCH   31   30
ATOM    133  H31 UNL A   1      30.350  46.114  47.676  1.00  0.00    +0.000 H 
ATOM     30  N4  UNL A   1      31.296  45.944  47.463  1.00  0.00    +0.000 N 
BRANCH   30   28
ATOM     28  C21 UNL A   1      32.020  47.024  47.058  1.00  0.00    +0.000 C 
ATOM     29  O5  UNL A   1      33.023  46.828  46.368  1.00  0.00    +0.000 O 
BRANCH   28    5
ATOM      5  C5  UNL A   1      31.641  48.448  47.507  1.00  0.00    +0.000 C 
ATOM    112  H10 UNL A   1      31.154  48.341  48.454  1.00  0.00    +0.000 H 
BRANCH    5    4
ATOM      4  C4  UNL A   1      30.576  49.130  46.640  1.00  0.00    +0.000 C 
ATOM    110  H8  UNL A   1      30.990  50.046  46.276  1.00  0.00    +0.000 H 
ATOM    111  H9  UNL A   1      30.332  48.421  45.877  1.00  0.00    +0.000 H 
BRANCH    4    2
ATOM      2  C2  UNL A   1      29.232  49.462  47.338  1.00  0.00    +0.000 C 
ATOM    106  H4  UNL A   1      28.630  48.589  47.203  1.00  0.00    +0.000 H 
BRANCH    2    1
ATOM      1  C1  UNL A   1      29.305  49.694  48.850  1.00  0.00    +0.000 C 
ATOM    105  H3  UNL A   1      28.371  49.426  49.298  1.00  0.00    +0.000 H 
ATOM    103  H1  UNL A   1      29.511  50.726  49.044  1.00  0.00    +0.000 H 
ATOM    104  H2  UNL A   1      30.085  49.091  49.266  1.00  0.00    +0.000 H 
ENDBRANCH    2    1
BRANCH    2    3
ATOM      3  C3  UNL A   1      28.627  50.714  46.695  1.00  0.00    +0.000 C 
ATOM    108  H6  UNL A   1      29.389  51.250  46.170  1.00  0.00    +0.000 H 
ATOM    109  H7  UNL A   1      28.211  51.341  47.456  1.00  0.00    +0.000 H 
ATOM    107  H5  UNL A   1      27.857  50.426  46.009  1.00  0.00    +0.000 H 
ENDBRANCH    2    3
ENDBRANCH    4    2
ENDBRANCH    5    4
BRANCH    5    6
ATOM    113  H11 UNL A   1      33.637  48.970  47.224  1.00  0.00    +0.000 H 
ATOM      6  N1  UNL A   1      32.836  49.269  47.713  1.00  0.00    +0.000 N 
BRANCH    6    7
ATOM      7  C6  UNL A   1      33.008  50.382  48.477  1.00  0.00    +0.000 C 
ATOM      8  O1  UNL A   1      33.511  50.210  49.594  1.00  0.00    +0.000 O 
BRANCH    7    9
ATOM      9  C7  UNL A   1      32.575  51.796  48.049  1.00  0.00    +0.000 C 
ATOM    114  H12 UNL A   1      32.895  52.472  48.814  1.00  0.00    +0.000 H 
ATOM    115  H13 UNL A   1      31.516  51.717  47.909  1.00  0.00    +0.000 H 
BRANCH    9   10
ATOM     10  N2  UNL A   1      33.066  52.309  46.789  1.00  0.00    +0.000 N 
ATOM    116  H14 UNL A   1      33.830  52.923  46.891  1.00  0.00    +0.000 H 
BRANCH   10   11
ATOM     11  C8  UNL A   1      32.698  52.124  45.499  1.00  0.00    +0.000 C 
ATOM     12  O2  UNL A   1      31.500  52.341  45.270  1.00  0.00    +0.000 O 
BRANCH   11   13
ATOM    117  H15 UNL A   1      32.986  51.455  43.501  1.00  0.00    +0.000 H 
ATOM     13  C9  UNL A   1      33.621  51.600  44.350  1.00  0.00    +0.000 C 
BRANCH   13   14
ATOM    118  H16 UNL A   1      35.506  52.363  43.950  1.00  0.00    +0.000 H 
ATOM     14  N3  UNL A   1      34.560  52.593  43.809  1.00  0.00    +0.000 N 
BRANCH   14   15
ATOM     15  C10 UNL A   1      34.372  53.762  43.151  1.00  0.00    +0.000 C 
ATOM     16  O3  UNL A   1      35.102  54.719  43.371  1.00  0.00    +0.000 O 
BRANCH   15   17
ATOM     17  O4  UNL A   1      33.300  53.770  42.334  1.00  0.00    +0.000 O 
BRANCH   17   18
ATOM     18  C11 UNL A   1      33.027  55.033  41.710  1.00  0.00    +0.000 C 
ATOM    119  H17 UNL A   1      33.617  55.105  40.820  1.00  0.00    +0.000 H 
ATOM    120  H18 UNL A   1      33.269  55.792  42.425  1.00  0.00    +0.000 H 
BRANCH   18   19
ATOM     19  C12 UNL A   1      31.567  55.229  41.334  1.00  0.00    +0.000 C 
ATOM     20  C13 UNL A   1      30.668  55.697  42.303  1.00  0.00    +0.000 C 
ATOM     21  C14 UNL A   1      29.303  55.809  42.021  1.00  0.00    +0.000 C 
ATOM     22  C15 UNL A   1      28.814  55.448  40.768  1.00  0.00    +0.000 C 
ATOM     23  C16 UNL A   1      29.687  54.978  39.796  1.00  0.00    +0.000 C 
ATOM     24  C17 UNL A   1      31.050  54.868  40.079  1.00  0.00    +0.000 C 
ATOM    121  H19 UNL A   1      31.019  55.962  43.238  1.00  0.00    +0.000 H 
ATOM    122  H20 UNL A   1      28.656  56.161  42.744  1.00  0.00    +0.000 H 
ATOM    123  H21 UNL A   1      27.805  55.529  40.564  1.00  0.00    +0.000 H 
ATOM    124  H22 UNL A   1      29.329  54.710  38.866  1.00  0.00    +0.000 H 
ATOM    125  H23 UNL A   1      31.690  54.514  39.351  1.00  0.00    +0.000 H 
ENDBRANCH   18   19
ENDBRANCH   17   18
ENDBRANCH   15   17
ENDBRANCH   14   15
ENDBRANCH   13   14
BRANCH   13   25
ATOM     25  C18 UNL A   1      34.171  50.182  44.621  1.00  0.00    +0.000 C 
ATOM    126  H24 UNL A   1      33.980  49.979  45.654  1.00  0.00    +0.000 H 
BRANCH   25   26
ATOM    129  H27 UNL A   1      34.181  48.723  43.045  1.00  0.00    +0.000 H 
ATOM     26  C19 UNL A   1      33.477  49.125  43.743  1.00  0.00    +0.000 C 
ATOM    127  H25 UNL A   1      32.668  49.579  43.212  1.00  0.00    +0.000 H 
ATOM    128  H26 UNL A   1      33.100  48.338  44.363  1.00  0.00    +0.000 H 
ENDBRANCH   25   26
BRANCH   25   27
ATOM    130  H28 UNL A   1      35.977  49.084  44.252  1.00  0.00    +0.000 H 
ATOM     27  C20 UNL A   1      35.676  50.110  44.321  1.00  0.00    +0.000 C 
ATOM    132  H30 UNL A   1      35.880  50.605  43.396  1.00  0.00    +0.000 H 
ATOM    131  H29 UNL A   1      36.219  50.588  45.110  1.00  0.00    +0.000 H 
ENDBRANCH   25   27
ENDBRANCH   13   25
ENDBRANCH   11   13
ENDBRANCH   10   11
ENDBRANCH    9   10
ENDBRANCH    7    9
ENDBRANCH    6    7
ENDBRANCH    5    6
ENDBRANCH   28    5
ENDBRANCH   30   28
ENDBRANCH   31   30
ENDBRANCH   32   31
ENDBRANCH   33   32
ENDBRANCH   34   33
ENDBRANCH   35   34
ENDBRANCH   36   35
ENDBRANCH   37   36
ENDBRANCH   38   37
ENDBRANCH   40   38
ENDBRANCH   44   43
BRANCH   48   49
ATOM     49  C37 UNL A   1      25.978  44.695  49.962  1.00  0.00    +0.000 C 
ATOM     50  C38 UNL A   1      25.903  45.871  49.199  1.00  0.00    +0.000 C 
ATOM     51  F1  UNL A   1      25.302  45.860  48.000  1.00  0.00    +0.000 F 
ATOM     52  C39 UNL A   1      26.484  47.054  49.647  1.00  0.00    +0.000 C 
ATOM     53  F2  UNL A   1      26.441  48.152  48.880  1.00  0.00    +0.000 F 
ATOM     54  C40 UNL A   1      27.119  47.094  50.880  1.00  0.00    +0.000 C 
ATOM     55  F3  UNL A   1      27.673  48.236  51.312  1.00  0.00    +0.000 F 
ATOM     56  C41 UNL A   1      27.186  45.949  51.659  1.00  0.00    +0.000 C 
ATOM     57  F4  UNL A   1      27.791  45.990  52.855  1.00  0.00    +0.000 F 
ATOM     58  C42 UNL A   1      26.632  44.756  51.201  1.00  0.00    +0.000 C 
ATOM     59  F5  UNL A   1      26.728  43.662  51.971  1.00  0.00    +0.000 F 
ENDBRANCH   48   49
BRANCH   65   66
ATOM     66  C48 UNL A   1      19.663  41.242  50.407  1.00  0.00    +0.000 C 
ATOM     67  C49 UNL A   1      19.326  40.788  51.690  1.00  0.00    +0.000 C 
ATOM     68  F6  UNL A   1      20.211  40.085  52.412  1.00  0.00    +0.000 F 
ATOM     69  C50 UNL A   1      18.059  41.021  52.219  1.00  0.00    +0.000 C 
ATOM     70  F7  UNL A   1      17.741  40.538  53.428  1.00  0.00    +0.000 F 
ATOM     71  C51 UNL A   1      17.120  41.738  51.490  1.00  0.00    +0.000 C 
ATOM     72  F8  UNL A   1      15.903  41.963  52.002  1.00  0.00    +0.000 F 
ATOM     73  C52 UNL A   1      17.441  42.213  50.227  1.00  0.00    +0.000 C 
ATOM     74  F9  UNL A   1      16.539  42.914  49.527  1.00  0.00    +0.000 F 
ATOM     75  C53 UNL A   1      18.697  41.959  49.685  1.00  0.00    +0.000 C 
ATOM     76  F10 UNL A   1      18.976  42.419  48.456  1.00  0.00    +0.000 F 
ENDBRANCH   65   66
BRANCH   80   81
ATOM     81  C57 UNL A   1      22.311  36.004  46.663  1.00  0.00    +0.000 C 
ATOM     82  C58 UNL A   1      21.565  35.919  45.480  1.00  0.00    +0.000 C 
ATOM     83  F11 UNL A   1      21.332  37.024  44.757  1.00  0.00    +0.000 F 
ATOM     84  C59 UNL A   1      21.021  34.709  45.057  1.00  0.00    +0.000 C 
ATOM     85  F12 UNL A   1      20.272  34.665  43.947  1.00  0.00    +0.000 F 
ATOM     86  C60 UNL A   1      21.237  33.554  45.794  1.00  0.00    +0.000 C 
ATOM     87  F13 UNL A   1      20.711  32.390  45.389  1.00  0.00    +0.000 F 
ATOM     88  C61 UNL A   1      21.989  33.610  46.958  1.00  0.00    +0.000 C 
ATOM     89  F14 UNL A   1      22.211  32.494  47.666  1.00  0.00    +0.000 F 
ATOM     90  C62 UNL A   1      22.513  34.825  47.395  1.00  0.00    +0.000 C 
ATOM     91  F15 UNL A   1      23.225  34.852  48.530  1.00  0.00    +0.000 F 
ENDBRANCH   80   81
TORSDOF 33
ENDMDL
MODEL 4
REMARK VINA RESULT:      -5.3      5.562     12.683
ROOT
ATOM    149  H47 UNL A   1      24.218  39.699  48.902  1.00  0.00    +0.000 H 
ATOM    150  H48 UNL A   1      23.712  37.542  47.527  1.00  0.00    +0.000 H 
ATOM    151  H49 UNL A   1      27.597  38.721  46.713  1.00  0.00    +0.000 H 
ATOM    152  H50 UNL A   1      33.072  37.848  43.536  1.00  0.00    +0.000 H 
ATOM    153  H51 UNL A   1      33.562  39.949  44.880  1.00  0.00    +0.000 H 
ATOM    154  H52 UNL A   1      29.671  38.767  45.743  1.00  0.00    +0.000 H 
ATOM    155  H53 UNL A   1      28.853  34.591  43.082  1.00  0.00    +0.000 H 
ATOM    156  H54 UNL A   1      26.446  34.670  43.950  1.00  0.00    +0.000 H 
ATOM    157  H55 UNL A   1      28.588  42.761  49.496  1.00  0.00    +0.000 H 
ATOM    158  H56 UNL A   1      30.816  43.005  48.258  1.00  0.00    +0.000 H 
ATOM     44  C33 UNL A   1      31.380  40.851  46.480  1.00  0.00    +0.000 C 
ATOM     45  C34 UNL A   1      30.122  41.086  47.266  1.00  0.00    +0.000 C 
ATOM     46  N6  UNL A   1      29.025  40.374  47.307  1.00  0.00    +0.000 N 
ATOM     47  C35 UNL A   1      28.193  41.014  48.216  1.00  0.00    +0.000 C 
ATOM     48  C36 UNL A   1      26.918  40.706  48.557  1.00  0.00    +0.000 C 
ATOM     60  C43 UNL A   1      26.180  39.599  48.011  1.00  0.00    +0.000 C 
ATOM     61  C44 UNL A   1      24.875  39.218  48.268  1.00  0.00    +0.000 C 
ATOM     62  C45 UNL A   1      24.600  38.069  47.519  1.00  0.00    +0.000 C 
ATOM     63  C46 UNL A   1      25.720  37.757  46.767  1.00  0.00    +0.000 C 
ATOM     64  N7  UNL A   1      26.686  38.697  47.086  1.00  0.00    +0.000 N 
ATOM     65  C47 UNL A   1      25.896  36.685  45.823  1.00  0.00    +0.000 C 
ATOM     77  C54 UNL A   1      27.038  36.424  45.140  1.00  0.00    +0.000 C 
ATOM     78  N8  UNL A   1      28.249  37.101  45.173  1.00  0.00    +0.000 N 
ATOM     79  C55 UNL A   1      29.043  36.458  44.352  1.00  0.00    +0.000 C 
ATOM     80  C56 UNL A   1      30.466  36.768  43.969  1.00  0.00    +0.000 C 
ATOM     92  C63 UNL A   1      31.058  37.863  44.479  1.00  0.00    +0.000 C 
ATOM     93  C64 UNL A   1      32.415  38.312  44.183  1.00  0.00    +0.000 C 
ATOM     94  C65 UNL A   1      32.671  39.428  44.887  1.00  0.00    +0.000 C 
ATOM     95  C66 UNL A   1      31.485  39.785  45.666  1.00  0.00    +0.000 C 
ATOM     96  N9  UNL A   1      30.579  38.799  45.363  1.00  0.00    +0.000 N 
ATOM     97  C67 UNL A   1      28.432  35.279  43.727  1.00  0.00    +0.000 C 
ATOM     98  C68 UNL A   1      27.198  35.328  44.207  1.00  0.00    +0.000 C 
ATOM     99  C69 UNL A   1      28.930  42.139  48.746  1.00  0.00    +0.000 C 
ATOM    100  C70 UNL A   1      30.102  42.268  48.143  1.00  0.00    +0.000 C 
ENDROOT
BRANCH   44   43
ATOM    101  C71 UNL A   1      33.384  41.652  47.737  1.00  0.00    +0.000 C 
ATOM    102  C72 UNL A   1      34.428  42.554  47.921  1.00  0.00    +0.000 C 
ATOM     40  C29 UNL A   1      34.683  43.528  46.951  1.00  0.00    +0.000 C 
ATOM     41  C30 UNL A   1      33.836  43.667  45.850  1.00  0.00    +0.000 C 
ATOM     42  C31 UNL A   1      32.752  42.803  45.699  1.00  0.00    +0.000 C 
ATOM     43  C32 UNL A   1      32.529  41.777  46.632  1.00  0.00    +0.000 C 
ATOM    147  H45 UNL A   1      34.011  44.406  45.151  1.00  0.00    +0.000 H 
ATOM    148  H46 UNL A   1      32.111  42.917  44.898  1.00  0.00    +0.000 H 
ATOM    159  H57 UNL A   1      33.239  40.888  48.416  1.00  0.00    +0.000 H 
ATOM    160  H58 UNL A   1      35.012  42.504  48.770  1.00  0.00    +0.000 H 
BRANCH   40   38
ATOM     38  C28 UNL A   1      35.842  44.438  47.067  1.00  0.00    +0.000 C 
ATOM     39  O6  UNL A   1      36.400  44.584  48.150  1.00  0.00    +0.000 O 
BRANCH   38   37
ATOM    146  H44 UNL A   1      36.470  44.600  45.171  1.00  0.00    +0.000 H 
ATOM     37  N5  UNL A   1      36.264  45.140  45.967  1.00  0.00    +0.000 N 
BRANCH   37   36
ATOM    145  H43 UNL A   1      36.617  46.769  44.784  1.00  0.00    +0.000 H 
ATOM     36  C27 UNL A   1      36.446  46.570  45.822  1.00  0.00    +0.000 C 
ATOM    144  H42 UNL A   1      37.276  46.872  46.425  1.00  0.00    +0.000 H 
BRANCH   36   35
ATOM     35  C26 UNL A   1      35.219  47.366  46.245  1.00  0.00    +0.000 C 
ATOM    142  H40 UNL A   1      34.937  47.042  47.225  1.00  0.00    +0.000 H 
ATOM    143  H41 UNL A   1      35.504  48.396  46.201  1.00  0.00    +0.000 H 
BRANCH   35   34
ATOM     34  C25 UNL A   1      33.998  47.226  45.332  1.00  0.00    +0.000 C 
ATOM    140  H38 UNL A   1      34.087  47.951  44.551  1.00  0.00    +0.000 H 
ATOM    141  H39 UNL A   1      34.008  46.213  44.989  1.00  0.00    +0.000 H 
BRANCH   34   33
ATOM     33  C24 UNL A   1      32.637  47.425  46.007  1.00  0.00    +0.000 C 
ATOM    138  H36 UNL A   1      32.512  48.471  46.194  1.00  0.00    +0.000 H 
ATOM    139  H37 UNL A   1      31.913  47.018  45.332  1.00  0.00    +0.000 H 
BRANCH   33   32
ATOM    137  H35 UNL A   1      32.300  47.430  48.083  1.00  0.00    +0.000 H 
ATOM    136  H34 UNL A   1      33.302  46.072  47.503  1.00  0.00    +0.000 H 
ATOM     32  C23 UNL A   1      32.440  46.682  47.331  1.00  0.00    +0.000 C 
BRANCH   32   31
ATOM    135  H33 UNL A   1      31.529  44.771  47.292  1.00  0.00    +0.000 H 
ATOM    134  H32 UNL A   1      30.561  46.051  46.563  1.00  0.00    +0.000 H 
ATOM     31  C22 UNL A   1      31.209  45.789  47.373  1.00  0.00    +0.000 C 
BRANCH   31   30
ATOM    133  H31 UNL A   1      31.034  45.918  49.436  1.00  0.00    +0.000 H 
ATOM     30  N4  UNL A   1      30.488  45.937  48.617  1.00  0.00    +0.000 N 
BRANCH   30   28
ATOM     28  C21 UNL A   1      29.148  46.101  48.798  1.00  0.00    +0.000 C 
ATOM     29  O5  UNL A   1      28.380  45.431  48.103  1.00  0.00    +0.000 O 
BRANCH   28    5
ATOM      5  C5  UNL A   1      28.601  47.143  49.792  1.00  0.00    +0.000 C 
ATOM    112  H10 UNL A   1      29.281  47.150  50.619  1.00  0.00    +0.000 H 
BRANCH    5    4
ATOM      4  C4  UNL A   1      27.264  46.767  50.441  1.00  0.00    +0.000 C 
ATOM    110  H8  UNL A   1      26.683  47.661  50.529  1.00  0.00    +0.000 H 
ATOM    111  H9  UNL A   1      26.836  46.023  49.803  1.00  0.00    +0.000 H 
BRANCH    4    2
ATOM      2  C2  UNL A   1      27.341  46.113  51.844  1.00  0.00    +0.000 C 
ATOM    106  H4  UNL A   1      26.327  45.881  52.095  1.00  0.00    +0.000 H 
BRANCH    2    1
ATOM      1  C1  UNL A   1      28.108  44.790  51.923  1.00  0.00    +0.000 C 
ATOM    105  H3  UNL A   1      27.770  44.231  52.771  1.00  0.00    +0.000 H 
ATOM    103  H1  UNL A   1      29.155  44.989  52.021  1.00  0.00    +0.000 H 
ATOM    104  H2  UNL A   1      27.935  44.224  51.031  1.00  0.00    +0.000 H 
ENDBRANCH    2    1
BRANCH    2    3
ATOM      3  C3  UNL A   1      27.991  47.097  52.823  1.00  0.00    +0.000 C 
ATOM    108  H6  UNL A   1      28.978  47.336  52.487  1.00  0.00    +0.000 H 
ATOM    109  H7  UNL A   1      28.043  46.651  53.795  1.00  0.00    +0.000 H 
ATOM    107  H5  UNL A   1      27.405  47.991  52.872  1.00  0.00    +0.000 H 
ENDBRANCH    2    3
ENDBRANCH    4    2
ENDBRANCH    5    4
BRANCH    5    6
ATOM    113  H11 UNL A   1      27.743  48.780  48.832  1.00  0.00    +0.000 H 
ATOM      6  N1  UNL A   1      28.606  48.483  49.204  1.00  0.00    +0.000 N 
BRANCH    6    7
ATOM      7  C6  UNL A   1      29.622  49.383  49.092  1.00  0.00    +0.000 C 
ATOM      8  O1  UNL A   1      30.002  49.916  50.141  1.00  0.00    +0.000 O 
BRANCH    7    9
ATOM      9  C7  UNL A   1      30.267  49.791  47.755  1.00  0.00    +0.000 C 
ATOM    114  H12 UNL A   1      29.829  49.180  46.992  1.00  0.00    +0.000 H 
ATOM    115  H13 UNL A   1      31.316  49.656  47.916  1.00  0.00    +0.000 H 
BRANCH    9   10
ATOM     10  N2  UNL A   1      30.142  51.166  47.327  1.00  0.00    +0.000 N 
ATOM    116  H14 UNL A   1      30.151  51.808  48.075  1.00  0.00    +0.000 H 
BRANCH   10   11
ATOM     11  C8  UNL A   1      30.015  51.759  46.116  1.00  0.00    +0.000 C 
ATOM     12  O2  UNL A   1      29.029  51.387  45.463  1.00  0.00    +0.000 O 
BRANCH   11   13
ATOM    117  H15 UNL A   1      30.713  52.905  44.467  1.00  0.00    +0.000 H 
ATOM     13  C9  UNL A   1      31.024  52.771  45.482  1.00  0.00    +0.000 C 
BRANCH   13   14
ATOM    118  H16 UNL A   1      31.757  54.526  46.307  1.00  0.00    +0.000 H 
ATOM     14  N3  UNL A   1      30.910  54.151  45.975  1.00  0.00    +0.000 N 
BRANCH   14   15
ATOM     15  C10 UNL A   1      29.862  55.006  46.059  1.00  0.00    +0.000 C 
ATOM     16  O3  UNL A   1      29.247  55.130  47.109  1.00  0.00    +0.000 O 
BRANCH   15   17
ATOM     17  O4  UNL A   1      29.547  55.608  44.895  1.00  0.00    +0.000 O 
BRANCH   17   18
ATOM     18  C11 UNL A   1      30.663  55.875  44.033  1.00  0.00    +0.000 C 
ATOM    119  H17 UNL A   1      31.474  55.240  44.323  1.00  0.00    +0.000 H 
ATOM    120  H18 UNL A   1      30.897  56.915  44.140  1.00  0.00    +0.000 H 
BRANCH   18   19
ATOM     19  C12 UNL A   1      30.372  55.637  42.560  1.00  0.00    +0.000 C 
ATOM     20  C13 UNL A   1      29.043  55.659  42.113  1.00  0.00    +0.000 C 
ATOM     21  C14 UNL A   1      28.727  55.361  40.784  1.00  0.00    +0.000 C 
ATOM     22  C15 UNL A   1      29.735  55.027  39.882  1.00  0.00    +0.000 C 
ATOM     23  C16 UNL A   1      31.056  54.995  40.306  1.00  0.00    +0.000 C 
ATOM     24  C17 UNL A   1      31.370  55.295  41.633  1.00  0.00    +0.000 C 
ATOM    121  H19 UNL A   1      28.287  55.899  42.775  1.00  0.00    +0.000 H 
ATOM    122  H20 UNL A   1      27.745  55.388  40.470  1.00  0.00    +0.000 H 
ATOM    123  H21 UNL A   1      29.499  54.804  38.902  1.00  0.00    +0.000 H 
ATOM    124  H22 UNL A   1      31.807  54.749  39.641  1.00  0.00    +0.000 H 
ATOM    125  H23 UNL A   1      32.355  55.264  41.939  1.00  0.00    +0.000 H 
ENDBRANCH   18   19
ENDBRANCH   17   18
ENDBRANCH   15   17
ENDBRANCH   14   15
ENDBRANCH   13   14
BRANCH   13   25
ATOM     25  C18 UNL A   1      32.448  52.189  45.336  1.00  0.00    +0.000 C 
ATOM    126  H24 UNL A   1      32.790  51.984  46.329  1.00  0.00    +0.000 H 
BRANCH   25   26
ATOM    129  H27 UNL A   1      33.043  50.153  45.001  1.00  0.00    +0.000 H 
ATOM     26  C19 UNL A   1      32.451  50.894  44.505  1.00  0.00    +0.000 C 
ATOM    127  H25 UNL A   1      32.866  51.093  43.539  1.00  0.00    +0.000 H 
ATOM    128  H26 UNL A   1      31.449  50.537  44.396  1.00  0.00    +0.000 H 
ENDBRANCH   25   26
BRANCH   25   27
ATOM    130  H28 UNL A   1      33.696  52.782  43.695  1.00  0.00    +0.000 H 
ATOM     27  C20 UNL A   1      33.381  53.188  44.634  1.00  0.00    +0.000 C 
ATOM    132  H30 UNL A   1      32.860  54.107  44.469  1.00  0.00    +0.000 H 
ATOM    131  H29 UNL A   1      34.237  53.368  45.250  1.00  0.00    +0.000 H 
ENDBRANCH   25   27
ENDBRANCH   13   25
ENDBRANCH   11   13
ENDBRANCH   10   11
ENDBRANCH    9   10
ENDBRANCH    7    9
ENDBRANCH    6    7
ENDBRANCH    5    6
ENDBRANCH   28    5
ENDBRANCH   30   28
ENDBRANCH   31   30
ENDBRANCH   32   31
ENDBRANCH   33   32
ENDBRANCH   34   33
ENDBRANCH   35   34
ENDBRANCH   36   35
ENDBRANCH   37   36
ENDBRANCH   38   37
ENDBRANCH   40   38
ENDBRANCH   44   43
BRANCH   48   49
ATOM     49  C37 UNL A   1      26.241  41.592  49.560  1.00  0.00    +0.000 C 
ATOM     50  C38 UNL A   1      25.618  42.790  49.174  1.00  0.00    +0.000 C 
ATOM     51  F1  UNL A   1      25.652  43.186  47.893  1.00  0.00    +0.000 F 
ATOM     52  C39 UNL A   1      24.993  43.608  50.111  1.00  0.00    +0.000 C 
ATOM     53  F2  UNL A   1      24.447  44.769  49.727  1.00  0.00    +0.000 F 
ATOM     54  C40 UNL A   1      24.947  43.228  51.445  1.00  0.00    +0.000 C 
ATOM     55  F3  UNL A   1      24.341  44.014  52.346  1.00  0.00    +0.000 F 
ATOM     56  C41 UNL A   1      25.538  42.039  51.845  1.00  0.00    +0.000 C 
ATOM     57  F4  UNL A   1      25.486  41.667  53.132  1.00  0.00    +0.000 F 
ATOM     58  C42 UNL A   1      26.189  41.233  50.914  1.00  0.00    +0.000 C 
ATOM     59  F5  UNL A   1      26.766  40.097  51.336  1.00  0.00    +0.000 F 
ENDBRANCH   48   49
BRANCH   65   66
ATOM     66  C48 UNL A   1      24.720  35.793  45.552  1.00  0.00    +0.000 C 
ATOM     67  C49 UNL A   1      24.619  34.517  46.121  1.00  0.00    +0.000 C 
ATOM     68  F6  UNL A   1      25.607  34.042  46.894  1.00  0.00    +0.000 F 
ATOM     69  C50 UNL A   1      23.518  33.705  45.863  1.00  0.00    +0.000 C 
ATOM     70  F7  UNL A   1      23.463  32.469  46.379  1.00  0.00    +0.000 F 
ATOM     71  C51 UNL A   1      22.485  34.168  45.059  1.00  0.00    +0.000 C 
ATOM     72  F8  UNL A   1      21.424  33.386  44.814  1.00  0.00    +0.000 F 
ATOM     73  C52 UNL A   1      22.556  35.436  44.503  1.00  0.00    +0.000 C 
ATOM     74  F9  UNL A   1      21.555  35.887  43.735  1.00  0.00    +0.000 F 
ATOM     75  C53 UNL A   1      23.668  36.239  44.737  1.00  0.00    +0.000 C 
ATOM     76  F10 UNL A   1      23.716  37.456  44.175  1.00  0.00    +0.000 F 
ENDBRANCH   65   66
BRANCH   80   81
ATOM     81  C57 UNL A   1      31.201  35.902  43.012  1.00  0.00    +0.000 C 
ATOM     82  C58 UNL A   1      31.313  36.256  41.660  1.00  0.00    +0.000 C 
ATOM     83  F11 UNL A   1      30.744  37.386  41.216  1.00  0.00    +0.000 F 
ATOM     84  C59 UNL A   1      31.972  35.430  40.752  1.00  0.00    +0.000 C 
ATOM     85  F12 UNL A   1      32.023  35.769  39.457  1.00  0.00    +0.000 F 
ATOM     86  C60 UNL A   1      32.558  34.249  41.185  1.00  0.00    +0.000 C 
ATOM     87  F13 UNL A   1      33.190  33.454  40.311  1.00  0.00    +0.000 F 
ATOM     88  C61 UNL A   1      32.477  33.889  42.521  1.00  0.00    +0.000 C 
ATOM     89  F14 UNL A   1      33.054  32.756  42.945  1.00  0.00    +0.000 F 
ATOM     90  C62 UNL A   1      31.797  34.702  43.425  1.00  0.00    +0.000 C 
ATOM     91  F15 UNL A   1      31.723  34.323  44.709  1.00  0.00    +0.000 F 
ENDBRANCH   80   81
TORSDOF 33
ENDMDL
MODEL 5
REMARK VINA RESULT:      -5.2     50.879     55.591
ROOT
ATOM    149  H47 UNL A   1      22.519   0.660   9.317  1.00  0.00    +0.000 H 
ATOM    150  H48 UNL A   1      20.564   2.019  10.381  1.00  0.00    +0.000 H 
ATOM    151  H49 UNL A   1      22.697   4.543   7.885  1.00  0.00    +0.000 H 
ATOM    152  H50 UNL A   1      23.608  10.358   5.397  1.00  0.00    +0.000 H 
ATOM    153  H51 UNL A   1      25.510   9.029   4.361  1.00  0.00    +0.000 H 
ATOM    154  H52 UNL A   1      23.365   6.464   6.831  1.00  0.00    +0.000 H 
ATOM    155  H53 UNL A   1      19.616   9.187   8.760  1.00  0.00    +0.000 H 
ATOM    156  H54 UNL A   1      19.011   7.124  10.150  1.00  0.00    +0.000 H 
ATOM    157  H55 UNL A   1      26.333   1.860   5.735  1.00  0.00    +0.000 H 
ATOM    158  H56 UNL A   1      27.270   4.023   4.736  1.00  0.00    +0.000 H 
ATOM     44  C33 UNL A   1      25.624   6.303   5.194  1.00  0.00    +0.000 C 
ATOM     45  C34 UNL A   1      25.438   4.914   5.735  1.00  0.00    +0.000 C 
ATOM     46  N6  UNL A   1      24.503   4.449   6.524  1.00  0.00    +0.000 N 
ATOM     47  C35 UNL A   1      24.781   3.098   6.685  1.00  0.00    +0.000 C 
ATOM     48  C36 UNL A   1      24.145   2.192   7.465  1.00  0.00    +0.000 C 
ATOM     60  C43 UNL A   1      23.009   2.494   8.293  1.00  0.00    +0.000 C 
ATOM     61  C44 UNL A   1      22.309   1.655   9.142  1.00  0.00    +0.000 C 
ATOM     62  C45 UNL A   1      21.269   2.389   9.723  1.00  0.00    +0.000 C 
ATOM     63  C46 UNL A   1      21.344   3.694   9.265  1.00  0.00    +0.000 C 
ATOM     64  N7  UNL A   1      22.408   3.742   8.380  1.00  0.00    +0.000 N 
ATOM     65  C47 UNL A   1      20.512   4.815   9.612  1.00  0.00    +0.000 C 
ATOM     77  C54 UNL A   1      20.630   6.064   9.099  1.00  0.00    +0.000 C 
ATOM     78  N8  UNL A   1      21.543   6.545   8.172  1.00  0.00    +0.000 N 
ATOM     79  C55 UNL A   1      21.240   7.807   7.988  1.00  0.00    +0.000 C 
ATOM     80  C56 UNL A   1      21.918   8.830   7.117  1.00  0.00    +0.000 C 
ATOM     92  C63 UNL A   1      23.017   8.476   6.425  1.00  0.00    +0.000 C 
ATOM     93  C64 UNL A   1      23.799   9.357   5.563  1.00  0.00    +0.000 C 
ATOM     94  C65 UNL A   1      24.810   8.656   5.022  1.00  0.00    +0.000 C 
ATOM     95  C66 UNL A   1      24.759   7.281   5.520  1.00  0.00    +0.000 C 
ATOM     96  N9  UNL A   1      23.661   7.266   6.344  1.00  0.00    +0.000 N 
ATOM     97  C67 UNL A   1      20.075   8.262   8.758  1.00  0.00    +0.000 C 
ATOM     98  C68 UNL A   1      19.768   7.175   9.450  1.00  0.00    +0.000 C 
ATOM     99  C69 UNL A   1      25.937   2.803   5.868  1.00  0.00    +0.000 C 
ATOM    100  C70 UNL A   1      26.422   3.904   5.314  1.00  0.00    +0.000 C 
ENDROOT
BRANCH   44   43
ATOM    101  C71 UNL A   1      26.612   6.286   2.902  1.00  0.00    +0.000 C 
ATOM    102  C72 UNL A   1      27.679   6.494   2.032  1.00  0.00    +0.000 C 
ATOM     40  C29 UNL A   1      28.851   7.096   2.501  1.00  0.00    +0.000 C 
ATOM     41  C30 UNL A   1      28.996   7.397   3.856  1.00  0.00    +0.000 C 
ATOM     42  C31 UNL A   1      27.950   7.129   4.739  1.00  0.00    +0.000 C 
ATOM     43  C32 UNL A   1      26.743   6.590   4.264  1.00  0.00    +0.000 C 
ATOM    147  H45 UNL A   1      29.873   7.815   4.204  1.00  0.00    +0.000 H 
ATOM    148  H46 UNL A   1      28.062   7.330   5.745  1.00  0.00    +0.000 H 
ATOM    159  H57 UNL A   1      25.722   5.908   2.541  1.00  0.00    +0.000 H 
ATOM    160  H58 UNL A   1      27.605   6.205   1.043  1.00  0.00    +0.000 H 
BRANCH   40   38
ATOM     38  C28 UNL A   1      29.964   7.420   1.584  1.00  0.00    +0.000 C 
ATOM     39  O6  UNL A   1      29.781   8.191   0.648  1.00  0.00    +0.000 O 
BRANCH   38   37
ATOM    146  H44 UNL A   1      31.959   7.438   1.776  1.00  0.00    +0.000 H 
ATOM     37  N5  UNL A   1      31.187   6.827   1.768  1.00  0.00    +0.000 N 
BRANCH   37   36
ATOM    145  H43 UNL A   1      32.329   5.191   1.327  1.00  0.00    +0.000 H 
ATOM     36  C27 UNL A   1      31.494   5.423   1.954  1.00  0.00    +0.000 C 
ATOM    144  H42 UNL A   1      30.631   4.848   1.693  1.00  0.00    +0.000 H 
BRANCH   36   35
ATOM     35  C26 UNL A   1      31.887   5.091   3.386  1.00  0.00    +0.000 C 
ATOM    142  H40 UNL A   1      32.737   4.442   3.353  1.00  0.00    +0.000 H 
ATOM    143  H41 UNL A   1      32.080   6.027   3.866  1.00  0.00    +0.000 H 
BRANCH   35   34
ATOM     34  C25 UNL A   1      30.802   4.405   4.222  1.00  0.00    +0.000 C 
ATOM    140  H38 UNL A   1      29.963   5.065   4.276  1.00  0.00    +0.000 H 
ATOM    141  H39 UNL A   1      30.597   3.479   3.727  1.00  0.00    +0.000 H 
BRANCH   34   33
ATOM     33  C24 UNL A   1      31.202   4.033   5.654  1.00  0.00    +0.000 C 
ATOM    138  H36 UNL A   1      31.322   2.971   5.696  1.00  0.00    +0.000 H 
ATOM    139  H37 UNL A   1      32.099   4.578   5.859  1.00  0.00    +0.000 H 
BRANCH   33   32
ATOM    137  H35 UNL A   1      29.768   3.533   7.110  1.00  0.00    +0.000 H 
ATOM    136  H34 UNL A   1      29.490   5.105   6.312  1.00  0.00    +0.000 H 
ATOM     32  C23 UNL A   1      30.207   4.439   6.744  1.00  0.00    +0.000 C 
BRANCH   32   31
ATOM    135  H33 UNL A   1      30.704   6.186   7.832  1.00  0.00    +0.000 H 
ATOM    134  H32 UNL A   1      31.876   4.879   7.984  1.00  0.00    +0.000 H 
ATOM     31  C22 UNL A   1      30.836   5.131   7.944  1.00  0.00    +0.000 C 
BRANCH   31   30
ATOM    133  H31 UNL A   1      29.962   5.454   9.797  1.00  0.00    +0.000 H 
ATOM     30  N4  UNL A   1      30.208   4.725   9.181  1.00  0.00    +0.000 N 
BRANCH   30   28
ATOM     28  C21 UNL A   1      29.913   3.464   9.601  1.00  0.00    +0.000 C 
ATOM     29  O5  UNL A   1      28.746   3.076   9.506  1.00  0.00    +0.000 O 
BRANCH   28    5
ATOM      5  C5  UNL A   1      30.988   2.568  10.244  1.00  0.00    +0.000 C 
ATOM    112  H10 UNL A   1      31.829   3.202  10.433  1.00  0.00    +0.000 H 
BRANCH    5    4
ATOM      4  C4  UNL A   1      31.563   1.492   9.315  1.00  0.00    +0.000 C 
ATOM    110  H8  UNL A   1      31.264   0.539   9.697  1.00  0.00    +0.000 H 
ATOM    111  H9  UNL A   1      31.179   1.720   8.343  1.00  0.00    +0.000 H 
BRANCH    4    2
ATOM      2  C2  UNL A   1      33.105   1.476   9.155  1.00  0.00    +0.000 C 
ATOM    106  H4  UNL A   1      33.465   2.157   9.897  1.00  0.00    +0.000 H 
BRANCH    2    1
ATOM      1  C1  UNL A   1      33.791   0.138   9.444  1.00  0.00    +0.000 C 
ATOM    105  H3  UNL A   1      33.879   0.002  10.502  1.00  0.00    +0.000 H 
ATOM    103  H1  UNL A   1      34.767   0.134   9.003  1.00  0.00    +0.000 H 
ATOM    104  H2  UNL A   1      33.210  -0.659   9.030  1.00  0.00    +0.000 H 
ENDBRANCH    2    1
BRANCH    2    3
ATOM      3  C3  UNL A   1      33.468   1.897   7.728  1.00  0.00    +0.000 C 
ATOM    108  H6  UNL A   1      32.770   2.632   7.384  1.00  0.00    +0.000 H 
ATOM    109  H7  UNL A   1      33.433   1.043   7.084  1.00  0.00    +0.000 H 
ATOM    107  H5  UNL A   1      34.455   2.311   7.718  1.00  0.00    +0.000 H 
ENDBRANCH    2    3
ENDBRANCH    4    2
ENDBRANCH    5    4
BRANCH    5    6
ATOM    113  H11 UNL A   1      30.545   2.686  12.276  1.00  0.00    +0.000 H 
ATOM      6  N1  UNL A   1      30.532   2.041  11.531  1.00  0.00    +0.000 N 
BRANCH    6    7
ATOM      7  C6  UNL A   1      30.092   0.794  11.857  1.00  0.00    +0.000 C 
ATOM      8  O1  UNL A   1      30.923   0.035  12.371  1.00  0.00    +0.000 O 
BRANCH    7    9
ATOM      9  C7  UNL A   1      28.666   0.285  11.580  1.00  0.00    +0.000 C 
ATOM    114  H12 UNL A   1      28.690  -0.229  10.642  1.00  0.00    +0.000 H 
ATOM    115  H13 UNL A   1      28.060   1.166  11.614  1.00  0.00    +0.000 H 
BRANCH    9   10
ATOM     10  N2  UNL A   1      28.059  -0.606  12.544  1.00  0.00    +0.000 N 
ATOM    116  H14 UNL A   1      28.001  -0.219  13.448  1.00  0.00    +0.000 H 
BRANCH   10   11
ATOM     11  C8  UNL A   1      27.555  -1.861  12.466  1.00  0.00    +0.000 C 
ATOM     12  O2  UNL A   1      26.444  -1.934  11.921  1.00  0.00    +0.000 O 
BRANCH   11   13
ATOM    117  H15 UNL A   1      27.977  -3.145  14.107  1.00  0.00    +0.000 H 
ATOM     13  C9  UNL A   1      28.209  -3.149  13.063  1.00  0.00    +0.000 C 
BRANCH   13   14
ATOM    118  H16 UNL A   1      27.874  -4.746  11.784  1.00  0.00    +0.000 H 
ATOM     14  N3  UNL A   1      27.573  -4.411  12.659  1.00  0.00    +0.000 N 
BRANCH   14   15
ATOM     15  C10 UNL A   1      26.653  -5.202  13.261  1.00  0.00    +0.000 C 
ATOM     16  O3  UNL A   1      26.791  -5.531  14.431  1.00  0.00    +0.000 O 
BRANCH   15   17
ATOM     17  O4  UNL A   1      25.669  -5.625  12.443  1.00  0.00    +0.000 O 
BRANCH   17   18
ATOM     18  C11 UNL A   1      26.096  -5.986  11.121  1.00  0.00    +0.000 C 
ATOM    119  H17 UNL A   1      26.574  -6.942  11.170  1.00  0.00    +0.000 H 
ATOM    120  H18 UNL A   1      26.757  -5.213  10.787  1.00  0.00    +0.000 H 
BRANCH   18   19
ATOM     19  C12 UNL A   1      24.964  -6.067  10.111  1.00  0.00    +0.000 C 
ATOM     20  C13 UNL A   1      24.421  -7.320   9.790  1.00  0.00    +0.000 C 
ATOM     21  C14 UNL A   1      23.438  -7.446   8.804  1.00  0.00    +0.000 C 
ATOM     22  C15 UNL A   1      22.987  -6.322   8.116  1.00  0.00    +0.000 C 
ATOM     23  C16 UNL A   1      23.515  -5.073   8.416  1.00  0.00    +0.000 C 
ATOM     24  C17 UNL A   1      24.495  -4.949   9.402  1.00  0.00    +0.000 C 
ATOM    121  H19 UNL A   1      24.753  -8.161  10.290  1.00  0.00    +0.000 H 
ATOM    122  H20 UNL A   1      23.045  -8.375   8.586  1.00  0.00    +0.000 H 
ATOM    123  H21 UNL A   1      22.263  -6.418   7.387  1.00  0.00    +0.000 H 
ATOM    124  H22 UNL A   1      23.183  -4.237   7.909  1.00  0.00    +0.000 H 
ATOM    125  H23 UNL A   1      24.884  -4.016   9.613  1.00  0.00    +0.000 H 
ENDBRANCH   18   19
ENDBRANCH   17   18
ENDBRANCH   15   17
ENDBRANCH   14   15
ENDBRANCH   13   14
BRANCH   13   25
ATOM     25  C18 UNL A   1      29.753  -3.101  13.048  1.00  0.00    +0.000 C 
ATOM    126  H24 UNL A   1      30.020  -2.070  12.943  1.00  0.00    +0.000 H 
BRANCH   25   26
ATOM    129  H27 UNL A   1      29.586  -3.748  15.089  1.00  0.00    +0.000 H 
ATOM     26  C19 UNL A   1      30.353  -3.666  14.348  1.00  0.00    +0.000 C 
ATOM    127  H25 UNL A   1      31.121  -3.010  14.700  1.00  0.00    +0.000 H 
ATOM    128  H26 UNL A   1      30.771  -4.633  14.158  1.00  0.00    +0.000 H 
ENDBRANCH   25   26
BRANCH   25   27
ATOM    130  H28 UNL A   1      31.225  -3.480  11.534  1.00  0.00    +0.000 H 
ATOM     27  C20 UNL A   1      30.318  -3.930  11.884  1.00  0.00    +0.000 C 
ATOM    132  H30 UNL A   1      30.520  -4.925  12.219  1.00  0.00    +0.000 H 
ATOM    131  H29 UNL A   1      29.604  -3.959  11.088  1.00  0.00    +0.000 H 
ENDBRANCH   25   27
ENDBRANCH   13   25
ENDBRANCH   11   13
ENDBRANCH   10   11
ENDBRANCH    9   10
ENDBRANCH    7    9
ENDBRANCH    6    7
ENDBRANCH    5    6
ENDBRANCH   28    5
ENDBRANCH   30   28
ENDBRANCH   31   30
ENDBRANCH   32   31
ENDBRANCH   33   32
ENDBRANCH   34   33
ENDBRANCH   35   34
ENDBRANCH   36   35
ENDBRANCH   37   36
ENDBRANCH   38   37
ENDBRANCH   40   38
ENDBRANCH   44   43
BRANCH   48   49
ATOM     49  C37 UNL A   1      24.677   0.789   7.465  1.00  0.00    +0.000 C 
ATOM     50  C38 UNL A   1      25.730   0.408   8.313  1.00  0.00    +0.000 C 
ATOM     51  F1  UNL A   1      26.309   1.311   9.119  1.00  0.00    +0.000 F 
ATOM     52  C39 UNL A   1      26.219  -0.895   8.306  1.00  0.00    +0.000 C 
ATOM     53  F2  UNL A   1      27.255  -1.224   9.090  1.00  0.00    +0.000 F 
ATOM     54  C40 UNL A   1      25.646  -1.850   7.479  1.00  0.00    +0.000 C 
ATOM     55  F3  UNL A   1      26.115  -3.105   7.477  1.00  0.00    +0.000 F 
ATOM     56  C41 UNL A   1      24.592  -1.499   6.648  1.00  0.00    +0.000 C 
ATOM     57  F4  UNL A   1      24.030  -2.424   5.855  1.00  0.00    +0.000 F 
ATOM     58  C42 UNL A   1      24.118  -0.190   6.632  1.00  0.00    +0.000 C 
ATOM     59  F5  UNL A   1      23.109   0.122   5.805  1.00  0.00    +0.000 F 
ENDBRANCH   48   49
BRANCH   65   66
ATOM     66  C48 UNL A   1      19.439   4.597  10.638  1.00  0.00    +0.000 C 
ATOM     67  C49 UNL A   1      18.155   4.163  10.279  1.00  0.00    +0.000 C 
ATOM     68  F6  UNL A   1      17.843   3.975   8.988  1.00  0.00    +0.000 F 
ATOM     69  C50 UNL A   1      17.174   3.960  11.245  1.00  0.00    +0.000 C 
ATOM     70  F7  UNL A   1      15.940   3.591  10.877  1.00  0.00    +0.000 F 
ATOM     71  C51 UNL A   1      17.467   4.156  12.588  1.00  0.00    +0.000 C 
ATOM     72  F8  UNL A   1      16.522   3.957  13.517  1.00  0.00    +0.000 F 
ATOM     73  C52 UNL A   1      18.737   4.565  12.966  1.00  0.00    +0.000 C 
ATOM     74  F9  UNL A   1      19.024   4.744  14.262  1.00  0.00    +0.000 F 
ATOM     75  C53 UNL A   1      19.712   4.794  12.000  1.00  0.00    +0.000 C 
ATOM     76  F10 UNL A   1      20.928   5.203  12.394  1.00  0.00    +0.000 F 
ENDBRANCH   65   66
BRANCH   80   81
ATOM     81  C57 UNL A   1      21.410  10.224   7.044  1.00  0.00    +0.000 C 
ATOM     82  C58 UNL A   1      20.308  10.547   6.240  1.00  0.00    +0.000 C 
ATOM     83  F11 UNL A   1      19.705   9.591   5.518  1.00  0.00    +0.000 F 
ATOM     84  C59 UNL A   1      19.849  11.858   6.141  1.00  0.00    +0.000 C 
ATOM     85  F12 UNL A   1      18.823  12.146   5.328  1.00  0.00    +0.000 F 
ATOM     86  C60 UNL A   1      20.464  12.866   6.867  1.00  0.00    +0.000 C 
ATOM     87  F13 UNL A   1      20.023  14.128   6.771  1.00  0.00    +0.000 F 
ATOM     88  C61 UNL A   1      21.543  12.567   7.685  1.00  0.00    +0.000 C 
ATOM     89  F14 UNL A   1      22.131  13.537   8.399  1.00  0.00    +0.000 F 
ATOM     90  C62 UNL A   1      22.019  11.260   7.766  1.00  0.00    +0.000 C 
ATOM     91  F15 UNL A   1      23.072  11.001   8.554  1.00  0.00    +0.000 F 
ENDBRANCH   80   81
TORSDOF 33
ENDMDL
MODEL 6
REMARK VINA RESULT:      -5.2     49.460     53.224
ROOT
ATOM    149  H47 UNL A   1      15.292  47.090  -0.061  1.00  0.00    +0.000 H 
ATOM    150  H48 UNL A   1      13.643  46.763   1.933  1.00  0.00    +0.000 H 
ATOM    151  H49 UNL A   1      15.158  50.613   2.115  1.00  0.00    +0.000 H 
ATOM    152  H50 UNL A   1      15.505  56.266   5.074  1.00  0.00    +0.000 H 
ATOM    153  H51 UNL A   1      17.110  56.581   3.128  1.00  0.00    +0.000 H 
ATOM    154  H52 UNL A   1      15.576  52.724   2.900  1.00  0.00    +0.000 H 
ATOM    155  H53 UNL A   1      12.390  52.253   6.748  1.00  0.00    +0.000 H 
ATOM    156  H54 UNL A   1      12.109  49.809   6.043  1.00  0.00    +0.000 H 
ATOM    157  H55 UNL A   1      18.185  51.258  -1.818  1.00  0.00    +0.000 H 
ATOM    158  H56 UNL A   1      18.879  53.524  -0.849  1.00  0.00    +0.000 H 
ATOM     44  C33 UNL A   1      17.396  54.283   1.463  1.00  0.00    +0.000 C 
ATOM     45  C34 UNL A   1      17.332  52.980   0.719  1.00  0.00    +0.000 C 
ATOM     46  N6  UNL A   1      16.601  51.921   0.962  1.00  0.00    +0.000 N 
ATOM     47  C35 UNL A   1      16.900  51.015  -0.047  1.00  0.00    +0.000 C 
ATOM     48  C36 UNL A   1      16.456  49.745  -0.201  1.00  0.00    +0.000 C 
ATOM     60  C43 UNL A   1      15.543  49.093   0.699  1.00  0.00    +0.000 C 
ATOM     61  C44 UNL A   1      15.054  47.800   0.649  1.00  0.00    +0.000 C 
ATOM     62  C45 UNL A   1      14.180  47.622   1.727  1.00  0.00    +0.000 C 
ATOM     63  C46 UNL A   1      14.155  48.790   2.470  1.00  0.00    +0.000 C 
ATOM     64  N7  UNL A   1      14.987  49.688   1.823  1.00  0.00    +0.000 N 
ATOM     65  C47 UNL A   1      13.432  49.066   3.683  1.00  0.00    +0.000 C 
ATOM     77  C54 UNL A   1      13.435  50.250   4.343  1.00  0.00    +0.000 C 
ATOM     78  N8  UNL A   1      14.114  51.421   4.033  1.00  0.00    +0.000 N 
ATOM     79  C55 UNL A   1      13.784  52.285   4.962  1.00  0.00    +0.000 C 
ATOM     80  C56 UNL A   1      14.249  53.704   5.147  1.00  0.00    +0.000 C 
ATOM     92  C63 UNL A   1      15.156  54.213   4.293  1.00  0.00    +0.000 C 
ATOM     93  C64 UNL A   1      15.724  55.556   4.357  1.00  0.00    +0.000 C 
ATOM     94  C65 UNL A   1      16.578  55.720   3.333  1.00  0.00    +0.000 C 
ATOM     95  C66 UNL A   1      16.635  54.482   2.554  1.00  0.00    +0.000 C 
ATOM     96  N9  UNL A   1      15.757  53.645   3.196  1.00  0.00    +0.000 N 
ATOM     97  C67 UNL A   1      12.830  51.767   5.952  1.00  0.00    +0.000 C 
ATOM     98  C68 UNL A   1      12.685  50.511   5.554  1.00  0.00    +0.000 C 
ATOM     99  C69 UNL A   1      17.836  51.667  -0.937  1.00  0.00    +0.000 C 
ATOM    100  C70 UNL A   1      18.187  52.856  -0.472  1.00  0.00    +0.000 C 
ENDROOT
BRANCH   44   43
ATOM    101  C71 UNL A   1      19.542  55.558   1.535  1.00  0.00    +0.000 C 
ATOM    102  C72 UNL A   1      20.347  56.615   1.121  1.00  0.00    +0.000 C 
ATOM     40  C29 UNL A   1      19.927  57.438   0.071  1.00  0.00    +0.000 C 
ATOM     41  C30 UNL A   1      18.663  57.268  -0.497  1.00  0.00    +0.000 C 
ATOM     42  C31 UNL A   1      17.831  56.247  -0.038  1.00  0.00    +0.000 C 
ATOM     43  C32 UNL A   1      18.273  55.373   0.968  1.00  0.00    +0.000 C 
ATOM    147  H45 UNL A   1      18.346  57.896  -1.253  1.00  0.00    +0.000 H 
ATOM    148  H46 UNL A   1      16.887  56.134  -0.440  1.00  0.00    +0.000 H 
ATOM    159  H57 UNL A   1      19.882  54.907   2.260  1.00  0.00    +0.000 H 
ATOM    160  H58 UNL A   1      21.251  56.792   1.587  1.00  0.00    +0.000 H 
BRANCH   40   38
ATOM     38  C28 UNL A   1      20.799  58.508  -0.458  1.00  0.00    +0.000 C 
ATOM     39  O6  UNL A   1      20.816  59.608   0.084  1.00  0.00    +0.000 O 
BRANCH   38   37
ATOM    146  H44 UNL A   1      21.371  58.852  -2.348  1.00  0.00    +0.000 H 
ATOM     37  N5  UNL A   1      21.558  58.271  -1.576  1.00  0.00    +0.000 N 
BRANCH   37   36
ATOM    145  H43 UNL A   1      22.297  56.653  -2.582  1.00  0.00    +0.000 H 
ATOM     36  C27 UNL A   1      22.599  57.282  -1.771  1.00  0.00    +0.000 C 
ATOM    144  H42 UNL A   1      22.718  56.728  -0.863  1.00  0.00    +0.000 H 
BRANCH   36   35
ATOM     35  C26 UNL A   1      23.938  57.902  -2.144  1.00  0.00    +0.000 C 
ATOM    142  H40 UNL A   1      23.831  58.966  -2.108  1.00  0.00    +0.000 H 
ATOM    143  H41 UNL A   1      24.648  57.519  -1.442  1.00  0.00    +0.000 H 
BRANCH   35   34
ATOM     34  C25 UNL A   1      24.471  57.527  -3.530  1.00  0.00    +0.000 C 
ATOM    140  H38 UNL A   1      23.752  57.846  -4.255  1.00  0.00    +0.000 H 
ATOM    141  H39 UNL A   1      25.420  58.011  -3.617  1.00  0.00    +0.000 H 
BRANCH   34   33
ATOM     33  C24 UNL A   1      24.740  56.036  -3.758  1.00  0.00    +0.000 C 
ATOM    138  H36 UNL A   1      25.503  55.731  -3.073  1.00  0.00    +0.000 H 
ATOM    139  H37 UNL A   1      23.803  55.542  -3.608  1.00  0.00    +0.000 H 
BRANCH   33   32
ATOM    137  H35 UNL A   1      25.482  56.564  -5.654  1.00  0.00    +0.000 H 
ATOM    136  H34 UNL A   1      24.382  55.159  -5.659  1.00  0.00    +0.000 H 
ATOM     32  C23 UNL A   1      25.193  55.654  -5.169  1.00  0.00    +0.000 C 
BRANCH   32   31
ATOM    135  H33 UNL A   1      26.120  53.824  -5.693  1.00  0.00    +0.000 H 
ATOM    134  H32 UNL A   1      26.739  54.552  -4.213  1.00  0.00    +0.000 H 
ATOM     31  C22 UNL A   1      26.406  54.736  -5.213  1.00  0.00    +0.000 C 
BRANCH   31   30
ATOM    133  H31 UNL A   1      28.163  55.814  -5.442  1.00  0.00    +0.000 H 
ATOM     30  N4  UNL A   1      27.490  55.323  -5.968  1.00  0.00    +0.000 N 
BRANCH   30   28
ATOM     28  C21 UNL A   1      27.698  55.282  -7.313  1.00  0.00    +0.000 C 
ATOM     29  O5  UNL A   1      27.642  56.341  -7.944  1.00  0.00    +0.000 O 
BRANCH   28    5
ATOM      5  C5  UNL A   1      27.927  53.944  -8.042  1.00  0.00    +0.000 C 
ATOM    112  H10 UNL A   1      27.673  53.177  -7.340  1.00  0.00    +0.000 H 
BRANCH    5    4
ATOM      4  C4  UNL A   1      29.392  53.641  -8.377  1.00  0.00    +0.000 C 
ATOM    110  H8  UNL A   1      29.858  53.266  -7.490  1.00  0.00    +0.000 H 
ATOM    111  H9  UNL A   1      29.361  52.946  -9.189  1.00  0.00    +0.000 H 
BRANCH    4    2
ATOM      2  C2  UNL A   1      30.240  54.834  -8.888  1.00  0.00    +0.000 C 
ATOM    106  H4  UNL A   1      29.841  55.689  -8.384  1.00  0.00    +0.000 H 
BRANCH    2    1
ATOM      1  C1  UNL A   1      31.729  54.794  -8.535  1.00  0.00    +0.000 C 
ATOM    105  H3  UNL A   1      32.146  53.860  -8.851  1.00  0.00    +0.000 H 
ATOM    103  H1  UNL A   1      31.848  54.897  -7.476  1.00  0.00    +0.000 H 
ATOM    104  H2  UNL A   1      32.236  55.596  -9.031  1.00  0.00    +0.000 H 
ENDBRANCH    2    1
BRANCH    2    3
ATOM      3  C3  UNL A   1      30.116  54.924 -10.413  1.00  0.00    +0.000 C 
ATOM    108  H6  UNL A   1      29.278  55.540 -10.667  1.00  0.00    +0.000 H 
ATOM    109  H7  UNL A   1      29.972  53.943 -10.817  1.00  0.00    +0.000 H 
ATOM    107  H5  UNL A   1      31.009  55.350 -10.819  1.00  0.00    +0.000 H 
ENDBRANCH    2    3
ENDBRANCH    4    2
ENDBRANCH    5    4
BRANCH    5    6
ATOM    113  H11 UNL A   1      27.438  53.996 -10.066  1.00  0.00    +0.000 H 
ATOM      6  N1  UNL A   1      27.028  53.811  -9.189  1.00  0.00    +0.000 N 
BRANCH    6    7
ATOM      7  C6  UNL A   1      25.710  53.471  -9.230  1.00  0.00    +0.000 C 
ATOM      8  O1  UNL A   1      24.913  54.387  -9.466  1.00  0.00    +0.000 O 
BRANCH    7    9
ATOM      9  C7  UNL A   1      25.179  52.052  -8.957  1.00  0.00    +0.000 C 
ATOM    114  H12 UNL A   1      24.344  52.148  -8.294  1.00  0.00    +0.000 H 
ATOM    115  H13 UNL A   1      26.025  51.524  -8.568  1.00  0.00    +0.000 H 
BRANCH    9   10
ATOM     10  N2  UNL A   1      24.744  51.256 -10.083  1.00  0.00    +0.000 N 
ATOM    116  H14 UNL A   1      23.840  50.881  -9.968  1.00  0.00    +0.000 H 
BRANCH   10   11
ATOM     11  C8  UNL A   1      25.317  50.916 -11.262  1.00  0.00    +0.000 C 
ATOM     12  O2  UNL A   1      25.099  51.712 -12.187  1.00  0.00    +0.000 O 
BRANCH   11   13
ATOM    117  H15 UNL A   1      27.129  49.918 -11.754  1.00  0.00    +0.000 H 
ATOM     13  C9  UNL A   1      26.127  49.608 -11.543  1.00  0.00    +0.000 C 
BRANCH   13   14
ATOM    118  H16 UNL A   1      25.532  48.488  -9.904  1.00  0.00    +0.000 H 
ATOM     14  N3  UNL A   1      26.357  48.758 -10.367  1.00  0.00    +0.000 N 
BRANCH   14   15
ATOM     15  C10 UNL A   1      27.488  48.273  -9.799  1.00  0.00    +0.000 C 
ATOM     16  O3  UNL A   1      27.428  47.381  -8.964  1.00  0.00    +0.000 O 
BRANCH   15   17
ATOM     17  O4  UNL A   1      28.614  48.908 -10.182  1.00  0.00    +0.000 O 
BRANCH   17   18
ATOM     18  C11 UNL A   1      29.487  49.286  -9.108  1.00  0.00    +0.000 C 
ATOM    119  H17 UNL A   1      29.361  48.588  -8.307  1.00  0.00    +0.000 H 
ATOM    120  H18 UNL A   1      29.221  50.285  -8.827  1.00  0.00    +0.000 H 
BRANCH   18   19
ATOM     19  C12 UNL A   1      30.957  49.312  -9.492  1.00  0.00    +0.000 C 
ATOM     20  C13 UNL A   1      31.581  50.546  -9.731  1.00  0.00    +0.000 C 
ATOM     21  C14 UNL A   1      32.907  50.607 -10.169  1.00  0.00    +0.000 C 
ATOM     22  C15 UNL A   1      33.630  49.436 -10.384  1.00  0.00    +0.000 C 
ATOM     23  C16 UNL A   1      33.030  48.205 -10.157  1.00  0.00    +0.000 C 
ATOM     24  C17 UNL A   1      31.706  48.145  -9.718  1.00  0.00    +0.000 C 
ATOM    121  H19 UNL A   1      31.052  51.421  -9.582  1.00  0.00    +0.000 H 
ATOM    122  H20 UNL A   1      33.352  51.523 -10.335  1.00  0.00    +0.000 H 
ATOM    123  H21 UNL A   1      34.608  49.484 -10.710  1.00  0.00    +0.000 H 
ATOM    124  H22 UNL A   1      33.561  47.334 -10.313  1.00  0.00    +0.000 H 
ATOM    125  H23 UNL A   1      31.268  47.224  -9.556  1.00  0.00    +0.000 H 
ENDBRANCH   18   19
ENDBRANCH   17   18
ENDBRANCH   15   17
ENDBRANCH   14   15
ENDBRANCH   13   14
BRANCH   13   25
ATOM     25  C18 UNL A   1      25.697  48.904 -12.850  1.00  0.00    +0.000 C 
ATOM    126  H24 UNL A   1      25.021  49.572 -13.341  1.00  0.00    +0.000 H 
BRANCH   25   26
ATOM    129  H27 UNL A   1      27.582  49.439 -13.729  1.00  0.00    +0.000 H 
ATOM     26  C19 UNL A   1      26.901  48.614 -13.763  1.00  0.00    +0.000 C 
ATOM    127  H25 UNL A   1      26.560  48.475 -14.768  1.00  0.00    +0.000 H 
ATOM    128  H26 UNL A   1      27.397  47.727 -13.429  1.00  0.00    +0.000 H 
ENDBRANCH   25   26
BRANCH   25   27
ATOM    130  H28 UNL A   1      24.485  47.229 -13.421  1.00  0.00    +0.000 H 
ATOM     27  C20 UNL A   1      25.014  47.561 -12.551  1.00  0.00    +0.000 C 
ATOM    132  H30 UNL A   1      25.753  46.836 -12.285  1.00  0.00    +0.000 H 
ATOM    131  H29 UNL A   1      24.325  47.684 -11.742  1.00  0.00    +0.000 H 
ENDBRANCH   25   27
ENDBRANCH   13   25
ENDBRANCH   11   13
ENDBRANCH   10   11
ENDBRANCH    9   10
ENDBRANCH    7    9
ENDBRANCH    6    7
ENDBRANCH    5    6
ENDBRANCH   28    5
ENDBRANCH   30   28
ENDBRANCH   31   30
ENDBRANCH   32   31
ENDBRANCH   33   32
ENDBRANCH   34   33
ENDBRANCH   35   34
ENDBRANCH   36   35
ENDBRANCH   37   36
ENDBRANCH   38   37
ENDBRANCH   40   38
ENDBRANCH   44   43
BRANCH   48   49
ATOM     49  C37 UNL A   1      16.966  48.976  -1.383  1.00  0.00    +0.000 C 
ATOM     50  C38 UNL A   1      16.310  49.024  -2.624  1.00  0.00    +0.000 C 
ATOM     51  F1  UNL A   1      15.182  49.736  -2.764  1.00  0.00    +0.000 F 
ATOM     52  C39 UNL A   1      16.789  48.305  -3.716  1.00  0.00    +0.000 C 
ATOM     53  F2  UNL A   1      16.120  48.329  -4.877  1.00  0.00    +0.000 F 
ATOM     54  C40 UNL A   1      17.949  47.554  -3.600  1.00  0.00    +0.000 C 
ATOM     55  F3  UNL A   1      18.412  46.867  -4.654  1.00  0.00    +0.000 F 
ATOM     56  C41 UNL A   1      18.624  47.509  -2.389  1.00  0.00    +0.000 C 
ATOM     57  F4  UNL A   1      19.752  46.791  -2.279  1.00  0.00    +0.000 F 
ATOM     58  C42 UNL A   1      18.132  48.204  -1.287  1.00  0.00    +0.000 C 
ATOM     59  F5  UNL A   1      18.799  48.126  -0.125  1.00  0.00    +0.000 F 
ENDBRANCH   48   49
BRANCH   65   66
ATOM     66  C48 UNL A   1      12.623  47.953   4.282  1.00  0.00    +0.000 C 
ATOM     67  C49 UNL A   1      13.089  47.214   5.378  1.00  0.00    +0.000 C 
ATOM     68  F6  UNL A   1      14.304  47.459   5.891  1.00  0.00    +0.000 F 
ATOM     69  C50 UNL A   1      12.322  46.188   5.925  1.00  0.00    +0.000 C 
ATOM     70  F7  UNL A   1      12.805  45.462   6.942  1.00  0.00    +0.000 F 
ATOM     71  C51 UNL A   1      11.065  45.907   5.408  1.00  0.00    +0.000 C 
ATOM     72  F8  UNL A   1      10.327  44.922   5.937  1.00  0.00    +0.000 F 
ATOM     73  C52 UNL A   1      10.576  46.641   4.337  1.00  0.00    +0.000 C 
ATOM     74  F9  UNL A   1       9.359  46.377   3.844  1.00  0.00    +0.000 F 
ATOM     75  C53 UNL A   1      11.352  47.649   3.771  1.00  0.00    +0.000 C 
ATOM     76  F10 UNL A   1      10.861  48.333   2.727  1.00  0.00    +0.000 F 
ENDBRANCH   65   66
BRANCH   80   81
ATOM     81  C57 UNL A   1      13.746  54.528   6.276  1.00  0.00    +0.000 C 
ATOM     82  C58 UNL A   1      12.747  55.491   6.075  1.00  0.00    +0.000 C 
ATOM     83  F11 UNL A   1      12.240  55.682   4.848  1.00  0.00    +0.000 F 
ATOM     84  C59 UNL A   1      12.296  56.290   7.123  1.00  0.00    +0.000 C 
ATOM     85  F12 UNL A   1      11.374  57.235   6.893  1.00  0.00    +0.000 F 
ATOM     86  C60 UNL A   1      12.814  56.121   8.398  1.00  0.00    +0.000 C 
ATOM     87  F13 UNL A   1      12.381  56.891   9.406  1.00  0.00    +0.000 F 
ATOM     88  C61 UNL A   1      13.788  55.161   8.625  1.00  0.00    +0.000 C 
ATOM     89  F14 UNL A   1      14.281  54.986   9.859  1.00  0.00    +0.000 F 
ATOM     90  C62 UNL A   1      14.257  54.378   7.572  1.00  0.00    +0.000 C 
ATOM     91  F15 UNL A   1      15.209  53.467   7.817  1.00  0.00    +0.000 F 
ENDBRANCH   80   81
TORSDOF 33
ENDMDL
MODEL 7
REMARK VINA RESULT:      -5.1     25.422     30.883
ROOT
ATOM    149  H47 UNL A   1      41.503  14.127  49.251  1.00  0.00    +0.000 H 
ATOM    150  H48 UNL A   1      42.470  12.880  47.175  1.00  0.00    +0.000 H 
ATOM    151  H49 UNL A   1      44.222  16.627  47.375  1.00  0.00    +0.000 H 
ATOM    152  H50 UNL A   1      48.179  21.000  44.916  1.00  0.00    +0.000 H 
ATOM    153  H51 UNL A   1      47.237  22.211  46.942  1.00  0.00    +0.000 H 
ATOM    154  H52 UNL A   1      45.490  18.441  46.787  1.00  0.00    +0.000 H 
ATOM    155  H53 UNL A   1      47.475  16.141  42.792  1.00  0.00    +0.000 H 
ATOM    156  H54 UNL A   1      45.873  14.205  43.278  1.00  0.00    +0.000 H 
ATOM    157  H55 UNL A   1      42.470  18.924  51.462  1.00  0.00    +0.000 H 
ATOM    158  H56 UNL A   1      43.667  21.059  50.713  1.00  0.00    +0.000 H 
ATOM     44  C33 UNL A   1      45.317  20.703  48.419  1.00  0.00    +0.000 C 
ATOM     45  C34 UNL A   1      44.391  19.701  49.047  1.00  0.00    +0.000 C 
ATOM     46  N6  UNL A   1      44.136  18.468  48.688  1.00  0.00    +0.000 N 
ATOM     47  C35 UNL A   1      43.239  17.979  49.628  1.00  0.00    +0.000 C 
ATOM     48  C36 UNL A   1      42.620  16.775  49.658  1.00  0.00    +0.000 C 
ATOM     60  C43 UNL A   1      42.807  15.745  48.672  1.00  0.00    +0.000 C 
ATOM     61  C44 UNL A   1      42.206  14.501  48.595  1.00  0.00    +0.000 C 
ATOM     62  C45 UNL A   1      42.715  13.838  47.473  1.00  0.00    +0.000 C 
ATOM     63  C46 UNL A   1      43.604  14.683  46.830  1.00  0.00    +0.000 C 
ATOM     64  N7  UNL A   1      43.660  15.845  47.582  1.00  0.00    +0.000 N 
ATOM     65  C47 UNL A   1      44.344  14.452  45.618  1.00  0.00    +0.000 C 
ATOM     77  C54 UNL A   1      45.222  15.322  45.060  1.00  0.00    +0.000 C 
ATOM     78  N8  UNL A   1      45.592  16.587  45.493  1.00  0.00    +0.000 N 
ATOM     79  C55 UNL A   1      46.477  17.019  44.628  1.00  0.00    +0.000 C 
ATOM     80  C56 UNL A   1      47.191  18.343  44.580  1.00  0.00    +0.000 C 
ATOM     92  C63 UNL A   1      46.906  19.275  45.508  1.00  0.00    +0.000 C 
ATOM     93  C64 UNL A   1      47.490  20.611  45.579  1.00  0.00    +0.000 C 
ATOM     94  C65 UNL A   1      46.985  21.254  46.645  1.00  0.00    +0.000 C 
ATOM     95  C66 UNL A   1      46.022  20.382  47.319  1.00  0.00    +0.000 C 
ATOM     96  N9  UNL A   1      46.043  19.228  46.576  1.00  0.00    +0.000 N 
ATOM     97  C67 UNL A   1      46.792  16.059  43.562  1.00  0.00    +0.000 C 
ATOM     98  C68 UNL A   1      45.969  15.060  43.847  1.00  0.00    +0.000 C 
ATOM     99  C69 UNL A   1      43.037  19.026  50.605  1.00  0.00    +0.000 C 
ATOM    100  C70 UNL A   1      43.673  20.134  50.256  1.00  0.00    +0.000 C 
ENDROOT
BRANCH   44   43
ATOM    101  C71 UNL A   1      44.631  23.091  48.670  1.00  0.00    +0.000 C 
ATOM    102  C72 UNL A   1      44.821  24.365  49.197  1.00  0.00    +0.000 C 
ATOM     40  C29 UNL A   1      45.807  24.577  50.166  1.00  0.00    +0.000 C 
ATOM     41  C30 UNL A   1      46.668  23.541  50.534  1.00  0.00    +0.000 C 
ATOM     42  C31 UNL A   1      46.518  22.280  49.958  1.00  0.00    +0.000 C 
ATOM     43  C32 UNL A   1      45.486  22.041  49.036  1.00  0.00    +0.000 C 
ATOM    147  H45 UNL A   1      47.413  23.709  51.229  1.00  0.00    +0.000 H 
ATOM    148  H46 UNL A   1      47.168  21.519  50.211  1.00  0.00    +0.000 H 
ATOM    159  H57 UNL A   1      43.858  22.918  48.009  1.00  0.00    +0.000 H 
ATOM    160  H58 UNL A   1      44.236  25.152  48.874  1.00  0.00    +0.000 H 
BRANCH   40   38
ATOM     38  C28 UNL A   1      45.969  25.893  50.817  1.00  0.00    +0.000 C 
ATOM     39  O6  UNL A   1      45.490  26.896  50.298  1.00  0.00    +0.000 O 
BRANCH   38   37
ATOM    146  H44 UNL A   1      47.656  26.122  51.875  1.00  0.00    +0.000 H 
ATOM     37  N5  UNL A   1      46.687  25.989  51.982  1.00  0.00    +0.000 N 
BRANCH   37   36
ATOM    145  H43 UNL A   1      46.232  26.912  53.748  1.00  0.00    +0.000 H 
ATOM     36  C27 UNL A   1      46.209  25.919  53.348  1.00  0.00    +0.000 C 
ATOM    144  H42 UNL A   1      46.841  25.255  53.898  1.00  0.00    +0.000 H 
BRANCH   36   35
ATOM     35  C26 UNL A   1      44.774  25.419  53.445  1.00  0.00    +0.000 C 
ATOM    142  H40 UNL A   1      44.214  26.130  54.016  1.00  0.00    +0.000 H 
ATOM    143  H41 UNL A   1      44.429  25.311  52.439  1.00  0.00    +0.000 H 
BRANCH   35   34
ATOM     34  C25 UNL A   1      44.601  24.046  54.101  1.00  0.00    +0.000 C 
ATOM    140  H38 UNL A   1      45.522  23.794  54.582  1.00  0.00    +0.000 H 
ATOM    141  H39 UNL A   1      43.773  24.146  54.770  1.00  0.00    +0.000 H 
BRANCH   34   33
ATOM     33  C24 UNL A   1      44.235  22.898  53.153  1.00  0.00    +0.000 C 
ATOM    138  H36 UNL A   1      45.065  22.736  52.497  1.00  0.00    +0.000 H 
ATOM    139  H37 UNL A   1      44.011  22.062  53.780  1.00  0.00    +0.000 H 
BRANCH   33   32
ATOM    137  H35 UNL A   1      43.263  22.870  51.289  1.00  0.00    +0.000 H 
ATOM    136  H34 UNL A   1      42.690  24.145  52.397  1.00  0.00    +0.000 H 
ATOM     32  C23 UNL A   1      42.990  23.124  52.292  1.00  0.00    +0.000 C 
BRANCH   32   31
ATOM    135  H33 UNL A   1      41.361  22.626  53.549  1.00  0.00    +0.000 H 
ATOM    134  H32 UNL A   1      42.152  21.239  52.804  1.00  0.00    +0.000 H 
ATOM     31  C22 UNL A   1      41.806  22.241  52.656  1.00  0.00    +0.000 C 
BRANCH   31   30
ATOM    133  H31 UNL A   1      40.966  21.629  50.860  1.00  0.00    +0.000 H 
ATOM     30  N4  UNL A   1      40.803  22.241  51.615  1.00  0.00    +0.000 N 
BRANCH   30   28
ATOM     28  C21 UNL A   1      39.661  22.980  51.547  1.00  0.00    +0.000 C 
ATOM     29  O5  UNL A   1      39.749  24.157  51.188  1.00  0.00    +0.000 O 
BRANCH   28    5
ATOM      5  C5  UNL A   1      38.304  22.388  51.972  1.00  0.00    +0.000 C 
ATOM    112  H10 UNL A   1      38.512  21.407  52.347  1.00  0.00    +0.000 H 
BRANCH    5    4
ATOM      4  C4  UNL A   1      37.332  22.122  50.817  1.00  0.00    +0.000 C 
ATOM    110  H8  UNL A   1      36.364  22.459  51.123  1.00  0.00    +0.000 H 
ATOM    111  H9  UNL A   1      37.737  22.644  49.977  1.00  0.00    +0.000 H 
BRANCH    4    2
ATOM      2  C2  UNL A   1      37.195  20.647  50.360  1.00  0.00    +0.000 C 
ATOM    106  H4  UNL A   1      36.464  20.668  49.580  1.00  0.00    +0.000 H 
BRANCH    2    1
ATOM      1  C1  UNL A   1      38.450  20.020  49.745  1.00  0.00    +0.000 C 
ATOM    105  H3  UNL A   1      38.170  19.188  49.133  1.00  0.00    +0.000 H 
ATOM    103  H1  UNL A   1      39.101  19.686  50.525  1.00  0.00    +0.000 H 
ATOM    104  H2  UNL A   1      38.956  20.749  49.146  1.00  0.00    +0.000 H 
ENDBRANCH    2    1
BRANCH    2    3
ATOM      3  C3  UNL A   1      36.772  19.787  51.556  1.00  0.00    +0.000 C 
ATOM    108  H6  UNL A   1      36.923  18.753  51.323  1.00  0.00    +0.000 H 
ATOM    109  H7  UNL A   1      35.737  19.957  51.769  1.00  0.00    +0.000 H 
ATOM    107  H5  UNL A   1      37.360  20.049  52.410  1.00  0.00    +0.000 H 
ENDBRANCH    2    3
ENDBRANCH    4    2
ENDBRANCH    5    4
BRANCH    5    6
ATOM    113  H11 UNL A   1      37.952  24.118  53.076  1.00  0.00    +0.000 H 
ATOM      6  N1  UNL A   1      37.712  23.163  53.064  1.00  0.00    +0.000 N 
BRANCH    6    7
ATOM      7  C6  UNL A   1      36.881  22.764  54.067  1.00  0.00    +0.000 C 
ATOM      8  O1  UNL A   1      35.672  22.751  53.806  1.00  0.00    +0.000 O 
BRANCH    7    9
ATOM      9  C7  UNL A   1      37.359  22.387  55.481  1.00  0.00    +0.000 C 
ATOM    114  H12 UNL A   1      36.950  23.110  56.157  1.00  0.00    +0.000 H 
ATOM    115  H13 UNL A   1      38.426  22.371  55.404  1.00  0.00    +0.000 H 
BRANCH    9   10
ATOM     10  N2  UNL A   1      37.015  21.079  55.992  1.00  0.00    +0.000 N 
ATOM    116  H14 UNL A   1      37.691  20.714  56.610  1.00  0.00    +0.000 H 
BRANCH   10   11
ATOM     11  C8  UNL A   1      35.962  20.249  55.801  1.00  0.00    +0.000 C 
ATOM     12  O2  UNL A   1      36.050  19.532  54.794  1.00  0.00    +0.000 O 
BRANCH   11   13
ATOM    117  H15 UNL A   1      33.848  20.137  55.993  1.00  0.00    +0.000 H 
ATOM     13  C9  UNL A   1      34.668  20.195  56.677  1.00  0.00    +0.000 C 
BRANCH   13   14
ATOM    118  H16 UNL A   1      33.565  18.581  57.364  1.00  0.00    +0.000 H 
ATOM     14  N3  UNL A   1      34.477  18.944  57.423  1.00  0.00    +0.000 N 
BRANCH   14   15
ATOM     15  C10 UNL A   1      35.317  18.193  58.176  1.00  0.00    +0.000 C 
ATOM     16  O3  UNL A   1      35.317  18.299  59.395  1.00  0.00    +0.000 O 
BRANCH   15   17
ATOM     17  O4  UNL A   1      36.158  17.421  57.460  1.00  0.00    +0.000 O 
BRANCH   17   18
ATOM     18  C11 UNL A   1      36.801  16.376  58.206  1.00  0.00    +0.000 C 
ATOM    119  H17 UNL A   1      36.098  15.983  58.910  1.00  0.00    +0.000 H 
ATOM    120  H18 UNL A   1      37.656  16.813  58.680  1.00  0.00    +0.000 H 
BRANCH   18   19
ATOM     19  C12 UNL A   1      37.310  15.232  57.346  1.00  0.00    +0.000 C 
ATOM     20  C13 UNL A   1      38.627  14.781  57.515  1.00  0.00    +0.000 C 
ATOM     21  C14 UNL A   1      39.159  13.789  56.686  1.00  0.00    +0.000 C 
ATOM     22  C15 UNL A   1      38.385  13.236  55.669  1.00  0.00    +0.000 C 
ATOM     23  C16 UNL A   1      37.080  13.671  55.482  1.00  0.00    +0.000 C 
ATOM     24  C17 UNL A   1      36.550  14.661  56.311  1.00  0.00    +0.000 C 
ATOM    121  H19 UNL A   1      39.212  15.189  58.262  1.00  0.00    +0.000 H 
ATOM    122  H20 UNL A   1      40.128  13.465  56.829  1.00  0.00    +0.000 H 
ATOM    123  H21 UNL A   1      38.781  12.505  55.056  1.00  0.00    +0.000 H 
ATOM    124  H22 UNL A   1      36.502  13.264  54.730  1.00  0.00    +0.000 H 
ATOM    125  H23 UNL A   1      35.580  14.980  56.161  1.00  0.00    +0.000 H 
ENDBRANCH   18   19
ENDBRANCH   17   18
ENDBRANCH   15   17
ENDBRANCH   14   15
ENDBRANCH   13   14
BRANCH   13   25
ATOM     25  C18 UNL A   1      34.398  21.516  57.432  1.00  0.00    +0.000 C 
ATOM    126  H24 UNL A   1      35.357  21.909  57.700  1.00  0.00    +0.000 H 
BRANCH   25   26
ATOM    129  H27 UNL A   1      32.591  22.405  56.690  1.00  0.00    +0.000 H 
ATOM     26  C19 UNL A   1      33.645  22.531  56.554  1.00  0.00    +0.000 C 
ATOM    127  H25 UNL A   1      33.894  22.367  55.527  1.00  0.00    +0.000 H 
ATOM    128  H26 UNL A   1      33.925  23.524  56.835  1.00  0.00    +0.000 H 
ENDBRANCH   25   26
BRANCH   25   27
ATOM    130  H28 UNL A   1      34.065  20.610  59.348  1.00  0.00    +0.000 H 
ATOM     27  C20 UNL A   1      33.543  21.269  58.684  1.00  0.00    +0.000 C 
ATOM    132  H30 UNL A   1      33.356  22.198  59.178  1.00  0.00    +0.000 H 
ATOM    131  H29 UNL A   1      32.614  20.823  58.398  1.00  0.00    +0.000 H 
ENDBRANCH   25   27
ENDBRANCH   13   25
ENDBRANCH   11   13
ENDBRANCH   10   11
ENDBRANCH    9   10
ENDBRANCH    7    9
ENDBRANCH    6    7
ENDBRANCH    5    6
ENDBRANCH   28    5
ENDBRANCH   30   28
ENDBRANCH   31   30
ENDBRANCH   32   31
ENDBRANCH   33   32
ENDBRANCH   34   33
ENDBRANCH   35   34
ENDBRANCH   36   35
ENDBRANCH   37   36
ENDBRANCH   38   37
ENDBRANCH   40   38
ENDBRANCH   44   43
BRANCH   48   49
ATOM     49  C37 UNL A   1      41.671  16.517  50.791  1.00  0.00    +0.000 C 
ATOM     50  C38 UNL A   1      42.130  16.076  52.043  1.00  0.00    +0.000 C 
ATOM     51  F1  UNL A   1      43.436  15.839  52.237  1.00  0.00    +0.000 F 
ATOM     52  C39 UNL A   1      41.242  15.836  53.087  1.00  0.00    +0.000 C 
ATOM     53  F2  UNL A   1      41.698  15.371  54.258  1.00  0.00    +0.000 F 
ATOM     54  C40 UNL A   1      39.885  16.066  52.914  1.00  0.00    +0.000 C 
ATOM     55  F3  UNL A   1      39.032  15.840  53.923  1.00  0.00    +0.000 F 
ATOM     56  C41 UNL A   1      39.412  16.521  51.693  1.00  0.00    +0.000 C 
ATOM     57  F4  UNL A   1      38.102  16.752  51.527  1.00  0.00    +0.000 F 
ATOM     58  C42 UNL A   1      40.294  16.734  50.636  1.00  0.00    +0.000 C 
ATOM     59  F5  UNL A   1      39.804  17.158  49.461  1.00  0.00    +0.000 F 
ENDBRANCH   48   49
BRANCH   65   66
ATOM     66  C48 UNL A   1      44.115  13.157  44.896  1.00  0.00    +0.000 C 
ATOM     67  C49 UNL A   1      43.032  12.982  44.024  1.00  0.00    +0.000 C 
ATOM     68  F6  UNL A   1      42.139  13.969  43.849  1.00  0.00    +0.000 F 
ATOM     69  C50 UNL A   1      42.839  11.775  43.358  1.00  0.00    +0.000 C 
ATOM     70  F7  UNL A   1      41.771  11.612  42.565  1.00  0.00    +0.000 F 
ATOM     71  C51 UNL A   1      43.741  10.734  43.528  1.00  0.00    +0.000 C 
ATOM     72  F8  UNL A   1      43.555   9.573  42.885  1.00  0.00    +0.000 F 
ATOM     73  C52 UNL A   1      44.831  10.893  44.371  1.00  0.00    +0.000 C 
ATOM     74  F9  UNL A   1      45.708   9.893  44.527  1.00  0.00    +0.000 F 
ATOM     75  C53 UNL A   1      45.012  12.090  45.058  1.00  0.00    +0.000 C 
ATOM     76  F10 UNL A   1      46.067  12.211  45.878  1.00  0.00    +0.000 F 
ENDBRANCH   65   66
BRANCH   80   81
ATOM     81  C57 UNL A   1      48.174  18.639  43.506  1.00  0.00    +0.000 C 
ATOM     82  C58 UNL A   1      49.551  18.611  43.763  1.00  0.00    +0.000 C 
ATOM     83  F11 UNL A   1      49.995  18.321  44.995  1.00  0.00    +0.000 F 
ATOM     84  C59 UNL A   1      50.476  18.921  42.768  1.00  0.00    +0.000 C 
ATOM     85  F12 UNL A   1      51.785  18.932  43.053  1.00  0.00    +0.000 F 
ATOM     86  C60 UNL A   1      50.041  19.237  41.489  1.00  0.00    +0.000 C 
ATOM     87  F13 UNL A   1      50.930  19.537  40.533  1.00  0.00    +0.000 F 
ATOM     88  C61 UNL A   1      48.683  19.251  41.207  1.00  0.00    +0.000 C 
ATOM     89  F14 UNL A   1      48.260  19.543  39.969  1.00  0.00    +0.000 F 
ATOM     90  C62 UNL A   1      47.757  18.965  42.207  1.00  0.00    +0.000 C 
ATOM     91  F15 UNL A   1      46.451  19.000  41.910  1.00  0.00    +0.000 F 
ENDBRANCH   80   81
TORSDOF 33
ENDMDL
MODEL 8
REMARK VINA RESULT:      -5.1     48.675     52.163
ROOT
ATOM    149  H47 UNL A   1      15.130  46.772   0.555  1.00  0.00    +0.000 H 
ATOM    150  H48 UNL A   1      13.460  46.457   2.533  1.00  0.00    +0.000 H 
ATOM    151  H49 UNL A   1      14.910  50.334   2.659  1.00  0.00    +0.000 H 
ATOM    152  H50 UNL A   1      15.124  56.049   5.510  1.00  0.00    +0.000 H 
ATOM    153  H51 UNL A   1      16.749  56.353   3.580  1.00  0.00    +0.000 H 
ATOM    154  H52 UNL A   1      15.283  52.467   3.407  1.00  0.00    +0.000 H 
ATOM    155  H53 UNL A   1      12.052  52.019   7.222  1.00  0.00    +0.000 H 
ATOM    156  H54 UNL A   1      11.821  49.556   6.562  1.00  0.00    +0.000 H 
ATOM    157  H55 UNL A   1      17.978  50.953  -1.245  1.00  0.00    +0.000 H 
ATOM    158  H56 UNL A   1      18.622  53.248  -0.312  1.00  0.00    +0.000 H 
ATOM     44  C33 UNL A   1      17.096  54.028   1.964  1.00  0.00    +0.000 C 
ATOM     45  C34 UNL A   1      17.063  52.709   1.246  1.00  0.00    +0.000 C 
ATOM     46  N6  UNL A   1      16.346  51.643   1.500  1.00  0.00    +0.000 N 
ATOM     47  C35 UNL A   1      16.674  50.723   0.513  1.00  0.00    +0.000 C 
ATOM     48  C36 UNL A   1      16.253  49.443   0.378  1.00  0.00    +0.000 C 
ATOM     60  C43 UNL A   1      15.339  48.794   1.279  1.00  0.00    +0.000 C 
ATOM     61  C44 UNL A   1      14.871  47.492   1.248  1.00  0.00    +0.000 C 
ATOM     62  C45 UNL A   1      13.986  47.320   2.317  1.00  0.00    +0.000 C 
ATOM     63  C46 UNL A   1      13.932  48.502   3.037  1.00  0.00    +0.000 C 
ATOM     64  N7  UNL A   1      14.757  49.401   2.383  1.00  0.00    +0.000 N 
ATOM     65  C47 UNL A   1      13.188  48.790   4.234  1.00  0.00    +0.000 C 
ATOM     77  C54 UNL A   1      13.163  49.987   4.871  1.00  0.00    +0.000 C 
ATOM     78  N8  UNL A   1      13.826  51.162   4.547  1.00  0.00    +0.000 N 
ATOM     79  C55 UNL A   1      13.470  52.038   5.454  1.00  0.00    +0.000 C 
ATOM     80  C56 UNL A   1      13.909  53.469   5.617  1.00  0.00    +0.000 C 
ATOM     92  C63 UNL A   1      14.819  53.976   4.765  1.00  0.00    +0.000 C 
ATOM     93  C64 UNL A   1      15.364  55.329   4.810  1.00  0.00    +0.000 C 
ATOM     94  C65 UNL A   1      16.230  55.487   3.795  1.00  0.00    +0.000 C 
ATOM     95  C66 UNL A   1      16.317  54.235   3.042  1.00  0.00    +0.000 C 
ATOM     96  N9  UNL A   1      15.444  53.396   3.688  1.00  0.00    +0.000 N 
ATOM     97  C67 UNL A   1      12.512  51.524   6.441  1.00  0.00    +0.000 C 
ATOM     98  C68 UNL A   1      12.392  50.259   6.066  1.00  0.00    +0.000 C 
ATOM     99  C69 UNL A   1      17.611  51.373  -0.377  1.00  0.00    +0.000 C 
ATOM    100  C70 UNL A   1      17.936  52.577   0.068  1.00  0.00    +0.000 C 
ENDROOT
BRANCH   44   43
ATOM    101  C71 UNL A   1      19.181  55.395   2.095  1.00  0.00    +0.000 C 
ATOM    102  C72 UNL A   1      19.971  56.459   1.668  1.00  0.00    +0.000 C 
ATOM     40  C29 UNL A   1      19.592  57.198   0.543  1.00  0.00    +0.000 C 
ATOM     41  C30 UNL A   1      18.376  56.940  -0.094  1.00  0.00    +0.000 C 
ATOM     42  C31 UNL A   1      17.555  55.914   0.374  1.00  0.00    +0.000 C 
ATOM     43  C32 UNL A   1      17.961  55.122   1.460  1.00  0.00    +0.000 C 
ATOM    147  H45 UNL A   1      18.086  57.507  -0.907  1.00  0.00    +0.000 H 
ATOM    148  H46 UNL A   1      16.646  55.737  -0.081  1.00  0.00    +0.000 H 
ATOM    159  H57 UNL A   1      19.496  54.804   2.880  1.00  0.00    +0.000 H 
ATOM    160  H58 UNL A   1      20.833  56.702   2.180  1.00  0.00    +0.000 H 
BRANCH   40   38
ATOM     38  C28 UNL A   1      20.455  58.270   0.005  1.00  0.00    +0.000 C 
ATOM     39  O6  UNL A   1      20.505  59.358   0.571  1.00  0.00    +0.000 O 
BRANCH   38   37
ATOM    146  H44 UNL A   1      21.020  58.700  -1.869  1.00  0.00    +0.000 H 
ATOM     37  N5  UNL A   1      21.169  58.051  -1.145  1.00  0.00    +0.000 N 
BRANCH   37   36
ATOM    145  H43 UNL A   1      21.803  56.522  -2.344  1.00  0.00    +0.000 H 
ATOM     36  C27 UNL A   1      22.115  56.992  -1.435  1.00  0.00    +0.000 C 
ATOM    144  H42 UNL A   1      22.121  56.305  -0.615  1.00  0.00    +0.000 H 
BRANCH   36   35
ATOM     35  C26 UNL A   1      23.531  57.509  -1.648  1.00  0.00    +0.000 C 
ATOM    142  H40 UNL A   1      23.543  58.550  -1.404  1.00  0.00    +0.000 H 
ATOM    143  H41 UNL A   1      24.162  56.914  -1.021  1.00  0.00    +0.000 H 
BRANCH   35   34
ATOM     34  C25 UNL A   1      24.080  57.351  -3.069  1.00  0.00    +0.000 C 
ATOM    140  H38 UNL A   1      23.256  57.417  -3.748  1.00  0.00    +0.000 H 
ATOM    141  H39 UNL A   1      24.806  58.127  -3.188  1.00  0.00    +0.000 H 
BRANCH   34   33
ATOM     33  C24 UNL A   1      24.821  56.040  -3.354  1.00  0.00    +0.000 C 
ATOM    138  H36 UNL A   1      25.782  56.098  -2.888  1.00  0.00    +0.000 H 
ATOM    139  H37 UNL A   1      24.199  55.262  -2.965  1.00  0.00    +0.000 H 
BRANCH   33   32
ATOM    137  H35 UNL A   1      25.143  56.643  -5.343  1.00  0.00    +0.000 H 
ATOM    136  H34 UNL A   1      24.189  55.144  -5.174  1.00  0.00    +0.000 H 
ATOM     32  C23 UNL A   1      25.032  55.708  -4.833  1.00  0.00    +0.000 C 
BRANCH   32   31
ATOM    135  H33 UNL A   1      26.001  53.905  -5.373  1.00  0.00    +0.000 H 
ATOM    134  H32 UNL A   1      26.918  54.914  -4.256  1.00  0.00    +0.000 H 
ATOM     31  C22 UNL A   1      26.291  54.904  -5.123  1.00  0.00    +0.000 C 
BRANCH   31   30
ATOM    133  H31 UNL A   1      27.985  55.620  -6.082  1.00  0.00    +0.000 H 
ATOM     30  N4  UNL A   1      27.027  55.454  -6.239  1.00  0.00    +0.000 N 
BRANCH   30   28
ATOM     28  C21 UNL A   1      26.563  55.770  -7.480  1.00  0.00    +0.000 C 
ATOM     29  O5  UNL A   1      26.654  56.942  -7.855  1.00  0.00    +0.000 O 
BRANCH   28    5
ATOM      5  C5  UNL A   1      25.877  54.713  -8.366  1.00  0.00    +0.000 C 
ATOM    112  H10 UNL A   1      26.059  53.769  -7.896  1.00  0.00    +0.000 H 
BRANCH    5    4
ATOM      4  C4  UNL A   1      26.504  54.539  -9.754  1.00  0.00    +0.000 C 
ATOM    110  H8  UNL A   1      26.047  53.687 -10.213  1.00  0.00    +0.000 H 
ATOM    111  H9  UNL A   1      26.329  55.462 -10.264  1.00  0.00    +0.000 H 
BRANCH    4    2
ATOM      2  C2  UNL A   1      28.039  54.330  -9.794  1.00  0.00    +0.000 C 
ATOM    106  H4  UNL A   1      28.347  54.370  -8.770  1.00  0.00    +0.000 H 
BRANCH    2    1
ATOM      1  C1  UNL A   1      28.515  52.975 -10.324  1.00  0.00    +0.000 C 
ATOM    105  H3  UNL A   1      28.529  52.995 -11.394  1.00  0.00    +0.000 H 
ATOM    103  H1  UNL A   1      27.849  52.206  -9.990  1.00  0.00    +0.000 H 
ATOM    104  H2  UNL A   1      29.501  52.774  -9.959  1.00  0.00    +0.000 H 
ENDBRANCH    2    1
BRANCH    2    3
ATOM      3  C3  UNL A   1      28.675  55.426 -10.654  1.00  0.00    +0.000 C 
ATOM    108  H6  UNL A   1      28.644  55.135 -11.684  1.00  0.00    +0.000 H 
ATOM    109  H7  UNL A   1      29.693  55.570 -10.355  1.00  0.00    +0.000 H 
ATOM    107  H5  UNL A   1      28.133  56.340 -10.526  1.00  0.00    +0.000 H 
ENDBRANCH    2    3
ENDBRANCH    4    2
ENDBRANCH    5    4
BRANCH    5    6
ATOM    113  H11 UNL A   1      23.930  54.513  -7.656  1.00  0.00    +0.000 H 
ATOM      6  N1  UNL A   1      24.428  54.918  -8.403  1.00  0.00    +0.000 N 
BRANCH    6    7
ATOM      7  C6  UNL A   1      23.664  55.583  -9.313  1.00  0.00    +0.000 C 
ATOM      8  O1  UNL A   1      23.124  54.892 -10.186  1.00  0.00    +0.000 O 
BRANCH    7    9
ATOM      9  C7  UNL A   1      23.487  57.112  -9.335  1.00  0.00    +0.000 C 
ATOM    114  H12 UNL A   1      23.266  57.391 -10.344  1.00  0.00    +0.000 H 
ATOM    115  H13 UNL A   1      24.405  57.490  -8.936  1.00  0.00    +0.000 H 
BRANCH    9   10
ATOM     10  N2  UNL A   1      22.464  57.693  -8.494  1.00  0.00    +0.000 N 
ATOM    116  H14 UNL A   1      21.850  58.287  -8.985  1.00  0.00    +0.000 H 
BRANCH   10   11
ATOM     11  C8  UNL A   1      22.171  57.594  -7.176  1.00  0.00    +0.000 C 
ATOM     12  O2  UNL A   1      23.049  58.035  -6.420  1.00  0.00    +0.000 O 
BRANCH   11   13
ATOM    117  H15 UNL A   1      20.128  57.659  -6.590  1.00  0.00    +0.000 H 
ATOM     13  C9  UNL A   1      20.899  56.917  -6.569  1.00  0.00    +0.000 C 
BRANCH   13   14
ATOM    118  H16 UNL A   1      20.916  55.180  -7.701  1.00  0.00    +0.000 H 
ATOM     14  N3  UNL A   1      20.288  55.880  -7.412  1.00  0.00    +0.000 N 
BRANCH   14   15
ATOM     15  C10 UNL A   1      19.024  55.702  -7.867  1.00  0.00    +0.000 C 
ATOM     16  O3  UNL A   1      18.699  56.119  -8.970  1.00  0.00    +0.000 O 
BRANCH   15   17
ATOM     17  O4  UNL A   1      18.195  55.117  -6.979  1.00  0.00    +0.000 O 
BRANCH   17   18
ATOM     18  C11 UNL A   1      18.529  53.762  -6.646  1.00  0.00    +0.000 C 
ATOM    119  H17 UNL A   1      19.544  53.737  -6.307  1.00  0.00    +0.000 H 
ATOM    120  H18 UNL A   1      18.377  53.177  -7.530  1.00  0.00    +0.000 H 
BRANCH   18   19
ATOM     19  C12 UNL A   1      17.648  53.161  -5.563  1.00  0.00    +0.000 C 
ATOM     20  C13 UNL A   1      17.260  53.959  -4.476  1.00  0.00    +0.000 C 
ATOM     21  C14 UNL A   1      16.521  53.420  -3.418  1.00  0.00    +0.000 C 
ATOM     22  C15 UNL A   1      16.165  52.074  -3.425  1.00  0.00    +0.000 C 
ATOM     23  C16 UNL A   1      16.543  51.267  -4.489  1.00  0.00    +0.000 C 
ATOM     24  C17 UNL A   1      17.279  51.806  -5.545  1.00  0.00    +0.000 C 
ATOM    121  H19 UNL A   1      17.524  54.957  -4.457  1.00  0.00    +0.000 H 
ATOM    122  H20 UNL A   1      16.239  54.023  -2.629  1.00  0.00    +0.000 H 
ATOM    123  H21 UNL A   1      15.622  51.678  -2.641  1.00  0.00    +0.000 H 
ATOM    124  H22 UNL A   1      16.282  50.268  -4.499  1.00  0.00    +0.000 H 
ATOM    125  H23 UNL A   1      17.559  51.196  -6.330  1.00  0.00    +0.000 H 
ENDBRANCH   18   19
ENDBRANCH   17   18
ENDBRANCH   15   17
ENDBRANCH   14   15
ENDBRANCH   13   14
BRANCH   13   25
ATOM     25  C18 UNL A   1      21.044  56.607  -5.062  1.00  0.00    +0.000 C 
ATOM    126  H24 UNL A   1      21.847  57.219  -4.707  1.00  0.00    +0.000 H 
BRANCH   25   26
ATOM    129  H27 UNL A   1      19.610  57.994  -4.268  1.00  0.00    +0.000 H 
ATOM     26  C19 UNL A   1      19.755  56.934  -4.287  1.00  0.00    +0.000 C 
ATOM    127  H25 UNL A   1      19.839  56.567  -3.286  1.00  0.00    +0.000 H 
ATOM    128  H26 UNL A   1      18.921  56.468  -4.769  1.00  0.00    +0.000 H 
ENDBRANCH   25   26
BRANCH   25   27
ATOM    130  H28 UNL A   1      22.410  54.982  -4.755  1.00  0.00    +0.000 H 
ATOM     27  C20 UNL A   1      21.351  55.119  -4.834  1.00  0.00    +0.000 C 
ATOM    132  H30 UNL A   1      20.880  54.792  -3.932  1.00  0.00    +0.000 H 
ATOM    131  H29 UNL A   1      20.979  54.548  -5.659  1.00  0.00    +0.000 H 
ENDBRANCH   25   27
ENDBRANCH   13   25
ENDBRANCH   11   13
ENDBRANCH   10   11
ENDBRANCH    9   10
ENDBRANCH    7    9
ENDBRANCH    6    7
ENDBRANCH    5    6
ENDBRANCH   28    5
ENDBRANCH   30   28
ENDBRANCH   31   30
ENDBRANCH   32   31
ENDBRANCH   33   32
ENDBRANCH   34   33
ENDBRANCH   35   34
ENDBRANCH   36   35
ENDBRANCH   37   36
ENDBRANCH   38   37
ENDBRANCH   40   38
ENDBRANCH   44   43
BRANCH   48   49
ATOM     49  C37 UNL A   1      16.791  48.659  -0.782  1.00  0.00    +0.000 C 
ATOM     50  C38 UNL A   1      16.079  48.557  -1.988  1.00  0.00    +0.000 C 
ATOM     51  F1  UNL A   1      14.874  49.132  -2.110  1.00  0.00    +0.000 F 
ATOM     52  C39 UNL A   1      16.585  47.825  -3.059  1.00  0.00    +0.000 C 
ATOM     53  F2  UNL A   1      15.866  47.702  -4.183  1.00  0.00    +0.000 F 
ATOM     54  C40 UNL A   1      17.826  47.213  -2.959  1.00  0.00    +0.000 C 
ATOM     55  F3  UNL A   1      18.314  46.514  -3.993  1.00  0.00    +0.000 F 
ATOM     56  C41 UNL A   1      18.555  47.319  -1.785  1.00  0.00    +0.000 C 
ATOM     57  F4  UNL A   1      19.759  46.736  -1.691  1.00  0.00    +0.000 F 
ATOM     58  C42 UNL A   1      18.039  48.026  -0.701  1.00  0.00    +0.000 C 
ATOM     59  F5  UNL A   1      18.762  48.095   0.427  1.00  0.00    +0.000 F 
ENDBRANCH   48   49
BRANCH   65   66
ATOM     66  C48 UNL A   1      12.389  47.676   4.845  1.00  0.00    +0.000 C 
ATOM     67  C49 UNL A   1      12.828  46.999   5.991  1.00  0.00    +0.000 C 
ATOM     68  F6  UNL A   1      14.010  47.308   6.547  1.00  0.00    +0.000 F 
ATOM     69  C50 UNL A   1      12.071  45.972   6.548  1.00  0.00    +0.000 C 
ATOM     70  F7  UNL A   1      12.531  45.306   7.616  1.00  0.00    +0.000 F 
ATOM     71  C51 UNL A   1      10.849  45.625   5.988  1.00  0.00    +0.000 C 
ATOM     72  F8  UNL A   1      10.120  44.638   6.526  1.00  0.00    +0.000 F 
ATOM     73  C52 UNL A   1      10.387  46.296   4.865  1.00  0.00    +0.000 C 
ATOM     74  F9  UNL A   1       9.203  45.969   4.331  1.00  0.00    +0.000 F 
ATOM     75  C53 UNL A   1      11.154  47.306   4.292  1.00  0.00    +0.000 C 
ATOM     76  F10 UNL A   1      10.689  47.928   3.198  1.00  0.00    +0.000 F 
ENDBRANCH   65   66
BRANCH   80   81
ATOM     81  C57 UNL A   1      13.377  54.306   6.722  1.00  0.00    +0.000 C 
ATOM     82  C58 UNL A   1      13.945  54.254   8.003  1.00  0.00    +0.000 C 
ATOM     83  F11 UNL A   1      14.977  53.432   8.242  1.00  0.00    +0.000 F 
ATOM     84  C59 UNL A   1      13.428  55.011   9.052  1.00  0.00    +0.000 C 
ATOM     85  F12 UNL A   1      13.960  54.905  10.276  1.00  0.00    +0.000 F 
ATOM     86  C60 UNL A   1      12.352  55.858   8.833  1.00  0.00    +0.000 C 
ATOM     87  F13 UNL A   1      11.853  56.585   9.842  1.00  0.00    +0.000 F 
ATOM     88  C61 UNL A   1      11.787  55.942   7.569  1.00  0.00    +0.000 C 
ATOM     89  F14 UNL A   1      10.755  56.770   7.351  1.00  0.00    +0.000 F 
ATOM     90  C62 UNL A   1      12.287  55.166   6.526  1.00  0.00    +0.000 C 
ATOM     91  F15 UNL A   1      11.713  55.257   5.318  1.00  0.00    +0.000 F 
ENDBRANCH   80   81
TORSDOF 33
ENDMDL
MODEL 9
REMARK VINA RESULT:      -5.1     49.127     52.881
ROOT
ATOM    149  H47 UNL A   1      14.983  46.816   0.560  1.00  0.00    +0.000 H 
ATOM    150  H48 UNL A   1      13.323  46.474   2.542  1.00  0.00    +0.000 H 
ATOM    151  H49 UNL A   1      14.794  50.341   2.729  1.00  0.00    +0.000 H 
ATOM    152  H50 UNL A   1      15.056  56.002   5.680  1.00  0.00    +0.000 H 
ATOM    153  H51 UNL A   1      16.671  56.332   3.746  1.00  0.00    +0.000 H 
ATOM    154  H52 UNL A   1      15.183  52.458   3.513  1.00  0.00    +0.000 H 
ATOM    155  H53 UNL A   1      11.973  51.958   7.339  1.00  0.00    +0.000 H 
ATOM    156  H54 UNL A   1      11.725  49.509   6.636  1.00  0.00    +0.000 H 
ATOM    157  H55 UNL A   1      17.842  51.013  -1.182  1.00  0.00    +0.000 H 
ATOM    158  H56 UNL A   1      18.504  53.288  -0.212  1.00  0.00    +0.000 H 
ATOM     44  C33 UNL A   1      16.996  54.035   2.087  1.00  0.00    +0.000 C 
ATOM     45  C34 UNL A   1      16.952  52.729   1.345  1.00  0.00    +0.000 C 
ATOM     46  N6  UNL A   1      16.230  51.663   1.585  1.00  0.00    +0.000 N 
ATOM     47  C35 UNL A   1      16.547  50.759   0.580  1.00  0.00    +0.000 C 
ATOM     48  C36 UNL A   1      16.119  49.484   0.425  1.00  0.00    +0.000 C 
ATOM     60  C43 UNL A   1      15.206  48.823   1.319  1.00  0.00    +0.000 C 
ATOM     61  C44 UNL A   1      14.731  47.525   1.267  1.00  0.00    +0.000 C 
ATOM     62  C45 UNL A   1      13.851  47.338   2.339  1.00  0.00    +0.000 C 
ATOM     63  C46 UNL A   1      13.808  48.507   3.080  1.00  0.00    +0.000 C 
ATOM     64  N7  UNL A   1      14.635  49.414   2.437  1.00  0.00    +0.000 N 
ATOM     65  C47 UNL A   1      13.073  48.777   4.287  1.00  0.00    +0.000 C 
ATOM     77  C54 UNL A   1      13.058  49.963   4.945  1.00  0.00    +0.000 C 
ATOM     78  N8  UNL A   1      13.726  51.140   4.638  1.00  0.00    +0.000 N 
ATOM     79  C55 UNL A   1      13.379  52.002   5.562  1.00  0.00    +0.000 C 
ATOM     80  C56 UNL A   1      13.827  53.427   5.748  1.00  0.00    +0.000 C 
ATOM     92  C63 UNL A   1      14.735  53.944   4.900  1.00  0.00    +0.000 C 
ATOM     93  C64 UNL A   1      15.288  55.294   4.966  1.00  0.00    +0.000 C 
ATOM     94  C65 UNL A   1      16.148  55.465   3.948  1.00  0.00    +0.000 C 
ATOM     95  C66 UNL A   1      16.224  54.226   3.173  1.00  0.00    +0.000 C 
ATOM     96  N9  UNL A   1      15.351  53.381   3.809  1.00  0.00    +0.000 N 
ATOM     97  C67 UNL A   1      12.425  51.475   6.546  1.00  0.00    +0.000 C 
ATOM     98  C68 UNL A   1      12.296  50.218   6.149  1.00  0.00    +0.000 C 
ATOM     99  C69 UNL A   1      17.482  51.419  -0.305  1.00  0.00    +0.000 C 
ATOM    100  C70 UNL A   1      17.816  52.613   0.160  1.00  0.00    +0.000 C 
ENDROOT
BRANCH   44   43
ATOM    101  C71 UNL A   1      19.129  55.329   2.168  1.00  0.00    +0.000 C 
ATOM    102  C72 UNL A   1      19.926  56.394   1.758  1.00  0.00    +0.000 C 
ATOM     40  C29 UNL A   1      19.502  57.215   0.708  1.00  0.00    +0.000 C 
ATOM     41  C30 UNL A   1      18.241  57.034   0.136  1.00  0.00    +0.000 C 
ATOM     42  C31 UNL A   1      17.417  56.005   0.590  1.00  0.00    +0.000 C 
ATOM     43  C32 UNL A   1      17.863  55.133   1.597  1.00  0.00    +0.000 C 
ATOM    147  H45 UNL A   1      17.921  57.660  -0.620  1.00  0.00    +0.000 H 
ATOM    148  H46 UNL A   1      16.476  55.883   0.185  1.00  0.00    +0.000 H 
ATOM    159  H57 UNL A   1      19.473  54.680   2.894  1.00  0.00    +0.000 H 
ATOM    160  H58 UNL A   1      20.826  56.579   2.228  1.00  0.00    +0.000 H 
BRANCH   40   38
ATOM     38  C28 UNL A   1      20.366  58.293   0.184  1.00  0.00    +0.000 C 
ATOM     39  O6  UNL A   1      20.437  59.364   0.778  1.00  0.00    +0.000 O 
BRANCH   38   37
ATOM    146  H44 UNL A   1      20.851  58.733  -1.711  1.00  0.00    +0.000 H 
ATOM     37  N5  UNL A   1      21.056  58.100  -0.985  1.00  0.00    +0.000 N 
BRANCH   37   36
ATOM    145  H43 UNL A   1      21.940  56.841  -2.331  1.00  0.00    +0.000 H 
ATOM     36  C27 UNL A   1      22.045  57.088  -1.295  1.00  0.00    +0.000 C 
ATOM    144  H42 UNL A   1      21.875  56.239  -0.666  1.00  0.00    +0.000 H 
BRANCH   36   35
ATOM     35  C26 UNL A   1      23.472  57.575  -1.083  1.00  0.00    +0.000 C 
ATOM    142  H40 UNL A   1      23.439  58.630  -0.909  1.00  0.00    +0.000 H 
ATOM    143  H41 UNL A   1      23.856  57.016  -0.254  1.00  0.00    +0.000 H 
BRANCH   35   34
ATOM     34  C25 UNL A   1      24.433  57.317  -2.246  1.00  0.00    +0.000 C 
ATOM    140  H38 UNL A   1      24.676  58.261  -2.687  1.00  0.00    +0.000 H 
ATOM    141  H39 UNL A   1      25.272  56.806  -1.823  1.00  0.00    +0.000 H 
BRANCH   34   33
ATOM     33  C24 UNL A   1      23.904  56.402  -3.356  1.00  0.00    +0.000 C 
ATOM    138  H36 UNL A   1      23.928  55.396  -2.992  1.00  0.00    +0.000 H 
ATOM    139  H37 UNL A   1      22.921  56.756  -3.584  1.00  0.00    +0.000 H 
BRANCH   33   32
ATOM    137  H35 UNL A   1      25.703  56.632  -4.421  1.00  0.00    +0.000 H 
ATOM    136  H34 UNL A   1      24.256  57.211  -5.289  1.00  0.00    +0.000 H 
ATOM     32  C23 UNL A   1      24.681  56.445  -4.675  1.00  0.00    +0.000 C 
BRANCH   32   31
ATOM    135  H33 UNL A   1      24.213  55.330  -6.412  1.00  0.00    +0.000 H 
ATOM    134  H32 UNL A   1      24.098  54.415  -4.911  1.00  0.00    +0.000 H 
ATOM     31  C22 UNL A   1      24.660  55.142  -5.459  1.00  0.00    +0.000 C 
BRANCH   31   30
ATOM    133  H31 UNL A   1      26.161  53.712  -5.370  1.00  0.00    +0.000 H 
ATOM     30  N4  UNL A   1      25.995  54.633  -5.679  1.00  0.00    +0.000 N 
BRANCH   30   28
ATOM     28  C21 UNL A   1      27.052  55.265  -6.260  1.00  0.00    +0.000 C 
ATOM     29  O5  UNL A   1      28.075  55.427  -5.590  1.00  0.00    +0.000 O 
BRANCH   28    5
ATOM      5  C5  UNL A   1      26.953  55.829  -7.690  1.00  0.00    +0.000 C 
ATOM    112  H10 UNL A   1      25.967  55.594  -8.034  1.00  0.00    +0.000 H 
BRANCH    5    4
ATOM      4  C4  UNL A   1      27.857  55.134  -8.715  1.00  0.00    +0.000 C 
ATOM    110  H8  UNL A   1      27.376  55.197  -9.668  1.00  0.00    +0.000 H 
ATOM    111  H9  UNL A   1      28.796  55.642  -8.659  1.00  0.00    +0.000 H 
BRANCH    4    2
ATOM      2  C2  UNL A   1      28.179  53.642  -8.446  1.00  0.00    +0.000 C 
ATOM    106  H4  UNL A   1      27.569  53.376  -7.608  1.00  0.00    +0.000 H 
BRANCH    2    1
ATOM      1  C1  UNL A   1      27.806  52.666  -9.565  1.00  0.00    +0.000 C 
ATOM    105  H3  UNL A   1      28.672  52.451 -10.156  1.00  0.00    +0.000 H 
ATOM    103  H1  UNL A   1      27.051  53.104 -10.184  1.00  0.00    +0.000 H 
ATOM    104  H2  UNL A   1      27.433  51.758  -9.137  1.00  0.00    +0.000 H 
ENDBRANCH    2    1
BRANCH    2    3
ATOM      3  C3  UNL A   1      29.678  53.493  -8.166  1.00  0.00    +0.000 C 
ATOM    108  H6  UNL A   1      30.209  54.300  -8.627  1.00  0.00    +0.000 H 
ATOM    109  H7  UNL A   1      30.025  52.563  -8.568  1.00  0.00    +0.000 H 
ATOM    107  H5  UNL A   1      29.848  53.511  -7.110  1.00  0.00    +0.000 H 
ENDBRANCH    2    3
ENDBRANCH    4    2
ENDBRANCH    5    4
BRANCH    5    6
ATOM    113  H11 UNL A   1      26.281  57.780  -7.413  1.00  0.00    +0.000 H 
ATOM      6  N1  UNL A   1      27.087  57.287  -7.691  1.00  0.00    +0.000 N 
BRANCH    6    7
ATOM      7  C6  UNL A   1      28.156  58.065  -8.017  1.00  0.00    +0.000 C 
ATOM      8  O1  UNL A   1      28.977  58.276  -7.116  1.00  0.00    +0.000 O 
BRANCH    7    9
ATOM      9  C7  UNL A   1      28.358  58.714  -9.398  1.00  0.00    +0.000 C 
ATOM    114  H12 UNL A   1      28.613  59.740  -9.231  1.00  0.00    +0.000 H 
ATOM    115  H13 UNL A   1      27.434  58.539  -9.909  1.00  0.00    +0.000 H 
BRANCH    9   10
ATOM     10  N2  UNL A   1      29.365  58.157 -10.274  1.00  0.00    +0.000 N 
ATOM    116  H14 UNL A   1      29.141  58.248 -11.229  1.00  0.00    +0.000 H 
BRANCH   10   11
ATOM     11  C8  UNL A   1      30.550  57.537 -10.059  1.00  0.00    +0.000 C 
ATOM     12  O2  UNL A   1      30.576  56.346 -10.401  1.00  0.00    +0.000 O 
BRANCH   11   13
ATOM    117  H15 UNL A   1      31.424  58.905  -8.686  1.00  0.00    +0.000 H 
ATOM     13  C9  UNL A   1      31.800  58.169  -9.365  1.00  0.00    +0.000 C 
BRANCH   13   14
ATOM    118  H16 UNL A   1      32.206  57.378  -7.492  1.00  0.00    +0.000 H 
ATOM     14  N3  UNL A   1      32.502  57.282  -8.426  1.00  0.00    +0.000 N 
BRANCH   14   15
ATOM     15  C10 UNL A   1      33.475  56.355  -8.600  1.00  0.00    +0.000 C 
ATOM     16  O3  UNL A   1      34.628  56.703  -8.815  1.00  0.00    +0.000 O 
BRANCH   15   17
ATOM     17  O4  UNL A   1      33.034  55.082  -8.588  1.00  0.00    +0.000 O 
BRANCH   17   18
ATOM     18  C11 UNL A   1      33.544  54.257  -9.646  1.00  0.00    +0.000 C 
ATOM    119  H17 UNL A   1      34.597  54.137  -9.502  1.00  0.00    +0.000 H 
ATOM    120  H18 UNL A   1      33.309  54.751 -10.567  1.00  0.00    +0.000 H 
BRANCH   18   19
ATOM     19  C12 UNL A   1      32.909  52.878  -9.710  1.00  0.00    +0.000 C 
ATOM     20  C13 UNL A   1      32.055  52.566 -10.778  1.00  0.00    +0.000 C 
ATOM     21  C14 UNL A   1      31.386  51.340 -10.827  1.00  0.00    +0.000 C 
ATOM     22  C15 UNL A   1      31.553  50.408  -9.806  1.00  0.00    +0.000 C 
ATOM     23  C16 UNL A   1      32.391  50.699  -8.738  1.00  0.00    +0.000 C 
ATOM     24  C17 UNL A   1      33.059  51.923  -8.691  1.00  0.00    +0.000 C 
ATOM    121  H19 UNL A   1      31.918  53.253 -11.537  1.00  0.00    +0.000 H 
ATOM    122  H20 UNL A   1      30.765  51.124 -11.624  1.00  0.00    +0.000 H 
ATOM    123  H21 UNL A   1      31.055  49.504  -9.844  1.00  0.00    +0.000 H 
ATOM    124  H22 UNL A   1      32.518  50.011  -7.979  1.00  0.00    +0.000 H 
ATOM    125  H23 UNL A   1      33.677  52.131  -7.890  1.00  0.00    +0.000 H 
ENDBRANCH   18   19
ENDBRANCH   17   18
ENDBRANCH   15   17
ENDBRANCH   14   15
ENDBRANCH   13   14
BRANCH   13   25
ATOM     25  C18 UNL A   1      32.670  59.000 -10.335  1.00  0.00    +0.000 C 
ATOM    126  H24 UNL A   1      33.647  59.042  -9.900  1.00  0.00    +0.000 H 
BRANCH   25   26
ATOM    129  H27 UNL A   1      32.308  59.011 -12.451  1.00  0.00    +0.000 H 
ATOM     26  C19 UNL A   1      32.746  58.353 -11.729  1.00  0.00    +0.000 C 
ATOM    127  H25 UNL A   1      32.211  57.427 -11.721  1.00  0.00    +0.000 H 
ATOM    128  H26 UNL A   1      33.769  58.173 -11.984  1.00  0.00    +0.000 H 
ENDBRANCH   25   26
BRANCH   25   27
ATOM    130  H28 UNL A   1      32.576  61.084  -9.833  1.00  0.00    +0.000 H 
ATOM     27  C20 UNL A   1      32.094  60.413 -10.515  1.00  0.00    +0.000 C 
ATOM    132  H30 UNL A   1      32.264  60.742 -11.518  1.00  0.00    +0.000 H 
ATOM    131  H29 UNL A   1      31.043  60.397 -10.317  1.00  0.00    +0.000 H 
ENDBRANCH   25   27
ENDBRANCH   13   25
ENDBRANCH   11   13
ENDBRANCH   10   11
ENDBRANCH    9   10
ENDBRANCH    7    9
ENDBRANCH    6    7
ENDBRANCH    5    6
ENDBRANCH   28    5
ENDBRANCH   30   28
ENDBRANCH   31   30
ENDBRANCH   32   31
ENDBRANCH   33   32
ENDBRANCH   34   33
ENDBRANCH   35   34
ENDBRANCH   36   35
ENDBRANCH   37   36
ENDBRANCH   38   37
ENDBRANCH   40   38
ENDBRANCH   44   43
BRANCH   48   49
ATOM     49  C37 UNL A   1      16.646  48.718  -0.753  1.00  0.00    +0.000 C 
ATOM     50  C38 UNL A   1      17.888  48.065  -0.703  1.00  0.00    +0.000 C 
ATOM     51  F1  UNL A   1      18.651  48.150   0.398  1.00  0.00    +0.000 F 
ATOM     52  C39 UNL A   1      18.371  47.359  -1.801  1.00  0.00    +0.000 C 
ATOM     53  F2  UNL A   1      19.581  46.785  -1.746  1.00  0.00    +0.000 F 
ATOM     54  C40 UNL A   1      17.609  47.261  -2.955  1.00  0.00    +0.000 C 
ATOM     55  F3  UNL A   1      18.073  46.575  -4.009  1.00  0.00    +0.000 F 
ATOM     56  C41 UNL A   1      16.370  47.880  -3.019  1.00  0.00    +0.000 C 
ATOM     57  F4  UNL A   1      15.627  47.777  -4.131  1.00  0.00    +0.000 F 
ATOM     58  C42 UNL A   1      15.896  48.612  -1.932  1.00  0.00    +0.000 C 
ATOM     59  F5  UNL A   1      14.701  49.213  -2.031  1.00  0.00    +0.000 F 
ENDBRANCH   48   49
BRANCH   65   66
ATOM     66  C48 UNL A   1      12.272  47.657   4.882  1.00  0.00    +0.000 C 
ATOM     67  C49 UNL A   1      12.729  46.936   5.994  1.00  0.00    +0.000 C 
ATOM     68  F6  UNL A   1      13.930  47.207   6.527  1.00  0.00    +0.000 F 
ATOM     69  C50 UNL A   1      11.970  45.903   6.537  1.00  0.00    +0.000 C 
ATOM     70  F7  UNL A   1      12.446  45.195   7.570  1.00  0.00    +0.000 F 
ATOM     71  C51 UNL A   1      10.728  45.595   5.999  1.00  0.00    +0.000 C 
ATOM     72  F8  UNL A   1       9.997  44.602   6.524  1.00  0.00    +0.000 F 
ATOM     73  C52 UNL A   1      10.248  46.310   4.911  1.00  0.00    +0.000 C 
ATOM     74  F9  UNL A   1       9.045  46.020   4.399  1.00  0.00    +0.000 F 
ATOM     75  C53 UNL A   1      11.016  47.325   4.351  1.00  0.00    +0.000 C 
ATOM     76  F10 UNL A   1      10.533  47.991   3.290  1.00  0.00    +0.000 F 
ENDBRANCH   65   66
BRANCH   80   81
ATOM     81  C57 UNL A   1      13.307  54.247   6.872  1.00  0.00    +0.000 C 
ATOM     82  C58 UNL A   1      12.232  55.128   6.683  1.00  0.00    +0.000 C 
ATOM     83  F11 UNL A   1      11.668  55.243   5.471  1.00  0.00    +0.000 F 
ATOM     84  C59 UNL A   1      11.763  55.925   7.724  1.00  0.00    +0.000 C 
ATOM     85  F12 UNL A   1      10.766  56.792   7.503  1.00  0.00    +0.000 F 
ATOM     86  C60 UNL A   1      12.338  55.834   8.982  1.00  0.00    +0.000 C 
ATOM     87  F13 UNL A   1      11.887  56.602   9.984  1.00  0.00    +0.000 F 
ATOM     88  C61 UNL A   1      13.389  54.955   9.199  1.00  0.00    +0.000 C 
ATOM     89  F14 UNL A   1      13.938  54.855  10.417  1.00  0.00    +0.000 F 
ATOM     90  C62 UNL A   1      13.876  54.176   8.151  1.00  0.00    +0.000 C 
ATOM     91  F15 UNL A   1      14.901  53.344   8.385  1.00  0.00    +0.000 F 
ENDBRANCH   80   81
TORSDOF 33
ENDMDL
MODEL 10
REMARK VINA RESULT:      -5.0      4.450     10.451
ROOT
ATOM    149  H47 UNL A   1      19.479  45.770  50.751  1.00  0.00    +0.000 H 
ATOM    150  H48 UNL A   1      17.675  46.293  52.561  1.00  0.00    +0.000 H 
ATOM    151  H49 UNL A   1      17.427  42.272  51.601  1.00  0.00    +0.000 H 
ATOM    152  H50 UNL A   1      14.600  36.591  52.349  1.00  0.00    +0.000 H 
ATOM    153  H51 UNL A   1      16.360  36.084  50.588  1.00  0.00    +0.000 H 
ATOM    154  H52 UNL A   1      16.657  40.116  51.559  1.00  0.00    +0.000 H 
ATOM    155  H53 UNL A   1      13.180  40.968  55.077  1.00  0.00    +0.000 H 
ATOM    156  H54 UNL A   1      13.846  43.436  54.948  1.00  0.00    +0.000 H 
ATOM    157  H55 UNL A   1      21.010  41.270  48.254  1.00  0.00    +0.000 H 
ATOM    158  H56 UNL A   1      20.030  38.920  47.983  1.00  0.00    +0.000 H 
ATOM     44  C33 UNL A   1      17.921  38.342  49.809  1.00  0.00    +0.000 C 
ATOM     45  C34 UNL A   1      18.632  39.650  49.614  1.00  0.00    +0.000 C 
ATOM     46  N6  UNL A   1      18.444  40.795  50.221  1.00  0.00    +0.000 N 
ATOM     47  C35 UNL A   1      19.389  41.663  49.690  1.00  0.00    +0.000 C 
ATOM     48  C36 UNL A   1      19.558  42.983  49.941  1.00  0.00    +0.000 C 
ATOM     60  C43 UNL A   1      18.749  43.742  50.857  1.00  0.00    +0.000 C 
ATOM     61  C44 UNL A   1      18.820  45.090  51.162  1.00  0.00    +0.000 C 
ATOM     62  C45 UNL A   1      17.843  45.373  52.122  1.00  0.00    +0.000 C 
ATOM     63  C46 UNL A   1      17.138  44.210  52.387  1.00  0.00    +0.000 C 
ATOM     64  N7  UNL A   1      17.712  43.215  51.613  1.00  0.00    +0.000 N 
ATOM     65  C47 UNL A   1      16.022  44.020  53.276  1.00  0.00    +0.000 C 
ATOM     77  C54 UNL A   1      15.398  42.839  53.505  1.00  0.00    +0.000 C 
ATOM     78  N8  UNL A   1      15.661  41.591  52.957  1.00  0.00    +0.000 N 
ATOM     79  C55 UNL A   1      14.798  40.769  53.503  1.00  0.00    +0.000 C 
ATOM     80  C56 UNL A   1      14.600  39.298  53.255  1.00  0.00    +0.000 C 
ATOM     92  C63 UNL A   1      15.360  38.681  52.332  1.00  0.00    +0.000 C 
ATOM     93  C64 UNL A   1      15.268  37.273  51.958  1.00  0.00    +0.000 C 
ATOM     94  C65 UNL A   1      16.193  37.007  51.020  1.00  0.00    +0.000 C 
ATOM     95  C66 UNL A   1      16.927  38.235  50.710  1.00  0.00    +0.000 C 
ATOM     96  N9  UNL A   1      16.366  39.176  51.538  1.00  0.00    +0.000 N 
ATOM     97  C67 UNL A   1      13.909  41.400  54.487  1.00  0.00    +0.000 C 
ATOM     98  C68 UNL A   1      14.287  42.668  54.418  1.00  0.00    +0.000 C 
ATOM     99  C69 UNL A   1      20.185  40.902  48.754  1.00  0.00    +0.000 C 
ATOM    100  C70 UNL A   1      19.716  39.671  48.619  1.00  0.00    +0.000 C 
ENDROOT
BRANCH   44   43
ATOM    101  C71 UNL A   1      19.316  36.286  49.558  1.00  0.00    +0.000 C 
ATOM    102  C72 UNL A   1      19.763  35.199  48.812  1.00  0.00    +0.000 C 
ATOM     40  C29 UNL A   1      19.172  34.914  47.577  1.00  0.00    +0.000 C 
ATOM     41  C30 UNL A   1      18.206  35.769  47.042  1.00  0.00    +0.000 C 
ATOM     42  C31 UNL A   1      17.804  36.894  47.763  1.00  0.00    +0.000 C 
ATOM     43  C32 UNL A   1      18.343  37.149  49.034  1.00  0.00    +0.000 C 
ATOM    147  H45 UNL A   1      17.792  35.570  46.118  1.00  0.00    +0.000 H 
ATOM    148  H46 UNL A   1      17.108  37.540  47.360  1.00  0.00    +0.000 H 
ATOM    159  H57 UNL A   1      19.701  36.456  50.500  1.00  0.00    +0.000 H 
ATOM    160  H58 UNL A   1      20.529  34.606  49.169  1.00  0.00    +0.000 H 
BRANCH   40   38
ATOM     38  C28 UNL A   1      19.554  33.713  46.805  1.00  0.00    +0.000 C 
ATOM     39  O6  UNL A   1      20.190  32.814  47.347  1.00  0.00    +0.000 O 
BRANCH   38   37
ATOM    146  H44 UNL A   1      18.305  33.331  45.285  1.00  0.00    +0.000 H 
ATOM     37  N5  UNL A   1      19.224  33.628  45.477  1.00  0.00    +0.000 N 
BRANCH   37   36
ATOM    145  H43 UNL A   1      19.389  34.076  43.490  1.00  0.00    +0.000 H 
ATOM     36  C27 UNL A   1      20.046  33.919  44.320  1.00  0.00    +0.000 C 
ATOM    144  H42 UNL A   1      20.705  33.093  44.153  1.00  0.00    +0.000 H 
BRANCH   36   35
ATOM     35  C26 UNL A   1      20.879  35.181  44.491  1.00  0.00    +0.000 C 
ATOM    142  H40 UNL A   1      20.894  35.697  43.554  1.00  0.00    +0.000 H 
ATOM    143  H41 UNL A   1      20.416  35.738  45.279  1.00  0.00    +0.000 H 
BRANCH   35   34
ATOM     34  C25 UNL A   1      22.329  34.956  44.929  1.00  0.00    +0.000 C 
ATOM    140  H38 UNL A   1      22.427  35.310  45.933  1.00  0.00    +0.000 H 
ATOM    141  H39 UNL A   1      22.506  33.907  44.818  1.00  0.00    +0.000 H 
BRANCH   34   33
ATOM     33  C24 UNL A   1      23.397  35.652  44.078  1.00  0.00    +0.000 C 
ATOM    138  H36 UNL A   1      22.907  36.105  43.242  1.00  0.00    +0.000 H 
ATOM    139  H37 UNL A   1      23.878  36.352  44.727  1.00  0.00    +0.000 H 
BRANCH   33   32
ATOM    137  H35 UNL A   1      24.792  35.145  42.589  1.00  0.00    +0.000 H 
ATOM    136  H34 UNL A   1      24.126  33.749  43.478  1.00  0.00    +0.000 H 
ATOM     32  C23 UNL A   1      24.508  34.746  43.540  1.00  0.00    +0.000 C 
BRANCH   32   31
ATOM    135  H33 UNL A   1      25.788  33.797  44.933  1.00  0.00    +0.000 H 
ATOM    134  H32 UNL A   1      25.748  35.554  45.066  1.00  0.00    +0.000 H 
ATOM     31  C22 UNL A   1      25.766  34.721  44.394  1.00  0.00    +0.000 C 
BRANCH   31   30
ATOM    133  H31 UNL A   1      26.896  35.360  42.776  1.00  0.00    +0.000 H 
ATOM     30  N4  UNL A   1      26.960  34.799  43.583  1.00  0.00    +0.000 N 
BRANCH   30   28
ATOM     28  C21 UNL A   1      28.163  34.197  43.796  1.00  0.00    +0.000 C 
ATOM     29  O5  UNL A   1      28.175  33.108  44.376  1.00  0.00    +0.000 O 
BRANCH   28    5
ATOM      5  C5  UNL A   1      29.480  34.885  43.389  1.00  0.00    +0.000 C 
ATOM    112  H10 UNL A   1      29.277  35.395  42.471  1.00  0.00    +0.000 H 
BRANCH    5    4
ATOM      4  C4  UNL A   1      30.613  33.923  43.012  1.00  0.00    +0.000 C 
ATOM    110  H8  UNL A   1      30.210  32.932  43.006  1.00  0.00    +0.000 H 
ATOM    111  H9  UNL A   1      30.971  34.261  42.062  1.00  0.00    +0.000 H 
BRANCH    4    2
ATOM      2  C2  UNL A   1      31.853  33.924  43.943  1.00  0.00    +0.000 C 
ATOM    106  H4  UNL A   1      31.805  34.858  44.462  1.00  0.00    +0.000 H 
BRANCH    2    1
ATOM      1  C1  UNL A   1      31.874  32.842  45.026  1.00  0.00    +0.000 C 
ATOM    105  H3  UNL A   1      31.227  33.128  45.830  1.00  0.00    +0.000 H 
ATOM    103  H1  UNL A   1      32.871  32.726  45.396  1.00  0.00    +0.000 H 
ATOM    104  H2  UNL A   1      31.538  31.914  44.611  1.00  0.00    +0.000 H 
ENDBRANCH    2    1
BRANCH    2    3
ATOM      3  C3  UNL A   1      33.120  33.772  43.096  1.00  0.00    +0.000 C 
ATOM    108  H6  UNL A   1      33.979  33.983  43.697  1.00  0.00    +0.000 H 
ATOM    109  H7  UNL A   1      33.083  34.457  42.274  1.00  0.00    +0.000 H 
ATOM    107  H5  UNL A   1      33.182  32.771  42.723  1.00  0.00    +0.000 H 
ENDBRANCH    2    3
ENDBRANCH    4    2
ENDBRANCH    5    4
BRANCH    5    6
ATOM    113  H11 UNL A   1      30.112  35.534  45.264  1.00  0.00    +0.000 H 
ATOM      6  N1  UNL A   1      29.875  35.890  44.377  1.00  0.00    +0.000 N 
BRANCH    6    7
ATOM      7  C6  UNL A   1      29.964  37.243  44.256  1.00  0.00    +0.000 C 
ATOM      8  O1  UNL A   1      30.407  37.672  43.183  1.00  0.00    +0.000 O 
BRANCH    7    9
ATOM      9  C7  UNL A   1      29.598  38.233  45.377  1.00  0.00    +0.000 C 
ATOM    114  H12 UNL A   1      30.007  37.846  46.288  1.00  0.00    +0.000 H 
ATOM    115  H13 UNL A   1      28.531  38.297  45.334  1.00  0.00    +0.000 H 
BRANCH    9   10
ATOM     10  N2  UNL A   1      30.046  39.602  45.253  1.00  0.00    +0.000 N 
ATOM    116  H14 UNL A   1      30.691  39.735  44.520  1.00  0.00    +0.000 H 
BRANCH   10   11
ATOM     11  C8  UNL A   1      29.766  40.741  45.931  1.00  0.00    +0.000 C 
ATOM     12  O2  UNL A   1      30.606  41.641  45.791  1.00  0.00    +0.000 O 
BRANCH   11   13
ATOM    117  H15 UNL A   1      28.499  42.011  47.073  1.00  0.00    +0.000 H 
ATOM     13  C9  UNL A   1      28.556  40.957  46.898  1.00  0.00    +0.000 C 
BRANCH   13   14
ATOM    118  H16 UNL A   1      27.244  40.065  45.564  1.00  0.00    +0.000 H 
ATOM     14  N3  UNL A   1      27.235  40.719  46.299  1.00  0.00    +0.000 N 
BRANCH   14   15
ATOM     15  C10 UNL A   1      26.007  41.226  46.567  1.00  0.00    +0.000 C 
ATOM     16  O3  UNL A   1      25.892  42.261  47.210  1.00  0.00    +0.000 O 
BRANCH   15   17
ATOM     17  O4  UNL A   1      24.987  40.458  46.136  1.00  0.00    +0.000 O 
BRANCH   17   18
ATOM     18  C11 UNL A   1      25.333  39.091  45.867  1.00  0.00    +0.000 C 
ATOM    119  H17 UNL A   1      26.363  38.948  46.119  1.00  0.00    +0.000 H 
ATOM    120  H18 UNL A   1      25.136  38.919  44.829  1.00  0.00    +0.000 H 
BRANCH   18   19
ATOM     19  C12 UNL A   1      24.505  38.084  46.648  1.00  0.00    +0.000 C 
ATOM     20  C13 UNL A   1      23.149  38.352  46.888  1.00  0.00    +0.000 C 
ATOM     21  C14 UNL A   1      22.376  37.492  47.673  1.00  0.00    +0.000 C 
ATOM     22  C15 UNL A   1      22.946  36.354  48.238  1.00  0.00    +0.000 C 
ATOM     23  C16 UNL A   1      24.288  36.073  48.016  1.00  0.00    +0.000 C 
ATOM     24  C17 UNL A   1      25.058  36.932  47.230  1.00  0.00    +0.000 C 
ATOM    121  H19 UNL A   1      22.717  39.197  46.480  1.00  0.00    +0.000 H 
ATOM    122  H20 UNL A   1      21.378  37.701  47.835  1.00  0.00    +0.000 H 
ATOM    123  H21 UNL A   1      22.374  35.722  48.820  1.00  0.00    +0.000 H 
ATOM    124  H22 UNL A   1      24.715  35.231  48.432  1.00  0.00    +0.000 H 
ATOM    125  H23 UNL A   1      26.056  36.716  47.074  1.00  0.00    +0.000 H 
ENDBRANCH   18   19
ENDBRANCH   17   18
ENDBRANCH   15   17
ENDBRANCH   14   15
ENDBRANCH   13   14
BRANCH   13   25
ATOM     25  C18 UNL A   1      28.805  40.382  48.310  1.00  0.00    +0.000 C 
ATOM    126  H24 UNL A   1      28.413  41.101  48.999  1.00  0.00    +0.000 H 
BRANCH   25   26
ATOM    129  H27 UNL A   1      28.029  38.813  49.554  1.00  0.00    +0.000 H 
ATOM     26  C19 UNL A   1      28.098  39.029  48.508  1.00  0.00    +0.000 C 
ATOM    127  H25 UNL A   1      28.659  38.260  48.021  1.00  0.00    +0.000 H 
ATOM    128  H26 UNL A   1      27.115  39.075  48.087  1.00  0.00    +0.000 H 
ENDBRANCH   25   26
BRANCH   25   27
ATOM    130  H28 UNL A   1      30.844  40.321  47.644  1.00  0.00    +0.000 H 
ATOM     27  C20 UNL A   1      30.305  40.155  48.555  1.00  0.00    +0.000 C 
ATOM    132  H30 UNL A   1      30.651  40.836  49.303  1.00  0.00    +0.000 H 
ATOM    131  H29 UNL A   1      30.464  39.150  48.885  1.00  0.00    +0.000 H 
ENDBRANCH   25   27
ENDBRANCH   13   25
ENDBRANCH   11   13
ENDBRANCH   10   11
ENDBRANCH    9   10
ENDBRANCH    7    9
ENDBRANCH    6    7
ENDBRANCH    5    6
ENDBRANCH   28    5
ENDBRANCH   30   28
ENDBRANCH   31   30
ENDBRANCH   32   31
ENDBRANCH   33   32
ENDBRANCH   34   33
ENDBRANCH   35   34
ENDBRANCH   36   35
ENDBRANCH   37   36
ENDBRANCH   38   37
ENDBRANCH   40   38
ENDBRANCH   44   43
BRANCH   48   49
ATOM     49  C37 UNL A   1      20.654  43.690  49.201  1.00  0.00    +0.000 C 
ATOM     50  C38 UNL A   1      21.988  43.629  49.637  1.00  0.00    +0.000 C 
ATOM     51  F1  UNL A   1      22.301  42.962  50.758  1.00  0.00    +0.000 F 
ATOM     52  C39 UNL A   1      22.999  44.290  48.946  1.00  0.00    +0.000 C 
ATOM     53  F2  UNL A   1      24.257  44.256  49.408  1.00  0.00    +0.000 F 
ATOM     54  C40 UNL A   1      22.705  44.994  47.788  1.00  0.00    +0.000 C 
ATOM     55  F3  UNL A   1      23.681  45.625  47.120  1.00  0.00    +0.000 F 
ATOM     56  C41 UNL A   1      21.398  45.051  47.328  1.00  0.00    +0.000 C 
ATOM     57  F4  UNL A   1      21.114  45.723  46.202  1.00  0.00    +0.000 F 
ATOM     58  C42 UNL A   1      20.379  44.415  48.033  1.00  0.00    +0.000 C 
ATOM     59  F5  UNL A   1      19.122  44.502  47.571  1.00  0.00    +0.000 F 
ENDBRANCH   48   49
BRANCH   65   66
ATOM     66  C48 UNL A   1      15.488  45.225  53.993  1.00  0.00    +0.000 C 
ATOM     67  C49 UNL A   1      15.991  45.621  55.240  1.00  0.00    +0.000 C 
ATOM     68  F6  UNL A   1      16.941  44.893  55.847  1.00  0.00    +0.000 F 
ATOM     69  C50 UNL A   1      15.487  46.745  55.889  1.00  0.00    +0.000 C 
ATOM     70  F7  UNL A   1      15.948  47.079  57.102  1.00  0.00    +0.000 F 
ATOM     71  C51 UNL A   1      14.497  47.510  55.288  1.00  0.00    +0.000 C 
ATOM     72  F8  UNL A   1      14.016  48.594  55.913  1.00  0.00    +0.000 F 
ATOM     73  C52 UNL A   1      14.001  47.148  54.045  1.00  0.00    +0.000 C 
ATOM     74  F9  UNL A   1      13.053  47.892  53.460  1.00  0.00    +0.000 F 
ATOM     75  C53 UNL A   1      14.484  46.010  53.406  1.00  0.00    +0.000 C 
ATOM     76  F10 UNL A   1      13.976  45.675  52.211  1.00  0.00    +0.000 F 
ENDBRANCH   65   66
BRANCH   80   81
ATOM     81  C57 UNL A   1      13.558  38.537  53.990  1.00  0.00    +0.000 C 
ATOM     82  C58 UNL A   1      13.789  38.073  55.292  1.00  0.00    +0.000 C 
ATOM     83  F11 UNL A   1      14.968  38.308  55.886  1.00  0.00    +0.000 F 
ATOM     84  C59 UNL A   1      12.828  37.328  55.972  1.00  0.00    +0.000 C 
ATOM     85  F12 UNL A   1      13.093  36.857  57.198  1.00  0.00    +0.000 F 
ATOM     86  C60 UNL A   1      11.605  37.060  55.375  1.00  0.00    +0.000 C 
ATOM     87  F13 UNL A   1      10.681  36.343  56.029  1.00  0.00    +0.000 F 
ATOM     88  C61 UNL A   1      11.346  37.526  54.095  1.00  0.00    +0.000 C 
ATOM     89  F14 UNL A   1      10.161  37.280  53.520  1.00  0.00    +0.000 F 
ATOM     90  C62 UNL A   1      12.316  38.249  53.404  1.00  0.00    +0.000 C 
ATOM     91  F15 UNL A   1      12.044  38.677  52.163  1.00  0.00    +0.000 F 
ENDBRANCH   80   81
TORSDOF 33
ENDMDL
