MODEL 1
REMARK VINA RESULT:      -9.1      0.000      0.000
ROOT
ATOM    134  H36 UNL A   1      20.965  16.850   8.538  1.00  0.00    +0.000 H 
ATOM    135  H37 UNL A   1      19.493  17.825   6.543  1.00  0.00    +0.000 H 
ATOM    136  H38 UNL A   1      22.879  19.966   6.862  1.00  0.00    +0.000 H 
ATOM    137  H39 UNL A   1      24.163  16.098  -0.390  1.00  0.00    +0.000 H 
ATOM    138  H40 UNL A   1      23.743  14.077   1.105  1.00  0.00    +0.000 H 
ATOM    139  H41 UNL A   1      23.831  17.431   3.555  1.00  0.00    +0.000 H 
ATOM    140  H42 UNL A   1      25.624  20.047   3.240  1.00  0.00    +0.000 H 
ATOM    141  H43 UNL A   1      24.023  20.236   5.250  1.00  0.00    +0.000 H 
ATOM    142  H44 UNL A   1      25.978  15.519   7.920  1.00  0.00    +0.000 H 
ATOM    143  H45 UNL A   1      26.168  14.239   5.698  1.00  0.00    +0.000 H 
ATOM     40  C34 UNL A   1      23.962  14.706   3.938  1.00  0.00    +0.000 C 
ATOM     41  C35 UNL A   1      24.226  15.329   5.269  1.00  0.00    +0.000 C 
ATOM     42  N5  UNL A   1      23.471  16.147   5.934  1.00  0.00    +0.000 N 
ATOM     43  C36 UNL A   1      24.184  16.474   7.087  1.00  0.00    +0.000 C 
ATOM     44  C37 UNL A   1      23.876  17.561   7.847  1.00  0.00    +0.000 C 
ATOM     56  C44 UNL A   1      22.537  18.022   7.610  1.00  0.00    +0.000 C 
ATOM     57  C45 UNL A   1      21.275  17.492   7.791  1.00  0.00    +0.000 C 
ATOM     58  C46 UNL A   1      20.490  18.022   6.726  1.00  0.00    +0.000 C 
ATOM     59  C47 UNL A   1      21.319  18.856   5.975  1.00  0.00    +0.000 C 
ATOM     60  N6  UNL A   1      22.359  19.131   6.824  1.00  0.00    +0.000 N 
ATOM     61  C48 UNL A   1      21.286  19.269   4.594  1.00  0.00    +0.000 C 
ATOM     73  C55 UNL A   1      22.378  19.682   3.889  1.00  0.00    +0.000 C 
ATOM     74  N7  UNL A   1      22.426  19.550   2.510  1.00  0.00    +0.000 N 
ATOM     75  C56 UNL A   1      23.694  19.444   2.227  1.00  0.00    +0.000 C 
ATOM     76  C57 UNL A   1      24.227  18.613   1.119  1.00  0.00    +0.000 C 
ATOM     88  C64 UNL A   1      24.039  17.316   1.456  1.00  0.00    +0.000 C 
ATOM     89  C65 UNL A   1      24.045  16.123   0.635  1.00  0.00    +0.000 C 
ATOM     90  C66 UNL A   1      23.872  15.047   1.432  1.00  0.00    +0.000 C 
ATOM     91  C67 UNL A   1      23.894  15.471   2.831  1.00  0.00    +0.000 C 
ATOM     92  N8  UNL A   1      23.906  16.845   2.768  1.00  0.00    +0.000 N 
ATOM     93  C68 UNL A   1      24.607  19.872   3.273  1.00  0.00    +0.000 C 
ATOM     94  C69 UNL A   1      23.749  19.977   4.290  1.00  0.00    +0.000 C 
ATOM     95  C70 UNL A   1      25.327  15.597   7.123  1.00  0.00    +0.000 C 
ATOM     96  C71 UNL A   1      25.432  14.903   5.990  1.00  0.00    +0.000 C 
ENDROOT
BRANCH   40   39
ATOM     97  C72 UNL A   1      23.307  12.530   5.008  1.00  0.00    +0.000 C 
ATOM     98  C73 UNL A   1      23.278  11.139   4.944  1.00  0.00    +0.000 C 
ATOM     36  C30 UNL A   1      23.735  10.450   3.803  1.00  0.00    +0.000 C 
ATOM     37  C31 UNL A   1      24.129  11.199   2.697  1.00  0.00    +0.000 C 
ATOM    132  H34 UNL A   1      24.369  10.721   1.814  1.00  0.00    +0.000 H 
ATOM     38  C32 UNL A   1      24.205  12.583   2.771  1.00  0.00    +0.000 C 
ATOM    133  H35 UNL A   1      24.540  13.123   1.958  1.00  0.00    +0.000 H 
ATOM     39  C33 UNL A   1      23.829  13.251   3.939  1.00  0.00    +0.000 C 
ATOM    144  H46 UNL A   1      22.944  13.021   5.840  1.00  0.00    +0.000 H 
ATOM    145  H47 UNL A   1      22.917  10.602   5.747  1.00  0.00    +0.000 H 
BRANCH   36   34
ATOM     34  C29 UNL A   1      23.814   8.966   3.910  1.00  0.00    +0.000 C 
ATOM     35  O2  UNL A   1      24.178   8.322   2.921  1.00  0.00    +0.000 O 
BRANCH   34   33
ATOM     33  N4  UNL A   1      23.453   8.237   5.011  1.00  0.00    +0.000 N 
ATOM    131  H33 UNL A   1      22.834   8.724   5.603  1.00  0.00    +0.000 H 
BRANCH   33   32
ATOM    129  H31 UNL A   1      22.877   6.332   5.519  1.00  0.00    +0.000 H 
ATOM    130  H32 UNL A   1      24.515   6.507   4.843  1.00  0.00    +0.000 H 
ATOM     32  C28 UNL A   1      23.775   6.912   5.502  1.00  0.00    +0.000 C 
BRANCH   32   31
ATOM    127  H29 UNL A   1      23.755   6.311   7.540  1.00  0.00    +0.000 H 
ATOM     31  C27 UNL A   1      24.382   6.904   6.908  1.00  0.00    +0.000 C 
ATOM    128  H30 UNL A   1      25.372   6.508   6.812  1.00  0.00    +0.000 H 
BRANCH   31   30
ATOM    126  H28 UNL A   1      24.301   8.997   6.773  1.00  0.00    +0.000 H 
ATOM    125  H27 UNL A   1      25.523   8.379   7.923  1.00  0.00    +0.000 H 
ATOM     30  C26 UNL A   1      24.526   8.290   7.544  1.00  0.00    +0.000 C 
BRANCH   30   29
ATOM    123  H25 UNL A   1      23.048   7.671   8.937  1.00  0.00    +0.000 H 
ATOM    124  H26 UNL A   1      24.143   8.967   9.496  1.00  0.00    +0.000 H 
ATOM     29  C25 UNL A   1      23.554   8.581   8.689  1.00  0.00    +0.000 C 
BRANCH   29   28
ATOM    121  H23 UNL A   1      22.404  10.288   9.229  1.00  0.00    +0.000 H 
ATOM    122  H24 UNL A   1      22.830  10.167   7.504  1.00  0.00    +0.000 H 
ATOM     28  C24 UNL A   1      22.496   9.647   8.377  1.00  0.00    +0.000 C 
BRANCH   28   27
ATOM     27  C23 UNL A   1      21.116   9.080   8.053  1.00  0.00    +0.000 C 
ATOM    119  H21 UNL A   1      21.107   8.035   8.280  1.00  0.00    +0.000 H 
ATOM    120  H22 UNL A   1      20.392   9.604   8.641  1.00  0.00    +0.000 H 
BRANCH   27   26
ATOM     26  N3  UNL A   1      20.784   9.261   6.653  1.00  0.00    +0.000 N 
ATOM    118  H20 UNL A   1      21.091   8.545   6.051  1.00  0.00    +0.000 H 
BRANCH   26   24
ATOM     25  O1  UNL A   1      20.211  11.408   6.542  1.00  0.00    +0.000 O 
ATOM     24  C22 UNL A   1      20.106  10.282   6.050  1.00  0.00    +0.000 C 
BRANCH   24   23
ATOM    116  H18 UNL A   1      18.771   9.043   4.975  1.00  0.00    +0.000 H 
ATOM    117  H19 UNL A   1      18.443  10.792   4.885  1.00  0.00    +0.000 H 
ATOM     23  C21 UNL A   1      19.188  10.023   4.870  1.00  0.00    +0.000 C 
BRANCH   23   22
ATOM      2  C2  UNL A   1      20.608  13.309   1.031  1.00  0.00    +0.000 C 
ATOM      3  C3  UNL A   1      20.157  13.625   2.313  1.00  0.00    +0.000 C 
ATOM      4  C4  UNL A   1      19.911  12.630   3.262  1.00  0.00    +0.000 C 
ATOM      5  C5  UNL A   1      20.103  11.287   2.893  1.00  0.00    +0.000 C 
ATOM      6  C6  UNL A   1      20.594  10.941   1.633  1.00  0.00    +0.000 C 
ATOM      7  C7  UNL A   1      20.844  11.967   0.692  1.00  0.00    +0.000 C 
ATOM    102  H4  UNL A   1      20.004  14.614   2.566  1.00  0.00    +0.000 H 
ATOM    104  H6  UNL A   1      21.201  11.729  -0.246  1.00  0.00    +0.000 H 
ATOM    103  H5  UNL A   1      19.593  12.875   4.213  1.00  0.00    +0.000 H 
ATOM      8  C8  UNL A   1      20.724   9.522   1.605  1.00  0.00    +0.000 C 
ATOM     20  C19 UNL A   1      20.311   9.027   2.835  1.00  0.00    +0.000 C 
ATOM     22  N2  UNL A   1      19.846  10.103   3.570  1.00  0.00    +0.000 N 
BRANCH    2    1
ATOM      1  C1  UNL A   1      20.825  14.405   0.030  1.00  0.00    +0.000 C 
ATOM     99  H1  UNL A   1      19.910  14.601  -0.489  1.00  0.00    +0.000 H 
ATOM    100  H2  UNL A   1      21.576  14.106  -0.670  1.00  0.00    +0.000 H 
ATOM    101  H3  UNL A   1      21.143  15.293   0.537  1.00  0.00    +0.000 H 
ENDBRANCH    2    1
BRANCH    8    9
ATOM      9  C9  UNL A   1      21.193   8.663   0.524  1.00  0.00    +0.000 C 
ATOM     10  C10 UNL A   1      22.566   8.569   0.314  1.00  0.00    +0.000 C 
ATOM     11  C11 UNL A   1      23.006   7.717  -0.673  1.00  0.00    +0.000 C 
ATOM    105  H7  UNL A   1      23.232   9.119   0.880  1.00  0.00    +0.000 H 
ATOM     13  C12 UNL A   1      20.852   7.055  -1.259  1.00  0.00    +0.000 C 
ATOM    106  H8  UNL A   1      24.023   7.644  -0.835  1.00  0.00    +0.000 H 
ATOM     12  N1  UNL A   1      22.186   6.970  -1.442  1.00  0.00    +0.000 N 
ATOM     14  C13 UNL A   1      19.978   6.280  -2.040  1.00  0.00    +0.000 C 
ATOM    112  H14 UNL A   1      18.488   8.615   0.561  1.00  0.00    +0.000 H 
ATOM     18  C17 UNL A   1      18.892   7.983  -0.147  1.00  0.00    +0.000 C 
ATOM     19  C18 UNL A   1      20.298   7.913  -0.281  1.00  0.00    +0.000 C 
ATOM     17  C16 UNL A   1      18.040   7.227  -0.940  1.00  0.00    +0.000 C 
ATOM    111  H13 UNL A   1      17.016   7.301  -0.828  1.00  0.00    +0.000 H 
ATOM     16  C15 UNL A   1      18.584   6.373  -1.883  1.00  0.00    +0.000 C 
ATOM    110  H12 UNL A   1      17.962   5.800  -2.475  1.00  0.00    +0.000 H 
BRANCH   14   15
ATOM    107  H9  UNL A   1      20.181   5.632  -4.047  1.00  0.00    +0.000 H 
ATOM    108  H10 UNL A   1      20.101   4.337  -2.875  1.00  0.00    +0.000 H 
ATOM    109  H11 UNL A   1      21.561   5.284  -3.034  1.00  0.00    +0.000 H 
ATOM     15  C14 UNL A   1      20.493   5.314  -3.074  1.00  0.00    +0.000 C 
ENDBRANCH   14   15
ENDBRANCH    8    9
BRANCH   20   21
ATOM    113  H15 UNL A   1      19.457   7.101   2.882  1.00  0.00    +0.000 H 
ATOM    114  H16 UNL A   1      20.193   7.603   4.385  1.00  0.00    +0.000 H 
ATOM    115  H17 UNL A   1      21.197   7.125   3.036  1.00  0.00    +0.000 H 
ATOM     21  C20 UNL A   1      20.288   7.614   3.319  1.00  0.00    +0.000 C 
ENDBRANCH   20   21
ENDBRANCH   23   22
ENDBRANCH   24   23
ENDBRANCH   26   24
ENDBRANCH   27   26
ENDBRANCH   28   27
ENDBRANCH   29   28
ENDBRANCH   30   29
ENDBRANCH   31   30
ENDBRANCH   32   31
ENDBRANCH   33   32
ENDBRANCH   34   33
ENDBRANCH   36   34
ENDBRANCH   40   39
BRANCH   44   45
ATOM     45  C38 UNL A   1      24.893  18.400   8.584  1.00  0.00    +0.000 C 
ATOM     46  C39 UNL A   1      25.922  19.041   7.863  1.00  0.00    +0.000 C 
ATOM     47  F1  UNL A   1      25.874  19.120   6.525  1.00  0.00    +0.000 F 
ATOM     48  C40 UNL A   1      27.069  19.533   8.493  1.00  0.00    +0.000 C 
ATOM     49  F2  UNL A   1      28.074  20.024   7.756  1.00  0.00    +0.000 F 
ATOM     50  C41 UNL A   1      27.203  19.455   9.867  1.00  0.00    +0.000 C 
ATOM     51  F3  UNL A   1      28.325  19.873  10.466  1.00  0.00    +0.000 F 
ATOM     52  C42 UNL A   1      26.188  18.895  10.613  1.00  0.00    +0.000 C 
ATOM     53  F4  UNL A   1      26.308  18.793  11.944  1.00  0.00    +0.000 F 
ATOM     54  C43 UNL A   1      25.066  18.354   9.983  1.00  0.00    +0.000 C 
ATOM     55  F5  UNL A   1      24.219  17.695  10.782  1.00  0.00    +0.000 F 
ENDBRANCH   44   45
BRANCH   61   62
ATOM     65  C51 UNL A   1      18.617  17.446   2.536  1.00  0.00    +0.000 C 
ATOM     66  F7  UNL A   1      18.446  16.279   1.895  1.00  0.00    +0.000 F 
ATOM     67  C52 UNL A   1      17.568  18.348   2.616  1.00  0.00    +0.000 C 
ATOM     68  F8  UNL A   1      16.382  18.052   2.064  1.00  0.00    +0.000 F 
ATOM     69  C53 UNL A   1      17.737  19.542   3.299  1.00  0.00    +0.000 C 
ATOM     70  F9  UNL A   1      16.709  20.392   3.425  1.00  0.00    +0.000 F 
ATOM     71  C54 UNL A   1      18.963  19.846   3.884  1.00  0.00    +0.000 C 
ATOM     72  F10 UNL A   1      19.085  20.998   4.562  1.00  0.00    +0.000 F 
ATOM     62  C49 UNL A   1      20.039  18.950   3.822  1.00  0.00    +0.000 C 
ATOM     63  C50 UNL A   1      19.833  17.732   3.154  1.00  0.00    +0.000 C 
ATOM     64  F6  UNL A   1      20.783  16.785   3.145  1.00  0.00    +0.000 F 
ENDBRANCH   61   62
BRANCH   76   77
ATOM     77  C58 UNL A   1      25.127  19.163   0.080  1.00  0.00    +0.000 C 
ATOM     78  C59 UNL A   1      26.502  19.305   0.324  1.00  0.00    +0.000 C 
ATOM     79  F11 UNL A   1      26.984  19.170   1.568  1.00  0.00    +0.000 F 
ATOM     80  C60 UNL A   1      27.413  19.511  -0.716  1.00  0.00    +0.000 C 
ATOM     81  F12 UNL A   1      28.726  19.570  -0.453  1.00  0.00    +0.000 F 
ATOM     82  C61 UNL A   1      26.973  19.593  -2.027  1.00  0.00    +0.000 C 
ATOM     83  F13 UNL A   1      27.852  19.723  -3.031  1.00  0.00    +0.000 F 
ATOM     84  C62 UNL A   1      25.621  19.494  -2.298  1.00  0.00    +0.000 C 
ATOM     85  F14 UNL A   1      25.186  19.538  -3.564  1.00  0.00    +0.000 F 
ATOM     86  C63 UNL A   1      24.712  19.279  -1.261  1.00  0.00    +0.000 C 
ATOM     87  F15 UNL A   1      23.431  19.090  -1.607  1.00  0.00    +0.000 F 
ENDBRANCH   76   77
TORSDOF 20
ENDMDL
MODEL 2
REMARK VINA RESULT:      -9.1     19.403     26.588
ROOT
ATOM    134  H36 UNL A   1       6.670  34.027  -0.689  1.00  0.00    +0.000 H 
ATOM    135  H37 UNL A   1       9.122  33.856   0.340  1.00  0.00    +0.000 H 
ATOM    136  H38 UNL A   1       7.391  30.230   0.424  1.00  0.00    +0.000 H 
ATOM    137  H39 UNL A   1      13.299  28.999  -5.301  1.00  0.00    +0.000 H 
ATOM    138  H40 UNL A   1      12.107  30.998  -6.339  1.00  0.00    +0.000 H 
ATOM    139  H41 UNL A   1       9.914  29.844  -3.005  1.00  0.00    +0.000 H 
ATOM    140  H42 UNL A   1       9.455  26.898  -1.879  1.00  0.00    +0.000 H 
ATOM    141  H43 UNL A   1       8.347  28.669  -0.371  1.00  0.00    +0.000 H 
ATOM    142  H44 UNL A   1       5.021  30.885  -4.521  1.00  0.00    +0.000 H 
ATOM    143  H45 UNL A   1       6.919  30.713  -6.247  1.00  0.00    +0.000 H 
ATOM     40  C34 UNL A   1       9.471  31.458  -5.193  1.00  0.00    +0.000 C 
ATOM     41  C35 UNL A   1       8.168  31.366  -4.471  1.00  0.00    +0.000 C 
ATOM     42  N5  UNL A   1       7.911  31.681  -3.240  1.00  0.00    +0.000 N 
ATOM     43  C36 UNL A   1       6.567  31.367  -3.037  1.00  0.00    +0.000 C 
ATOM     44  C37 UNL A   1       6.033  31.228  -1.792  1.00  0.00    +0.000 C 
ATOM     56  C44 UNL A   1       6.838  31.867  -0.788  1.00  0.00    +0.000 C 
ATOM     57  C45 UNL A   1       7.217  33.167  -0.522  1.00  0.00    +0.000 C 
ATOM     58  C46 UNL A   1       8.526  33.069   0.035  1.00  0.00    +0.000 C 
ATOM     59  C47 UNL A   1       8.853  31.714   0.089  1.00  0.00    +0.000 C 
ATOM     60  N6  UNL A   1       7.640  31.083   0.001  1.00  0.00    +0.000 N 
ATOM     61  C48 UNL A   1      10.116  31.019   0.080  1.00  0.00    +0.000 C 
ATOM     73  C55 UNL A   1      10.280  29.729  -0.332  1.00  0.00    +0.000 C 
ATOM     74  N7  UNL A   1      11.499  29.292  -0.828  1.00  0.00    +0.000 N 
ATOM     75  C56 UNL A   1      11.199  28.319  -1.643  1.00  0.00    +0.000 C 
ATOM     76  C57 UNL A   1      11.951  28.021  -2.886  1.00  0.00    +0.000 C 
ATOM     88  C64 UNL A   1      11.710  29.028  -3.758  1.00  0.00    +0.000 C 
ATOM     89  C65 UNL A   1      12.429  29.428  -4.951  1.00  0.00    +0.000 C 
ATOM     90  C66 UNL A   1      11.770  30.456  -5.529  1.00  0.00    +0.000 C 
ATOM     91  C67 UNL A   1      10.509  30.681  -4.826  1.00  0.00    +0.000 C 
ATOM     92  N8  UNL A   1      10.581  29.854  -3.729  1.00  0.00    +0.000 N 
ATOM     93  C68 UNL A   1       9.866  27.761  -1.488  1.00  0.00    +0.000 C 
ATOM     94  C69 UNL A   1       9.326  28.687  -0.693  1.00  0.00    +0.000 C 
ATOM     95  C70 UNL A   1       6.023  31.043  -4.331  1.00  0.00    +0.000 C 
ATOM     96  C71 UNL A   1       6.987  30.973  -5.251  1.00  0.00    +0.000 C 
ENDROOT
BRANCH   40   39
ATOM     97  C72 UNL A   1       9.702  32.011  -7.632  1.00  0.00    +0.000 C 
ATOM     98  C73 UNL A   1       9.786  32.986  -8.624  1.00  0.00    +0.000 C 
ATOM     36  C30 UNL A   1       9.641  34.353  -8.320  1.00  0.00    +0.000 C 
ATOM     37  C31 UNL A   1       9.316  34.704  -7.011  1.00  0.00    +0.000 C 
ATOM    132  H34 UNL A   1       9.103  35.689  -6.783  1.00  0.00    +0.000 H 
ATOM     38  C32 UNL A   1       9.278  33.743  -6.010  1.00  0.00    +0.000 C 
ATOM    133  H35 UNL A   1       9.078  34.024  -5.037  1.00  0.00    +0.000 H 
ATOM     39  C33 UNL A   1       9.507  32.399  -6.311  1.00  0.00    +0.000 C 
ATOM    144  H46 UNL A   1       9.784  31.011  -7.876  1.00  0.00    +0.000 H 
ATOM    145  H47 UNL A   1       9.958  32.701  -9.601  1.00  0.00    +0.000 H 
BRANCH   36   34
ATOM     34  C29 UNL A   1       9.916  35.314  -9.425  1.00  0.00    +0.000 C 
ATOM     35  O2  UNL A   1      10.967  35.961  -9.396  1.00  0.00    +0.000 O 
BRANCH   34   33
ATOM     33  N4  UNL A   1       9.060  35.589 -10.457  1.00  0.00    +0.000 N 
ATOM    131  H33 UNL A   1       9.295  35.108 -11.284  1.00  0.00    +0.000 H 
BRANCH   33   32
ATOM    129  H31 UNL A   1       7.942  37.216  -9.890  1.00  0.00    +0.000 H 
ATOM    130  H32 UNL A   1       7.886  36.784 -11.616  1.00  0.00    +0.000 H 
ATOM     32  C28 UNL A   1       7.886  36.425 -10.607  1.00  0.00    +0.000 C 
BRANCH   32   31
ATOM    127  H29 UNL A   1       5.775  36.278 -10.804  1.00  0.00    +0.000 H 
ATOM     31  C27 UNL A   1       6.564  35.679 -10.401  1.00  0.00    +0.000 C 
ATOM    128  H30 UNL A   1       6.666  34.735 -10.896  1.00  0.00    +0.000 H 
BRANCH   31   30
ATOM    126  H28 UNL A   1       5.883  36.288  -8.512  1.00  0.00    +0.000 H 
ATOM    125  H27 UNL A   1       7.118  34.994  -8.469  1.00  0.00    +0.000 H 
ATOM     30  C26 UNL A   1       6.232  35.371  -8.938  1.00  0.00    +0.000 C 
BRANCH   30   29
ATOM    123  H25 UNL A   1       4.342  34.810  -8.150  1.00  0.00    +0.000 H 
ATOM    124  H26 UNL A   1       4.785  34.055  -9.707  1.00  0.00    +0.000 H 
ATOM     29  C25 UNL A   1       5.113  34.348  -8.731  1.00  0.00    +0.000 C 
BRANCH   29   28
ATOM    121  H23 UNL A   1       6.368  32.637  -8.554  1.00  0.00    +0.000 H 
ATOM    122  H24 UNL A   1       5.805  33.337  -7.015  1.00  0.00    +0.000 H 
ATOM     28  C24 UNL A   1       5.546  33.062  -8.016  1.00  0.00    +0.000 C 
BRANCH   28   27
ATOM     27  C23 UNL A   1       4.446  32.007  -7.912  1.00  0.00    +0.000 C 
ATOM    119  H21 UNL A   1       3.877  32.007  -8.817  1.00  0.00    +0.000 H 
ATOM    120  H22 UNL A   1       4.909  31.055  -7.753  1.00  0.00    +0.000 H 
BRANCH   27   26
ATOM     26  N3  UNL A   1       3.559  32.273  -6.796  1.00  0.00    +0.000 N 
ATOM    118  H20 UNL A   1       3.759  31.775  -5.970  1.00  0.00    +0.000 H 
BRANCH   26   24
ATOM     25  O1  UNL A   1       1.669  33.080  -7.651  1.00  0.00    +0.000 O 
ATOM     24  C22 UNL A   1       2.486  33.116  -6.727  1.00  0.00    +0.000 C 
BRANCH   24   23
ATOM    116  H18 UNL A   1       1.319  34.392  -5.510  1.00  0.00    +0.000 H 
ATOM    117  H19 UNL A   1       2.728  33.644  -4.716  1.00  0.00    +0.000 H 
ATOM     23  C21 UNL A   1       2.350  34.120  -5.597  1.00  0.00    +0.000 C 
BRANCH   23   22
ATOM      2  C2  UNL A   1       6.969  36.394  -4.577  1.00  0.00    +0.000 C 
ATOM      3  C3  UNL A   1       6.619  35.052  -4.428  1.00  0.00    +0.000 C 
ATOM      4  C4  UNL A   1       5.370  34.578  -4.839  1.00  0.00    +0.000 C 
ATOM      5  C5  UNL A   1       4.453  35.490  -5.391  1.00  0.00    +0.000 C 
ATOM      6  C6  UNL A   1       4.791  36.830  -5.592  1.00  0.00    +0.000 C 
ATOM      7  C7  UNL A   1       6.063  37.284  -5.175  1.00  0.00    +0.000 C 
ATOM    102  H4  UNL A   1       7.295  34.396  -4.007  1.00  0.00    +0.000 H 
ATOM    104  H6  UNL A   1       6.327  38.272  -5.311  1.00  0.00    +0.000 H 
ATOM    103  H5  UNL A   1       5.126  33.580  -4.739  1.00  0.00    +0.000 H 
ATOM      8  C8  UNL A   1       3.672  37.458  -6.213  1.00  0.00    +0.000 C 
ATOM     20  C19 UNL A   1       2.677  36.504  -6.375  1.00  0.00    +0.000 C 
ATOM     22  N2  UNL A   1       3.130  35.339  -5.783  1.00  0.00    +0.000 N 
BRANCH    2    1
ATOM      1  C1  UNL A   1       8.306  36.869  -4.089  1.00  0.00    +0.000 C 
ATOM     99  H1  UNL A   1       8.280  37.931  -3.955  1.00  0.00    +0.000 H 
ATOM    100  H2  UNL A   1       9.058  36.618  -4.807  1.00  0.00    +0.000 H 
ATOM    101  H3  UNL A   1       8.533  36.398  -3.155  1.00  0.00    +0.000 H 
ENDBRANCH    2    1
BRANCH    8    9
ATOM      9  C9  UNL A   1       3.512  38.846  -6.632  1.00  0.00    +0.000 C 
ATOM     10  C10 UNL A   1       2.993  39.751  -5.711  1.00  0.00    +0.000 C 
ATOM     11  C11 UNL A   1       2.894  41.069  -6.094  1.00  0.00    +0.000 C 
ATOM    105  H7  UNL A   1       2.694  39.444  -4.772  1.00  0.00    +0.000 H 
ATOM     13  C12 UNL A   1       3.768  40.666  -8.214  1.00  0.00    +0.000 C 
ATOM    106  H8  UNL A   1       2.507  41.744  -5.416  1.00  0.00    +0.000 H 
ATOM     12  N1  UNL A   1       3.271  41.530  -7.305  1.00  0.00    +0.000 N 
ATOM     14  C13 UNL A   1       4.177  41.124  -9.477  1.00  0.00    +0.000 C 
ATOM    112  H14 UNL A   1       4.487  37.415  -8.712  1.00  0.00    +0.000 H 
ATOM     18  C17 UNL A   1       4.400  38.422  -8.921  1.00  0.00    +0.000 C 
ATOM     19  C18 UNL A   1       3.897  39.288  -7.924  1.00  0.00    +0.000 C 
ATOM     17  C16 UNL A   1       4.782  38.884 -10.173  1.00  0.00    +0.000 C 
ATOM    111  H13 UNL A   1       5.140  38.230 -10.887  1.00  0.00    +0.000 H 
ATOM     16  C15 UNL A   1       4.674  40.236 -10.449  1.00  0.00    +0.000 C 
ATOM    110  H12 UNL A   1       4.960  40.595 -11.374  1.00  0.00    +0.000 H 
BRANCH   14   15
ATOM    107  H9  UNL A   1       3.616  43.125  -9.068  1.00  0.00    +0.000 H 
ATOM    108  H10 UNL A   1       3.561  42.693 -10.761  1.00  0.00    +0.000 H 
ATOM    109  H11 UNL A   1       5.099  42.964  -9.977  1.00  0.00    +0.000 H 
ATOM     15  C14 UNL A   1       4.109  42.582  -9.847  1.00  0.00    +0.000 C 
ENDBRANCH   14   15
ENDBRANCH    8    9
BRANCH   20   21
ATOM    113  H15 UNL A   1       1.292  37.561  -7.562  1.00  0.00    +0.000 H 
ATOM    114  H16 UNL A   1       0.579  36.669  -6.239  1.00  0.00    +0.000 H 
ATOM    115  H17 UNL A   1       1.149  35.822  -7.658  1.00  0.00    +0.000 H 
ATOM     21  C20 UNL A   1       1.329  36.649  -7.002  1.00  0.00    +0.000 C 
ENDBRANCH   20   21
ENDBRANCH   23   22
ENDBRANCH   24   23
ENDBRANCH   26   24
ENDBRANCH   27   26
ENDBRANCH   28   27
ENDBRANCH   29   28
ENDBRANCH   30   29
ENDBRANCH   31   30
ENDBRANCH   32   31
ENDBRANCH   33   32
ENDBRANCH   34   33
ENDBRANCH   36   34
ENDBRANCH   40   39
BRANCH   44   45
ATOM     45  C38 UNL A   1       4.940  30.249  -1.438  1.00  0.00    +0.000 C 
ATOM     46  C39 UNL A   1       3.778  30.707  -0.784  1.00  0.00    +0.000 C 
ATOM     47  F1  UNL A   1       3.518  32.019  -0.691  1.00  0.00    +0.000 F 
ATOM     48  C40 UNL A   1       2.905  29.833  -0.130  1.00  0.00    +0.000 C 
ATOM     49  F2  UNL A   1       1.880  30.323   0.580  1.00  0.00    +0.000 F 
ATOM     50  C41 UNL A   1       3.128  28.468  -0.156  1.00  0.00    +0.000 C 
ATOM     51  F3  UNL A   1       2.326  27.634   0.518  1.00  0.00    +0.000 F 
ATOM     52  C42 UNL A   1       4.219  27.976  -0.840  1.00  0.00    +0.000 C 
ATOM     53  F4  UNL A   1       4.463  26.658  -0.860  1.00  0.00    +0.000 F 
ATOM     54  C43 UNL A   1       5.122  28.850  -1.448  1.00  0.00    +0.000 C 
ATOM     55  F5  UNL A   1       6.226  28.281  -1.947  1.00  0.00    +0.000 F 
ENDBRANCH   44   45
BRANCH   61   62
ATOM     65  C51 UNL A   1      13.304  32.584   1.520  1.00  0.00    +0.000 C 
ATOM     66  F7  UNL A   1      14.010  32.590   2.661  1.00  0.00    +0.000 F 
ATOM     67  C52 UNL A   1      13.784  33.259   0.409  1.00  0.00    +0.000 C 
ATOM     68  F8  UNL A   1      14.957  33.907   0.472  1.00  0.00    +0.000 F 
ATOM     69  C53 UNL A   1      13.068  33.233  -0.776  1.00  0.00    +0.000 C 
ATOM     70  F9  UNL A   1      13.556  33.839  -1.867  1.00  0.00    +0.000 F 
ATOM     71  C54 UNL A   1      11.857  32.550  -0.847  1.00  0.00    +0.000 C 
ATOM     72  F10 UNL A   1      11.202  32.520  -2.018  1.00  0.00    +0.000 F 
ATOM     62  C49 UNL A   1      11.350  31.855   0.259  1.00  0.00    +0.000 C 
ATOM     63  C50 UNL A   1      12.111  31.868   1.440  1.00  0.00    +0.000 C 
ATOM     64  F6  UNL A   1      11.739  31.140   2.503  1.00  0.00    +0.000 F 
ENDBRANCH   61   62
BRANCH   76   77
ATOM     77  C58 UNL A   1      12.503  26.678  -3.176  1.00  0.00    +0.000 C 
ATOM     78  C59 UNL A   1      11.821  25.790  -4.025  1.00  0.00    +0.000 C 
ATOM     79  F11 UNL A   1      10.558  26.048  -4.396  1.00  0.00    +0.000 F 
ATOM     80  C60 UNL A   1      12.450  24.667  -4.567  1.00  0.00    +0.000 C 
ATOM     81  F12 UNL A   1      11.791  23.883  -5.430  1.00  0.00    +0.000 F 
ATOM     82  C61 UNL A   1      13.775  24.392  -4.267  1.00  0.00    +0.000 C 
ATOM     83  F13 UNL A   1      14.399  23.354  -4.839  1.00  0.00    +0.000 F 
ATOM     84  C62 UNL A   1      14.463  25.226  -3.405  1.00  0.00    +0.000 C 
ATOM     85  F14 UNL A   1      15.754  24.990  -3.132  1.00  0.00    +0.000 F 
ATOM     86  C63 UNL A   1      13.838  26.353  -2.871  1.00  0.00    +0.000 C 
ATOM     87  F15 UNL A   1      14.595  27.171  -2.126  1.00  0.00    +0.000 F 
ENDBRANCH   76   77
TORSDOF 20
ENDMDL
MODEL 3
REMARK VINA RESULT:      -9.0     43.119     50.601
ROOT
ATOM    134  H36 UNL A   1      44.371  20.746  44.142  1.00  0.00    +0.000 H 
ATOM    135  H37 UNL A   1      43.631  18.657  42.664  1.00  0.00    +0.000 H 
ATOM    136  H38 UNL A   1      47.349  18.043  44.060  1.00  0.00    +0.000 H 
ATOM    137  H39 UNL A   1      43.115  12.302  48.338  1.00  0.00    +0.000 H 
ATOM    138  H40 UNL A   1      41.795  14.382  48.991  1.00  0.00    +0.000 H 
ATOM    139  H41 UNL A   1      45.064  15.641  46.757  1.00  0.00    +0.000 H 
ATOM    140  H42 UNL A   1      47.995  14.392  46.690  1.00  0.00    +0.000 H 
ATOM    141  H43 UNL A   1      47.764  16.351  45.031  1.00  0.00    +0.000 H 
ATOM    142  H44 UNL A   1      46.203  20.221  49.005  1.00  0.00    +0.000 H 
ATOM    143  H45 UNL A   1      44.713  18.505  50.208  1.00  0.00    +0.000 H 
ATOM     40  C34 UNL A   1      43.224  16.851  48.413  1.00  0.00    +0.000 C 
ATOM     41  C35 UNL A   1      44.235  17.895  48.077  1.00  0.00    +0.000 C 
ATOM     42  N5  UNL A   1      44.587  18.323  46.904  1.00  0.00    +0.000 N 
ATOM     43  C36 UNL A   1      45.595  19.261  47.125  1.00  0.00    +0.000 C 
ATOM     44  C37 UNL A   1      46.443  19.660  46.137  1.00  0.00    +0.000 C 
ATOM     56  C44 UNL A   1      45.914  19.387  44.830  1.00  0.00    +0.000 C 
ATOM     57  C45 UNL A   1      44.816  19.815  44.112  1.00  0.00    +0.000 C 
ATOM     58  C46 UNL A   1      44.429  18.696  43.318  1.00  0.00    +0.000 C 
ATOM     59  C47 UNL A   1      45.327  17.664  43.590  1.00  0.00    +0.000 C 
ATOM     60  N6  UNL A   1      46.404  18.307  44.142  1.00  0.00    +0.000 N 
ATOM     61  C48 UNL A   1      45.212  16.229  43.506  1.00  0.00    +0.000 C 
ATOM     73  C55 UNL A   1      45.968  15.354  44.229  1.00  0.00    +0.000 C 
ATOM     74  N7  UNL A   1      45.493  14.087  44.531  1.00  0.00    +0.000 N 
ATOM     75  C56 UNL A   1      46.092  13.762  45.643  1.00  0.00    +0.000 C 
ATOM     76  C57 UNL A   1      45.469  12.935  46.706  1.00  0.00    +0.000 C 
ATOM     88  C64 UNL A   1      44.488  13.675  47.273  1.00  0.00    +0.000 C 
ATOM     89  C65 UNL A   1      43.362  13.272  48.091  1.00  0.00    +0.000 C 
ATOM     90  C66 UNL A   1      42.690  14.378  48.479  1.00  0.00    +0.000 C 
ATOM     91  C67 UNL A   1      43.429  15.567  48.058  1.00  0.00    +0.000 C 
ATOM     92  N8  UNL A   1      44.441  15.074  47.268  1.00  0.00    +0.000 N 
ATOM     93  C68 UNL A   1      47.265  14.552  45.977  1.00  0.00    +0.000 C 
ATOM     94  C69 UNL A   1      47.126  15.543  45.094  1.00  0.00    +0.000 C 
ATOM     95  C70 UNL A   1      45.638  19.488  48.547  1.00  0.00    +0.000 C 
ATOM     96  C71 UNL A   1      44.852  18.626  49.193  1.00  0.00    +0.000 C 
ENDROOT
BRANCH   40   39
ATOM     97  C72 UNL A   1      42.010  18.546  49.813  1.00  0.00    +0.000 C 
ATOM     98  C73 UNL A   1      40.881  18.880  50.558  1.00  0.00    +0.000 C 
ATOM     36  C30 UNL A   1      39.774  18.012  50.636  1.00  0.00    +0.000 C 
ATOM     37  C31 UNL A   1      39.797  16.849  49.870  1.00  0.00    +0.000 C 
ATOM    132  H34 UNL A   1      38.958  16.247  49.828  1.00  0.00    +0.000 H 
ATOM     38  C32 UNL A   1      40.936  16.488  49.163  1.00  0.00    +0.000 C 
ATOM    133  H35 UNL A   1      40.954  15.602  48.635  1.00  0.00    +0.000 H 
ATOM     39  C33 UNL A   1      42.059  17.318  49.163  1.00  0.00    +0.000 C 
ATOM    144  H46 UNL A   1      42.802  19.205  49.744  1.00  0.00    +0.000 H 
ATOM    145  H47 UNL A   1      40.855  19.779  51.063  1.00  0.00    +0.000 H 
BRANCH   36   34
ATOM     34  C29 UNL A   1      38.697  18.393  51.592  1.00  0.00    +0.000 C 
ATOM     35  O2  UNL A   1      38.294  19.560  51.590  1.00  0.00    +0.000 O 
BRANCH   34   33
ATOM     33  N4  UNL A   1      38.147  17.560  52.529  1.00  0.00    +0.000 N 
ATOM    131  H33 UNL A   1      37.382  17.048  52.180  1.00  0.00    +0.000 H 
BRANCH   33   32
ATOM    129  H31 UNL A   1      39.493  17.113  54.016  1.00  0.00    +0.000 H 
ATOM    130  H32 UNL A   1      38.083  18.089  54.495  1.00  0.00    +0.000 H 
ATOM     32  C28 UNL A   1      38.438  17.261  53.917  1.00  0.00    +0.000 C 
BRANCH   32   31
ATOM    127  H29 UNL A   1      36.689  16.249  54.574  1.00  0.00    +0.000 H 
ATOM     31  C27 UNL A   1      37.724  16.013  54.443  1.00  0.00    +0.000 C 
ATOM    128  H30 UNL A   1      37.888  15.239  53.721  1.00  0.00    +0.000 H 
BRANCH   31   30
ATOM    126  H28 UNL A   1      37.498  15.658  56.499  1.00  0.00    +0.000 H 
ATOM    125  H27 UNL A   1      39.177  16.007  55.992  1.00  0.00    +0.000 H 
ATOM     30  C26 UNL A   1      38.267  15.487  55.776  1.00  0.00    +0.000 C 
BRANCH   30   29
ATOM    123  H25 UNL A   1      39.486  13.836  56.320  1.00  0.00    +0.000 H 
ATOM    124  H26 UNL A   1      37.727  13.525  56.300  1.00  0.00    +0.000 H 
ATOM     29  C25 UNL A   1      38.559  13.985  55.807  1.00  0.00    +0.000 C 
BRANCH   29   28
ATOM    121  H23 UNL A   1      37.778  12.745  54.263  1.00  0.00    +0.000 H 
ATOM    122  H24 UNL A   1      38.779  14.113  53.715  1.00  0.00    +0.000 H 
ATOM     28  C24 UNL A   1      38.664  13.324  54.427  1.00  0.00    +0.000 C 
BRANCH   28   27
ATOM     27  C23 UNL A   1      39.872  12.404  54.267  1.00  0.00    +0.000 C 
ATOM    119  H21 UNL A   1      40.760  12.953  54.500  1.00  0.00    +0.000 H 
ATOM    120  H22 UNL A   1      39.752  11.575  54.931  1.00  0.00    +0.000 H 
BRANCH   27   26
ATOM     26  N3  UNL A   1      39.975  11.894  52.913  1.00  0.00    +0.000 N 
ATOM    118  H20 UNL A   1      39.163  11.990  52.364  1.00  0.00    +0.000 H 
BRANCH   26   24
ATOM     25  O1  UNL A   1      41.424  10.215  52.734  1.00  0.00    +0.000 O 
ATOM     24  C22 UNL A   1      41.035  11.299  52.291  1.00  0.00    +0.000 C 
BRANCH   24   23
ATOM    116  H18 UNL A   1      42.113  11.239  50.473  1.00  0.00    +0.000 H 
ATOM    117  H19 UNL A   1      41.061  12.659  50.701  1.00  0.00    +0.000 H 
ATOM     23  C21 UNL A   1      41.763  11.989  51.152  1.00  0.00    +0.000 C 
BRANCH   23   22
ATOM      2  C2  UNL A   1      43.191  16.722  52.911  1.00  0.00    +0.000 C 
ATOM      3  C3  UNL A   1      41.904  16.193  52.813  1.00  0.00    +0.000 C 
ATOM      4  C4  UNL A   1      41.692  14.870  52.414  1.00  0.00    +0.000 C 
ATOM      5  C5  UNL A   1      42.808  14.079  52.088  1.00  0.00    +0.000 C 
ATOM      6  C6  UNL A   1      44.110  14.568  52.217  1.00  0.00    +0.000 C 
ATOM      7  C7  UNL A   1      44.299  15.907  52.630  1.00  0.00    +0.000 C 
ATOM    102  H4  UNL A   1      41.093  16.789  53.040  1.00  0.00    +0.000 H 
ATOM    104  H6  UNL A   1      45.254  16.286  52.726  1.00  0.00    +0.000 H 
ATOM    103  H5  UNL A   1      40.738  14.483  52.360  1.00  0.00    +0.000 H 
ATOM      8  C8  UNL A   1      44.996  13.508  51.865  1.00  0.00    +0.000 C 
ATOM     20  C19 UNL A   1      44.229  12.401  51.525  1.00  0.00    +0.000 C 
ATOM     22  N2  UNL A   1      42.904  12.795  51.572  1.00  0.00    +0.000 N 
BRANCH    2    1
ATOM      1  C1  UNL A   1      43.373  18.158  53.307  1.00  0.00    +0.000 C 
ATOM     99  H1  UNL A   1      42.688  18.769  52.758  1.00  0.00    +0.000 H 
ATOM    100  H2  UNL A   1      44.375  18.464  53.092  1.00  0.00    +0.000 H 
ATOM    101  H3  UNL A   1      43.185  18.266  54.356  1.00  0.00    +0.000 H 
ENDBRANCH    2    1
BRANCH    8    9
ATOM      9  C9  UNL A   1      46.453  13.500  51.836  1.00  0.00    +0.000 C 
ATOM     10  C10 UNL A   1      47.119  12.623  52.688  1.00  0.00    +0.000 C 
ATOM     11  C11 UNL A   1      48.492  12.582  52.619  1.00  0.00    +0.000 C 
ATOM    105  H7  UNL A   1      46.599  12.024  53.348  1.00  0.00    +0.000 H 
ATOM     13  C12 UNL A   1      48.599  14.200  50.948  1.00  0.00    +0.000 C 
ATOM    106  H8  UNL A   1      48.992  11.935  53.250  1.00  0.00    +0.000 H 
ATOM     12  N1  UNL A   1      49.226  13.338  51.775  1.00  0.00    +0.000 N 
ATOM     14  C13 UNL A   1      49.339  14.990  50.053  1.00  0.00    +0.000 C 
ATOM    112  H14 UNL A   1      45.559  15.365  50.091  1.00  0.00    +0.000 H 
ATOM     18  C17 UNL A   1      46.586  15.266  50.083  1.00  0.00    +0.000 C 
ATOM     19  C18 UNL A   1      47.191  14.329  50.951  1.00  0.00    +0.000 C 
ATOM     17  C16 UNL A   1      47.331  16.055  49.218  1.00  0.00    +0.000 C 
ATOM    111  H13 UNL A   1      46.867  16.737  48.598  1.00  0.00    +0.000 H 
ATOM     16  C15 UNL A   1      48.708  15.913  49.200  1.00  0.00    +0.000 C 
ATOM    110  H12 UNL A   1      49.275  16.489  48.558  1.00  0.00    +0.000 H 
BRANCH   14   15
ATOM    107  H9  UNL A   1      51.284  15.799  50.281  1.00  0.00    +0.000 H 
ATOM    108  H10 UNL A   1      51.120  14.682  48.947  1.00  0.00    +0.000 H 
ATOM    109  H11 UNL A   1      51.178  14.083  50.587  1.00  0.00    +0.000 H 
ATOM     15  C14 UNL A   1      50.839  14.880  49.961  1.00  0.00    +0.000 C 
ENDBRANCH   14   15
ENDBRANCH    8    9
BRANCH   20   21
ATOM    113  H15 UNL A   1      43.829  10.396  51.012  1.00  0.00    +0.000 H 
ATOM    114  H16 UNL A   1      45.335  10.639  51.865  1.00  0.00    +0.000 H 
ATOM    115  H17 UNL A   1      45.199  11.096  50.183  1.00  0.00    +0.000 H 
ATOM     21  C20 UNL A   1      44.680  11.036  51.117  1.00  0.00    +0.000 C 
ENDBRANCH   20   21
ENDBRANCH   23   22
ENDBRANCH   24   23
ENDBRANCH   26   24
ENDBRANCH   27   26
ENDBRANCH   28   27
ENDBRANCH   29   28
ENDBRANCH   30   29
ENDBRANCH   31   30
ENDBRANCH   32   31
ENDBRANCH   33   32
ENDBRANCH   34   33
ENDBRANCH   36   34
ENDBRANCH   40   39
BRANCH   44   45
ATOM     45  C38 UNL A   1      47.893  20.021  46.355  1.00  0.00    +0.000 C 
ATOM     46  C39 UNL A   1      48.823  19.010  46.676  1.00  0.00    +0.000 C 
ATOM     47  F1  UNL A   1      48.496  17.715  46.553  1.00  0.00    +0.000 F 
ATOM     48  C40 UNL A   1      50.077  19.305  47.219  1.00  0.00    +0.000 C 
ATOM     49  F2  UNL A   1      50.878  18.310  47.622  1.00  0.00    +0.000 F 
ATOM     50  C41 UNL A   1      50.469  20.618  47.406  1.00  0.00    +0.000 C 
ATOM     51  F3  UNL A   1      51.645  20.902  47.980  1.00  0.00    +0.000 F 
ATOM     52  C42 UNL A   1      49.613  21.636  47.043  1.00  0.00    +0.000 C 
ATOM     53  F4  UNL A   1      49.968  22.915  47.234  1.00  0.00    +0.000 F 
ATOM     54  C43 UNL A   1      48.341  21.344  46.551  1.00  0.00    +0.000 C 
ATOM     55  F5  UNL A   1      47.534  22.398  46.379  1.00  0.00    +0.000 F 
ENDBRANCH   44   45
BRANCH   61   62
ATOM     65  C51 UNL A   1      41.715  14.842  42.774  1.00  0.00    +0.000 C 
ATOM     66  F7  UNL A   1      40.632  14.410  43.438  1.00  0.00    +0.000 F 
ATOM     67  C52 UNL A   1      41.687  14.929  41.392  1.00  0.00    +0.000 C 
ATOM     68  F8  UNL A   1      40.577  14.591  40.719  1.00  0.00    +0.000 F 
ATOM     69  C53 UNL A   1      42.797  15.399  40.708  1.00  0.00    +0.000 C 
ATOM     70  F9  UNL A   1      42.755  15.535  39.376  1.00  0.00    +0.000 F 
ATOM     71  C54 UNL A   1      43.946  15.761  41.405  1.00  0.00    +0.000 C 
ATOM     72  F10 UNL A   1      44.994  16.240  40.716  1.00  0.00    +0.000 F 
ATOM     62  C49 UNL A   1      44.000  15.688  42.804  1.00  0.00    +0.000 C 
ATOM     63  C50 UNL A   1      42.851  15.241  43.477  1.00  0.00    +0.000 C 
ATOM     64  F6  UNL A   1      42.796  15.245  44.816  1.00  0.00    +0.000 F 
ENDBRANCH   61   62
BRANCH   76   77
ATOM     77  C58 UNL A   1      46.113  11.714  47.240  1.00  0.00    +0.000 C 
ATOM     78  C59 UNL A   1      47.278  11.800  48.019  1.00  0.00    +0.000 C 
ATOM     79  F11 UNL A   1      47.954  12.956  48.096  1.00  0.00    +0.000 F 
ATOM     80  C60 UNL A   1      47.723  10.724  48.793  1.00  0.00    +0.000 C 
ATOM     81  F12 UNL A   1      48.798  10.867  49.580  1.00  0.00    +0.000 F 
ATOM     82  C61 UNL A   1      47.022   9.529  48.799  1.00  0.00    +0.000 C 
ATOM     83  F13 UNL A   1      47.410   8.520  49.592  1.00  0.00    +0.000 F 
ATOM     84  C62 UNL A   1      45.892   9.399  48.014  1.00  0.00    +0.000 C 
ATOM     85  F14 UNL A   1      45.187   8.260  48.036  1.00  0.00    +0.000 F 
ATOM     86  C63 UNL A   1      45.443  10.476  47.249  1.00  0.00    +0.000 C 
ATOM     87  F15 UNL A   1      44.285  10.313  46.593  1.00  0.00    +0.000 F 
ENDBRANCH   76   77
TORSDOF 20
ENDMDL
MODEL 4
REMARK VINA RESULT:      -8.9     14.231     20.882
ROOT
ATOM    134  H36 UNL A   1       6.463  29.464  -4.721  1.00  0.00    +0.000 H 
ATOM    135  H37 UNL A   1       8.753  28.102  -4.757  1.00  0.00    +0.000 H 
ATOM    136  H38 UNL A   1       9.542  32.033  -5.034  1.00  0.00    +0.000 H 
ATOM    137  H39 UNL A   1      12.527  30.381   2.552  1.00  0.00    +0.000 H 
ATOM    138  H40 UNL A   1      10.139  29.539   2.839  1.00  0.00    +0.000 H 
ATOM    139  H41 UNL A   1      10.379  31.328  -0.903  1.00  0.00    +0.000 H 
ATOM    140  H42 UNL A   1      12.108  33.864  -1.760  1.00  0.00    +0.000 H 
ATOM    141  H43 UNL A   1      10.839  32.864  -3.767  1.00  0.00    +0.000 H 
ATOM    142  H44 UNL A   1       5.611  33.411  -1.408  1.00  0.00    +0.000 H 
ATOM    143  H45 UNL A   1       6.486  32.684   0.898  1.00  0.00    +0.000 H 
ATOM     40  C34 UNL A   1       8.343  30.514   0.766  1.00  0.00    +0.000 C 
ATOM     41  C35 UNL A   1       7.693  31.238  -0.365  1.00  0.00    +0.000 C 
ATOM     42  N5  UNL A   1       7.773  30.982  -1.634  1.00  0.00    +0.000 N 
ATOM     43  C36 UNL A   1       7.028  31.972  -2.273  1.00  0.00    +0.000 C 
ATOM     44  C37 UNL A   1       7.165  32.241  -3.601  1.00  0.00    +0.000 C 
ATOM     56  C44 UNL A   1       7.767  31.147  -4.311  1.00  0.00    +0.000 C 
ATOM     57  C45 UNL A   1       7.414  29.839  -4.573  1.00  0.00    +0.000 C 
ATOM     58  C46 UNL A   1       8.643  29.117  -4.599  1.00  0.00    +0.000 C 
ATOM     59  C47 UNL A   1       9.668  30.035  -4.370  1.00  0.00    +0.000 C 
ATOM     60  N6  UNL A   1       9.091  31.244  -4.655  1.00  0.00    +0.000 N 
ATOM     61  C48 UNL A   1      10.992  29.893  -3.818  1.00  0.00    +0.000 C 
ATOM     73  C55 UNL A   1      11.690  30.903  -3.224  1.00  0.00    +0.000 C 
ATOM     74  N7  UNL A   1      12.659  30.632  -2.271  1.00  0.00    +0.000 N 
ATOM     75  C56 UNL A   1      12.687  31.692  -1.512  1.00  0.00    +0.000 C 
ATOM     76  C57 UNL A   1      12.959  31.658  -0.054  1.00  0.00    +0.000 C 
ATOM     88  C64 UNL A   1      11.896  31.072   0.544  1.00  0.00    +0.000 C 
ATOM     89  C65 UNL A   1      11.768  30.479   1.860  1.00  0.00    +0.000 C 
ATOM     90  C66 UNL A   1      10.490  30.077   2.032  1.00  0.00    +0.000 C 
ATOM     91  C67 UNL A   1       9.684  30.522   0.897  1.00  0.00    +0.000 C 
ATOM     92  N8  UNL A   1      10.604  31.029   0.007  1.00  0.00    +0.000 N 
ATOM     93  C68 UNL A   1      12.069  32.881  -2.074  1.00  0.00    +0.000 C 
ATOM     94  C69 UNL A   1      11.438  32.335  -3.115  1.00  0.00    +0.000 C 
ATOM     95  C70 UNL A   1       6.335  32.695  -1.237  1.00  0.00    +0.000 C 
ATOM     96  C71 UNL A   1       6.753  32.317  -0.029  1.00  0.00    +0.000 C 
ENDROOT
BRANCH   40   39
ATOM     97  C72 UNL A   1       7.638  29.821   3.074  1.00  0.00    +0.000 C 
ATOM     98  C73 UNL A   1       6.748  29.113   3.880  1.00  0.00    +0.000 C 
ATOM     36  C30 UNL A   1       5.627  28.460   3.333  1.00  0.00    +0.000 C 
ATOM     37  C31 UNL A   1       5.373  28.620   1.973  1.00  0.00    +0.000 C 
ATOM    132  H34 UNL A   1       4.503  28.239   1.566  1.00  0.00    +0.000 H 
ATOM     38  C32 UNL A   1       6.279  29.283   1.156  1.00  0.00    +0.000 C 
ATOM    133  H35 UNL A   1       6.099  29.357   0.143  1.00  0.00    +0.000 H 
ATOM     39  C33 UNL A   1       7.432  29.855   1.699  1.00  0.00    +0.000 C 
ATOM    144  H46 UNL A   1       8.440  30.316   3.494  1.00  0.00    +0.000 H 
ATOM    145  H47 UNL A   1       6.915  29.065   4.897  1.00  0.00    +0.000 H 
BRANCH   36   34
ATOM     34  C29 UNL A   1       4.842  27.598   4.260  1.00  0.00    +0.000 C 
ATOM     35  O2  UNL A   1       3.629  27.476   4.066  1.00  0.00    +0.000 O 
BRANCH   34   33
ATOM     33  N4  UNL A   1       5.348  26.965   5.363  1.00  0.00    +0.000 N 
ATOM    131  H33 UNL A   1       5.402  27.557   6.149  1.00  0.00    +0.000 H 
BRANCH   33   32
ATOM    129  H31 UNL A   1       5.406  24.964   4.904  1.00  0.00    +0.000 H 
ATOM    130  H32 UNL A   1       6.891  25.656   5.600  1.00  0.00    +0.000 H 
ATOM     32  C28 UNL A   1       5.822  25.623   5.636  1.00  0.00    +0.000 C 
BRANCH   32   31
ATOM    127  H29 UNL A   1       4.381  24.967   7.053  1.00  0.00    +0.000 H 
ATOM     31  C27 UNL A   1       5.441  25.104   7.026  1.00  0.00    +0.000 C 
ATOM    128  H30 UNL A   1       5.984  24.193   7.171  1.00  0.00    +0.000 H 
BRANCH   31   30
ATOM    126  H28 UNL A   1       4.924  26.279   8.686  1.00  0.00    +0.000 H 
ATOM    125  H27 UNL A   1       6.332  26.884   7.764  1.00  0.00    +0.000 H 
ATOM     30  C26 UNL A   1       5.833  26.033   8.179  1.00  0.00    +0.000 C 
BRANCH   30   29
ATOM    123  H25 UNL A   1       6.962  26.147   9.973  1.00  0.00    +0.000 H 
ATOM    124  H26 UNL A   1       6.236  24.555   9.617  1.00  0.00    +0.000 H 
ATOM     29  C25 UNL A   1       6.753  25.407   9.228  1.00  0.00    +0.000 C 
BRANCH   29   28
ATOM    121  H23 UNL A   1       8.293  23.941   9.134  1.00  0.00    +0.000 H 
ATOM    122  H24 UNL A   1       7.985  24.826   7.619  1.00  0.00    +0.000 H 
ATOM     28  C24 UNL A   1       8.090  24.889   8.681  1.00  0.00    +0.000 C 
BRANCH   28   27
ATOM     27  C23 UNL A   1       9.275  25.813   8.954  1.00  0.00    +0.000 C 
ATOM    119  H21 UNL A   1       8.937  26.828   8.934  1.00  0.00    +0.000 H 
ATOM    120  H22 UNL A   1       9.679  25.565   9.913  1.00  0.00    +0.000 H 
BRANCH   27   26
ATOM     26  N3  UNL A   1      10.319  25.643   7.961  1.00  0.00    +0.000 N 
ATOM    118  H20 UNL A   1      10.238  26.215   7.163  1.00  0.00    +0.000 H 
BRANCH   26   24
ATOM     25  O1  UNL A   1      12.491  25.284   8.286  1.00  0.00    +0.000 O 
ATOM     24  C22 UNL A   1      11.397  24.805   7.975  1.00  0.00    +0.000 C 
BRANCH   24   23
ATOM    116  H18 UNL A   1      12.011  22.783   8.055  1.00  0.00    +0.000 H 
ATOM    117  H19 UNL A   1      10.271  23.052   7.776  1.00  0.00    +0.000 H 
ATOM     23  C21 UNL A   1      11.269  23.357   7.539  1.00  0.00    +0.000 C 
BRANCH   23   22
ATOM      2  C2  UNL A   1      14.843  22.657   3.760  1.00  0.00    +0.000 C 
ATOM      3  C3  UNL A   1      15.030  22.607   5.141  1.00  0.00    +0.000 C 
ATOM      4  C4  UNL A   1      13.952  22.717   6.024  1.00  0.00    +0.000 C 
ATOM      5  C5  UNL A   1      12.664  22.905   5.492  1.00  0.00    +0.000 C 
ATOM      6  C6  UNL A   1      12.440  22.916   4.113  1.00  0.00    +0.000 C 
ATOM      7  C7  UNL A   1      13.546  22.795   3.241  1.00  0.00    +0.000 C 
ATOM    102  H4  UNL A   1      15.983  22.485   5.519  1.00  0.00    +0.000 H 
ATOM    104  H6  UNL A   1      13.399  22.807   2.220  1.00  0.00    +0.000 H 
ATOM    103  H5  UNL A   1      14.098  22.663   7.044  1.00  0.00    +0.000 H 
ATOM      8  C8  UNL A   1      11.037  23.067   3.915  1.00  0.00    +0.000 C 
ATOM     20  C19 UNL A   1      10.432  23.149   5.162  1.00  0.00    +0.000 C 
ATOM     22  N2  UNL A   1      11.443  23.146   6.106  1.00  0.00    +0.000 N 
BRANCH    2    1
ATOM      1  C1  UNL A   1      16.032  22.572   2.848  1.00  0.00    +0.000 C 
ATOM     99  H1  UNL A   1      16.810  23.208   3.216  1.00  0.00    +0.000 H 
ATOM    100  H2  UNL A   1      15.751  22.885   1.864  1.00  0.00    +0.000 H 
ATOM    101  H3  UNL A   1      16.384  21.561   2.814  1.00  0.00    +0.000 H 
ENDBRANCH    2    1
BRANCH    8    9
ATOM      9  C9  UNL A   1      10.287  23.135   2.666  1.00  0.00    +0.000 C 
ATOM     10  C10 UNL A   1       9.963  21.939   2.033  1.00  0.00    +0.000 C 
ATOM     11  C11 UNL A   1       9.210  22.007   0.882  1.00  0.00    +0.000 C 
ATOM    105  H7  UNL A   1      10.275  21.032   2.413  1.00  0.00    +0.000 H 
ATOM     13  C12 UNL A   1       9.083  24.332   0.935  1.00  0.00    +0.000 C 
ATOM    106  H8  UNL A   1       8.968  21.124   0.407  1.00  0.00    +0.000 H 
ATOM     12  N1  UNL A   1       8.771  23.162   0.339  1.00  0.00    +0.000 N 
ATOM     14  C13 UNL A   1       8.628  25.546   0.394  1.00  0.00    +0.000 C 
ATOM    112  H14 UNL A   1      10.760  25.654   3.536  1.00  0.00    +0.000 H 
ATOM     18  C17 UNL A   1      10.184  25.625   2.681  1.00  0.00    +0.000 C 
ATOM     19  C18 UNL A   1       9.864  24.371   2.112  1.00  0.00    +0.000 C 
ATOM     17  C16 UNL A   1       9.745  26.818   2.125  1.00  0.00    +0.000 C 
ATOM    111  H13 UNL A   1       9.998  27.722   2.556  1.00  0.00    +0.000 H 
ATOM     16  C15 UNL A   1       8.963  26.778   0.984  1.00  0.00    +0.000 C 
ATOM    110  H12 UNL A   1       8.625  27.658   0.562  1.00  0.00    +0.000 H 
BRANCH   14   15
ATOM    107  H9  UNL A   1       6.729  25.519  -0.547  1.00  0.00    +0.000 H 
ATOM    108  H10 UNL A   1       8.003  24.758  -1.471  1.00  0.00    +0.000 H 
ATOM    109  H11 UNL A   1       7.923  26.501  -1.361  1.00  0.00    +0.000 H 
ATOM     15  C14 UNL A   1       7.758  25.584  -0.835  1.00  0.00    +0.000 C 
ENDBRANCH   14   15
ENDBRANCH    8    9
BRANCH   20   21
ATOM    113  H15 UNL A   1       8.590  22.319   5.767  1.00  0.00    +0.000 H 
ATOM    114  H16 UNL A   1       8.451  23.651   4.644  1.00  0.00    +0.000 H 
ATOM    115  H17 UNL A   1       8.862  23.955   6.316  1.00  0.00    +0.000 H 
ATOM     21  C20 UNL A   1       8.981  23.278   5.496  1.00  0.00    +0.000 C 
ENDBRANCH   20   21
ENDBRANCH   23   22
ENDBRANCH   24   23
ENDBRANCH   26   24
ENDBRANCH   27   26
ENDBRANCH   28   27
ENDBRANCH   29   28
ENDBRANCH   30   29
ENDBRANCH   31   30
ENDBRANCH   32   31
ENDBRANCH   33   32
ENDBRANCH   34   33
ENDBRANCH   36   34
ENDBRANCH   40   39
BRANCH   44   45
ATOM     45  C38 UNL A   1       7.035  33.616  -4.210  1.00  0.00    +0.000 C 
ATOM     46  C39 UNL A   1       7.943  34.630  -3.842  1.00  0.00    +0.000 C 
ATOM     47  F1  UNL A   1       9.058  34.335  -3.157  1.00  0.00    +0.000 F 
ATOM     48  C40 UNL A   1       7.682  35.981  -4.089  1.00  0.00    +0.000 C 
ATOM     49  F2  UNL A   1       8.514  36.918  -3.615  1.00  0.00    +0.000 F 
ATOM     50  C41 UNL A   1       6.535  36.362  -4.762  1.00  0.00    +0.000 C 
ATOM     51  F3  UNL A   1       6.254  37.658  -4.947  1.00  0.00    +0.000 F 
ATOM     52  C42 UNL A   1       5.654  35.395  -5.195  1.00  0.00    +0.000 C 
ATOM     53  F4  UNL A   1       4.528  35.746  -5.831  1.00  0.00    +0.000 F 
ATOM     54  C43 UNL A   1       5.885  34.050  -4.903  1.00  0.00    +0.000 C 
ATOM     55  F5  UNL A   1       4.894  33.212  -5.228  1.00  0.00    +0.000 F 
ENDBRANCH   44   45
BRANCH   61   62
ATOM     65  C51 UNL A   1      12.912  26.605  -4.257  1.00  0.00    +0.000 C 
ATOM     66  F7  UNL A   1      13.751  26.024  -5.128  1.00  0.00    +0.000 F 
ATOM     67  C52 UNL A   1      12.598  25.962  -3.070  1.00  0.00    +0.000 C 
ATOM     68  F8  UNL A   1      13.139  24.768  -2.788  1.00  0.00    +0.000 F 
ATOM     69  C53 UNL A   1      11.751  26.573  -2.159  1.00  0.00    +0.000 C 
ATOM     70  F9  UNL A   1      11.488  25.980  -0.987  1.00  0.00    +0.000 F 
ATOM     71  C54 UNL A   1      11.198  27.819  -2.444  1.00  0.00    +0.000 C 
ATOM     72  F10 UNL A   1      10.405  28.396  -1.528  1.00  0.00    +0.000 F 
ATOM     62  C49 UNL A   1      11.502  28.493  -3.634  1.00  0.00    +0.000 C 
ATOM     63  C50 UNL A   1      12.390  27.869  -4.526  1.00  0.00    +0.000 C 
ATOM     64  F6  UNL A   1      12.806  28.500  -5.633  1.00  0.00    +0.000 F 
ENDBRANCH   61   62
BRANCH   76   77
ATOM     77  C58 UNL A   1      14.018  32.479   0.574  1.00  0.00    +0.000 C 
ATOM     78  C59 UNL A   1      13.689  33.532   1.444  1.00  0.00    +0.000 C 
ATOM     79  F11 UNL A   1      12.421  33.959   1.536  1.00  0.00    +0.000 F 
ATOM     80  C60 UNL A   1      14.641  34.109   2.288  1.00  0.00    +0.000 C 
ATOM     81  F12 UNL A   1      14.275  35.062   3.156  1.00  0.00    +0.000 F 
ATOM     82  C61 UNL A   1      15.952  33.659   2.278  1.00  0.00    +0.000 C 
ATOM     83  F13 UNL A   1      16.850  34.165   3.135  1.00  0.00    +0.000 F 
ATOM     84  C62 UNL A   1      16.317  32.650   1.407  1.00  0.00    +0.000 C 
ATOM     85  F14 UNL A   1      17.573  32.183   1.411  1.00  0.00    +0.000 F 
ATOM     86  C63 UNL A   1      15.365  32.067   0.571  1.00  0.00    +0.000 C 
ATOM     87  F15 UNL A   1      15.766  31.025  -0.172  1.00  0.00    +0.000 F 
ENDBRANCH   76   77
TORSDOF 20
ENDMDL
MODEL 5
REMARK VINA RESULT:      -8.9     46.271     53.510
ROOT
ATOM    134  H36 UNL A   1      46.769  10.044  47.905  1.00  0.00    +0.000 H 
ATOM    135  H37 UNL A   1      45.876   7.690  48.779  1.00  0.00    +0.000 H 
ATOM    136  H38 UNL A   1      49.161   8.716  50.854  1.00  0.00    +0.000 H 
ATOM    137  H39 UNL A   1      43.331   9.373  56.750  1.00  0.00    +0.000 H 
ATOM    138  H40 UNL A   1      42.345  10.938  54.997  1.00  0.00    +0.000 H 
ATOM    139  H41 UNL A   1      46.088   9.756  53.636  1.00  0.00    +0.000 H 
ATOM    140  H42 UNL A   1      48.708   9.171  55.353  1.00  0.00    +0.000 H 
ATOM    141  H43 UNL A   1      49.101   8.717  52.848  1.00  0.00    +0.000 H 
ATOM    142  H44 UNL A   1      47.724  14.041  51.128  1.00  0.00    +0.000 H 
ATOM    143  H45 UNL A   1      45.774  14.166  52.801  1.00  0.00    +0.000 H 
ATOM     40  C34 UNL A   1      44.284  11.732  52.976  1.00  0.00    +0.000 C 
ATOM     41  C35 UNL A   1      45.513  12.002  52.174  1.00  0.00    +0.000 C 
ATOM     42  N5  UNL A   1      46.109  11.217  51.332  1.00  0.00    +0.000 N 
ATOM     43  C36 UNL A   1      47.232  11.914  50.887  1.00  0.00    +0.000 C 
ATOM     44  C37 UNL A   1      48.278  11.292  50.276  1.00  0.00    +0.000 C 
ATOM     56  C44 UNL A   1      47.908  10.008  49.750  1.00  0.00    +0.000 C 
ATOM     57  C45 UNL A   1      47.030   9.565  48.782  1.00  0.00    +0.000 C 
ATOM     58  C46 UNL A   1      46.561   8.302  49.251  1.00  0.00    +0.000 C 
ATOM     59  C47 UNL A   1      47.198   8.049  50.466  1.00  0.00    +0.000 C 
ATOM     60  N6  UNL A   1      48.282   8.887  50.446  1.00  0.00    +0.000 N 
ATOM     61  C48 UNL A   1      46.827   7.251  51.608  1.00  0.00    +0.000 C 
ATOM     73  C55 UNL A   1      47.288   7.461  52.874  1.00  0.00    +0.000 C 
ATOM     74  N7  UNL A   1      46.544   7.067  53.976  1.00  0.00    +0.000 N 
ATOM     75  C56 UNL A   1      46.898   7.884  54.928  1.00  0.00    +0.000 C 
ATOM     76  C57 UNL A   1      45.978   8.364  55.989  1.00  0.00    +0.000 C 
ATOM     88  C64 UNL A   1      45.081   9.193  55.405  1.00  0.00    +0.000 C 
ATOM     89  C65 UNL A   1      43.791   9.657  55.872  1.00  0.00    +0.000 C 
ATOM     90  C66 UNL A   1      43.290  10.525  54.966  1.00  0.00    +0.000 C 
ATOM     91  C67 UNL A   1      44.294  10.786  53.936  1.00  0.00    +0.000 C 
ATOM     92  N8  UNL A   1      45.301   9.891  54.212  1.00  0.00    +0.000 N 
ATOM     93  C68 UNL A   1      48.135   8.611  54.702  1.00  0.00    +0.000 C 
ATOM     94  C69 UNL A   1      48.319   8.343  53.408  1.00  0.00    +0.000 C 
ATOM     95  C70 UNL A   1      47.105  13.258  51.391  1.00  0.00    +0.000 C 
ATOM     96  C71 UNL A   1      46.083  13.354  52.242  1.00  0.00    +0.000 C 
ENDROOT
BRANCH   40   39
ATOM     97  C72 UNL A   1      42.179  12.246  51.707  1.00  0.00    +0.000 C 
ATOM     98  C73 UNL A   1      41.147  13.142  51.435  1.00  0.00    +0.000 C 
ATOM     36  C30 UNL A   1      41.030  14.357  52.137  1.00  0.00    +0.000 C 
ATOM     37  C31 UNL A   1      41.919  14.601  53.181  1.00  0.00    +0.000 C 
ATOM    132  H34 UNL A   1      41.792  15.434  53.778  1.00  0.00    +0.000 H 
ATOM     38  C32 UNL A   1      42.977  13.735  53.427  1.00  0.00    +0.000 C 
ATOM    133  H35 UNL A   1      43.653  13.950  54.176  1.00  0.00    +0.000 H 
ATOM     39  C33 UNL A   1      43.130  12.574  52.667  1.00  0.00    +0.000 C 
ATOM    144  H46 UNL A   1      42.235  11.347  51.203  1.00  0.00    +0.000 H 
ATOM    145  H47 UNL A   1      40.456  12.912  50.704  1.00  0.00    +0.000 H 
BRANCH   36   34
ATOM     34  C29 UNL A   1      39.993  15.310  51.650  1.00  0.00    +0.000 C 
ATOM     35  O2  UNL A   1      38.871  15.271  52.162  1.00  0.00    +0.000 O 
BRANCH   34   33
ATOM     33  N4  UNL A   1      40.164  16.199  50.623  1.00  0.00    +0.000 N 
ATOM    131  H33 UNL A   1      39.377  16.775  50.485  1.00  0.00    +0.000 H 
BRANCH   33   32
ATOM    129  H31 UNL A   1      41.112  17.480  49.327  1.00  0.00    +0.000 H 
ATOM    130  H32 UNL A   1      42.157  16.359  50.233  1.00  0.00    +0.000 H 
ATOM     32  C28 UNL A   1      41.240  16.484  49.695  1.00  0.00    +0.000 C 
BRANCH   32   31
ATOM    127  H29 UNL A   1      40.378  14.979  48.468  1.00  0.00    +0.000 H 
ATOM     31  C27 UNL A   1      41.294  15.531  48.498  1.00  0.00    +0.000 C 
ATOM    128  H30 UNL A   1      41.444  16.139  47.630  1.00  0.00    +0.000 H 
BRANCH   31   30
ATOM    126  H28 UNL A   1      42.307  13.872  47.707  1.00  0.00    +0.000 H 
ATOM    125  H27 UNL A   1      42.430  14.032  49.484  1.00  0.00    +0.000 H 
ATOM     30  C26 UNL A   1      42.453  14.531  48.536  1.00  0.00    +0.000 C 
BRANCH   30   29
ATOM    123  H25 UNL A   1      44.101  15.658  49.259  1.00  0.00    +0.000 H 
ATOM    124  H26 UNL A   1      44.505  14.335  48.129  1.00  0.00    +0.000 H 
ATOM     29  C25 UNL A   1      43.843  15.145  48.356  1.00  0.00    +0.000 C 
BRANCH   29   28
ATOM    121  H23 UNL A   1      44.713  15.784  46.521  1.00  0.00    +0.000 H 
ATOM    122  H24 UNL A   1      42.993  16.193  46.737  1.00  0.00    +0.000 H 
ATOM     28  C24 UNL A   1      43.958  16.138  47.193  1.00  0.00    +0.000 C 
BRANCH   28   27
ATOM     27  C23 UNL A   1      44.326  17.558  47.619  1.00  0.00    +0.000 C 
ATOM    119  H21 UNL A   1      43.874  18.252  46.943  1.00  0.00    +0.000 H 
ATOM    120  H22 UNL A   1      43.970  17.711  48.616  1.00  0.00    +0.000 H 
BRANCH   27   26
ATOM     26  N3  UNL A   1      45.762  17.758  47.612  1.00  0.00    +0.000 N 
ATOM    118  H20 UNL A   1      46.080  18.512  47.064  1.00  0.00    +0.000 H 
BRANCH   26   24
ATOM     25  O1  UNL A   1      46.700  17.021  49.491  1.00  0.00    +0.000 O 
ATOM     24  C22 UNL A   1      46.737  17.052  48.258  1.00  0.00    +0.000 C 
BRANCH   24   23
ATOM    116  H18 UNL A   1      48.549  17.172  47.174  1.00  0.00    +0.000 H 
ATOM    117  H19 UNL A   1      48.331  15.699  48.152  1.00  0.00    +0.000 H 
ATOM     23  C21 UNL A   1      47.874  16.404  47.489  1.00  0.00    +0.000 C 
BRANCH   23   22
ATOM      2  C2  UNL A   1      46.927  16.786  42.341  1.00  0.00    +0.000 C 
ATOM      3  C3  UNL A   1      47.570  17.706  43.169  1.00  0.00    +0.000 C 
ATOM      4  C4  UNL A   1      47.836  17.415  44.510  1.00  0.00    +0.000 C 
ATOM      5  C5  UNL A   1      47.420  16.174  45.023  1.00  0.00    +0.000 C 
ATOM      6  C6  UNL A   1      46.812  15.216  44.209  1.00  0.00    +0.000 C 
ATOM      7  C7  UNL A   1      46.561  15.532  42.854  1.00  0.00    +0.000 C 
ATOM    102  H4  UNL A   1      47.856  18.620  42.783  1.00  0.00    +0.000 H 
ATOM    104  H6  UNL A   1      46.108  14.837  42.239  1.00  0.00    +0.000 H 
ATOM    103  H5  UNL A   1      48.326  18.096  45.110  1.00  0.00    +0.000 H 
ATOM      8  C8  UNL A   1      46.572  14.067  45.017  1.00  0.00    +0.000 C 
ATOM     20  C19 UNL A   1      47.027  14.339  46.300  1.00  0.00    +0.000 C 
ATOM     22  N2  UNL A   1      47.449  15.656  46.310  1.00  0.00    +0.000 N 
BRANCH    2    1
ATOM      1  C1  UNL A   1      46.627  17.153  40.917  1.00  0.00    +0.000 C 
ATOM     99  H1  UNL A   1      46.013  16.396  40.476  1.00  0.00    +0.000 H 
ATOM    100  H2  UNL A   1      47.542  17.236  40.369  1.00  0.00    +0.000 H 
ATOM    101  H3  UNL A   1      46.110  18.090  40.892  1.00  0.00    +0.000 H 
ENDBRANCH    2    1
BRANCH    8    9
ATOM      9  C9  UNL A   1      45.961  12.795  44.648  1.00  0.00    +0.000 C 
ATOM     10  C10 UNL A   1      46.781  11.672  44.583  1.00  0.00    +0.000 C 
ATOM     11  C11 UNL A   1      46.191  10.465  44.285  1.00  0.00    +0.000 C 
ATOM    105  H7  UNL A   1      47.796  11.742  44.753  1.00  0.00    +0.000 H 
ATOM     13  C12 UNL A   1      44.061  11.389  44.106  1.00  0.00    +0.000 C 
ATOM    106  H8  UNL A   1      46.794   9.628  44.234  1.00  0.00    +0.000 H 
ATOM     12  N1  UNL A   1      44.870  10.310  44.057  1.00  0.00    +0.000 N 
ATOM     14  C13 UNL A   1      42.681  11.251  43.882  1.00  0.00    +0.000 C 
ATOM    112  H14 UNL A   1      44.058  14.718  44.603  1.00  0.00    +0.000 H 
ATOM     18  C17 UNL A   1      43.685  13.777  44.404  1.00  0.00    +0.000 C 
ATOM     19  C18 UNL A   1      44.571  12.677  44.389  1.00  0.00    +0.000 C 
ATOM     17  C16 UNL A   1      42.326  13.631  44.160  1.00  0.00    +0.000 C 
ATOM    111  H13 UNL A   1      41.700  14.451  44.170  1.00  0.00    +0.000 H 
ATOM     16  C15 UNL A   1      41.824  12.367  43.904  1.00  0.00    +0.000 C 
ATOM    110  H12 UNL A   1      40.815  12.242  43.726  1.00  0.00    +0.000 H 
BRANCH   14   15
ATOM    107  H9  UNL A   1      41.472   9.956  42.719  1.00  0.00    +0.000 H 
ATOM    108  H10 UNL A   1      41.426   9.637  44.437  1.00  0.00    +0.000 H 
ATOM    109  H11 UNL A   1      42.825   9.173  43.499  1.00  0.00    +0.000 H 
ATOM     15  C14 UNL A   1      42.056   9.907  43.615  1.00  0.00    +0.000 C 
ENDBRANCH   14   15
ENDBRANCH    8    9
BRANCH   20   21
ATOM    113  H15 UNL A   1      47.808  12.720  47.401  1.00  0.00    +0.000 H 
ATOM    114  H16 UNL A   1      46.087  12.961  47.589  1.00  0.00    +0.000 H 
ATOM    115  H17 UNL A   1      47.213  14.040  48.379  1.00  0.00    +0.000 H 
ATOM     21  C20 UNL A   1      47.034  13.452  47.502  1.00  0.00    +0.000 C 
ENDBRANCH   20   21
ENDBRANCH   23   22
ENDBRANCH   24   23
ENDBRANCH   26   24
ENDBRANCH   27   26
ENDBRANCH   28   27
ENDBRANCH   29   28
ENDBRANCH   30   29
ENDBRANCH   31   30
ENDBRANCH   32   31
ENDBRANCH   33   32
ENDBRANCH   34   33
ENDBRANCH   36   34
ENDBRANCH   40   39
BRANCH   44   45
ATOM     45  C38 UNL A   1      49.721  11.711  50.421  1.00  0.00    +0.000 C 
ATOM     46  C39 UNL A   1      50.492  11.972  49.269  1.00  0.00    +0.000 C 
ATOM     47  F1  UNL A   1      49.907  12.093  48.068  1.00  0.00    +0.000 F 
ATOM     48  C40 UNL A   1      51.888  12.023  49.310  1.00  0.00    +0.000 C 
ATOM     49  F2  UNL A   1      52.583  12.152  48.172  1.00  0.00    +0.000 F 
ATOM     50  C41 UNL A   1      52.561  11.874  50.509  1.00  0.00    +0.000 C 
ATOM     51  F3  UNL A   1      53.899  11.864  50.541  1.00  0.00    +0.000 F 
ATOM     52  C42 UNL A   1      51.839  11.682  51.668  1.00  0.00    +0.000 C 
ATOM     53  F4  UNL A   1      52.475  11.516  52.837  1.00  0.00    +0.000 F 
ATOM     54  C43 UNL A   1      50.449  11.577  51.623  1.00  0.00    +0.000 C 
ATOM     55  F5  UNL A   1      49.860  11.234  52.774  1.00  0.00    +0.000 F 
ENDBRANCH   44   45
BRANCH   61   62
ATOM     65  C51 UNL A   1      44.643   4.116  51.309  1.00  0.00    +0.000 C 
ATOM     66  F7  UNL A   1      44.779   2.784  51.230  1.00  0.00    +0.000 F 
ATOM     67  C52 UNL A   1      43.377   4.677  51.374  1.00  0.00    +0.000 C 
ATOM     68  F8  UNL A   1      42.292   3.888  51.370  1.00  0.00    +0.000 F 
ATOM     69  C53 UNL A   1      43.236   6.051  51.481  1.00  0.00    +0.000 C 
ATOM     70  F9  UNL A   1      42.017   6.592  51.599  1.00  0.00    +0.000 F 
ATOM     71  C54 UNL A   1      44.362   6.870  51.498  1.00  0.00    +0.000 C 
ATOM     72  F10 UNL A   1      44.192   8.195  51.631  1.00  0.00    +0.000 F 
ATOM     62  C49 UNL A   1      45.654   6.330  51.438  1.00  0.00    +0.000 C 
ATOM     63  C50 UNL A   1      45.771   4.932  51.365  1.00  0.00    +0.000 C 
ATOM     64  F6  UNL A   1      46.975   4.342  51.410  1.00  0.00    +0.000 F 
ENDBRANCH   61   62
BRANCH   76   77
ATOM     77  C58 UNL A   1      46.294   8.234  57.430  1.00  0.00    +0.000 C 
ATOM     78  C59 UNL A   1      46.861   9.304  58.140  1.00  0.00    +0.000 C 
ATOM     79  F11 UNL A   1      47.340  10.371  57.483  1.00  0.00    +0.000 F 
ATOM     80  C60 UNL A   1      46.875   9.331  59.537  1.00  0.00    +0.000 C 
ATOM     81  F12 UNL A   1      47.359  10.402  60.180  1.00  0.00    +0.000 F 
ATOM     82  C61 UNL A   1      46.332   8.282  60.263  1.00  0.00    +0.000 C 
ATOM     83  F13 UNL A   1      46.284   8.338  61.601  1.00  0.00    +0.000 F 
ATOM     84  C62 UNL A   1      45.800   7.196  59.594  1.00  0.00    +0.000 C 
ATOM     85  F14 UNL A   1      45.243   6.191  60.284  1.00  0.00    +0.000 F 
ATOM     86  C63 UNL A   1      45.778   7.173  58.199  1.00  0.00    +0.000 C 
ATOM     87  F15 UNL A   1      45.154   6.138  57.619  1.00  0.00    +0.000 F 
ENDBRANCH   76   77
TORSDOF 20
ENDMDL
MODEL 6
REMARK VINA RESULT:      -8.9     44.729     51.214
ROOT
ATOM    134  H36 UNL A   1      19.589  37.375  44.025  1.00  0.00    +0.000 H 
ATOM    135  H37 UNL A   1      18.656  38.601  46.199  1.00  0.00    +0.000 H 
ATOM    136  H38 UNL A   1      19.072  34.678  46.964  1.00  0.00    +0.000 H 
ATOM    137  H39 UNL A   1      25.053  37.847  51.798  1.00  0.00    +0.000 H 
ATOM    138  H40 UNL A   1      25.753  38.827  49.553  1.00  0.00    +0.000 H 
ATOM    139  H41 UNL A   1      22.577  36.245  48.839  1.00  0.00    +0.000 H 
ATOM    140  H42 UNL A   1      21.892  33.515  50.333  1.00  0.00    +0.000 H 
ATOM    141  H43 UNL A   1      20.111  34.096  48.564  1.00  0.00    +0.000 H 
ATOM    142  H44 UNL A   1      23.807  34.297  44.147  1.00  0.00    +0.000 H 
ATOM    143  H45 UNL A   1      25.584  35.480  45.581  1.00  0.00    +0.000 H 
ATOM     40  C34 UNL A   1      24.490  37.490  47.296  1.00  0.00    +0.000 C 
ATOM     41  C35 UNL A   1      23.759  36.560  46.387  1.00  0.00    +0.000 C 
ATOM     42  N5  UNL A   1      22.489  36.526  46.127  1.00  0.00    +0.000 N 
ATOM     43  C36 UNL A   1      22.304  35.450  45.260  1.00  0.00    +0.000 C 
ATOM     44  C37 UNL A   1      21.081  34.889  45.049  1.00  0.00    +0.000 C 
ATOM     56  C44 UNL A   1      20.013  35.773  45.423  1.00  0.00    +0.000 C 
ATOM     57  C45 UNL A   1      19.565  37.003  44.988  1.00  0.00    +0.000 C 
ATOM     58  C46 UNL A   1      19.060  37.652  46.153  1.00  0.00    +0.000 C 
ATOM     59  C47 UNL A   1      19.216  36.767  47.220  1.00  0.00    +0.000 C 
ATOM     60  N6  UNL A   1      19.368  35.548  46.613  1.00  0.00    +0.000 N 
ATOM     61  C48 UNL A   1      19.358  36.974  48.640  1.00  0.00    +0.000 C 
ATOM     73  C55 UNL A   1      19.961  36.093  49.489  1.00  0.00    +0.000 C 
ATOM     74  N7  UNL A   1      20.545  36.528  50.668  1.00  0.00    +0.000 N 
ATOM     75  C56 UNL A   1      21.488  35.663  50.914  1.00  0.00    +0.000 C 
ATOM     76  C57 UNL A   1      22.779  36.008  51.558  1.00  0.00    +0.000 C 
ATOM     88  C64 UNL A   1      23.486  36.755  50.677  1.00  0.00    +0.000 C 
ATOM     89  C65 UNL A   1      24.622  37.628  50.887  1.00  0.00    +0.000 C 
ATOM     90  C66 UNL A   1      25.025  38.110  49.691  1.00  0.00    +0.000 C 
ATOM     91  C67 UNL A   1      24.267  37.457  48.625  1.00  0.00    +0.000 C 
ATOM     92  N8  UNL A   1      23.307  36.730  49.289  1.00  0.00    +0.000 N 
ATOM     93  C68 UNL A   1      21.387  34.405  50.194  1.00  0.00    +0.000 C 
ATOM     94  C69 UNL A   1      20.450  34.732  49.302  1.00  0.00    +0.000 C 
ATOM     95  C70 UNL A   1      23.620  35.003  44.877  1.00  0.00    +0.000 C 
ATOM     96  C71 UNL A   1      24.561  35.622  45.589  1.00  0.00    +0.000 C 
ENDROOT
BRANCH   40   39
ATOM     97  C72 UNL A   1      26.722  37.964  46.246  1.00  0.00    +0.000 C 
ATOM     98  C73 UNL A   1      27.599  38.896  45.695  1.00  0.00    +0.000 C 
ATOM     36  C30 UNL A   1      27.216  40.238  45.506  1.00  0.00    +0.000 C 
ATOM     37  C31 UNL A   1      25.901  40.593  45.797  1.00  0.00    +0.000 C 
ATOM    132  H34 UNL A   1      25.566  41.544  45.572  1.00  0.00    +0.000 H 
ATOM     38  C32 UNL A   1      25.037  39.683  46.390  1.00  0.00    +0.000 C 
ATOM    133  H35 UNL A   1      24.078  39.972  46.639  1.00  0.00    +0.000 H 
ATOM     39  C33 UNL A   1      25.456  38.376  46.649  1.00  0.00    +0.000 C 
ATOM    144  H46 UNL A   1      27.008  36.978  46.353  1.00  0.00    +0.000 H 
ATOM    145  H47 UNL A   1      28.548  38.598  45.421  1.00  0.00    +0.000 H 
BRANCH   36   34
ATOM     34  C29 UNL A   1      28.285  41.179  45.068  1.00  0.00    +0.000 C 
ATOM     35  O2  UNL A   1      28.916  40.917  44.040  1.00  0.00    +0.000 O 
BRANCH   34   33
ATOM     33  N4  UNL A   1      28.676  42.298  45.752  1.00  0.00    +0.000 N 
ATOM    131  H33 UNL A   1      29.607  42.556  45.560  1.00  0.00    +0.000 H 
BRANCH   33   32
ATOM    129  H31 UNL A   1      28.304  44.194  46.452  1.00  0.00    +0.000 H 
ATOM    130  H32 UNL A   1      26.976  43.020  46.611  1.00  0.00    +0.000 H 
ATOM     32  C28 UNL A   1      28.029  43.190  46.695  1.00  0.00    +0.000 C 
BRANCH   32   31
ATOM    127  H29 UNL A   1      29.397  42.522  48.177  1.00  0.00    +0.000 H 
ATOM     31  C27 UNL A   1      28.407  42.926  48.155  1.00  0.00    +0.000 C 
ATOM    128  H30 UNL A   1      28.327  43.863  48.666  1.00  0.00    +0.000 H 
BRANCH   31   30
ATOM    126  H28 UNL A   1      26.572  41.919  48.314  1.00  0.00    +0.000 H 
ATOM    125  H27 UNL A   1      27.337  42.311  49.883  1.00  0.00    +0.000 H 
ATOM     30  C26 UNL A   1      27.477  41.951  48.884  1.00  0.00    +0.000 C 
BRANCH   30   29
ATOM    123  H25 UNL A   1      27.261  39.930  49.497  1.00  0.00    +0.000 H 
ATOM    124  H26 UNL A   1      28.125  40.182  47.955  1.00  0.00    +0.000 H 
ATOM     29  C25 UNL A   1      27.985  40.510  48.964  1.00  0.00    +0.000 C 
BRANCH   29   28
ATOM    121  H23 UNL A   1      30.112  40.596  48.967  1.00  0.00    +0.000 H 
ATOM    122  H24 UNL A   1      29.327  40.994  50.516  1.00  0.00    +0.000 H 
ATOM     28  C24 UNL A   1      29.339  40.346  49.665  1.00  0.00    +0.000 C 
BRANCH   28   27
ATOM     27  C23 UNL A   1      29.605  38.936  50.187  1.00  0.00    +0.000 C 
ATOM    119  H21 UNL A   1      29.820  38.988  51.234  1.00  0.00    +0.000 H 
ATOM    120  H22 UNL A   1      28.733  38.343  50.008  1.00  0.00    +0.000 H 
BRANCH   27   26
ATOM     26  N3  UNL A   1      30.725  38.319  49.504  1.00  0.00    +0.000 N 
ATOM    118  H20 UNL A   1      31.596  38.411  49.955  1.00  0.00    +0.000 H 
BRANCH   26   24
ATOM     25  O1  UNL A   1      29.688  37.127  47.938  1.00  0.00    +0.000 O 
ATOM     24  C22 UNL A   1      30.746  37.629  48.326  1.00  0.00    +0.000 C 
BRANCH   24   23
ATOM    116  H18 UNL A   1      32.851  37.442  48.267  1.00  0.00    +0.000 H 
ATOM    117  H19 UNL A   1      31.956  36.468  47.074  1.00  0.00    +0.000 H 
ATOM     23  C21 UNL A   1      32.042  37.414  47.567  1.00  0.00    +0.000 C 
BRANCH   23   22
ATOM      2  C2  UNL A   1      31.538  38.413  42.439  1.00  0.00    +0.000 C 
ATOM      3  C3  UNL A   1      30.948  37.388  43.179  1.00  0.00    +0.000 C 
ATOM      4  C4  UNL A   1      31.102  37.312  44.566  1.00  0.00    +0.000 C 
ATOM      5  C5  UNL A   1      31.889  38.284  45.209  1.00  0.00    +0.000 C 
ATOM      6  C6  UNL A   1      32.456  39.346  44.502  1.00  0.00    +0.000 C 
ATOM      7  C7  UNL A   1      32.280  39.405  43.100  1.00  0.00    +0.000 C 
ATOM    102  H4  UNL A   1      30.386  36.672  42.692  1.00  0.00    +0.000 H 
ATOM    104  H6  UNL A   1      32.697  40.180  42.562  1.00  0.00    +0.000 H 
ATOM    103  H5  UNL A   1      30.648  36.559  45.106  1.00  0.00    +0.000 H 
ATOM      8  C8  UNL A   1      33.134  40.169  45.448  1.00  0.00    +0.000 C 
ATOM     20  C19 UNL A   1      32.975  39.600  46.705  1.00  0.00    +0.000 C 
ATOM     22  N2  UNL A   1      32.300  38.406  46.529  1.00  0.00    +0.000 N 
BRANCH    2    1
ATOM      1  C1  UNL A   1      31.379  38.437  40.947  1.00  0.00    +0.000 C 
ATOM     99  H1  UNL A   1      31.500  37.447  40.560  1.00  0.00    +0.000 H 
ATOM    100  H2  UNL A   1      32.119  39.081  40.520  1.00  0.00    +0.000 H 
ATOM    101  H3  UNL A   1      30.403  38.800  40.698  1.00  0.00    +0.000 H 
ENDBRANCH    2    1
BRANCH    8    9
ATOM      9  C9  UNL A   1      33.884  41.398  45.226  1.00  0.00    +0.000 C 
ATOM     10  C10 UNL A   1      35.088  41.313  44.531  1.00  0.00    +0.000 C 
ATOM     11  C11 UNL A   1      35.766  42.483  44.278  1.00  0.00    +0.000 C 
ATOM    105  H7  UNL A   1      35.457  40.402  44.215  1.00  0.00    +0.000 H 
ATOM     13  C12 UNL A   1      34.173  43.804  45.345  1.00  0.00    +0.000 C 
ATOM    106  H8  UNL A   1      36.660  42.425  43.765  1.00  0.00    +0.000 H 
ATOM     12  N1  UNL A   1      35.332  43.702  44.663  1.00  0.00    +0.000 N 
ATOM     14  C13 UNL A   1      33.695  45.062  45.747  1.00  0.00    +0.000 C 
ATOM    112  H14 UNL A   1      31.659  41.984  46.650  1.00  0.00    +0.000 H 
ATOM     18  C17 UNL A   1      32.214  42.820  46.407  1.00  0.00    +0.000 C 
ATOM     19  C18 UNL A   1      33.408  42.660  45.668  1.00  0.00    +0.000 C 
ATOM     17  C16 UNL A   1      31.763  44.068  46.816  1.00  0.00    +0.000 C 
ATOM    111  H13 UNL A   1      30.891  44.158  47.360  1.00  0.00    +0.000 H 
ATOM     16  C15 UNL A   1      32.503  45.189  46.481  1.00  0.00    +0.000 C 
ATOM    110  H12 UNL A   1      32.177  46.124  46.774  1.00  0.00    +0.000 H 
BRANCH   14   15
ATOM    107  H9  UNL A   1      35.442  46.262  45.756  1.00  0.00    +0.000 H 
ATOM    108  H10 UNL A   1      33.948  47.162  45.875  1.00  0.00    +0.000 H 
ATOM    109  H11 UNL A   1      34.432  46.469  44.345  1.00  0.00    +0.000 H 
ATOM     15  C14 UNL A   1      34.433  46.330  45.405  1.00  0.00    +0.000 C 
ENDBRANCH   14   15
ENDBRANCH    8    9
BRANCH   20   21
ATOM    113  H15 UNL A   1      33.640  41.148  47.973  1.00  0.00    +0.000 H 
ATOM    114  H16 UNL A   1      34.374  39.592  48.282  1.00  0.00    +0.000 H 
ATOM    115  H17 UNL A   1      32.725  39.896  48.778  1.00  0.00    +0.000 H 
ATOM     21  C20 UNL A   1      33.463  40.094  48.028  1.00  0.00    +0.000 C 
ENDBRANCH   20   21
ENDBRANCH   23   22
ENDBRANCH   24   23
ENDBRANCH   26   24
ENDBRANCH   27   26
ENDBRANCH   28   27
ENDBRANCH   29   28
ENDBRANCH   30   29
ENDBRANCH   31   30
ENDBRANCH   32   31
ENDBRANCH   33   32
ENDBRANCH   34   33
ENDBRANCH   36   34
ENDBRANCH   40   39
BRANCH   44   45
ATOM     45  C38 UNL A   1      20.852  33.419  44.791  1.00  0.00    +0.000 C 
ATOM     46  C39 UNL A   1      19.804  33.016  43.938  1.00  0.00    +0.000 C 
ATOM     47  F1  UNL A   1      19.169  33.910  43.165  1.00  0.00    +0.000 F 
ATOM     48  C40 UNL A   1      19.323  31.704  43.927  1.00  0.00    +0.000 C 
ATOM     49  F2  UNL A   1      18.247  31.395  43.190  1.00  0.00    +0.000 F 
ATOM     50  C41 UNL A   1      19.907  30.736  44.723  1.00  0.00    +0.000 C 
ATOM     51  F3  UNL A   1      19.411  29.493  44.758  1.00  0.00    +0.000 F 
ATOM     52  C42 UNL A   1      20.977  31.076  45.523  1.00  0.00    +0.000 C 
ATOM     53  F4  UNL A   1      21.544  30.156  46.316  1.00  0.00    +0.000 F 
ATOM     54  C43 UNL A   1      21.425  32.397  45.576  1.00  0.00    +0.000 C 
ATOM     55  F5  UNL A   1      22.360  32.651  46.499  1.00  0.00    +0.000 F 
ENDBRANCH   44   45
BRANCH   61   62
ATOM     65  C51 UNL A   1      17.783  39.973  50.432  1.00  0.00    +0.000 C 
ATOM     66  F7  UNL A   1      16.676  40.278  51.127  1.00  0.00    +0.000 F 
ATOM     67  C52 UNL A   1      18.787  40.917  50.286  1.00  0.00    +0.000 C 
ATOM     68  F8  UNL A   1      18.657  42.129  50.846  1.00  0.00    +0.000 F 
ATOM     69  C53 UNL A   1      19.940  40.595  49.589  1.00  0.00    +0.000 C 
ATOM     70  F9  UNL A   1      20.935  41.486  49.492  1.00  0.00    +0.000 F 
ATOM     71  C54 UNL A   1      20.082  39.333  49.017  1.00  0.00    +0.000 C 
ATOM     72  F10 UNL A   1      21.223  39.043  48.373  1.00  0.00    +0.000 F 
ATOM     62  C49 UNL A   1      19.085  38.358  49.153  1.00  0.00    +0.000 C 
ATOM     63  C50 UNL A   1      17.940  38.698  49.893  1.00  0.00    +0.000 C 
ATOM     64  F6  UNL A   1      16.994  37.783  50.151  1.00  0.00    +0.000 F 
ENDBRANCH   61   62
BRANCH   76   77
ATOM     77  C58 UNL A   1      23.279  35.304  52.761  1.00  0.00    +0.000 C 
ATOM     78  C59 UNL A   1      22.460  35.144  53.890  1.00  0.00    +0.000 C 
ATOM     79  F11 UNL A   1      21.306  35.822  53.989  1.00  0.00    +0.000 F 
ATOM     80  C60 UNL A   1      22.773  34.227  54.898  1.00  0.00    +0.000 C 
ATOM     81  F12 UNL A   1      21.930  34.049  55.924  1.00  0.00    +0.000 F 
ATOM     82  C61 UNL A   1      23.920  33.454  54.810  1.00  0.00    +0.000 C 
ATOM     83  F13 UNL A   1      24.186  32.527  55.741  1.00  0.00    +0.000 F 
ATOM     84  C62 UNL A   1      24.766  33.615  53.730  1.00  0.00    +0.000 C 
ATOM     85  F14 UNL A   1      25.861  32.851  53.616  1.00  0.00    +0.000 F 
ATOM     86  C63 UNL A   1      24.450  34.523  52.719  1.00  0.00    +0.000 C 
ATOM     87  F15 UNL A   1      25.262  34.552  51.653  1.00  0.00    +0.000 F 
ENDBRANCH   76   77
TORSDOF 20
ENDMDL
MODEL 7
REMARK VINA RESULT:      -8.9     19.564     26.755
ROOT
ATOM    134  H36 UNL A   1       6.956  33.829  -1.103  1.00  0.00    +0.000 H 
ATOM    135  H37 UNL A   1       9.423  33.540  -0.141  1.00  0.00    +0.000 H 
ATOM    136  H38 UNL A   1       7.632  29.946  -0.304  1.00  0.00    +0.000 H 
ATOM    137  H39 UNL A   1      13.410  29.074  -6.224  1.00  0.00    +0.000 H 
ATOM    138  H40 UNL A   1      12.233  31.166  -7.080  1.00  0.00    +0.000 H 
ATOM    139  H41 UNL A   1      10.083  29.789  -3.802  1.00  0.00    +0.000 H 
ATOM    140  H42 UNL A   1       9.595  26.772  -2.900  1.00  0.00    +0.000 H 
ATOM    141  H43 UNL A   1       8.545  28.437  -1.236  1.00  0.00    +0.000 H 
ATOM    142  H44 UNL A   1       5.181  31.022  -5.135  1.00  0.00    +0.000 H 
ATOM    143  H45 UNL A   1       7.043  30.956  -6.907  1.00  0.00    +0.000 H 
ATOM     40  C34 UNL A   1       9.627  31.576  -5.849  1.00  0.00    +0.000 C 
ATOM     41  C35 UNL A   1       8.337  31.448  -5.110  1.00  0.00    +0.000 C 
ATOM     42  N5  UNL A   1       8.108  31.670  -3.853  1.00  0.00    +0.000 N 
ATOM     43  C36 UNL A   1       6.763  31.362  -3.649  1.00  0.00    +0.000 C 
ATOM     44  C37 UNL A   1       6.250  31.135  -2.407  1.00  0.00    +0.000 C 
ATOM     56  C44 UNL A   1       7.084  31.681  -1.373  1.00  0.00    +0.000 C 
ATOM     57  C45 UNL A   1       7.491  32.951  -1.015  1.00  0.00    +0.000 C 
ATOM     58  C46 UNL A   1       8.808  32.789  -0.494  1.00  0.00    +0.000 C 
ATOM     59  C47 UNL A   1       9.112  31.429  -0.551  1.00  0.00    +0.000 C 
ATOM     60  N6  UNL A   1       7.887  30.826  -0.664  1.00  0.00    +0.000 N 
ATOM     61  C48 UNL A   1      10.363  30.717  -0.640  1.00  0.00    +0.000 C 
ATOM     73  C55 UNL A   1      10.498  29.461  -1.154  1.00  0.00    +0.000 C 
ATOM     74  N7  UNL A   1      11.699  29.044  -1.707  1.00  0.00    +0.000 N 
ATOM     75  C56 UNL A   1      11.367  28.143  -2.588  1.00  0.00    +0.000 C 
ATOM     76  C57 UNL A   1      12.091  27.931  -3.866  1.00  0.00    +0.000 C 
ATOM     88  C64 UNL A   1      11.851  29.007  -4.652  1.00  0.00    +0.000 C 
ATOM     89  C65 UNL A   1      12.554  29.487  -5.824  1.00  0.00    +0.000 C 
ATOM     90  C66 UNL A   1      11.902  30.567  -6.307  1.00  0.00    +0.000 C 
ATOM     91  C67 UNL A   1      10.658  30.756  -5.564  1.00  0.00    +0.000 C 
ATOM     92  N8  UNL A   1      10.737  29.845  -4.536  1.00  0.00    +0.000 N 
ATOM     93  C68 UNL A   1      10.028  27.596  -2.451  1.00  0.00    +0.000 C 
ATOM     94  C69 UNL A   1       9.519  28.465  -1.576  1.00  0.00    +0.000 C 
ATOM     95  C70 UNL A   1       6.189  31.148  -4.953  1.00  0.00    +0.000 C 
ATOM     96  C71 UNL A   1       7.134  31.136  -5.894  1.00  0.00    +0.000 C 
ENDROOT
BRANCH   40   39
ATOM     97  C72 UNL A   1       9.878  32.319  -8.235  1.00  0.00    +0.000 C 
ATOM     98  C73 UNL A   1       9.955  33.369  -9.148  1.00  0.00    +0.000 C 
ATOM     36  C30 UNL A   1       9.779  34.706  -8.741  1.00  0.00    +0.000 C 
ATOM     37  C31 UNL A   1       9.430  34.949  -7.415  1.00  0.00    +0.000 C 
ATOM    132  H34 UNL A   1       9.195  35.908  -7.115  1.00  0.00    +0.000 H 
ATOM     38  C32 UNL A   1       9.398  33.913  -6.490  1.00  0.00    +0.000 C 
ATOM    133  H35 UNL A   1       9.181  34.114  -5.502  1.00  0.00    +0.000 H 
ATOM     39  C33 UNL A   1       9.658  32.601  -6.891  1.00  0.00    +0.000 C 
ATOM    144  H46 UNL A   1       9.983  31.343  -8.553  1.00  0.00    +0.000 H 
ATOM    145  H47 UNL A   1      10.145  33.163 -10.141  1.00  0.00    +0.000 H 
BRANCH   36   34
ATOM     34  C29 UNL A   1      10.048  35.753  -9.767  1.00  0.00    +0.000 C 
ATOM     35  O2  UNL A   1      11.073  36.433  -9.660  1.00  0.00    +0.000 O 
BRANCH   34   33
ATOM     33  N4  UNL A   1       9.211  36.074 -10.801  1.00  0.00    +0.000 N 
ATOM    131  H33 UNL A   1       9.505  35.691 -11.660  1.00  0.00    +0.000 H 
BRANCH   33   32
ATOM    129  H31 UNL A   1       8.042  37.664 -10.231  1.00  0.00    +0.000 H 
ATOM    130  H32 UNL A   1       7.921  37.168 -11.936  1.00  0.00    +0.000 H 
ATOM     32  C28 UNL A   1       7.990  36.846 -10.917  1.00  0.00    +0.000 C 
BRANCH   32   31
ATOM    127  H29 UNL A   1       5.887  36.567 -11.039  1.00  0.00    +0.000 H 
ATOM     31  C27 UNL A   1       6.720  36.045 -10.617  1.00  0.00    +0.000 C 
ATOM    128  H30 UNL A   1       6.864  35.073 -11.044  1.00  0.00    +0.000 H 
BRANCH   31   30
ATOM    126  H28 UNL A   1       6.233  36.796  -8.719  1.00  0.00    +0.000 H 
ATOM    125  H27 UNL A   1       7.306  35.365  -8.693  1.00  0.00    +0.000 H 
ATOM     30  C26 UNL A   1       6.444  35.830  -9.126  1.00  0.00    +0.000 C 
BRANCH   30   29
ATOM    123  H25 UNL A   1       4.661  35.436  -8.042  1.00  0.00    +0.000 H 
ATOM    124  H26 UNL A   1       4.684  34.854  -9.730  1.00  0.00    +0.000 H 
ATOM     29  C25 UNL A   1       5.227  34.957  -8.813  1.00  0.00    +0.000 C 
BRANCH   29   28
ATOM    121  H23 UNL A   1       6.321  33.139  -8.989  1.00  0.00    +0.000 H 
ATOM    122  H24 UNL A   1       5.880  33.610  -7.329  1.00  0.00    +0.000 H 
ATOM     28  C24 UNL A   1       5.561  33.534  -8.347  1.00  0.00    +0.000 C 
BRANCH   28   27
ATOM     27  C23 UNL A   1       4.373  32.576  -8.367  1.00  0.00    +0.000 C 
ATOM    119  H21 UNL A   1       3.719  32.849  -9.168  1.00  0.00    +0.000 H 
ATOM    120  H22 UNL A   1       4.746  31.583  -8.503  1.00  0.00    +0.000 H 
BRANCH   27   26
ATOM     26  N3  UNL A   1       3.635  32.619  -7.119  1.00  0.00    +0.000 N 
ATOM    118  H20 UNL A   1       4.038  32.118  -6.374  1.00  0.00    +0.000 H 
BRANCH   26   24
ATOM     25  O1  UNL A   1       1.508  33.074  -7.592  1.00  0.00    +0.000 O 
ATOM     24  C22 UNL A   1       2.462  33.257  -6.830  1.00  0.00    +0.000 C 
BRANCH   24   23
ATOM    116  H18 UNL A   1       1.337  34.509  -5.551  1.00  0.00    +0.000 H 
ATOM    117  H19 UNL A   1       2.742  33.707  -4.805  1.00  0.00    +0.000 H 
ATOM     23  C21 UNL A   1       2.361  34.221  -5.663  1.00  0.00    +0.000 C 
BRANCH   23   22
ATOM      2  C2  UNL A   1       7.021  36.385  -4.589  1.00  0.00    +0.000 C 
ATOM      3  C3  UNL A   1       6.647  35.046  -4.477  1.00  0.00    +0.000 C 
ATOM      4  C4  UNL A   1       5.389  34.605  -4.898  1.00  0.00    +0.000 C 
ATOM      5  C5  UNL A   1       4.488  35.549  -5.422  1.00  0.00    +0.000 C 
ATOM      6  C6  UNL A   1       4.848  36.887  -5.586  1.00  0.00    +0.000 C 
ATOM      7  C7  UNL A   1       6.129  37.307  -5.160  1.00  0.00    +0.000 C 
ATOM    102  H4  UNL A   1       7.312  34.367  -4.075  1.00  0.00    +0.000 H 
ATOM    104  H6  UNL A   1       6.410  38.294  -5.269  1.00  0.00    +0.000 H 
ATOM    103  H5  UNL A   1       5.128  33.610  -4.826  1.00  0.00    +0.000 H 
ATOM      8  C8  UNL A   1       3.740  37.552  -6.187  1.00  0.00    +0.000 C 
ATOM     20  C19 UNL A   1       2.728  36.620  -6.375  1.00  0.00    +0.000 C 
ATOM     22  N2  UNL A   1       3.162  35.431  -5.816  1.00  0.00    +0.000 N 
BRANCH    2    1
ATOM      1  C1  UNL A   1       8.366  36.823  -4.090  1.00  0.00    +0.000 C 
ATOM     99  H1  UNL A   1       9.132  36.296  -4.620  1.00  0.00    +0.000 H 
ATOM    100  H2  UNL A   1       8.446  36.612  -3.045  1.00  0.00    +0.000 H 
ATOM    101  H3  UNL A   1       8.481  37.876  -4.251  1.00  0.00    +0.000 H 
ENDBRANCH    2    1
BRANCH    8    9
ATOM      9  C9  UNL A   1       3.604  38.953  -6.567  1.00  0.00    +0.000 C 
ATOM     10  C10 UNL A   1       3.206  39.860  -5.589  1.00  0.00    +0.000 C 
ATOM     11  C11 UNL A   1       3.130  41.188  -5.939  1.00  0.00    +0.000 C 
ATOM    105  H7  UNL A   1       2.977  39.546  -4.633  1.00  0.00    +0.000 H 
ATOM     13  C12 UNL A   1       3.800  40.794  -8.134  1.00  0.00    +0.000 C 
ATOM    106  H8  UNL A   1       2.833  41.865  -5.219  1.00  0.00    +0.000 H 
ATOM     12  N1  UNL A   1       3.420  41.659  -7.171  1.00  0.00    +0.000 N 
ATOM     14  C13 UNL A   1       4.117  41.261  -9.421  1.00  0.00    +0.000 C 
ATOM    112  H14 UNL A   1       4.333  37.528  -8.749  1.00  0.00    +0.000 H 
ATOM     18  C17 UNL A   1       4.272  38.541  -8.932  1.00  0.00    +0.000 C 
ATOM     19  C18 UNL A   1       3.894  39.407  -7.881  1.00  0.00    +0.000 C 
ATOM     17  C16 UNL A   1       4.563  39.013 -10.204  1.00  0.00    +0.000 C 
ATOM    111  H13 UNL A   1       4.830  38.360 -10.958  1.00  0.00    +0.000 H 
ATOM     16  C15 UNL A   1       4.490  40.374 -10.447  1.00  0.00    +0.000 C 
ATOM    110  H12 UNL A   1       4.709  40.740 -11.387  1.00  0.00    +0.000 H 
BRANCH   14   15
ATOM    107  H9  UNL A   1       3.745  42.854 -10.767  1.00  0.00    +0.000 H 
ATOM    108  H10 UNL A   1       5.061  43.144  -9.653  1.00  0.00    +0.000 H 
ATOM    109  H11 UNL A   1       3.407  43.230  -9.094  1.00  0.00    +0.000 H 
ATOM     15  C14 UNL A   1       4.079  42.728  -9.758  1.00  0.00    +0.000 C 
ENDBRANCH   14   15
ENDBRANCH    8    9
BRANCH   20   21
ATOM    113  H15 UNL A   1       0.634  36.814  -6.230  1.00  0.00    +0.000 H 
ATOM    114  H16 UNL A   1       1.188  36.004  -7.676  1.00  0.00    +0.000 H 
ATOM    115  H17 UNL A   1       1.359  37.737  -7.525  1.00  0.00    +0.000 H 
ATOM     21  C20 UNL A   1       1.382  36.807  -6.995  1.00  0.00    +0.000 C 
ENDBRANCH   20   21
ENDBRANCH   23   22
ENDBRANCH   24   23
ENDBRANCH   26   24
ENDBRANCH   27   26
ENDBRANCH   28   27
ENDBRANCH   29   28
ENDBRANCH   30   29
ENDBRANCH   31   30
ENDBRANCH   32   31
ENDBRANCH   33   32
ENDBRANCH   34   33
ENDBRANCH   36   34
ENDBRANCH   40   39
BRANCH   44   45
ATOM     45  C38 UNL A   1       5.148  30.148  -2.109  1.00  0.00    +0.000 C 
ATOM     46  C39 UNL A   1       5.326  28.786  -2.425  1.00  0.00    +0.000 C 
ATOM     47  F1  UNL A   1       6.537  28.313  -2.756  1.00  0.00    +0.000 F 
ATOM     48  C40 UNL A   1       4.250  27.897  -2.499  1.00  0.00    +0.000 C 
ATOM     49  F2  UNL A   1       4.451  26.641  -2.921  1.00  0.00    +0.000 F 
ATOM     50  C41 UNL A   1       2.968  28.322  -2.203  1.00  0.00    +0.000 C 
ATOM     51  F3  UNL A   1       1.928  27.487  -2.329  1.00  0.00    +0.000 F 
ATOM     52  C42 UNL A   1       2.762  29.631  -1.826  1.00  0.00    +0.000 C 
ATOM     53  F4  UNL A   1       1.523  30.067  -1.555  1.00  0.00    +0.000 F 
ATOM     54  C43 UNL A   1       3.825  30.534  -1.804  1.00  0.00    +0.000 C 
ATOM     55  F5  UNL A   1       3.493  31.811  -1.580  1.00  0.00    +0.000 F 
ENDBRANCH   44   45
BRANCH   61   62
ATOM     65  C51 UNL A   1      13.196  33.267  -1.030  1.00  0.00    +0.000 C 
ATOM     66  F7  UNL A   1      13.634  34.175  -1.916  1.00  0.00    +0.000 F 
ATOM     67  C52 UNL A   1      13.827  33.143   0.198  1.00  0.00    +0.000 C 
ATOM     68  F8  UNL A   1      14.865  33.934   0.504  1.00  0.00    +0.000 F 
ATOM     69  C53 UNL A   1      13.359  32.223   1.122  1.00  0.00    +0.000 C 
ATOM     70  F9  UNL A   1      13.932  32.137   2.330  1.00  0.00    +0.000 F 
ATOM     71  C54 UNL A   1      12.273  31.409   0.812  1.00  0.00    +0.000 C 
ATOM     72  F10 UNL A   1      11.827  30.548   1.740  1.00  0.00    +0.000 F 
ATOM     62  C49 UNL A   1      11.614  31.517  -0.420  1.00  0.00    +0.000 C 
ATOM     63  C50 UNL A   1      12.085  32.481  -1.328  1.00  0.00    +0.000 C 
ATOM     64  F6  UNL A   1      11.440  32.710  -2.480  1.00  0.00    +0.000 F 
ENDBRANCH   61   62
BRANCH   76   77
ATOM     77  C58 UNL A   1      12.613  26.606  -4.271  1.00  0.00    +0.000 C 
ATOM     78  C59 UNL A   1      13.799  26.101  -3.711  1.00  0.00    +0.000 C 
ATOM     79  F11 UNL A   1      14.595  26.900  -2.985  1.00  0.00    +0.000 F 
ATOM     80  C60 UNL A   1      14.144  24.752  -3.823  1.00  0.00    +0.000 C 
ATOM     81  F12 UNL A   1      15.245  24.291  -3.214  1.00  0.00    +0.000 F 
ATOM     82  C61 UNL A   1      13.320  23.872  -4.507  1.00  0.00    +0.000 C 
ATOM     83  F13 UNL A   1      13.616  22.566  -4.557  1.00  0.00    +0.000 F 
ATOM     84  C62 UNL A   1      12.165  24.345  -5.101  1.00  0.00    +0.000 C 
ATOM     85  F14 UNL A   1      11.344  23.498  -5.737  1.00  0.00    +0.000 F 
ATOM     86  C63 UNL A   1      11.815  25.690  -4.982  1.00  0.00    +0.000 C 
ATOM     87  F15 UNL A   1      10.632  26.057  -5.494  1.00  0.00    +0.000 F 
ENDBRANCH   76   77
TORSDOF 20
ENDMDL
MODEL 8
REMARK VINA RESULT:      -8.8     16.269     22.146
ROOT
ATOM    134  H36 UNL A   1       5.515  25.211   3.031  1.00  0.00    +0.000 H 
ATOM    135  H37 UNL A   1       5.016  27.745   2.375  1.00  0.00    +0.000 H 
ATOM    136  H38 UNL A   1       8.289  27.596   4.703  1.00  0.00    +0.000 H 
ATOM    137  H39 UNL A   1      11.651  29.855  -2.562  1.00  0.00    +0.000 H 
ATOM    138  H40 UNL A   1      10.458  27.723  -3.287  1.00  0.00    +0.000 H 
ATOM    139  H41 UNL A   1      10.062  28.021   0.838  1.00  0.00    +0.000 H 
ATOM    140  H42 UNL A   1      12.160  29.189   2.933  1.00  0.00    +0.000 H 
ATOM    141  H43 UNL A   1       9.970  28.476   4.088  1.00  0.00    +0.000 H 
ATOM    142  H44 UNL A   1      10.191  23.004   2.297  1.00  0.00    +0.000 H 
ATOM    143  H45 UNL A   1      11.022  23.713  -0.031  1.00  0.00    +0.000 H 
ATOM     40  C34 UNL A   1       9.697  26.038  -1.039  1.00  0.00    +0.000 C 
ATOM     41  C35 UNL A   1       9.529  25.389   0.294  1.00  0.00    +0.000 C 
ATOM     42  N5  UNL A   1       8.692  25.696   1.236  1.00  0.00    +0.000 N 
ATOM     43  C36 UNL A   1       8.966  24.827   2.291  1.00  0.00    +0.000 C 
ATOM     44  C37 UNL A   1       8.541  25.070   3.562  1.00  0.00    +0.000 C 
ATOM     56  C44 UNL A   1       7.452  26.006   3.594  1.00  0.00    +0.000 C 
ATOM     57  C45 UNL A   1       6.157  26.015   3.119  1.00  0.00    +0.000 C 
ATOM     58  C46 UNL A   1       5.892  27.374   2.777  1.00  0.00    +0.000 C 
ATOM     59  C47 UNL A   1       7.038  28.109   3.083  1.00  0.00    +0.000 C 
ATOM     60  N6  UNL A   1       7.718  27.302   3.957  1.00  0.00    +0.000 N 
ATOM     61  C48 UNL A   1       7.568  29.343   2.560  1.00  0.00    +0.000 C 
ATOM     73  C55 UNL A   1       8.886  29.693   2.602  1.00  0.00    +0.000 C 
ATOM     74  N7  UNL A   1       9.420  30.563   1.664  1.00  0.00    +0.000 N 
ATOM     75  C56 UNL A   1      10.679  30.235   1.582  1.00  0.00    +0.000 C 
ATOM     76  C57 UNL A   1      11.473  30.311   0.330  1.00  0.00    +0.000 C 
ATOM     88  C64 UNL A   1      11.011  29.349  -0.503  1.00  0.00    +0.000 C 
ATOM     89  C65 UNL A   1      11.168  29.194  -1.935  1.00  0.00    +0.000 C 
ATOM     90  C66 UNL A   1      10.579  28.039  -2.313  1.00  0.00    +0.000 C 
ATOM     91  C67 UNL A   1      10.138  27.308  -1.126  1.00  0.00    +0.000 C 
ATOM     92  N8  UNL A   1      10.347  28.189  -0.089  1.00  0.00    +0.000 N 
ATOM     93  C68 UNL A   1      11.189  29.429   2.678  1.00  0.00    +0.000 C 
ATOM     94  C69 UNL A   1      10.038  29.092   3.263  1.00  0.00    +0.000 C 
ATOM     95  C70 UNL A   1       9.895  23.849   1.784  1.00  0.00    +0.000 C 
ATOM     96  C71 UNL A   1      10.321  24.181   0.565  1.00  0.00    +0.000 C 
ENDROOT
BRANCH   40   39
ATOM     97  C72 UNL A   1      10.344  24.439  -2.865  1.00  0.00    +0.000 C 
ATOM     98  C73 UNL A   1       9.970  23.716  -3.996  1.00  0.00    +0.000 C 
ATOM     36  C30 UNL A   1       8.637  23.710  -4.451  1.00  0.00    +0.000 C 
ATOM     37  C31 UNL A   1       7.678  24.370  -3.686  1.00  0.00    +0.000 C 
ATOM    132  H34 UNL A   1       6.680  24.294  -3.941  1.00  0.00    +0.000 H 
ATOM     38  C32 UNL A   1       8.051  25.130  -2.586  1.00  0.00    +0.000 C 
ATOM    133  H35 UNL A   1       7.335  25.648  -2.054  1.00  0.00    +0.000 H 
ATOM     39  C33 UNL A   1       9.390  25.196  -2.194  1.00  0.00    +0.000 C 
ATOM    144  H46 UNL A   1      11.319  24.412  -2.528  1.00  0.00    +0.000 H 
ATOM    145  H47 UNL A   1      10.683  23.176  -4.510  1.00  0.00    +0.000 H 
BRANCH   36   34
ATOM     34  C29 UNL A   1       8.385  23.043  -5.760  1.00  0.00    +0.000 C 
ATOM     35  O2  UNL A   1       7.553  22.132  -5.806  1.00  0.00    +0.000 O 
BRANCH   34   33
ATOM     33  N4  UNL A   1       9.052  23.318  -6.923  1.00  0.00    +0.000 N 
ATOM    131  H33 UNL A   1       9.863  22.771  -7.034  1.00  0.00    +0.000 H 
BRANCH   33   32
ATOM    129  H31 UNL A   1       9.534  23.998  -8.801  1.00  0.00    +0.000 H 
ATOM    130  H32 UNL A   1       7.818  24.104  -8.340  1.00  0.00    +0.000 H 
ATOM     32  C28 UNL A   1       8.834  24.231  -8.028  1.00  0.00    +0.000 C 
BRANCH   32   31
ATOM    127  H29 UNL A   1       8.963  26.286  -8.550  1.00  0.00    +0.000 H 
ATOM     31  C27 UNL A   1       9.002  25.706  -7.653  1.00  0.00    +0.000 C 
ATOM    128  H30 UNL A   1       8.212  25.940  -6.969  1.00  0.00    +0.000 H 
BRANCH   31   30
ATOM    126  H28 UNL A   1      10.922  26.555  -7.637  1.00  0.00    +0.000 H 
ATOM    125  H27 UNL A   1      10.746  25.110  -6.599  1.00  0.00    +0.000 H 
ATOM     30  C26 UNL A   1      10.314  26.031  -6.931  1.00  0.00    +0.000 C 
BRANCH   30   29
ATOM    123  H25 UNL A   1      10.445  26.400  -4.844  1.00  0.00    +0.000 H 
ATOM    124  H26 UNL A   1      10.812  27.793  -5.900  1.00  0.00    +0.000 H 
ATOM     29  C25 UNL A   1      10.173  26.953  -5.718  1.00  0.00    +0.000 C 
BRANCH   29   28
ATOM    121  H23 UNL A   1       8.146  27.204  -6.321  1.00  0.00    +0.000 H 
ATOM    122  H24 UNL A   1       8.421  27.151  -4.562  1.00  0.00    +0.000 H 
ATOM     28  C24 UNL A   1       8.764  27.521  -5.505  1.00  0.00    +0.000 C 
BRANCH   28   27
ATOM     27  C23 UNL A   1       8.710  29.045  -5.428  1.00  0.00    +0.000 C 
ATOM    119  H21 UNL A   1       7.757  29.378  -5.782  1.00  0.00    +0.000 H 
ATOM    120  H22 UNL A   1       8.860  29.334  -4.409  1.00  0.00    +0.000 H 
BRANCH   27   26
ATOM     26  N3  UNL A   1       9.751  29.654  -6.233  1.00  0.00    +0.000 N 
ATOM    118  H20 UNL A   1       9.768  29.378  -7.179  1.00  0.00    +0.000 H 
BRANCH   26   24
ATOM     25  O1  UNL A   1      11.720  30.118  -5.307  1.00  0.00    +0.000 O 
ATOM     24  C22 UNL A   1      10.711  30.554  -5.869  1.00  0.00    +0.000 C 
BRANCH   24   23
ATOM    116  H18 UNL A   1      11.391  32.552  -5.751  1.00  0.00    +0.000 H 
ATOM    117  H19 UNL A   1      10.298  32.188  -7.110  1.00  0.00    +0.000 H 
ATOM     23  C21 UNL A   1      10.505  32.044  -6.070  1.00  0.00    +0.000 C 
BRANCH   23   22
ATOM      2  C2  UNL A   1       8.721  33.203  -1.272  1.00  0.00    +0.000 C 
ATOM      3  C3  UNL A   1      10.020  32.864  -1.649  1.00  0.00    +0.000 C 
ATOM      4  C4  UNL A   1      10.362  32.678  -2.991  1.00  0.00    +0.000 C 
ATOM      5  C5  UNL A   1       9.358  32.817  -3.966  1.00  0.00    +0.000 C 
ATOM      6  C6  UNL A   1       8.059  33.197  -3.624  1.00  0.00    +0.000 C 
ATOM      7  C7  UNL A   1       7.740  33.387  -2.260  1.00  0.00    +0.000 C 
ATOM    102  H4  UNL A   1      10.744  32.748  -0.922  1.00  0.00    +0.000 H 
ATOM    104  H6  UNL A   1       6.783  33.663  -1.989  1.00  0.00    +0.000 H 
ATOM    103  H5  UNL A   1      11.330  32.443  -3.261  1.00  0.00    +0.000 H 
ATOM      8  C8  UNL A   1       7.317  33.301  -4.836  1.00  0.00    +0.000 C 
ATOM     20  C19 UNL A   1       8.164  32.981  -5.889  1.00  0.00    +0.000 C 
ATOM     22  N2  UNL A   1       9.372  32.596  -5.336  1.00  0.00    +0.000 N 
BRANCH    2    1
ATOM      1  C1  UNL A   1       8.387  33.357   0.183  1.00  0.00    +0.000 C 
ATOM     99  H1  UNL A   1       8.119  34.373   0.381  1.00  0.00    +0.000 H 
ATOM    100  H2  UNL A   1       9.236  33.089   0.774  1.00  0.00    +0.000 H 
ATOM    101  H3  UNL A   1       7.564  32.717   0.429  1.00  0.00    +0.000 H 
ENDBRANCH    2    1
BRANCH    8    9
ATOM      9  C9  UNL A   1       5.919  33.666  -5.029  1.00  0.00    +0.000 C 
ATOM     10  C10 UNL A   1       4.968  32.649  -4.998  1.00  0.00    +0.000 C 
ATOM     11  C11 UNL A   1       3.645  33.005  -5.129  1.00  0.00    +0.000 C 
ATOM    105  H7  UNL A   1       5.246  31.663  -4.879  1.00  0.00    +0.000 H 
ATOM     13  C12 UNL A   1       4.128  35.275  -5.325  1.00  0.00    +0.000 C 
ATOM    106  H8  UNL A   1       2.935  32.256  -5.108  1.00  0.00    +0.000 H 
ATOM     12  N1  UNL A   1       3.220  34.277  -5.283  1.00  0.00    +0.000 N 
ATOM     14  C13 UNL A   1       3.710  36.607  -5.474  1.00  0.00    +0.000 C 
ATOM    112  H14 UNL A   1       7.434  35.900  -5.218  1.00  0.00    +0.000 H 
ATOM     18  C17 UNL A   1       6.423  36.092  -5.291  1.00  0.00    +0.000 C 
ATOM     19  C18 UNL A   1       5.513  35.013  -5.215  1.00  0.00    +0.000 C 
ATOM     17  C16 UNL A   1       5.997  37.402  -5.459  1.00  0.00    +0.000 C 
ATOM    111  H13 UNL A   1       6.682  38.172  -5.518  1.00  0.00    +0.000 H 
ATOM     16  C15 UNL A   1       4.641  37.660  -5.546  1.00  0.00    +0.000 C 
ATOM    110  H12 UNL A   1       4.309  38.630  -5.665  1.00  0.00    +0.000 H 
BRANCH   14   15
ATOM    107  H9  UNL A   1       2.030  37.339  -6.538  1.00  0.00    +0.000 H 
ATOM    108  H10 UNL A   1       2.030  37.729  -4.834  1.00  0.00    +0.000 H 
ATOM    109  H11 UNL A   1       1.655  36.105  -5.359  1.00  0.00    +0.000 H 
ATOM     15  C14 UNL A   1       2.251  36.971  -5.557  1.00  0.00    +0.000 C 
ENDBRANCH   14   15
ENDBRANCH    8    9
BRANCH   20   21
ATOM    113  H15 UNL A   1       8.119  33.928  -7.771  1.00  0.00    +0.000 H 
ATOM    114  H16 UNL A   1       6.841  32.764  -7.516  1.00  0.00    +0.000 H 
ATOM    115  H17 UNL A   1       8.471  32.218  -7.830  1.00  0.00    +0.000 H 
ATOM     21  C20 UNL A   1       7.878  32.972  -7.355  1.00  0.00    +0.000 C 
ENDBRANCH   20   21
ENDBRANCH   23   22
ENDBRANCH   24   23
ENDBRANCH   26   24
ENDBRANCH   27   26
ENDBRANCH   28   27
ENDBRANCH   29   28
ENDBRANCH   30   29
ENDBRANCH   31   30
ENDBRANCH   32   31
ENDBRANCH   33   32
ENDBRANCH   34   33
ENDBRANCH   36   34
ENDBRANCH   40   39
BRANCH   44   45
ATOM     45  C38 UNL A   1       9.312  24.696   4.804  1.00  0.00    +0.000 C 
ATOM     46  C39 UNL A   1      10.654  25.108   4.943  1.00  0.00    +0.000 C 
ATOM     47  F1  UNL A   1      11.177  26.024   4.115  1.00  0.00    +0.000 F 
ATOM     48  C40 UNL A   1      11.514  24.522   5.875  1.00  0.00    +0.000 C 
ATOM     49  F2  UNL A   1      12.811  24.859   5.889  1.00  0.00    +0.000 F 
ATOM     50  C41 UNL A   1      11.052  23.546   6.740  1.00  0.00    +0.000 C 
ATOM     51  F3  UNL A   1      11.888  22.942   7.594  1.00  0.00    +0.000 F 
ATOM     52  C42 UNL A   1       9.730  23.163   6.679  1.00  0.00    +0.000 C 
ATOM     53  F4  UNL A   1       9.268  22.205   7.496  1.00  0.00    +0.000 F 
ATOM     54  C43 UNL A   1       8.882  23.707   5.714  1.00  0.00    +0.000 C 
ATOM     55  F5  UNL A   1       7.666  23.154   5.637  1.00  0.00    +0.000 F 
ENDBRANCH   44   45
BRANCH   61   62
ATOM     65  C51 UNL A   1       5.190  32.034   1.222  1.00  0.00    +0.000 C 
ATOM     66  F7  UNL A   1       4.497  33.094   1.667  1.00  0.00    +0.000 F 
ATOM     67  C52 UNL A   1       5.193  31.732  -0.131  1.00  0.00    +0.000 C 
ATOM     68  F8  UNL A   1       4.514  32.502  -0.993  1.00  0.00    +0.000 F 
ATOM     69  C53 UNL A   1       5.929  30.653  -0.594  1.00  0.00    +0.000 C 
ATOM     70  F9  UNL A   1       5.978  30.391  -1.906  1.00  0.00    +0.000 F 
ATOM     71  C54 UNL A   1       6.645  29.860   0.298  1.00  0.00    +0.000 C 
ATOM     72  F10 UNL A   1       7.370  28.840  -0.186  1.00  0.00    +0.000 F 
ATOM     62  C49 UNL A   1       6.663  30.145   1.670  1.00  0.00    +0.000 C 
ATOM     63  C50 UNL A   1       5.937  31.265   2.111  1.00  0.00    +0.000 C 
ATOM     64  F6  UNL A   1       5.994  31.657   3.392  1.00  0.00    +0.000 F 
ENDBRANCH   61   62
BRANCH   76   77
ATOM     77  C58 UNL A   1      12.753  31.049   0.248  1.00  0.00    +0.000 C 
ATOM     78  C59 UNL A   1      12.902  32.300   0.869  1.00  0.00    +0.000 C 
ATOM     79  F11 UNL A   1      11.828  32.950   1.342  1.00  0.00    +0.000 F 
ATOM     80  C60 UNL A   1      14.162  32.866   1.083  1.00  0.00    +0.000 C 
ATOM     81  F12 UNL A   1      14.269  34.027   1.744  1.00  0.00    +0.000 F 
ATOM     82  C61 UNL A   1      15.307  32.203   0.673  1.00  0.00    +0.000 C 
ATOM     83  F13 UNL A   1      16.518  32.712   0.938  1.00  0.00    +0.000 F 
ATOM     84  C62 UNL A   1      15.193  30.987   0.025  1.00  0.00    +0.000 C 
ATOM     85  F14 UNL A   1      16.294  30.320  -0.348  1.00  0.00    +0.000 F 
ATOM     86  C63 UNL A   1      13.936  30.417  -0.181  1.00  0.00    +0.000 C 
ATOM     87  F15 UNL A   1      13.907  29.191  -0.722  1.00  0.00    +0.000 F 
ENDBRANCH   76   77
TORSDOF 20
ENDMDL
MODEL 9
REMARK VINA RESULT:      -8.8     38.158     43.232
ROOT
ATOM    134  H36 UNL A   1       5.214  16.241  41.446  1.00  0.00    +0.000 H 
ATOM    135  H37 UNL A   1       6.552  15.691  39.209  1.00  0.00    +0.000 H 
ATOM    136  H38 UNL A   1       6.905  12.605  41.758  1.00  0.00    +0.000 H 
ATOM    137  H39 UNL A   1       2.173   9.190  35.831  1.00  0.00    +0.000 H 
ATOM    138  H40 UNL A   1       0.737  11.214  36.411  1.00  0.00    +0.000 H 
ATOM    139  H41 UNL A   1       3.899  11.125  39.106  1.00  0.00    +0.000 H 
ATOM    140  H42 UNL A   1       5.343   8.574  40.356  1.00  0.00    +0.000 H 
ATOM    141  H43 UNL A   1       6.452  10.764  41.138  1.00  0.00    +0.000 H 
ATOM    142  H44 UNL A   1       1.662  12.979  43.451  1.00  0.00    +0.000 H 
ATOM    143  H45 UNL A   1       0.223  12.115  41.503  1.00  0.00    +0.000 H 
ATOM     40  C34 UNL A   1       1.476  12.428  38.952  1.00  0.00    +0.000 C 
ATOM     41  C35 UNL A   1       2.037  12.746  40.298  1.00  0.00    +0.000 C 
ATOM     42  N5  UNL A   1       3.174  13.302  40.581  1.00  0.00    +0.000 N 
ATOM     43  C36 UNL A   1       3.248  13.333  41.973  1.00  0.00    +0.000 C 
ATOM     44  C37 UNL A   1       4.425  13.517  42.634  1.00  0.00    +0.000 C 
ATOM     56  C44 UNL A   1       5.426  14.111  41.793  1.00  0.00    +0.000 C 
ATOM     57  C45 UNL A   1       5.561  15.319  41.138  1.00  0.00    +0.000 C 
ATOM     58  C46 UNL A   1       6.284  15.020  39.946  1.00  0.00    +0.000 C 
ATOM     59  C47 UNL A   1       6.559  13.653  39.960  1.00  0.00    +0.000 C 
ATOM     60  N6  UNL A   1       6.406  13.303  41.276  1.00  0.00    +0.000 N 
ATOM     61  C48 UNL A   1       6.800  12.700  38.905  1.00  0.00    +0.000 C 
ATOM     73  C55 UNL A   1       6.587  11.357  39.018  1.00  0.00    +0.000 C 
ATOM     74  N7  UNL A   1       6.309  10.585  37.901  1.00  0.00    +0.000 N 
ATOM     75  C56 UNL A   1       5.601   9.588  38.351  1.00  0.00    +0.000 C 
ATOM     76  C57 UNL A   1       4.511   8.935  37.584  1.00  0.00    +0.000 C 
ATOM     88  C64 UNL A   1       3.490   9.819  37.497  1.00  0.00    +0.000 C 
ATOM     89  C65 UNL A   1       2.353   9.853  36.600  1.00  0.00    +0.000 C 
ATOM     90  C66 UNL A   1       1.565  10.897  36.939  1.00  0.00    +0.000 C 
ATOM     91  C67 UNL A   1       2.070  11.507  38.168  1.00  0.00    +0.000 C 
ATOM     92  N8  UNL A   1       3.268  10.870  38.394  1.00  0.00    +0.000 N 
ATOM     93  C68 UNL A   1       5.662   9.374  39.787  1.00  0.00    +0.000 C 
ATOM     94  C69 UNL A   1       6.254  10.511  40.158  1.00  0.00    +0.000 C 
ATOM     95  C70 UNL A   1       1.951  12.937  42.461  1.00  0.00    +0.000 C 
ATOM     96  C71 UNL A   1       1.177  12.508  41.465  1.00  0.00    +0.000 C 
ENDROOT
BRANCH   40   39
ATOM     97  C72 UNL A   1       0.221  14.175  37.655  1.00  0.00    +0.000 C 
ATOM     98  C73 UNL A   1      -0.978  14.847  37.424  1.00  0.00    +0.000 C 
ATOM     36  C30 UNL A   1      -2.162  14.482  38.094  1.00  0.00    +0.000 C 
ATOM     37  C31 UNL A   1      -2.127  13.366  38.927  1.00  0.00    +0.000 C 
ATOM    132  H34 UNL A   1      -3.003  13.015  39.349  1.00  0.00    +0.000 H 
ATOM     38  C32 UNL A   1      -0.928  12.722  39.199  1.00  0.00    +0.000 C 
ATOM    133  H35 UNL A   1      -0.911  11.923  39.852  1.00  0.00    +0.000 H 
ATOM     39  C33 UNL A   1       0.256  13.147  38.592  1.00  0.00    +0.000 C 
ATOM    144  H46 UNL A   1       1.074  14.437  37.137  1.00  0.00    +0.000 H 
ATOM    145  H47 UNL A   1      -0.999  15.627  36.750  1.00  0.00    +0.000 H 
BRANCH   36   34
ATOM     34  C29 UNL A   1      -3.340  15.372  37.895  1.00  0.00    +0.000 C 
ATOM     35  O2  UNL A   1      -4.142  15.097  36.999  1.00  0.00    +0.000 O 
BRANCH   34   33
ATOM     33  N4  UNL A   1      -3.580  16.524  38.595  1.00  0.00    +0.000 N 
ATOM    131  H33 UNL A   1      -4.363  16.451  39.188  1.00  0.00    +0.000 H 
BRANCH   33   32
ATOM    129  H31 UNL A   1      -1.886  17.685  38.581  1.00  0.00    +0.000 H 
ATOM    130  H32 UNL A   1      -3.343  18.408  37.859  1.00  0.00    +0.000 H 
ATOM     32  C28 UNL A   1      -2.943  17.824  38.661  1.00  0.00    +0.000 C 
BRANCH   32   31
ATOM    127  H29 UNL A   1      -3.658  19.536  39.697  1.00  0.00    +0.000 H 
ATOM     31  C27 UNL A   1      -3.233  18.589  39.955  1.00  0.00    +0.000 C 
ATOM    128  H30 UNL A   1      -3.896  17.977  40.531  1.00  0.00    +0.000 H 
BRANCH   31   30
ATOM    126  H28 UNL A   1      -1.242  19.214  40.179  1.00  0.00    +0.000 H 
ATOM    125  H27 UNL A   1      -1.739  17.918  41.307  1.00  0.00    +0.000 H 
ATOM     30  C26 UNL A   1      -2.002  18.841  40.832  1.00  0.00    +0.000 C 
BRANCH   30   29
ATOM    123  H25 UNL A   1      -1.655  20.779  41.628  1.00  0.00    +0.000 H 
ATOM    124  H26 UNL A   1      -3.244  20.059  42.010  1.00  0.00    +0.000 H 
ATOM     29  C25 UNL A   1      -2.190  19.899  41.921  1.00  0.00    +0.000 C 
BRANCH   29   28
ATOM    121  H23 UNL A   1      -2.545  19.400  43.960  1.00  0.00    +0.000 H 
ATOM    122  H24 UNL A   1      -1.179  18.553  43.191  1.00  0.00    +0.000 H 
ATOM     28  C24 UNL A   1      -1.696  19.482  43.312  1.00  0.00    +0.000 C 
BRANCH   28   27
ATOM     27  C23 UNL A   1      -0.706  20.459  43.942  1.00  0.00    +0.000 C 
ATOM    119  H21 UNL A   1      -0.152  20.941  43.165  1.00  0.00    +0.000 H 
ATOM    120  H22 UNL A   1      -1.260  21.173  44.515  1.00  0.00    +0.000 H 
BRANCH   27   26
ATOM     26  N3  UNL A   1       0.217  19.780  44.830  1.00  0.00    +0.000 N 
ATOM    118  H20 UNL A   1       1.169  19.996  44.694  1.00  0.00    +0.000 H 
BRANCH   26   24
ATOM     25  O1  UNL A   1      -0.627  19.299  46.832  1.00  0.00    +0.000 O 
ATOM     24  C22 UNL A   1      -0.042  18.884  45.828  1.00  0.00    +0.000 C 
BRANCH   24   23
ATOM    116  H18 UNL A   1       1.518  17.460  45.738  1.00  0.00    +0.000 H 
ATOM    117  H19 UNL A   1       0.042  16.935  46.586  1.00  0.00    +0.000 H 
ATOM     23  C21 UNL A   1       0.448  17.450  45.741  1.00  0.00    +0.000 C 
BRANCH   23   22
ATOM      2  C2  UNL A   1       1.562  16.442  40.712  1.00  0.00    +0.000 C 
ATOM      3  C3  UNL A   1       2.382  17.032  41.674  1.00  0.00    +0.000 C 
ATOM      4  C4  UNL A   1       1.974  17.143  43.006  1.00  0.00    +0.000 C 
ATOM      5  C5  UNL A   1       0.699  16.667  43.361  1.00  0.00    +0.000 C 
ATOM      6  C6  UNL A   1      -0.126  16.035  42.429  1.00  0.00    +0.000 C 
ATOM      7  C7  UNL A   1       0.313  15.927  41.090  1.00  0.00    +0.000 C 
ATOM    102  H4  UNL A   1       3.309  17.392  41.397  1.00  0.00    +0.000 H 
ATOM    104  H6  UNL A   1      -0.288  15.467  40.388  1.00  0.00    +0.000 H 
ATOM    103  H5  UNL A   1       2.595  17.566  43.714  1.00  0.00    +0.000 H 
ATOM      8  C8  UNL A   1      -1.306  15.628  43.119  1.00  0.00    +0.000 C 
ATOM     20  C19 UNL A   1      -1.185  16.019  44.446  1.00  0.00    +0.000 C 
ATOM     22  N2  UNL A   1      -0.006  16.733  44.554  1.00  0.00    +0.000 N 
BRANCH    2    1
ATOM      1  C1  UNL A   1       2.023  16.376  39.285  1.00  0.00    +0.000 C 
ATOM     99  H1  UNL A   1       2.825  17.068  39.138  1.00  0.00    +0.000 H 
ATOM    100  H2  UNL A   1       1.211  16.626  38.636  1.00  0.00    +0.000 H 
ATOM    101  H3  UNL A   1       2.363  15.384  39.066  1.00  0.00    +0.000 H 
ENDBRANCH    2    1
BRANCH    8    9
ATOM      9  C9  UNL A   1      -2.476  14.928  42.604  1.00  0.00    +0.000 C 
ATOM     10  C10 UNL A   1      -3.479  15.685  42.004  1.00  0.00    +0.000 C 
ATOM     11  C11 UNL A   1      -4.557  15.015  41.473  1.00  0.00    +0.000 C 
ATOM    105  H7  UNL A   1      -3.414  16.714  41.958  1.00  0.00    +0.000 H 
ATOM     13  C12 UNL A   1      -3.738  12.923  42.085  1.00  0.00    +0.000 C 
ATOM    106  H8  UNL A   1      -5.304  15.571  41.029  1.00  0.00    +0.000 H 
ATOM     12  N1  UNL A   1      -4.695  13.672  41.500  1.00  0.00    +0.000 N 
ATOM     14  C13 UNL A   1      -3.854  11.523  42.116  1.00  0.00    +0.000 C 
ATOM    112  H14 UNL A   1      -0.809  13.120  43.732  1.00  0.00    +0.000 H 
ATOM     18  C17 UNL A   1      -1.637  12.686  43.296  1.00  0.00    +0.000 C 
ATOM     19  C18 UNL A   1      -2.598  13.516  42.674  1.00  0.00    +0.000 C 
ATOM     17  C16 UNL A   1      -1.774  11.306  43.338  1.00  0.00    +0.000 C 
ATOM    111  H13 UNL A   1      -1.062  10.722  43.805  1.00  0.00    +0.000 H 
ATOM     16  C15 UNL A   1      -2.881  10.725  42.744  1.00  0.00    +0.000 C 
ATOM    110  H12 UNL A   1      -2.993   9.698  42.762  1.00  0.00    +0.000 H 
BRANCH   14   15
ATOM    107  H9  UNL A   1      -5.387  10.061  42.140  1.00  0.00    +0.000 H 
ATOM    108  H10 UNL A   1      -4.700  10.359  40.561  1.00  0.00    +0.000 H 
ATOM    109  H11 UNL A   1      -5.796  11.520  41.271  1.00  0.00    +0.000 H 
ATOM     15  C14 UNL A   1      -5.019  10.815  41.476  1.00  0.00    +0.000 C 
ENDBRANCH   14   15
ENDBRANCH    8    9
BRANCH   20   21
ATOM    113  H15 UNL A   1      -1.770  15.007  46.200  1.00  0.00    +0.000 H 
ATOM    114  H16 UNL A   1      -3.097  15.537  45.194  1.00  0.00    +0.000 H 
ATOM    115  H17 UNL A   1      -2.213  16.696  46.158  1.00  0.00    +0.000 H 
ATOM     21  C20 UNL A   1      -2.133  15.799  45.580  1.00  0.00    +0.000 C 
ENDBRANCH   20   21
ENDBRANCH   23   22
ENDBRANCH   24   23
ENDBRANCH   26   24
ENDBRANCH   27   26
ENDBRANCH   28   27
ENDBRANCH   29   28
ENDBRANCH   30   29
ENDBRANCH   31   30
ENDBRANCH   32   31
ENDBRANCH   33   32
ENDBRANCH   34   33
ENDBRANCH   36   34
ENDBRANCH   40   39
BRANCH   44   45
ATOM     45  C38 UNL A   1       4.769  12.876  43.957  1.00  0.00    +0.000 C 
ATOM     46  C39 UNL A   1       4.639  11.480  44.110  1.00  0.00    +0.000 C 
ATOM     47  F1  UNL A   1       4.454  10.688  43.043  1.00  0.00    +0.000 F 
ATOM     48  C40 UNL A   1       4.604  10.875  45.370  1.00  0.00    +0.000 C 
ATOM     49  F2  UNL A   1       4.357   9.562  45.472  1.00  0.00    +0.000 F 
ATOM     50  C41 UNL A   1       4.754  11.633  46.517  1.00  0.00    +0.000 C 
ATOM     51  F3  UNL A   1       4.663  11.064  47.725  1.00  0.00    +0.000 F 
ATOM     52  C42 UNL A   1       4.949  12.993  46.405  1.00  0.00    +0.000 C 
ATOM     53  F4  UNL A   1       5.078  13.747  47.506  1.00  0.00    +0.000 F 
ATOM     54  C43 UNL A   1       4.931  13.607  45.152  1.00  0.00    +0.000 C 
ATOM     55  F5  UNL A   1       4.969  14.944  45.166  1.00  0.00    +0.000 F 
ENDBRANCH   44   45
BRANCH   61   62
ATOM     65  C51 UNL A   1       6.223  14.032  35.358  1.00  0.00    +0.000 C 
ATOM     66  F7  UNL A   1       5.226  14.166  34.470  1.00  0.00    +0.000 F 
ATOM     67  C52 UNL A   1       7.478  14.543  35.067  1.00  0.00    +0.000 C 
ATOM     68  F8  UNL A   1       7.693  15.178  33.906  1.00  0.00    +0.000 F 
ATOM     69  C53 UNL A   1       8.501  14.427  35.994  1.00  0.00    +0.000 C 
ATOM     70  F9  UNL A   1       9.700  14.967  35.739  1.00  0.00    +0.000 F 
ATOM     71  C54 UNL A   1       8.277  13.778  37.206  1.00  0.00    +0.000 C 
ATOM     72  F10 UNL A   1       9.282  13.708  38.094  1.00  0.00    +0.000 F 
ATOM     62  C49 UNL A   1       7.017  13.257  37.527  1.00  0.00    +0.000 C 
ATOM     63  C50 UNL A   1       5.987  13.417  36.586  1.00  0.00    +0.000 C 
ATOM     64  F6  UNL A   1       4.733  13.036  36.870  1.00  0.00    +0.000 F 
ENDBRANCH   61   62
BRANCH   76   77
ATOM     77  C58 UNL A   1       4.474   7.474  37.347  1.00  0.00    +0.000 C 
ATOM     78  C59 UNL A   1       3.374   6.707  37.764  1.00  0.00    +0.000 C 
ATOM     79  F11 UNL A   1       2.454   7.237  38.583  1.00  0.00    +0.000 F 
ATOM     80  C60 UNL A   1       3.160   5.412  37.283  1.00  0.00    +0.000 C 
ATOM     81  F12 UNL A   1       2.061   4.738  37.647  1.00  0.00    +0.000 F 
ATOM     82  C61 UNL A   1       4.047   4.843  36.383  1.00  0.00    +0.000 C 
ATOM     83  F13 UNL A   1       3.807   3.629  35.870  1.00  0.00    +0.000 F 
ATOM     84  C62 UNL A   1       5.160   5.558  35.982  1.00  0.00    +0.000 C 
ATOM     85  F14 UNL A   1       6.007   5.032  35.087  1.00  0.00    +0.000 F 
ATOM     86  C63 UNL A   1       5.369   6.854  36.454  1.00  0.00    +0.000 C 
ATOM     87  F15 UNL A   1       6.412   7.525  35.944  1.00  0.00    +0.000 F 
ENDBRANCH   76   77
TORSDOF 20
ENDMDL
MODEL 10
REMARK VINA RESULT:      -8.8     45.149     49.921
ROOT
ATOM    134  H36 UNL A   1      17.736  35.555  49.774  1.00  0.00    +0.000 H 
ATOM    135  H37 UNL A   1      18.657  34.086  47.751  1.00  0.00    +0.000 H 
ATOM    136  H38 UNL A   1      19.378  37.968  47.007  1.00  0.00    +0.000 H 
ATOM    137  H39 UNL A   1      27.112  35.156  48.217  1.00  0.00    +0.000 H 
ATOM    138  H40 UNL A   1      26.040  34.417  50.408  1.00  0.00    +0.000 H 
ATOM    139  H41 UNL A   1      23.223  36.674  48.351  1.00  0.00    +0.000 H 
ATOM    140  H42 UNL A   1      23.720  39.201  46.475  1.00  0.00    +0.000 H 
ATOM    141  H43 UNL A   1      21.228  38.550  46.541  1.00  0.00    +0.000 H 
ATOM    142  H44 UNL A   1      20.702  39.066  52.255  1.00  0.00    +0.000 H 
ATOM    143  H45 UNL A   1      23.004  37.990  52.647  1.00  0.00    +0.000 H 
ATOM     40  C34 UNL A   1      23.511  35.758  50.933  1.00  0.00    +0.000 C 
ATOM     41  C35 UNL A   1      22.324  36.662  50.940  1.00  0.00    +0.000 C 
ATOM     42  N5  UNL A   1      21.244  36.573  50.227  1.00  0.00    +0.000 N 
ATOM     43  C36 UNL A   1      20.467  37.679  50.568  1.00  0.00    +0.000 C 
ATOM     44  C37 UNL A   1      19.440  38.114  49.786  1.00  0.00    +0.000 C 
ATOM     56  C44 UNL A   1      18.979  37.094  48.887  1.00  0.00    +0.000 C 
ATOM     57  C45 UNL A   1      18.391  35.854  49.035  1.00  0.00    +0.000 C 
ATOM     58  C46 UNL A   1      18.882  35.075  47.946  1.00  0.00    +0.000 C 
ATOM     59  C47 UNL A   1      19.722  35.896  47.194  1.00  0.00    +0.000 C 
ATOM     60  N6  UNL A   1      19.363  37.162  47.572  1.00  0.00    +0.000 N 
ATOM     61  C48 UNL A   1      20.836  35.608  46.325  1.00  0.00    +0.000 C 
ATOM     73  C55 UNL A   1      21.837  36.490  46.041  1.00  0.00    +0.000 C 
ATOM     74  N7  UNL A   1      23.098  36.041  45.679  1.00  0.00    +0.000 N 
ATOM     75  C56 UNL A   1      23.911  36.987  46.058  1.00  0.00    +0.000 C 
ATOM     76  C57 UNL A   1      25.287  36.743  46.556  1.00  0.00    +0.000 C 
ATOM     88  C64 UNL A   1      25.181  36.142  47.765  1.00  0.00    +0.000 C 
ATOM     89  C65 UNL A   1      26.156  35.388  48.526  1.00  0.00    +0.000 C 
ATOM     90  C66 UNL A   1      25.605  35.038  49.708  1.00  0.00    +0.000 C 
ATOM     91  C67 UNL A   1      24.296  35.674  49.841  1.00  0.00    +0.000 C 
ATOM     92  N8  UNL A   1      24.070  36.243  48.609  1.00  0.00    +0.000 N 
ATOM     93  C68 UNL A   1      23.292  38.273  46.332  1.00  0.00    +0.000 C 
ATOM     94  C69 UNL A   1      22.009  37.906  46.342  1.00  0.00    +0.000 C 
ATOM     95  C70 UNL A   1      21.108  38.295  51.702  1.00  0.00    +0.000 C 
ATOM     96  C71 UNL A   1      22.294  37.736  51.942  1.00  0.00    +0.000 C 
ENDROOT
BRANCH   40   39
ATOM     97  C72 UNL A   1      25.024  34.854  52.722  1.00  0.00    +0.000 C 
ATOM     98  C73 UNL A   1      25.169  34.092  53.879  1.00  0.00    +0.000 C 
ATOM     36  C30 UNL A   1      24.053  33.527  54.527  1.00  0.00    +0.000 C 
ATOM     37  C31 UNL A   1      22.786  33.829  54.035  1.00  0.00    +0.000 C 
ATOM    132  H34 UNL A   1      21.948  33.513  54.550  1.00  0.00    +0.000 H 
ATOM     38  C32 UNL A   1      22.637  34.548  52.857  1.00  0.00    +0.000 C 
ATOM    133  H35 UNL A   1      21.693  34.728  52.481  1.00  0.00    +0.000 H 
ATOM     39  C33 UNL A   1      23.757  35.032  52.178  1.00  0.00    +0.000 C 
ATOM    144  H46 UNL A   1      25.849  35.284  52.274  1.00  0.00    +0.000 H 
ATOM    145  H47 UNL A   1      26.112  33.936  54.269  1.00  0.00    +0.000 H 
BRANCH   36   34
ATOM     34  C29 UNL A   1      24.340  32.595  55.654  1.00  0.00    +0.000 C 
ATOM     35  O2  UNL A   1      25.343  32.797  56.345  1.00  0.00    +0.000 O 
BRANCH   34   33
ATOM     33  N4  UNL A   1      23.606  31.480  55.958  1.00  0.00    +0.000 N 
ATOM    131  H33 UNL A   1      22.647  31.594  55.768  1.00  0.00    +0.000 H 
BRANCH   33   32
ATOM    129  H31 UNL A   1      24.756  30.271  57.157  1.00  0.00    +0.000 H 
ATOM    130  H32 UNL A   1      23.043  29.816  56.988  1.00  0.00    +0.000 H 
ATOM     32  C28 UNL A   1      23.923  30.171  56.493  1.00  0.00    +0.000 C 
BRANCH   32   31
ATOM    127  H29 UNL A   1      24.203  28.162  55.860  1.00  0.00    +0.000 H 
ATOM     31  C27 UNL A   1      24.280  29.135  55.423  1.00  0.00    +0.000 C 
ATOM    128  H30 UNL A   1      23.596  29.285  54.613  1.00  0.00    +0.000 H 
BRANCH   31   30
ATOM    126  H28 UNL A   1      26.134  28.316  54.878  1.00  0.00    +0.000 H 
ATOM    125  H27 UNL A   1      26.211  30.018  55.420  1.00  0.00    +0.000 H 
ATOM     30  C26 UNL A   1      25.688  29.287  54.839  1.00  0.00    +0.000 C 
BRANCH   30   29
ATOM    123  H25 UNL A   1      25.506  28.874  52.764  1.00  0.00    +0.000 H 
ATOM    124  H26 UNL A   1      25.027  30.519  53.270  1.00  0.00    +0.000 H 
ATOM     29  C25 UNL A   1      25.736  29.723  53.373  1.00  0.00    +0.000 C 
BRANCH   29   28
ATOM    121  H23 UNL A   1      26.911  30.989  52.128  1.00  0.00    +0.000 H 
ATOM    122  H24 UNL A   1      27.542  30.734  53.774  1.00  0.00    +0.000 H 
ATOM     28  C24 UNL A   1      27.088  30.286  52.916  1.00  0.00    +0.000 C 
BRANCH   28   27
ATOM     27  C23 UNL A   1      28.063  29.229  52.403  1.00  0.00    +0.000 C 
ATOM    119  H21 UNL A   1      28.916  29.201  53.047  1.00  0.00    +0.000 H 
ATOM    120  H22 UNL A   1      27.560  28.285  52.397  1.00  0.00    +0.000 H 
BRANCH   27   26
ATOM     26  N3  UNL A   1      28.500  29.522  51.052  1.00  0.00    +0.000 N 
ATOM    118  H20 UNL A   1      29.238  30.170  50.979  1.00  0.00    +0.000 H 
BRANCH   26   24
ATOM     25  O1  UNL A   1      27.054  28.282  49.902  1.00  0.00    +0.000 O 
ATOM     24  C22 UNL A   1      28.037  29.027  49.866  1.00  0.00    +0.000 C 
BRANCH   24   23
ATOM    116  H18 UNL A   1      29.801  29.134  48.707  1.00  0.00    +0.000 H 
ATOM    117  H19 UNL A   1      28.324  28.672  47.823  1.00  0.00    +0.000 H 
ATOM     23  C21 UNL A   1      28.757  29.315  48.562  1.00  0.00    +0.000 C 
BRANCH   23   22
ATOM      2  C2  UNL A   1      25.631  32.477  45.773  1.00  0.00    +0.000 C 
ATOM      3  C3  UNL A   1      25.355  31.195  46.250  1.00  0.00    +0.000 C 
ATOM      4  C4  UNL A   1      26.260  30.515  47.068  1.00  0.00    +0.000 C 
ATOM      5  C5  UNL A   1      27.479  31.140  47.388  1.00  0.00    +0.000 C 
ATOM      6  C6  UNL A   1      27.764  32.438  46.961  1.00  0.00    +0.000 C 
ATOM      7  C7  UNL A   1      26.829  33.109  46.141  1.00  0.00    +0.000 C 
ATOM    102  H4  UNL A   1      24.464  30.741  45.994  1.00  0.00    +0.000 H 
ATOM    104  H6  UNL A   1      27.027  34.067  45.813  1.00  0.00    +0.000 H 
ATOM    103  H5  UNL A   1      26.040  29.573  47.429  1.00  0.00    +0.000 H 
ATOM      8  C8  UNL A   1      29.037  32.788  47.499  1.00  0.00    +0.000 C 
ATOM     20  C19 UNL A   1      29.506  31.708  48.235  1.00  0.00    +0.000 C 
ATOM     22  N2  UNL A   1      28.593  30.681  48.077  1.00  0.00    +0.000 N 
BRANCH    2    1
ATOM      1  C1  UNL A   1      24.648  33.158  44.866  1.00  0.00    +0.000 C 
ATOM     99  H1  UNL A   1      25.167  33.581  44.032  1.00  0.00    +0.000 H 
ATOM    100  H2  UNL A   1      24.144  33.933  45.404  1.00  0.00    +0.000 H 
ATOM    101  H3  UNL A   1      23.932  32.443  44.515  1.00  0.00    +0.000 H 
ENDBRANCH    2    1
BRANCH    8    9
ATOM      9  C9  UNL A   1      29.787  34.030  47.353  1.00  0.00    +0.000 C 
ATOM     10  C10 UNL A   1      29.698  34.971  48.374  1.00  0.00    +0.000 C 
ATOM     11  C11 UNL A   1      30.449  36.118  48.255  1.00  0.00    +0.000 C 
ATOM    105  H7  UNL A   1      29.091  34.813  49.194  1.00  0.00    +0.000 H 
ATOM     13  C12 UNL A   1      31.355  35.483  46.206  1.00  0.00    +0.000 C 
ATOM    106  H8  UNL A   1      30.386  36.821  49.009  1.00  0.00    +0.000 H 
ATOM     12  N1  UNL A   1      31.263  36.380  47.210  1.00  0.00    +0.000 N 
ATOM     14  C13 UNL A   1      32.203  35.727  45.114  1.00  0.00    +0.000 C 
ATOM    112  H14 UNL A   1      30.179  32.512  45.147  1.00  0.00    +0.000 H 
ATOM     18  C17 UNL A   1      30.726  33.386  45.136  1.00  0.00    +0.000 C 
ATOM     19  C18 UNL A   1      30.613  34.280  46.226  1.00  0.00    +0.000 C 
ATOM     17  C16 UNL A   1      31.553  33.650  44.053  1.00  0.00    +0.000 C 
ATOM    111  H13 UNL A   1      31.613  32.984  43.266  1.00  0.00    +0.000 H 
ATOM     16  C15 UNL A   1      32.294  34.818  44.044  1.00  0.00    +0.000 C 
ATOM    110  H12 UNL A   1      32.917  35.024  43.247  1.00  0.00    +0.000 H 
BRANCH   14   15
ATOM    107  H9  UNL A   1      33.037  37.354  44.042  1.00  0.00    +0.000 H 
ATOM    108  H10 UNL A   1      34.063  36.723  45.308  1.00  0.00    +0.000 H 
ATOM    109  H11 UNL A   1      32.674  37.703  45.715  1.00  0.00    +0.000 H 
ATOM     15  C14 UNL A   1      33.055  36.967  45.039  1.00  0.00    +0.000 C 
ENDBRANCH   14   15
ENDBRANCH    8    9
BRANCH   20   21
ATOM    113  H15 UNL A   1      31.604  31.535  48.350  1.00  0.00    +0.000 H 
ATOM    114  H16 UNL A   1      30.738  30.694  49.613  1.00  0.00    +0.000 H 
ATOM    115  H17 UNL A   1      30.879  32.436  49.659  1.00  0.00    +0.000 H 
ATOM     21  C20 UNL A   1      30.771  31.584  49.020  1.00  0.00    +0.000 C 
ENDBRANCH   20   21
ENDBRANCH   23   22
ENDBRANCH   24   23
ENDBRANCH   26   24
ENDBRANCH   27   26
ENDBRANCH   28   27
ENDBRANCH   29   28
ENDBRANCH   30   29
ENDBRANCH   31   30
ENDBRANCH   32   31
ENDBRANCH   33   32
ENDBRANCH   34   33
ENDBRANCH   36   34
ENDBRANCH   40   39
BRANCH   44   45
ATOM     45  C38 UNL A   1      19.052  39.564  49.619  1.00  0.00    +0.000 C 
ATOM     46  C39 UNL A   1      19.965  40.467  49.035  1.00  0.00    +0.000 C 
ATOM     47  F1  UNL A   1      21.063  40.021  48.408  1.00  0.00    +0.000 F 
ATOM     48  C40 UNL A   1      19.818  41.851  49.162  1.00  0.00    +0.000 C 
ATOM     49  F2  UNL A   1      20.772  42.668  48.697  1.00  0.00    +0.000 F 
ATOM     50  C41 UNL A   1      18.726  42.383  49.825  1.00  0.00    +0.000 C 
ATOM     51  F3  UNL A   1      18.613  43.706  49.998  1.00  0.00    +0.000 F 
ATOM     52  C42 UNL A   1      17.778  41.533  50.352  1.00  0.00    +0.000 C 
ATOM     53  F4  UNL A   1      16.723  42.029  51.015  1.00  0.00    +0.000 F 
ATOM     54  C43 UNL A   1      17.949  40.150  50.274  1.00  0.00    +0.000 C 
ATOM     55  F5  UNL A   1      17.058  39.420  50.954  1.00  0.00    +0.000 F 
ENDBRANCH   44   45
BRANCH   61   62
ATOM     65  C51 UNL A   1      21.712  31.879  46.452  1.00  0.00    +0.000 C 
ATOM     66  F7  UNL A   1      22.280  30.995  47.286  1.00  0.00    +0.000 F 
ATOM     67  C52 UNL A   1      21.171  31.446  45.252  1.00  0.00    +0.000 C 
ATOM     68  F8  UNL A   1      21.206  30.145  44.930  1.00  0.00    +0.000 F 
ATOM     69  C53 UNL A   1      20.562  32.356  44.402  1.00  0.00    +0.000 C 
ATOM     70  F9  UNL A   1      19.991  31.932  43.267  1.00  0.00    +0.000 F 
ATOM     71  C54 UNL A   1      20.514  33.705  44.741  1.00  0.00    +0.000 C 
ATOM     72  F10 UNL A   1      19.892  34.556  43.909  1.00  0.00    +0.000 F 
ATOM     62  C49 UNL A   1      21.048  34.170  45.950  1.00  0.00    +0.000 C 
ATOM     63  C50 UNL A   1      21.629  33.223  46.811  1.00  0.00    +0.000 C 
ATOM     64  F6  UNL A   1      22.066  33.580  48.027  1.00  0.00    +0.000 F 
ENDBRANCH   61   62
BRANCH   76   77
ATOM     77  C58 UNL A   1      26.472  37.414  45.974  1.00  0.00    +0.000 C 
ATOM     78  C59 UNL A   1      26.997  38.578  46.558  1.00  0.00    +0.000 C 
ATOM     79  F11 UNL A   1      26.304  39.229  47.504  1.00  0.00    +0.000 F 
ATOM     80  C60 UNL A   1      28.274  39.046  46.237  1.00  0.00    +0.000 C 
ATOM     81  F12 UNL A   1      28.771  40.118  46.869  1.00  0.00    +0.000 F 
ATOM     82  C61 UNL A   1      29.057  38.371  45.314  1.00  0.00    +0.000 C 
ATOM     83  F13 UNL A   1      30.306  38.780  45.056  1.00  0.00    +0.000 F 
ATOM     84  C62 UNL A   1      28.554  37.243  44.693  1.00  0.00    +0.000 C 
ATOM     85  F14 UNL A   1      29.312  36.562  43.823  1.00  0.00    +0.000 F 
ATOM     86  C63 UNL A   1      27.283  36.770  45.020  1.00  0.00    +0.000 C 
ATOM     87  F15 UNL A   1      26.901  35.615  44.456  1.00  0.00    +0.000 F 
ENDBRANCH   76   77
TORSDOF 20
ENDMDL
