MODEL 1
REMARK VINA RESULT:      -9.9      0.000      0.000
ROOT
ATOM    138  H33 UNL A   1      46.722  28.391  30.687  1.00  0.00    +0.000 H 
ATOM    139  H34 UNL A   1      45.386  28.329  32.992  1.00  0.00    +0.000 H 
ATOM    140  H35 UNL A   1      44.742  31.855  31.165  1.00  0.00    +0.000 H 
ATOM    141  H36 UNL A   1      37.210  28.453  31.077  1.00  0.00    +0.000 H 
ATOM    142  H37 UNL A   1      38.569  26.625  29.936  1.00  0.00    +0.000 H 
ATOM    143  H38 UNL A   1      41.134  29.828  30.599  1.00  0.00    +0.000 H 
ATOM    144  H39 UNL A   1      40.378  32.956  30.305  1.00  0.00    +0.000 H 
ATOM    145  H40 UNL A   1      42.842  32.361  30.781  1.00  0.00    +0.000 H 
ATOM    146  H41 UNL A   1      44.202  29.426  26.209  1.00  0.00    +0.000 H 
ATOM    147  H42 UNL A   1      41.863  28.361  26.338  1.00  0.00    +0.000 H 
ATOM     47  C36 UNL A   1      41.145  27.558  28.992  1.00  0.00    +0.000 C 
ATOM     48  C37 UNL A   1      42.358  28.305  28.552  1.00  0.00    +0.000 C 
ATOM     49  N8  UNL A   1      43.377  28.669  29.264  1.00  0.00    +0.000 N 
ATOM     50  C38 UNL A   1      44.207  29.388  28.404  1.00  0.00    +0.000 C 
ATOM     51  C39 UNL A   1      45.102  30.299  28.879  1.00  0.00    +0.000 C 
ATOM     63  C46 UNL A   1      45.402  30.062  30.267  1.00  0.00    +0.000 C 
ATOM     64  C47 UNL A   1      45.959  29.021  30.984  1.00  0.00    +0.000 C 
ATOM     65  C48 UNL A   1      45.252  29.004  32.223  1.00  0.00    +0.000 C 
ATOM     66  C49 UNL A   1      44.347  30.064  32.205  1.00  0.00    +0.000 C 
ATOM     67  N9  UNL A   1      44.814  30.874  31.205  1.00  0.00    +0.000 N 
ATOM     68  C50 UNL A   1      43.128  30.326  32.925  1.00  0.00    +0.000 C 
ATOM     80  C57 UNL A   1      42.135  31.154  32.488  1.00  0.00    +0.000 C 
ATOM     81  N10 UNL A   1      40.837  31.021  32.960  1.00  0.00    +0.000 N 
ATOM     82  C58 UNL A   1      40.088  31.480  31.995  1.00  0.00    +0.000 C 
ATOM     83  C59 UNL A   1      38.793  30.867  31.606  1.00  0.00    +0.000 C 
ATOM     95  C66 UNL A   1      39.070  29.652  31.068  1.00  0.00    +0.000 C 
ATOM     96  C67 UNL A   1      38.204  28.522  30.810  1.00  0.00    +0.000 C 
ATOM     97  C68 UNL A   1      38.913  27.570  30.166  1.00  0.00    +0.000 C 
ATOM     98  C69 UNL A   1      40.244  28.087  29.844  1.00  0.00    +0.000 C 
ATOM     99  N11 UNL A   1      40.314  29.289  30.515  1.00  0.00    +0.000 N 
ATOM    100  C70 UNL A   1      40.762  32.318  31.019  1.00  0.00    +0.000 C 
ATOM    101  C71 UNL A   1      42.030  32.019  31.317  1.00  0.00    +0.000 C 
ATOM    102  C72 UNL A   1      43.705  29.164  27.075  1.00  0.00    +0.000 C 
ATOM    103  C73 UNL A   1      42.511  28.574  27.114  1.00  0.00    +0.000 C 
ENDROOT
BRANCH   47   46
ATOM    104  C74 UNL A   1      40.190  26.217  27.141  1.00  0.00    +0.000 C 
ATOM    105  C75 UNL A   1      40.028  24.992  26.510  1.00  0.00    +0.000 C 
ATOM    136  H31 UNL A   1      41.948  23.099  28.492  1.00  0.00    +0.000 H 
ATOM     43  C32 UNL A   1      40.612  23.820  27.029  1.00  0.00    +0.000 C 
ATOM     44  C33 UNL A   1      41.445  23.930  28.145  1.00  0.00    +0.000 C 
ATOM     45  C34 UNL A   1      41.600  25.153  28.791  1.00  0.00    +0.000 C 
ATOM    137  H32 UNL A   1      42.206  25.224  29.624  1.00  0.00    +0.000 H 
ATOM     46  C35 UNL A   1      40.937  26.283  28.312  1.00  0.00    +0.000 C 
ATOM    148  H43 UNL A   1      39.760  27.068  26.747  1.00  0.00    +0.000 H 
ATOM    149  H44 UNL A   1      39.472  24.938  25.643  1.00  0.00    +0.000 H 
BRANCH   43    2
ATOM      1  O1  UNL A   1      39.014  22.251  26.339  1.00  0.00    +0.000 O 
ATOM      2  C1  UNL A   1      40.210  22.556  26.355  1.00  0.00    +0.000 C 
BRANCH    2    3
ATOM    106  H1  UNL A   1      40.826  21.420  24.873  1.00  0.00    +0.000 H 
ATOM      3  N1  UNL A   1      41.068  21.652  25.799  1.00  0.00    +0.000 N 
BRANCH    3    4
ATOM    108  H3  UNL A   1      42.135  20.808  27.309  1.00  0.00    +0.000 H 
ATOM    107  H2  UNL A   1      42.322  20.031  25.717  1.00  0.00    +0.000 H 
ATOM      4  C2  UNL A   1      42.249  20.953  26.254  1.00  0.00    +0.000 C 
BRANCH    4    5
ATOM    109  H4  UNL A   1      44.337  21.025  25.893  1.00  0.00    +0.000 H 
ATOM      5  C3  UNL A   1      43.550  21.731  26.053  1.00  0.00    +0.000 C 
ATOM    110  H5  UNL A   1      43.683  22.324  26.934  1.00  0.00    +0.000 H 
BRANCH    5    6
ATOM      6  C4  UNL A   1      43.542  22.710  24.873  1.00  0.00    +0.000 C 
ATOM    111  H6  UNL A   1      43.427  23.698  25.266  1.00  0.00    +0.000 H 
ATOM    112  H7  UNL A   1      42.737  22.397  24.241  1.00  0.00    +0.000 H 
BRANCH    6    7
ATOM    113  H8  UNL A   1      44.682  23.465  23.250  1.00  0.00    +0.000 H 
ATOM    114  H9  UNL A   1      44.855  21.712  23.580  1.00  0.00    +0.000 H 
ATOM      7  C5  UNL A   1      44.793  22.698  23.989  1.00  0.00    +0.000 C 
BRANCH    7    8
ATOM    115  H10 UNL A   1      46.696  22.036  24.659  1.00  0.00    +0.000 H 
ATOM    116  H11 UNL A   1      45.865  23.207  25.723  1.00  0.00    +0.000 H 
ATOM      8  C6  UNL A   1      46.118  22.935  24.719  1.00  0.00    +0.000 C 
BRANCH    8    9
ATOM      9  C7  UNL A   1      46.960  24.079  24.163  1.00  0.00    +0.000 C 
ATOM    117  H12 UNL A   1      46.612  24.313  23.178  1.00  0.00    +0.000 H 
ATOM    118  H13 UNL A   1      47.980  23.758  24.153  1.00  0.00    +0.000 H 
BRANCH    9   10
ATOM     10  N2  UNL A   1      46.880  25.278  24.983  1.00  0.00    +0.000 N 
ATOM    119  H14 UNL A   1      47.708  25.805  25.047  1.00  0.00    +0.000 H 
BRANCH   10   11
ATOM     11  C8  UNL A   1      45.806  25.772  25.678  1.00  0.00    +0.000 C 
ATOM     12  O2  UNL A   1      44.858  26.286  25.085  1.00  0.00    +0.000 O 
BRANCH   11   13
ATOM    134  H29 UNL A   1      47.106  27.016  29.910  1.00  0.00    +0.000 H 
ATOM    135  H30 UNL A   1      47.103  27.284  27.493  1.00  0.00    +0.000 H 
ATOM     41  C30 UNL A   1      46.552  26.378  29.318  1.00  0.00    +0.000 C 
ATOM     42  C31 UNL A   1      46.546  26.534  27.934  1.00  0.00    +0.000 C 
ATOM     13  C9  UNL A   1      45.782  25.667  27.149  1.00  0.00    +0.000 C 
ATOM     14  C10 UNL A   1      44.983  24.681  27.741  1.00  0.00    +0.000 C 
ATOM     15  C11 UNL A   1      45.017  24.492  29.124  1.00  0.00    +0.000 C 
ATOM     16  C12 UNL A   1      45.797  25.345  29.905  1.00  0.00    +0.000 C 
ATOM    120  H15 UNL A   1      44.368  24.094  27.155  1.00  0.00    +0.000 H 
ATOM    121  H16 UNL A   1      44.473  23.732  29.562  1.00  0.00    +0.000 H 
BRANCH   16   17
ATOM     39  N6  UNL A   1      46.233  25.502  33.401  1.00  0.00    +0.000 N 
ATOM     40  N7  UNL A   1      46.678  25.704  32.159  1.00  0.00    +0.000 N 
ATOM     17  N3  UNL A   1      45.738  25.248  31.307  1.00  0.00    +0.000 N 
ATOM     18  C13 UNL A   1      44.716  24.684  32.012  1.00  0.00    +0.000 C 
ATOM     19  C14 UNL A   1      45.046  24.808  33.336  1.00  0.00    +0.000 C 
ATOM    122  H17 UNL A   1      43.863  24.252  31.625  1.00  0.00    +0.000 H 
BRANCH   19   20
ATOM    124  H19 UNL A   1      43.602  25.430  34.548  1.00  0.00    +0.000 H 
ATOM    123  H18 UNL A   1      43.778  23.584  34.378  1.00  0.00    +0.000 H 
ATOM     20  C15 UNL A   1      44.211  24.550  34.533  1.00  0.00    +0.000 C 
BRANCH   20   21
ATOM     21  S1  UNL A   1      44.834  24.540  36.215  1.00  0.00    +0.000 S 
BRANCH   21   22
ATOM    127  H22 UNL A   1      52.443  24.177  36.658  1.00  0.00    +0.000 H 
ATOM    126  H21 UNL A   1      51.501  25.668  38.330  1.00  0.00    +0.000 H 
ATOM    128  H23 UNL A   1      50.958  22.847  35.259  1.00  0.00    +0.000 H 
ATOM    125  H20 UNL A   1      49.099  26.007  38.449  1.00  0.00    +0.000 H 
ATOM     22  C16 UNL A   1      46.477  23.978  36.363  1.00  0.00    +0.000 C 
ATOM     23  N4  UNL A   1      47.264  24.883  36.874  1.00  0.00    +0.000 N 
ATOM     24  C17 UNL A   1      48.637  24.608  36.941  1.00  0.00    +0.000 C 
ATOM     25  C18 UNL A   1      49.490  25.333  37.773  1.00  0.00    +0.000 C 
ATOM     26  C19 UNL A   1      50.877  25.150  37.693  1.00  0.00    +0.000 C 
ATOM     27  C20 UNL A   1      51.419  24.268  36.754  1.00  0.00    +0.000 C 
ATOM     28  C21 UNL A   1      50.573  23.510  35.949  1.00  0.00    +0.000 C 
ATOM     29  C22 UNL A   1      49.190  23.664  36.090  1.00  0.00    +0.000 C 
ATOM     30  C23 UNL A   1      48.233  22.765  35.436  1.00  0.00    +0.000 C 
ATOM     31  O3  UNL A   1      48.601  22.128  34.451  1.00  0.00    +0.000 O 
ATOM     32  N5  UNL A   1      46.957  22.728  36.013  1.00  0.00    +0.000 N 
BRANCH   32   33
ATOM     33  C24 UNL A   1      46.289  21.446  36.112  1.00  0.00    +0.000 C 
ATOM     34  C25 UNL A   1      46.393  20.700  37.306  1.00  0.00    +0.000 C 
ATOM    129  H24 UNL A   1      46.758  21.161  38.153  1.00  0.00    +0.000 H 
ATOM     35  C26 UNL A   1      46.015  19.356  37.380  1.00  0.00    +0.000 C 
ATOM    133  H28 UNL A   1      45.237  21.425  34.285  1.00  0.00    +0.000 H 
ATOM     38  C29 UNL A   1      45.551  20.851  35.084  1.00  0.00    +0.000 C 
ATOM     37  C28 UNL A   1      45.230  19.485  35.124  1.00  0.00    +0.000 C 
ATOM    130  H25 UNL A   1      46.123  18.835  38.263  1.00  0.00    +0.000 H 
ATOM     36  C27 UNL A   1      45.497  18.729  36.258  1.00  0.00    +0.000 C 
ATOM    132  H27 UNL A   1      44.791  19.039  34.303  1.00  0.00    +0.000 H 
ATOM    131  H26 UNL A   1      45.313  17.714  36.266  1.00  0.00    +0.000 H 
ENDBRANCH   32   33
ENDBRANCH   21   22
ENDBRANCH   20   21
ENDBRANCH   19   20
ENDBRANCH   16   17
ENDBRANCH   11   13
ENDBRANCH   10   11
ENDBRANCH    9   10
ENDBRANCH    8    9
ENDBRANCH    7    8
ENDBRANCH    6    7
ENDBRANCH    5    6
ENDBRANCH    4    5
ENDBRANCH    3    4
ENDBRANCH    2    3
ENDBRANCH   43    2
ENDBRANCH   47   46
BRANCH   51   52
ATOM     52  C40 UNL A   1      45.398  31.628  28.215  1.00  0.00    +0.000 C 
ATOM     53  C41 UNL A   1      44.320  32.480  27.892  1.00  0.00    +0.000 C 
ATOM     54  F1  UNL A   1      43.107  32.283  28.429  1.00  0.00    +0.000 F 
ATOM     55  C42 UNL A   1      44.434  33.485  26.927  1.00  0.00    +0.000 C 
ATOM     56  F2  UNL A   1      43.345  34.168  26.547  1.00  0.00    +0.000 F 
ATOM     57  C43 UNL A   1      45.644  33.724  26.304  1.00  0.00    +0.000 C 
ATOM     58  F3  UNL A   1      45.739  34.633  25.325  1.00  0.00    +0.000 F 
ATOM     59  C44 UNL A   1      46.746  32.981  26.666  1.00  0.00    +0.000 C 
ATOM     60  F4  UNL A   1      47.927  33.193  26.068  1.00  0.00    +0.000 F 
ATOM     61  C45 UNL A   1      46.624  31.945  27.591  1.00  0.00    +0.000 C 
ATOM     62  F5  UNL A   1      47.727  31.208  27.759  1.00  0.00    +0.000 F 
ENDBRANCH   51   52
BRANCH   68   69
ATOM     69  C51 UNL A   1      42.831  29.443  34.102  1.00  0.00    +0.000 C 
ATOM     70  C52 UNL A   1      42.122  28.232  34.007  1.00  0.00    +0.000 C 
ATOM     71  F6  UNL A   1      41.635  27.813  32.831  1.00  0.00    +0.000 F 
ATOM     72  C53 UNL A   1      41.958  27.403  35.116  1.00  0.00    +0.000 C 
ATOM     73  F7  UNL A   1      41.270  26.258  35.003  1.00  0.00    +0.000 F 
ATOM     74  C54 UNL A   1      42.542  27.741  36.327  1.00  0.00    +0.000 C 
ATOM     75  F8  UNL A   1      42.423  26.923  37.382  1.00  0.00    +0.000 F 
ATOM     76  C55 UNL A   1      43.275  28.912  36.435  1.00  0.00    +0.000 C 
ATOM     77  F9  UNL A   1      43.884  29.216  37.589  1.00  0.00    +0.000 F 
ATOM     78  C56 UNL A   1      43.407  29.759  35.339  1.00  0.00    +0.000 C 
ATOM     79  F10 UNL A   1      44.146  30.872  35.470  1.00  0.00    +0.000 F 
ENDBRANCH   68   69
BRANCH   83   84
ATOM     84  C60 UNL A   1      37.544  31.655  31.487  1.00  0.00    +0.000 C 
ATOM     85  C61 UNL A   1      36.753  31.943  32.611  1.00  0.00    +0.000 C 
ATOM     86  F11 UNL A   1      36.998  31.335  33.781  1.00  0.00    +0.000 F 
ATOM     87  C62 UNL A   1      35.744  32.912  32.569  1.00  0.00    +0.000 C 
ATOM     88  F12 UNL A   1      35.047  33.201  33.677  1.00  0.00    +0.000 F 
ATOM     89  C63 UNL A   1      35.496  33.615  31.402  1.00  0.00    +0.000 C 
ATOM     90  F13 UNL A   1      34.571  34.585  31.376  1.00  0.00    +0.000 F 
ATOM     91  C64 UNL A   1      36.242  33.341  30.271  1.00  0.00    +0.000 C 
ATOM     92  F14 UNL A   1      36.041  34.042  29.147  1.00  0.00    +0.000 F 
ATOM     93  C65 UNL A   1      37.252  32.379  30.314  1.00  0.00    +0.000 C 
ATOM     94  F15 UNL A   1      38.005  32.236  29.214  1.00  0.00    +0.000 F 
ENDBRANCH   83   84
TORSDOF 20
ENDMDL
MODEL 2
REMARK VINA RESULT:      -9.9      1.575      2.204
ROOT
ATOM    138  H33 UNL A   1      46.422  28.878  30.238  1.00  0.00    +0.000 H 
ATOM    139  H34 UNL A   1      45.208  28.805  32.610  1.00  0.00    +0.000 H 
ATOM    140  H35 UNL A   1      44.198  32.194  30.691  1.00  0.00    +0.000 H 
ATOM    141  H36 UNL A   1      36.966  28.215  31.110  1.00  0.00    +0.000 H 
ATOM    142  H37 UNL A   1      38.409  26.455  29.968  1.00  0.00    +0.000 H 
ATOM    143  H38 UNL A   1      40.740  29.871  30.384  1.00  0.00    +0.000 H 
ATOM    144  H39 UNL A   1      39.724  32.917  30.015  1.00  0.00    +0.000 H 
ATOM    145  H40 UNL A   1      42.247  32.534  30.386  1.00  0.00    +0.000 H 
ATOM    146  H41 UNL A   1      43.617  29.533  25.860  1.00  0.00    +0.000 H 
ATOM    147  H42 UNL A   1      41.379  28.296  26.146  1.00  0.00    +0.000 H 
ATOM     47  C36 UNL A   1      40.855  27.547  28.861  1.00  0.00    +0.000 C 
ATOM     48  C37 UNL A   1      41.982  28.367  28.333  1.00  0.00    +0.000 C 
ATOM     49  N8  UNL A   1      43.001  28.837  28.979  1.00  0.00    +0.000 N 
ATOM     50  C38 UNL A   1      43.729  29.584  28.052  1.00  0.00    +0.000 C 
ATOM     51  C39 UNL A   1      44.571  30.580  28.447  1.00  0.00    +0.000 C 
ATOM     63  C46 UNL A   1      44.955  30.423  29.826  1.00  0.00    +0.000 C 
ATOM     64  C47 UNL A   1      45.627  29.458  30.551  1.00  0.00    +0.000 C 
ATOM     65  C48 UNL A   1      44.984  29.436  31.824  1.00  0.00    +0.000 C 
ATOM     66  C49 UNL A   1      43.997  30.421  31.814  1.00  0.00    +0.000 C 
ATOM     67  N9  UNL A   1      44.350  31.224  30.762  1.00  0.00    +0.000 N 
ATOM     68  C50 UNL A   1      42.797  30.616  32.586  1.00  0.00    +0.000 C 
ATOM     80  C57 UNL A   1      41.722  31.345  32.170  1.00  0.00    +0.000 C 
ATOM     81  N10 UNL A   1      40.463  31.131  32.712  1.00  0.00    +0.000 N 
ATOM     82  C58 UNL A   1      39.634  31.491  31.770  1.00  0.00    +0.000 C 
ATOM     83  C59 UNL A   1      38.375  30.765  31.470  1.00  0.00    +0.000 C 
ATOM     95  C66 UNL A   1      38.721  29.554  30.962  1.00  0.00    +0.000 C 
ATOM     96  C67 UNL A   1      37.937  28.350  30.791  1.00  0.00    +0.000 C 
ATOM     97  C68 UNL A   1      38.688  27.432  30.146  1.00  0.00    +0.000 C 
ATOM     98  C69 UNL A   1      39.956  28.038  29.738  1.00  0.00    +0.000 C 
ATOM     99  N11 UNL A   1      39.962  29.267  30.361  1.00  0.00    +0.000 N 
ATOM    100  C70 UNL A   1      40.192  32.340  30.731  1.00  0.00    +0.000 C 
ATOM    101  C71 UNL A   1      41.492  32.152  30.975  1.00  0.00    +0.000 C 
ATOM    102  C72 UNL A   1      43.184  29.269  26.759  1.00  0.00    +0.000 C 
ATOM    103  C73 UNL A   1      42.044  28.589  26.880  1.00  0.00    +0.000 C 
ENDROOT
BRANCH   47   46
ATOM    104  C74 UNL A   1      39.737  26.001  27.281  1.00  0.00    +0.000 C 
ATOM    105  C75 UNL A   1      39.646  24.746  26.695  1.00  0.00    +0.000 C 
ATOM    136  H31 UNL A   1      42.280  23.276  28.143  1.00  0.00    +0.000 H 
ATOM     43  C32 UNL A   1      40.531  23.710  27.049  1.00  0.00    +0.000 C 
ATOM     44  C33 UNL A   1      41.572  23.997  27.934  1.00  0.00    +0.000 C 
ATOM     45  C34 UNL A   1      41.661  25.249  28.535  1.00  0.00    +0.000 C 
ATOM    137  H32 UNL A   1      42.425  25.450  29.200  1.00  0.00    +0.000 H 
ATOM     46  C35 UNL A   1      40.717  26.233  28.239  1.00  0.00    +0.000 C 
ATOM    148  H43 UNL A   1      39.084  26.753  27.008  1.00  0.00    +0.000 H 
ATOM    149  H44 UNL A   1      38.917  24.570  25.986  1.00  0.00    +0.000 H 
BRANCH   43    2
ATOM      1  O1  UNL A   1      39.054  21.947  26.596  1.00  0.00    +0.000 O 
ATOM      2  C1  UNL A   1      40.206  22.374  26.479  1.00  0.00    +0.000 C 
BRANCH    2    3
ATOM    106  H1  UNL A   1      40.919  21.401  24.927  1.00  0.00    +0.000 H 
ATOM      3  N1  UNL A   1      41.101  21.531  25.886  1.00  0.00    +0.000 N 
BRANCH    3    4
ATOM    108  H3  UNL A   1      42.237  20.808  27.408  1.00  0.00    +0.000 H 
ATOM    107  H2  UNL A   1      42.186  19.792  25.947  1.00  0.00    +0.000 H 
ATOM      4  C2  UNL A   1      42.254  20.785  26.338  1.00  0.00    +0.000 C 
BRANCH    4    5
ATOM    109  H4  UNL A   1      44.205  20.587  25.534  1.00  0.00    +0.000 H 
ATOM      5  C3  UNL A   1      43.593  21.381  25.904  1.00  0.00    +0.000 C 
ATOM    110  H5  UNL A   1      44.000  21.864  26.768  1.00  0.00    +0.000 H 
BRANCH    5    6
ATOM      6  C4  UNL A   1      43.499  22.457  24.815  1.00  0.00    +0.000 C 
ATOM    111  H6  UNL A   1      43.381  23.403  25.297  1.00  0.00    +0.000 H 
ATOM    112  H7  UNL A   1      42.669  22.176  24.200  1.00  0.00    +0.000 H 
BRANCH    6    7
ATOM    113  H8  UNL A   1      44.578  23.433  23.270  1.00  0.00    +0.000 H 
ATOM    114  H9  UNL A   1      44.708  21.646  23.308  1.00  0.00    +0.000 H 
ATOM      7  C5  UNL A   1      44.701  22.556  23.871  1.00  0.00    +0.000 C 
BRANCH    7    8
ATOM    115  H10 UNL A   1      46.663  21.817  24.208  1.00  0.00    +0.000 H 
ATOM    116  H11 UNL A   1      45.884  22.612  25.606  1.00  0.00    +0.000 H 
ATOM      8  C6  UNL A   1      46.069  22.639  24.552  1.00  0.00    +0.000 C 
BRANCH    8    9
ATOM      9  C7  UNL A   1      46.840  23.927  24.284  1.00  0.00    +0.000 C 
ATOM    117  H12 UNL A   1      46.502  24.344  23.359  1.00  0.00    +0.000 H 
ATOM    118  H13 UNL A   1      47.881  23.683  24.247  1.00  0.00    +0.000 H 
BRANCH    9   10
ATOM     10  N2  UNL A   1      46.655  24.915  25.336  1.00  0.00    +0.000 N 
ATOM    119  H14 UNL A   1      47.478  25.328  25.682  1.00  0.00    +0.000 H 
BRANCH   10   11
ATOM     11  C8  UNL A   1      45.487  25.350  25.909  1.00  0.00    +0.000 C 
ATOM     12  O2  UNL A   1      44.609  25.872  25.224  1.00  0.00    +0.000 O 
BRANCH   11   13
ATOM    134  H29 UNL A   1      45.027  26.885  30.219  1.00  0.00    +0.000 H 
ATOM    135  H30 UNL A   1      45.280  27.232  27.825  1.00  0.00    +0.000 H 
ATOM     41  C30 UNL A   1      45.079  26.077  29.580  1.00  0.00    +0.000 C 
ATOM     42  C31 UNL A   1      45.219  26.276  28.209  1.00  0.00    +0.000 C 
ATOM     13  C9  UNL A   1      45.278  25.169  27.358  1.00  0.00    +0.000 C 
ATOM     14  C10 UNL A   1      45.143  23.869  27.861  1.00  0.00    +0.000 C 
ATOM     15  C11 UNL A   1      45.045  23.662  29.239  1.00  0.00    +0.000 C 
ATOM     16  C12 UNL A   1      45.008  24.767  30.090  1.00  0.00    +0.000 C 
ATOM    120  H15 UNL A   1      45.116  23.065  27.216  1.00  0.00    +0.000 H 
ATOM    121  H16 UNL A   1      45.001  22.704  29.622  1.00  0.00    +0.000 H 
BRANCH   16   17
ATOM     39  N6  UNL A   1      44.144  23.672  33.329  1.00  0.00    +0.000 N 
ATOM     40  N7  UNL A   1      44.072  23.560  32.001  1.00  0.00    +0.000 N 
ATOM     17  N3  UNL A   1      44.779  24.575  31.464  1.00  0.00    +0.000 N 
ATOM     18  C13 UNL A   1      45.247  25.383  32.458  1.00  0.00    +0.000 C 
ATOM     19  C14 UNL A   1      44.812  24.836  33.637  1.00  0.00    +0.000 C 
ATOM    122  H17 UNL A   1      45.816  26.236  32.345  1.00  0.00    +0.000 H 
BRANCH   19   20
ATOM    124  H19 UNL A   1      46.153  24.721  35.095  1.00  0.00    +0.000 H 
ATOM    123  H18 UNL A   1      45.094  26.252  35.089  1.00  0.00    +0.000 H 
ATOM     20  C15 UNL A   1      45.194  25.189  35.024  1.00  0.00    +0.000 C 
BRANCH   20   21
ATOM     21  S1  UNL A   1      44.390  24.536  36.489  1.00  0.00    +0.000 S 
BRANCH   21   22
ATOM    127  H22 UNL A   1      47.769  27.965  42.409  1.00  0.00    +0.000 H 
ATOM    126  H21 UNL A   1      45.450  28.649  42.160  1.00  0.00    +0.000 H 
ATOM    128  H23 UNL A   1      48.659  26.192  40.997  1.00  0.00    +0.000 H 
ATOM    125  H20 UNL A   1      44.096  27.740  40.360  1.00  0.00    +0.000 H 
ATOM     22  C16 UNL A   1      45.246  24.854  37.974  1.00  0.00    +0.000 C 
ATOM     23  N4  UNL A   1      44.891  25.985  38.516  1.00  0.00    +0.000 N 
ATOM     24  C17 UNL A   1      45.584  26.424  39.652  1.00  0.00    +0.000 C 
ATOM     25  C18 UNL A   1      45.063  27.406  40.494  1.00  0.00    +0.000 C 
ATOM     26  C19 UNL A   1      45.850  27.943  41.522  1.00  0.00    +0.000 C 
ATOM     27  C20 UNL A   1      47.174  27.527  41.688  1.00  0.00    +0.000 C 
ATOM     28  C21 UNL A   1      47.687  26.518  40.879  1.00  0.00    +0.000 C 
ATOM     29  C22 UNL A   1      46.863  25.952  39.901  1.00  0.00    +0.000 C 
ATOM     30  C23 UNL A   1      47.251  24.753  39.149  1.00  0.00    +0.000 C 
ATOM     31  O3  UNL A   1      48.444  24.466  39.073  1.00  0.00    +0.000 O 
ATOM     32  N5  UNL A   1      46.193  24.041  38.572  1.00  0.00    +0.000 N 
BRANCH   32   33
ATOM     33  C24 UNL A   1      46.243  22.594  38.609  1.00  0.00    +0.000 C 
ATOM     34  C25 UNL A   1      45.898  21.917  39.800  1.00  0.00    +0.000 C 
ATOM    129  H24 UNL A   1      45.420  22.439  40.550  1.00  0.00    +0.000 H 
ATOM     35  C26 UNL A   1      46.183  20.563  39.996  1.00  0.00    +0.000 C 
ATOM    133  H28 UNL A   1      46.681  22.177  36.589  1.00  0.00    +0.000 H 
ATOM     38  C29 UNL A   1      46.644  21.783  37.542  1.00  0.00    +0.000 C 
ATOM     37  C28 UNL A   1      46.996  20.440  37.750  1.00  0.00    +0.000 C 
ATOM    130  H25 UNL A   1      45.935  20.105  40.886  1.00  0.00    +0.000 H 
ATOM     36  C27 UNL A   1      46.801  19.841  38.988  1.00  0.00    +0.000 C 
ATOM    132  H27 UNL A   1      47.403  19.893  36.975  1.00  0.00    +0.000 H 
ATOM    131  H26 UNL A   1      47.112  18.871  39.155  1.00  0.00    +0.000 H 
ENDBRANCH   32   33
ENDBRANCH   21   22
ENDBRANCH   20   21
ENDBRANCH   19   20
ENDBRANCH   16   17
ENDBRANCH   11   13
ENDBRANCH   10   11
ENDBRANCH    9   10
ENDBRANCH    8    9
ENDBRANCH    7    8
ENDBRANCH    6    7
ENDBRANCH    5    6
ENDBRANCH    4    5
ENDBRANCH    3    4
ENDBRANCH    2    3
ENDBRANCH   43    2
ENDBRANCH   47   46
BRANCH   51   52
ATOM     52  C40 UNL A   1      44.727  31.900  27.721  1.00  0.00    +0.000 C 
ATOM     53  C41 UNL A   1      45.906  32.132  26.981  1.00  0.00    +0.000 C 
ATOM     54  F1  UNL A   1      46.724  31.119  26.658  1.00  0.00    +0.000 F 
ATOM     55  C42 UNL A   1      46.331  33.422  26.650  1.00  0.00    +0.000 C 
ATOM     56  F2  UNL A   1      47.530  33.601  26.079  1.00  0.00    +0.000 F 
ATOM     57  C43 UNL A   1      45.560  34.520  26.980  1.00  0.00    +0.000 C 
ATOM     58  F3  UNL A   1      45.999  35.761  26.734  1.00  0.00    +0.000 F 
ATOM     59  C44 UNL A   1      44.351  34.328  27.612  1.00  0.00    +0.000 C 
ATOM     60  F4  UNL A   1      43.592  35.381  27.948  1.00  0.00    +0.000 F 
ATOM     61  C45 UNL A   1      43.948  33.047  27.989  1.00  0.00    +0.000 C 
ATOM     62  F5  UNL A   1      42.828  33.001  28.716  1.00  0.00    +0.000 F 
ENDBRANCH   51   52
BRANCH   68   69
ATOM     69  C51 UNL A   1      42.628  29.760  33.807  1.00  0.00    +0.000 C 
ATOM     70  C52 UNL A   1      42.098  28.458  33.778  1.00  0.00    +0.000 C 
ATOM     71  F6  UNL A   1      41.674  27.916  32.628  1.00  0.00    +0.000 F 
ATOM     72  C53 UNL A   1      42.053  27.671  34.928  1.00  0.00    +0.000 C 
ATOM     73  F7  UNL A   1      41.533  26.436  34.878  1.00  0.00    +0.000 F 
ATOM     74  C54 UNL A   1      42.583  28.149  36.116  1.00  0.00    +0.000 C 
ATOM     75  F8  UNL A   1      42.581  27.377  37.211  1.00  0.00    +0.000 F 
ATOM     76  C55 UNL A   1      43.143  29.416  36.160  1.00  0.00    +0.000 C 
ATOM     77  F9  UNL A   1      43.704  29.861  37.293  1.00  0.00    +0.000 F 
ATOM     78  C56 UNL A   1      43.154  30.217  35.022  1.00  0.00    +0.000 C 
ATOM     79  F10 UNL A   1      43.728  31.428  35.092  1.00  0.00    +0.000 F 
ENDBRANCH   68   69
BRANCH   83   84
ATOM     84  C60 UNL A   1      37.062  31.447  31.386  1.00  0.00    +0.000 C 
ATOM     85  C61 UNL A   1      36.379  31.859  32.542  1.00  0.00    +0.000 C 
ATOM     86  F11 UNL A   1      36.796  31.455  33.751  1.00  0.00    +0.000 F 
ATOM     87  C62 UNL A   1      35.298  32.746  32.478  1.00  0.00    +0.000 C 
ATOM     88  F12 UNL A   1      34.706  33.161  33.607  1.00  0.00    +0.000 F 
ATOM     89  C63 UNL A   1      34.871  33.243  31.258  1.00  0.00    +0.000 C 
ATOM     90  F13 UNL A   1      33.875  34.140  31.201  1.00  0.00    +0.000 F 
ATOM     91  C64 UNL A   1      35.509  32.842  30.099  1.00  0.00    +0.000 C 
ATOM     92  F14 UNL A   1      35.132  33.347  28.917  1.00  0.00    +0.000 F 
ATOM     93  C65 UNL A   1      36.589  31.961  30.163  1.00  0.00    +0.000 C 
ATOM     94  F15 UNL A   1      37.227  31.695  29.014  1.00  0.00    +0.000 F 
ENDBRANCH   83   84
TORSDOF 20
ENDMDL
MODEL 3
REMARK VINA RESULT:      -9.5      1.366      2.619
ROOT
ATOM    138  H33 UNL A   1      46.434  28.940  30.067  1.00  0.00    +0.000 H 
ATOM    139  H34 UNL A   1      45.205  28.918  32.431  1.00  0.00    +0.000 H 
ATOM    140  H35 UNL A   1      44.192  32.255  30.426  1.00  0.00    +0.000 H 
ATOM    141  H36 UNL A   1      36.975  28.254  30.893  1.00  0.00    +0.000 H 
ATOM    142  H37 UNL A   1      38.434  26.474  29.803  1.00  0.00    +0.000 H 
ATOM    143  H38 UNL A   1      40.746  29.910  30.152  1.00  0.00    +0.000 H 
ATOM    144  H39 UNL A   1      39.719  32.941  29.704  1.00  0.00    +0.000 H 
ATOM    145  H40 UNL A   1      42.242  32.579  30.100  1.00  0.00    +0.000 H 
ATOM    146  H41 UNL A   1      43.654  29.478  25.656  1.00  0.00    +0.000 H 
ATOM    147  H42 UNL A   1      41.420  28.237  25.957  1.00  0.00    +0.000 H 
ATOM     47  C36 UNL A   1      40.882  27.550  28.685  1.00  0.00    +0.000 C 
ATOM     48  C37 UNL A   1      42.009  28.363  28.146  1.00  0.00    +0.000 C 
ATOM     49  N8  UNL A   1      43.022  28.854  28.786  1.00  0.00    +0.000 N 
ATOM     50  C38 UNL A   1      43.752  29.581  27.847  1.00  0.00    +0.000 C 
ATOM     51  C39 UNL A   1      44.587  30.590  28.223  1.00  0.00    +0.000 C 
ATOM     63  C46 UNL A   1      44.963  30.468  29.609  1.00  0.00    +0.000 C 
ATOM     64  C47 UNL A   1      45.634  29.524  30.360  1.00  0.00    +0.000 C 
ATOM     65  C48 UNL A   1      44.983  29.529  31.629  1.00  0.00    +0.000 C 
ATOM     66  C49 UNL A   1      43.992  30.509  31.589  1.00  0.00    +0.000 C 
ATOM     67  N9  UNL A   1      44.348  31.288  30.521  1.00  0.00    +0.000 N 
ATOM     68  C50 UNL A   1      42.786  30.717  32.349  1.00  0.00    +0.000 C 
ATOM     80  C57 UNL A   1      41.710  31.431  31.909  1.00  0.00    +0.000 C 
ATOM     81  N10 UNL A   1      40.449  31.223  32.447  1.00  0.00    +0.000 N 
ATOM     82  C58 UNL A   1      39.624  31.557  31.493  1.00  0.00    +0.000 C 
ATOM     83  C59 UNL A   1      38.370  30.818  31.201  1.00  0.00    +0.000 C 
ATOM     95  C66 UNL A   1      38.726  29.597  30.725  1.00  0.00    +0.000 C 
ATOM     96  C67 UNL A   1      37.948  28.386  30.577  1.00  0.00    +0.000 C 
ATOM     97  C68 UNL A   1      38.707  27.456  29.959  1.00  0.00    +0.000 C 
ATOM     98  C69 UNL A   1      39.975  28.058  29.546  1.00  0.00    +0.000 C 
ATOM     99  N11 UNL A   1      39.972  29.302  30.139  1.00  0.00    +0.000 N 
ATOM    100  C70 UNL A   1      40.185  32.383  30.437  1.00  0.00    +0.000 C 
ATOM    101  C71 UNL A   1      41.484  32.208  30.693  1.00  0.00    +0.000 C 
ATOM    102  C72 UNL A   1      43.217  29.233  26.558  1.00  0.00    +0.000 C 
ATOM    103  C73 UNL A   1      42.079  28.551  26.688  1.00  0.00    +0.000 C 
ENDROOT
BRANCH   47   46
ATOM    104  C74 UNL A   1      40.176  26.055  26.841  1.00  0.00    +0.000 C 
ATOM    105  C75 UNL A   1      40.088  24.781  26.300  1.00  0.00    +0.000 C 
ATOM    136  H31 UNL A   1      41.689  23.064  28.685  1.00  0.00    +0.000 H 
ATOM     43  C32 UNL A   1      40.579  23.657  26.994  1.00  0.00    +0.000 C 
ATOM     44  C33 UNL A   1      41.250  23.862  28.201  1.00  0.00    +0.000 C 
ATOM     45  C34 UNL A   1      41.329  25.136  28.756  1.00  0.00    +0.000 C 
ATOM    137  H32 UNL A   1      41.814  25.278  29.657  1.00  0.00    +0.000 H 
ATOM     46  C35 UNL A   1      40.754  26.222  28.095  1.00  0.00    +0.000 C 
ATOM    148  H43 UNL A   1      39.816  26.870  26.319  1.00  0.00    +0.000 H 
ATOM    149  H44 UNL A   1      39.657  24.653  25.371  1.00  0.00    +0.000 H 
BRANCH   43    2
ATOM      1  O1  UNL A   1      39.091  21.941  26.417  1.00  0.00    +0.000 O 
ATOM      2  C1  UNL A   1      40.258  22.340  26.380  1.00  0.00    +0.000 C 
BRANCH    2    3
ATOM    106  H1  UNL A   1      40.857  21.102  24.975  1.00  0.00    +0.000 H 
ATOM      3  N1  UNL A   1      41.167  21.485  25.828  1.00  0.00    +0.000 N 
BRANCH    3    4
ATOM    108  H3  UNL A   1      42.408  20.676  27.218  1.00  0.00    +0.000 H 
ATOM    107  H2  UNL A   1      42.760  20.228  25.531  1.00  0.00    +0.000 H 
ATOM      4  C2  UNL A   1      42.480  21.011  26.204  1.00  0.00    +0.000 C 
BRANCH    4    5
ATOM    109  H4  UNL A   1      44.517  21.597  26.148  1.00  0.00    +0.000 H 
ATOM      5  C3  UNL A   1      43.566  22.086  26.169  1.00  0.00    +0.000 C 
ATOM    110  H5  UNL A   1      43.418  22.690  27.040  1.00  0.00    +0.000 H 
BRANCH    5    6
ATOM      6  C4  UNL A   1      43.495  23.038  24.969  1.00  0.00    +0.000 C 
ATOM    111  H6  UNL A   1      43.399  24.034  25.346  1.00  0.00    +0.000 H 
ATOM    112  H7  UNL A   1      42.658  22.710  24.387  1.00  0.00    +0.000 H 
BRANCH    6    7
ATOM    113  H8  UNL A   1      44.600  23.824  23.337  1.00  0.00    +0.000 H 
ATOM    114  H9  UNL A   1      44.675  22.047  23.550  1.00  0.00    +0.000 H 
ATOM      7  C5  UNL A   1      44.697  23.007  24.021  1.00  0.00    +0.000 C 
BRANCH    7    8
ATOM    115  H10 UNL A   1      46.524  22.145  24.676  1.00  0.00    +0.000 H 
ATOM    116  H11 UNL A   1      45.892  23.479  25.683  1.00  0.00    +0.000 H 
ATOM      8  C6  UNL A   1      46.069  23.113  24.692  1.00  0.00    +0.000 C 
BRANCH    8    9
ATOM      9  C7  UNL A   1      47.029  24.100  24.035  1.00  0.00    +0.000 C 
ATOM    117  H12 UNL A   1      46.629  24.385  23.084  1.00  0.00    +0.000 H 
ATOM    118  H13 UNL A   1      47.976  23.614  23.933  1.00  0.00    +0.000 H 
BRANCH    9   10
ATOM     10  N2  UNL A   1      47.229  25.298  24.835  1.00  0.00    +0.000 N 
ATOM    119  H14 UNL A   1      48.161  25.599  24.925  1.00  0.00    +0.000 H 
BRANCH   10   11
ATOM     11  C8  UNL A   1      46.293  26.066  25.479  1.00  0.00    +0.000 C 
ATOM     12  O2  UNL A   1      45.664  26.930  24.871  1.00  0.00    +0.000 O 
BRANCH   11   13
ATOM    134  H29 UNL A   1      47.578  25.379  29.841  1.00  0.00    +0.000 H 
ATOM    135  H30 UNL A   1      48.058  25.851  27.504  1.00  0.00    +0.000 H 
ATOM     41  C30 UNL A   1      46.809  25.454  29.158  1.00  0.00    +0.000 C 
ATOM     42  C31 UNL A   1      47.083  25.729  27.821  1.00  0.00    +0.000 C 
ATOM     13  C9  UNL A   1      46.026  25.836  26.912  1.00  0.00    +0.000 C 
ATOM     14  C10 UNL A   1      44.698  25.724  27.340  1.00  0.00    +0.000 C 
ATOM     15  C11 UNL A   1      44.419  25.406  28.671  1.00  0.00    +0.000 C 
ATOM     16  C12 UNL A   1      45.475  25.278  29.573  1.00  0.00    +0.000 C 
ATOM    120  H15 UNL A   1      43.926  25.876  26.673  1.00  0.00    +0.000 H 
ATOM    121  H16 UNL A   1      43.445  25.267  28.982  1.00  0.00    +0.000 H 
BRANCH   16   17
ATOM     39  N6  UNL A   1      45.164  25.392  33.084  1.00  0.00    +0.000 N 
ATOM     40  N7  UNL A   1      45.720  25.816  31.947  1.00  0.00    +0.000 N 
ATOM     17  N3  UNL A   1      45.200  25.087  30.939  1.00  0.00    +0.000 N 
ATOM     18  C13 UNL A   1      44.357  24.142  31.445  1.00  0.00    +0.000 C 
ATOM     19  C14 UNL A   1      44.364  24.307  32.805  1.00  0.00    +0.000 C 
ATOM    122  H17 UNL A   1      43.820  23.442  30.910  1.00  0.00    +0.000 H 
BRANCH   19   20
ATOM    124  H19 UNL A   1      42.602  24.284  33.719  1.00  0.00    +0.000 H 
ATOM    123  H18 UNL A   1      43.472  22.641  33.596  1.00  0.00    +0.000 H 
ATOM     20  C15 UNL A   1      43.484  23.687  33.824  1.00  0.00    +0.000 C 
BRANCH   20   21
ATOM     21  S1  UNL A   1      43.757  23.795  35.594  1.00  0.00    +0.000 S 
BRANCH   21   22
ATOM    127  H22 UNL A   1      50.097  19.675  36.617  1.00  0.00    +0.000 H 
ATOM    126  H21 UNL A   1      49.661  20.111  34.267  1.00  0.00    +0.000 H 
ATOM    128  H23 UNL A   1      48.704  20.728  38.315  1.00  0.00    +0.000 H 
ATOM    125  H20 UNL A   1      47.709  21.395  33.605  1.00  0.00    +0.000 H 
ATOM     22  C16 UNL A   1      45.326  23.238  36.109  1.00  0.00    +0.000 C 
ATOM     23  N4  UNL A   1      45.877  22.441  35.237  1.00  0.00    +0.000 N 
ATOM     24  C17 UNL A   1      47.090  21.824  35.574  1.00  0.00    +0.000 C 
ATOM     25  C18 UNL A   1      47.919  21.258  34.606  1.00  0.00    +0.000 C 
ATOM     26  C19 UNL A   1      49.036  20.503  34.987  1.00  0.00    +0.000 C 
ATOM     27  C20 UNL A   1      49.307  20.279  36.340  1.00  0.00    +0.000 C 
ATOM     28  C21 UNL A   1      48.509  20.875  37.312  1.00  0.00    +0.000 C 
ATOM     29  C22 UNL A   1      47.437  21.676  36.908  1.00  0.00    +0.000 C 
ATOM     30  C23 UNL A   1      46.678  22.502  37.854  1.00  0.00    +0.000 C 
ATOM     31  O3  UNL A   1      46.701  22.204  39.046  1.00  0.00    +0.000 O 
ATOM     32  N5  UNL A   1      45.976  23.572  37.284  1.00  0.00    +0.000 N 
BRANCH   32   33
ATOM     33  C24 UNL A   1      45.961  24.834  37.995  1.00  0.00    +0.000 C 
ATOM     34  C25 UNL A   1      44.917  25.105  38.907  1.00  0.00    +0.000 C 
ATOM    129  H24 UNL A   1      44.306  24.331  39.209  1.00  0.00    +0.000 H 
ATOM     35  C26 UNL A   1      44.685  26.386  39.414  1.00  0.00    +0.000 C 
ATOM    133  H28 UNL A   1      47.806  25.643  37.373  1.00  0.00    +0.000 H 
ATOM     38  C29 UNL A   1      46.905  25.853  37.830  1.00  0.00    +0.000 C 
ATOM     37  C28 UNL A   1      46.643  27.157  38.279  1.00  0.00    +0.000 C 
ATOM    130  H25 UNL A   1      43.901  26.552  40.063  1.00  0.00    +0.000 H 
ATOM     36  C27 UNL A   1      45.513  27.431  39.038  1.00  0.00    +0.000 C 
ATOM    132  H27 UNL A   1      47.297  27.919  38.042  1.00  0.00    +0.000 H 
ATOM    131  H26 UNL A   1      45.293  28.399  39.319  1.00  0.00    +0.000 H 
ENDBRANCH   32   33
ENDBRANCH   21   22
ENDBRANCH   20   21
ENDBRANCH   19   20
ENDBRANCH   16   17
ENDBRANCH   11   13
ENDBRANCH   10   11
ENDBRANCH    9   10
ENDBRANCH    8    9
ENDBRANCH    7    8
ENDBRANCH    6    7
ENDBRANCH    5    6
ENDBRANCH    4    5
ENDBRANCH    3    4
ENDBRANCH    2    3
ENDBRANCH   43    2
ENDBRANCH   47   46
BRANCH   51   52
ATOM     52  C40 UNL A   1      44.742  31.893  27.467  1.00  0.00    +0.000 C 
ATOM     53  C41 UNL A   1      45.949  32.138  26.777  1.00  0.00    +0.000 C 
ATOM     54  F1  UNL A   1      46.808  31.140  26.524  1.00  0.00    +0.000 F 
ATOM     55  C42 UNL A   1      46.354  33.430  26.429  1.00  0.00    +0.000 C 
ATOM     56  F2  UNL A   1      47.574  33.627  25.911  1.00  0.00    +0.000 F 
ATOM     57  C43 UNL A   1      45.538  34.514  26.689  1.00  0.00    +0.000 C 
ATOM     58  F3  UNL A   1      45.954  35.760  26.428  1.00  0.00    +0.000 F 
ATOM     59  C44 UNL A   1      44.305  34.305  27.269  1.00  0.00    +0.000 C 
ATOM     60  F4  UNL A   1      43.502  35.345  27.537  1.00  0.00    +0.000 F 
ATOM     61  C45 UNL A   1      43.920  33.025  27.664  1.00  0.00    +0.000 C 
ATOM     62  F5  UNL A   1      42.768  32.967  28.338  1.00  0.00    +0.000 F 
ENDBRANCH   51   52
BRANCH   68   69
ATOM     69  C51 UNL A   1      42.613  29.889  33.589  1.00  0.00    +0.000 C 
ATOM     70  C52 UNL A   1      42.777  30.395  34.891  1.00  0.00    +0.000 C 
ATOM     71  F6  UNL A   1      43.137  31.670  35.091  1.00  0.00    +0.000 F 
ATOM     72  C53 UNL A   1      42.510  29.607  36.010  1.00  0.00    +0.000 C 
ATOM     73  F7  UNL A   1      42.683  30.108  37.242  1.00  0.00    +0.000 F 
ATOM     74  C54 UNL A   1      42.027  28.318  35.851  1.00  0.00    +0.000 C 
ATOM     75  F8  UNL A   1      41.727  27.576  36.926  1.00  0.00    +0.000 F 
ATOM     76  C55 UNL A   1      41.824  27.810  34.578  1.00  0.00    +0.000 C 
ATOM     77  F9  UNL A   1      41.307  26.584  34.420  1.00  0.00    +0.000 F 
ATOM     78  C56 UNL A   1      42.126  28.582  33.460  1.00  0.00    +0.000 C 
ATOM     79  F10 UNL A   1      41.893  28.070  32.241  1.00  0.00    +0.000 F 
ENDBRANCH   68   69
BRANCH   83   84
ATOM     84  C60 UNL A   1      37.056  31.492  31.093  1.00  0.00    +0.000 C 
ATOM     85  C61 UNL A   1      36.292  31.791  32.233  1.00  0.00    +0.000 C 
ATOM     86  F11 UNL A   1      36.637  31.284  33.426  1.00  0.00    +0.000 F 
ATOM     87  C62 UNL A   1      35.204  32.669  32.179  1.00  0.00    +0.000 C 
ATOM     88  F12 UNL A   1      34.534  32.975  33.298  1.00  0.00    +0.000 F 
ATOM     89  C63 UNL A   1      34.849  33.271  30.983  1.00  0.00    +0.000 C 
ATOM     90  F13 UNL A   1      33.845  34.158  30.940  1.00  0.00    +0.000 F 
ATOM     91  C64 UNL A   1      35.567  32.982  29.837  1.00  0.00    +0.000 C 
ATOM     92  F14 UNL A   1      35.259  33.588  28.682  1.00  0.00    +0.000 F 
ATOM     93  C65 UNL A   1      36.654  32.110  29.892  1.00  0.00    +0.000 C 
ATOM     94  F15 UNL A   1      37.369  31.955  28.768  1.00  0.00    +0.000 F 
ENDBRANCH   83   84
TORSDOF 20
ENDMDL
MODEL 4
REMARK VINA RESULT:      -9.4     40.318     45.679
ROOT
ATOM    138  H33 UNL A   1      12.539  55.154   9.538  1.00  0.00    +0.000 H 
ATOM    139  H34 UNL A   1      14.373  53.294  10.066  1.00  0.00    +0.000 H 
ATOM    140  H35 UNL A   1      12.705  54.547  13.506  1.00  0.00    +0.000 H 
ATOM    141  H36 UNL A   1      10.281  46.652  13.177  1.00  0.00    +0.000 H 
ATOM    142  H37 UNL A   1       9.429  47.503  10.933  1.00  0.00    +0.000 H 
ATOM    143  H38 UNL A   1      11.013  50.767  12.961  1.00  0.00    +0.000 H 
ATOM    144  H39 UNL A   1      10.753  51.338  16.132  1.00  0.00    +0.000 H 
ATOM    145  H40 UNL A   1      11.847  53.162  14.673  1.00  0.00    +0.000 H 
ATOM    146  H41 UNL A   1       7.627  54.581  11.276  1.00  0.00    +0.000 H 
ATOM    147  H42 UNL A   1       7.024  52.082  11.172  1.00  0.00    +0.000 H 
ATOM     47  C36 UNL A   1       9.308  50.396  10.795  1.00  0.00    +0.000 C 
ATOM     48  C37 UNL A   1       9.278  51.869  11.016  1.00  0.00    +0.000 C 
ATOM     49  N8  UNL A   1      10.269  52.702  10.997  1.00  0.00    +0.000 N 
ATOM     50  C38 UNL A   1       9.729  53.947  11.320  1.00  0.00    +0.000 C 
ATOM     51  C39 UNL A   1      10.499  54.940  11.845  1.00  0.00    +0.000 C 
ATOM     63  C46 UNL A   1      11.895  54.723  11.565  1.00  0.00    +0.000 C 
ATOM     64  C47 UNL A   1      12.658  54.627  10.418  1.00  0.00    +0.000 C 
ATOM     65  C48 UNL A   1      13.648  53.643  10.713  1.00  0.00    +0.000 C 
ATOM     66  C49 UNL A   1      13.459  53.240  12.034  1.00  0.00    +0.000 C 
ATOM     67  N9  UNL A   1      12.690  54.237  12.572  1.00  0.00    +0.000 N 
ATOM     68  C50 UNL A   1      13.831  52.053  12.761  1.00  0.00    +0.000 C 
ATOM     80  C57 UNL A   1      13.198  51.605  13.884  1.00  0.00    +0.000 C 
ATOM     81  N10 UNL A   1      13.280  50.274  14.264  1.00  0.00    +0.000 N 
ATOM     82  C58 UNL A   1      12.183  50.055  14.935  1.00  0.00    +0.000 C 
ATOM     83  C59 UNL A   1      11.405  48.794  14.839  1.00  0.00    +0.000 C 
ATOM     95  C66 UNL A   1      10.876  48.743  13.590  1.00  0.00    +0.000 C 
ATOM     96  C67 UNL A   1      10.307  47.632  12.858  1.00  0.00    +0.000 C 
ATOM     97  C68 UNL A   1       9.815  48.091  11.687  1.00  0.00    +0.000 C 
ATOM     98  C69 UNL A   1       9.914  49.551  11.655  1.00  0.00    +0.000 C 
ATOM     99  N11 UNL A   1      10.665  49.866  12.767  1.00  0.00    +0.000 N 
ATOM    100  C70 UNL A   1      11.496  51.239  15.423  1.00  0.00    +0.000 C 
ATOM    101  C71 UNL A   1      12.111  52.165  14.681  1.00  0.00    +0.000 C 
ATOM    102  C72 UNL A   1       8.300  53.799  11.252  1.00  0.00    +0.000 C 
ATOM    103  C73 UNL A   1       7.962  52.513  11.155  1.00  0.00    +0.000 C 
ENDROOT
BRANCH   47   46
ATOM    104  C74 UNL A   1       7.120  49.859   9.766  1.00  0.00    +0.000 C 
ATOM    105  C75 UNL A   1       6.385  49.434   8.668  1.00  0.00    +0.000 C 
ATOM    136  H31 UNL A   1       8.866  49.101   6.447  1.00  0.00    +0.000 H 
ATOM     43  C32 UNL A   1       7.016  49.086   7.457  1.00  0.00    +0.000 C 
ATOM     44  C33 UNL A   1       8.396  49.271   7.349  1.00  0.00    +0.000 C 
ATOM     45  C34 UNL A   1       9.140  49.683   8.451  1.00  0.00    +0.000 C 
ATOM    137  H32 UNL A   1      10.162  49.803   8.368  1.00  0.00    +0.000 H 
ATOM     46  C35 UNL A   1       8.505  49.933   9.667  1.00  0.00    +0.000 C 
ATOM    148  H43 UNL A   1       6.644  50.115  10.645  1.00  0.00    +0.000 H 
ATOM    149  H44 UNL A   1       5.358  49.374   8.738  1.00  0.00    +0.000 H 
BRANCH   43    2
ATOM      1  O1  UNL A   1       5.512  47.449   6.714  1.00  0.00    +0.000 O 
ATOM      2  C1  UNL A   1       6.128  48.480   6.429  1.00  0.00    +0.000 C 
BRANCH    2    3
ATOM    106  H1  UNL A   1       5.849  48.201   4.503  1.00  0.00    +0.000 H 
ATOM      3  N1  UNL A   1       5.981  48.932   5.149  1.00  0.00    +0.000 N 
BRANCH    3    4
ATOM    108  H3  UNL A   1       5.422  50.137   3.611  1.00  0.00    +0.000 H 
ATOM    107  H2  UNL A   1       5.533  50.932   5.200  1.00  0.00    +0.000 H 
ATOM      4  C2  UNL A   1       5.976  50.234   4.522  1.00  0.00    +0.000 C 
BRANCH    4    5
ATOM    109  H4  UNL A   1       7.332  51.071   3.123  1.00  0.00    +0.000 H 
ATOM      5  C3  UNL A   1       7.364  50.749   4.142  1.00  0.00    +0.000 C 
ATOM    110  H5  UNL A   1       8.042  49.938   4.311  1.00  0.00    +0.000 H 
BRANCH    5    6
ATOM      6  C4  UNL A   1       7.875  51.919   4.993  1.00  0.00    +0.000 C 
ATOM    111  H6  UNL A   1       8.229  52.678   4.328  1.00  0.00    +0.000 H 
ATOM    112  H7  UNL A   1       8.633  51.508   5.627  1.00  0.00    +0.000 H 
BRANCH    6    7
ATOM    113  H8  UNL A   1       6.010  51.895   6.005  1.00  0.00    +0.000 H 
ATOM    114  H9  UNL A   1       6.610  53.509   5.505  1.00  0.00    +0.000 H 
ATOM      7  C5  UNL A   1       6.848  52.557   5.933  1.00  0.00    +0.000 C 
BRANCH    7    8
ATOM    115  H10 UNL A   1       8.267  52.325   7.495  1.00  0.00    +0.000 H 
ATOM    116  H11 UNL A   1       6.569  52.521   8.015  1.00  0.00    +0.000 H 
ATOM      8  C6  UNL A   1       7.344  52.847   7.352  1.00  0.00    +0.000 C 
BRANCH    8    9
ATOM      9  C7  UNL A   1       7.579  54.322   7.660  1.00  0.00    +0.000 C 
ATOM    117  H12 UNL A   1       7.753  54.430   8.710  1.00  0.00    +0.000 H 
ATOM    118  H13 UNL A   1       6.709  54.863   7.348  1.00  0.00    +0.000 H 
BRANCH    9   10
ATOM     10  N2  UNL A   1       8.719  54.866   6.940  1.00  0.00    +0.000 N 
ATOM    119  H14 UNL A   1       8.624  54.910   5.962  1.00  0.00    +0.000 H 
BRANCH   10   11
ATOM     11  C8  UNL A   1       9.910  55.326   7.441  1.00  0.00    +0.000 C 
ATOM     12  O2  UNL A   1       9.976  56.422   7.995  1.00  0.00    +0.000 O 
BRANCH   11   13
ATOM    134  H29 UNL A   1      14.348  54.616   6.468  1.00  0.00    +0.000 H 
ATOM    135  H30 UNL A   1      12.404  56.054   6.726  1.00  0.00    +0.000 H 
ATOM     41  C30 UNL A   1      13.444  54.218   6.765  1.00  0.00    +0.000 C 
ATOM     42  C31 UNL A   1      12.332  55.042   6.917  1.00  0.00    +0.000 C 
ATOM     13  C9  UNL A   1      11.118  54.486   7.330  1.00  0.00    +0.000 C 
ATOM     14  C10 UNL A   1      11.022  53.125   7.643  1.00  0.00    +0.000 C 
ATOM     15  C11 UNL A   1      12.122  52.286   7.452  1.00  0.00    +0.000 C 
ATOM     16  C12 UNL A   1      13.328  52.838   7.019  1.00  0.00    +0.000 C 
ATOM    120  H15 UNL A   1      10.140  52.741   8.015  1.00  0.00    +0.000 H 
ATOM    121  H16 UNL A   1      12.044  51.272   7.627  1.00  0.00    +0.000 H 
BRANCH   16   17
ATOM     39  N6  UNL A   1      16.289  50.989   7.519  1.00  0.00    +0.000 N 
ATOM     40  N7  UNL A   1      15.401  51.902   7.919  1.00  0.00    +0.000 N 
ATOM     17  N3  UNL A   1      14.475  52.027   6.947  1.00  0.00    +0.000 N 
ATOM     18  C13 UNL A   1      14.814  51.240   5.887  1.00  0.00    +0.000 C 
ATOM     19  C14 UNL A   1      15.983  50.613   6.230  1.00  0.00    +0.000 C 
ATOM    122  H17 UNL A   1      14.294  51.136   5.002  1.00  0.00    +0.000 H 
BRANCH   19   20
ATOM    124  H19 UNL A   1      16.937  49.975   4.611  1.00  0.00    +0.000 H 
ATOM    123  H18 UNL A   1      17.446  49.180   6.216  1.00  0.00    +0.000 H 
ATOM     20  C15 UNL A   1      16.685  49.506   5.539  1.00  0.00    +0.000 C 
BRANCH   20   21
ATOM     21  S1  UNL A   1      15.882  48.011   4.954  1.00  0.00    +0.000 S 
BRANCH   21   22
ATOM    127  H22 UNL A   1       9.814  50.549   1.086  1.00  0.00    +0.000 H 
ATOM    126  H21 UNL A   1      11.564  49.735  -0.391  1.00  0.00    +0.000 H 
ATOM    128  H23 UNL A   1      10.047  50.270   3.495  1.00  0.00    +0.000 H 
ATOM    125  H20 UNL A   1      13.634  48.864   0.532  1.00  0.00    +0.000 H 
ATOM     22  C16 UNL A   1      14.266  48.259   4.351  1.00  0.00    +0.000 C 
ATOM     23  N4  UNL A   1      14.260  48.686   3.118  1.00  0.00    +0.000 N 
ATOM     24  C17 UNL A   1      13.031  49.041   2.545  1.00  0.00    +0.000 C 
ATOM     25  C18 UNL A   1      12.874  49.158   1.164  1.00  0.00    +0.000 C 
ATOM     26  C19 UNL A   1      11.686  49.677   0.631  1.00  0.00    +0.000 C 
ATOM     27  C20 UNL A   1      10.665  50.115   1.479  1.00  0.00    +0.000 C 
ATOM     28  C21 UNL A   1      10.797  49.962   2.857  1.00  0.00    +0.000 C 
ATOM     29  C22 UNL A   1      11.965  49.384   3.362  1.00  0.00    +0.000 C 
ATOM     30  C23 UNL A   1      12.101  48.998   4.771  1.00  0.00    +0.000 C 
ATOM     31  O3  UNL A   1      11.368  49.532   5.601  1.00  0.00    +0.000 O 
ATOM     32  N5  UNL A   1      13.085  48.039   5.037  1.00  0.00    +0.000 N 
BRANCH   32   33
ATOM     33  C24 UNL A   1      12.788  47.006   6.008  1.00  0.00    +0.000 C 
ATOM     34  C25 UNL A   1      12.120  45.833   5.593  1.00  0.00    +0.000 C 
ATOM    129  H24 UNL A   1      12.042  45.634   4.584  1.00  0.00    +0.000 H 
ATOM     35  C26 UNL A   1      11.562  44.932   6.503  1.00  0.00    +0.000 C 
ATOM    133  H28 UNL A   1      13.770  47.785   7.703  1.00  0.00    +0.000 H 
ATOM     38  C29 UNL A   1      13.089  47.084   7.372  1.00  0.00    +0.000 C 
ATOM     37  C28 UNL A   1      12.476  46.224   8.297  1.00  0.00    +0.000 C 
ATOM    130  H25 UNL A   1      11.064  44.095   6.165  1.00  0.00    +0.000 H 
ATOM     36  C27 UNL A   1      11.681  45.170   7.863  1.00  0.00    +0.000 C 
ATOM    132  H27 UNL A   1      12.618  46.375   9.307  1.00  0.00    +0.000 H 
ATOM    131  H26 UNL A   1      11.186  44.573   8.544  1.00  0.00    +0.000 H 
ENDBRANCH   32   33
ENDBRANCH   21   22
ENDBRANCH   20   21
ENDBRANCH   19   20
ENDBRANCH   16   17
ENDBRANCH   11   13
ENDBRANCH   10   11
ENDBRANCH    9   10
ENDBRANCH    8    9
ENDBRANCH    7    8
ENDBRANCH    6    7
ENDBRANCH    5    6
ENDBRANCH    4    5
ENDBRANCH    3    4
ENDBRANCH    2    3
ENDBRANCH   43    2
ENDBRANCH   47   46
BRANCH   51   52
ATOM     52  C40 UNL A   1      10.043  55.882  12.941  1.00  0.00    +0.000 C 
ATOM     53  C41 UNL A   1      10.379  57.249  12.844  1.00  0.00    +0.000 C 
ATOM     54  F1  UNL A   1      10.807  57.769  11.685  1.00  0.00    +0.000 F 
ATOM     55  C42 UNL A   1      10.390  58.090  13.961  1.00  0.00    +0.000 C 
ATOM     56  F2  UNL A   1      10.860  59.339  13.848  1.00  0.00    +0.000 F 
ATOM     57  C43 UNL A   1       9.996  57.617  15.198  1.00  0.00    +0.000 C 
ATOM     58  F3  UNL A   1      10.079  58.395  16.284  1.00  0.00    +0.000 F 
ATOM     59  C44 UNL A   1       9.562  56.314  15.314  1.00  0.00    +0.000 C 
ATOM     60  F4  UNL A   1       9.184  55.834  16.507  1.00  0.00    +0.000 F 
ATOM     61  C45 UNL A   1       9.598  55.459  14.213  1.00  0.00    +0.000 C 
ATOM     62  F5  UNL A   1       9.285  54.187  14.478  1.00  0.00    +0.000 F 
ENDBRANCH   51   52
BRANCH   68   69
ATOM     69  C51 UNL A   1      14.811  51.129  12.097  1.00  0.00    +0.000 C 
ATOM     70  C52 UNL A   1      14.436  50.104  11.210  1.00  0.00    +0.000 C 
ATOM     71  F6  UNL A   1      13.145  49.876  10.933  1.00  0.00    +0.000 F 
ATOM     72  C53 UNL A   1      15.393  49.338  10.548  1.00  0.00    +0.000 C 
ATOM     73  F7  UNL A   1      15.012  48.359   9.714  1.00  0.00    +0.000 F 
ATOM     74  C54 UNL A   1      16.741  49.613  10.718  1.00  0.00    +0.000 C 
ATOM     75  F8  UNL A   1      17.661  48.907  10.047  1.00  0.00    +0.000 F 
ATOM     76  C55 UNL A   1      17.133  50.642  11.560  1.00  0.00    +0.000 C 
ATOM     77  F9  UNL A   1      18.432  50.946  11.686  1.00  0.00    +0.000 F 
ATOM     78  C56 UNL A   1      16.179  51.383  12.251  1.00  0.00    +0.000 C 
ATOM     79  F10 UNL A   1      16.591  52.389  13.038  1.00  0.00    +0.000 F 
ENDBRANCH   68   69
BRANCH   83   84
ATOM     84  C60 UNL A   1      11.004  48.014  16.033  1.00  0.00    +0.000 C 
ATOM     85  C61 UNL A   1       9.810  48.291  16.719  1.00  0.00    +0.000 C 
ATOM     86  F11 UNL A   1       9.114  49.402  16.437  1.00  0.00    +0.000 F 
ATOM     87  C62 UNL A   1       9.278  47.398  17.655  1.00  0.00    +0.000 C 
ATOM     88  F12 UNL A   1       8.107  47.669  18.249  1.00  0.00    +0.000 F 
ATOM     89  C63 UNL A   1       9.925  46.205  17.934  1.00  0.00    +0.000 C 
ATOM     90  F13 UNL A   1       9.386  45.322  18.785  1.00  0.00    +0.000 F 
ATOM     91  C64 UNL A   1      11.114  45.911  17.291  1.00  0.00    +0.000 C 
ATOM     92  F14 UNL A   1      11.729  44.743  17.521  1.00  0.00    +0.000 F 
ATOM     93  C65 UNL A   1      11.642  46.799  16.354  1.00  0.00    +0.000 C 
ATOM     94  F15 UNL A   1      12.740  46.406  15.693  1.00  0.00    +0.000 F 
ENDBRANCH   83   84
TORSDOF 20
ENDMDL
MODEL 5
REMARK VINA RESULT:      -9.2     30.723     37.203
ROOT
ATOM    138  H33 UNL A   1      19.040  13.458   3.250  1.00  0.00    +0.000 H 
ATOM    139  H34 UNL A   1      18.008  15.450   4.689  1.00  0.00    +0.000 H 
ATOM    140  H35 UNL A   1      20.094  12.994   7.099  1.00  0.00    +0.000 H 
ATOM    141  H36 UNL A   1      24.466  19.994   7.547  1.00  0.00    +0.000 H 
ATOM    142  H37 UNL A   1      24.427  19.620   5.028  1.00  0.00    +0.000 H 
ATOM    143  H38 UNL A   1      22.577  16.339   6.784  1.00  0.00    +0.000 H 
ATOM    144  H39 UNL A   1      23.484  14.893   9.529  1.00  0.00    +0.000 H 
ATOM    145  H40 UNL A   1      21.580  13.802   8.174  1.00  0.00    +0.000 H 
ATOM    146  H41 UNL A   1      24.190  12.497   3.394  1.00  0.00    +0.000 H 
ATOM    147  H42 UNL A   1      25.423  14.747   3.589  1.00  0.00    +0.000 H 
ATOM     47  C36 UNL A   1      23.690  16.913   4.301  1.00  0.00    +0.000 C 
ATOM     48  C37 UNL A   1      23.361  15.463   4.210  1.00  0.00    +0.000 C 
ATOM     49  N8  UNL A   1      22.206  14.893   4.349  1.00  0.00    +0.000 N 
ATOM     50  C38 UNL A   1      22.440  13.522   4.233  1.00  0.00    +0.000 C 
ATOM     51  C39 UNL A   1      21.586  12.609   4.775  1.00  0.00    +0.000 C 
ATOM     63  C46 UNL A   1      20.285  13.182   5.005  1.00  0.00    +0.000 C 
ATOM     64  C47 UNL A   1      19.307  13.741   4.206  1.00  0.00    +0.000 C 
ATOM     65  C48 UNL A   1      18.747  14.794   4.988  1.00  0.00    +0.000 C 
ATOM     66  C49 UNL A   1      19.380  14.778   6.230  1.00  0.00    +0.000 C 
ATOM     67  N9  UNL A   1      19.950  13.534   6.288  1.00  0.00    +0.000 N 
ATOM     68  C50 UNL A   1      19.561  15.776   7.254  1.00  0.00    +0.000 C 
ATOM     80  C57 UNL A   1      20.564  15.761   8.178  1.00  0.00    +0.000 C 
ATOM     81  N10 UNL A   1      20.962  16.927   8.816  1.00  0.00    +0.000 N 
ATOM     82  C58 UNL A   1      22.212  16.722   9.127  1.00  0.00    +0.000 C 
ATOM     83  C59 UNL A   1      23.259  17.769   9.033  1.00  0.00    +0.000 C 
ATOM     95  C66 UNL A   1      23.436  18.043   7.716  1.00  0.00    +0.000 C 
ATOM     96  C67 UNL A   1      24.083  19.164   7.069  1.00  0.00    +0.000 C 
ATOM     97  C68 UNL A   1      24.103  18.945   5.737  1.00  0.00    +0.000 C 
ATOM     98  C69 UNL A   1      23.592  17.603   5.456  1.00  0.00    +0.000 C 
ATOM     99  N11 UNL A   1      23.100  17.164   6.667  1.00  0.00    +0.000 N 
ATOM    100  C70 UNL A   1      22.640  15.333   9.129  1.00  0.00    +0.000 C 
ATOM    101  C71 UNL A   1      21.619  14.792   8.460  1.00  0.00    +0.000 C 
ATOM    102  C72 UNL A   1      23.783  13.380   3.740  1.00  0.00    +0.000 C 
ATOM    103  C73 UNL A   1      24.431  14.544   3.791  1.00  0.00    +0.000 C 
ENDROOT
BRANCH   47   46
ATOM    104  C74 UNL A   1      25.611  17.838   3.039  1.00  0.00    +0.000 C 
ATOM    105  C75 UNL A   1      26.132  18.358   1.863  1.00  0.00    +0.000 C 
ATOM    136  H31 UNL A   1      23.429  18.100  -0.093  1.00  0.00    +0.000 H 
ATOM     43  C32 UNL A   1      25.327  18.525   0.719  1.00  0.00    +0.000 C 
ATOM     44  C33 UNL A   1      24.010  18.063   0.758  1.00  0.00    +0.000 C 
ATOM     45  C34 UNL A   1      23.478  17.553   1.939  1.00  0.00    +0.000 C 
ATOM    137  H32 UNL A   1      22.498  17.227   1.965  1.00  0.00    +0.000 H 
ATOM     46  C35 UNL A   1      24.267  17.483   3.087  1.00  0.00    +0.000 C 
ATOM    148  H43 UNL A   1      26.213  17.717   3.868  1.00  0.00    +0.000 H 
ATOM    149  H44 UNL A   1      27.127  18.626   1.825  1.00  0.00    +0.000 H 
BRANCH   43    2
ATOM      1  O1  UNL A   1      27.177  19.493  -0.346  1.00  0.00    +0.000 O 
ATOM      2  C1  UNL A   1      25.968  19.257  -0.408  1.00  0.00    +0.000 C 
BRANCH    2    3
ATOM    106  H1  UNL A   1      25.171  20.733  -1.433  1.00  0.00    +0.000 H 
ATOM      3  N1  UNL A   1      25.312  19.761  -1.494  1.00  0.00    +0.000 N 
BRANCH    3    4
ATOM    108  H3  UNL A   1      25.248  18.246  -2.847  1.00  0.00    +0.000 H 
ATOM    107  H2  UNL A   1      23.715  19.121  -2.609  1.00  0.00    +0.000 H 
ATOM      4  C2  UNL A   1      24.777  19.198  -2.713  1.00  0.00    +0.000 C 
BRANCH    4    5
ATOM    109  H4  UNL A   1      24.163  20.460  -4.303  1.00  0.00    +0.000 H 
ATOM      5  C3  UNL A   1      25.078  20.021  -3.966  1.00  0.00    +0.000 C 
ATOM    110  H5  UNL A   1      25.510  19.344  -4.673  1.00  0.00    +0.000 H 
BRANCH    5    6
ATOM      6  C4  UNL A   1      26.101  21.147  -3.769  1.00  0.00    +0.000 C 
ATOM    111  H6  UNL A   1      26.858  20.789  -3.102  1.00  0.00    +0.000 H 
ATOM    112  H7  UNL A   1      25.547  21.981  -3.391  1.00  0.00    +0.000 H 
BRANCH    6    7
ATOM    113  H8  UNL A   1      26.035  21.963  -5.726  1.00  0.00    +0.000 H 
ATOM    114  H9  UNL A   1      27.383  20.830  -5.396  1.00  0.00    +0.000 H 
ATOM      7  C5  UNL A   1      26.793  21.648  -5.040  1.00  0.00    +0.000 C 
BRANCH    7    8
ATOM    115  H10 UNL A   1      28.761  22.444  -4.985  1.00  0.00    +0.000 H 
ATOM    116  H11 UNL A   1      27.591  23.191  -3.859  1.00  0.00    +0.000 H 
ATOM      8  C6  UNL A   1      27.766  22.814  -4.845  1.00  0.00    +0.000 C 
BRANCH    8    9
ATOM      9  C7  UNL A   1      27.558  23.988  -5.796  1.00  0.00    +0.000 C 
ATOM    117  H12 UNL A   1      28.461  24.148  -6.347  1.00  0.00    +0.000 H 
ATOM    118  H13 UNL A   1      27.301  24.843  -5.207  1.00  0.00    +0.000 H 
BRANCH    9   10
ATOM     10  N2  UNL A   1      26.473  23.756  -6.737  1.00  0.00    +0.000 N 
ATOM    119  H14 UNL A   1      26.489  22.887  -7.200  1.00  0.00    +0.000 H 
BRANCH   10   11
ATOM     11  C8  UNL A   1      25.430  24.583  -7.065  1.00  0.00    +0.000 C 
ATOM     12  O2  UNL A   1      25.204  24.873  -8.239  1.00  0.00    +0.000 O 
BRANCH   11   13
ATOM    134  H29 UNL A   1      22.843  24.167  -3.286  1.00  0.00    +0.000 H 
ATOM    135  H30 UNL A   1      24.349  23.273  -4.974  1.00  0.00    +0.000 H 
ATOM     41  C30 UNL A   1      23.205  24.778  -4.035  1.00  0.00    +0.000 C 
ATOM     42  C31 UNL A   1      24.071  24.267  -4.998  1.00  0.00    +0.000 C 
ATOM     13  C9  UNL A   1      24.559  25.113  -5.998  1.00  0.00    +0.000 C 
ATOM     14  C10 UNL A   1      24.231  26.473  -6.010  1.00  0.00    +0.000 C 
ATOM     15  C11 UNL A   1      23.330  26.982  -5.072  1.00  0.00    +0.000 C 
ATOM     16  C12 UNL A   1      22.826  26.132  -4.087  1.00  0.00    +0.000 C 
ATOM    120  H15 UNL A   1      24.655  27.101  -6.711  1.00  0.00    +0.000 H 
ATOM    121  H16 UNL A   1      23.040  27.972  -5.108  1.00  0.00    +0.000 H 
BRANCH   16   17
ATOM     39  N6  UNL A   1      20.641  27.951  -2.000  1.00  0.00    +0.000 N 
ATOM     40  N7  UNL A   1      21.351  27.830  -3.123  1.00  0.00    +0.000 N 
ATOM     17  N3  UNL A   1      22.021  26.661  -3.062  1.00  0.00    +0.000 N 
ATOM     18  C13 UNL A   1      21.792  26.066  -1.857  1.00  0.00    +0.000 C 
ATOM     19  C14 UNL A   1      20.952  26.899  -1.167  1.00  0.00    +0.000 C 
ATOM    122  H17 UNL A   1      22.176  25.165  -1.530  1.00  0.00    +0.000 H 
BRANCH   19   20
ATOM    124  H19 UNL A   1      21.041  26.649   0.800  1.00  0.00    +0.000 H 
ATOM    123  H18 UNL A   1      19.465  27.399   0.150  1.00  0.00    +0.000 H 
ATOM     20  C15 UNL A   1      20.229  26.651   0.103  1.00  0.00    +0.000 C 
BRANCH   20   21
ATOM     21  S1  UNL A   1      19.422  25.104   0.520  1.00  0.00    +0.000 S 
BRANCH   21   22
ATOM    127  H22 UNL A   1      24.959  21.074   3.883  1.00  0.00    +0.000 H 
ATOM    126  H21 UNL A   1      25.607  23.387   3.517  1.00  0.00    +0.000 H 
ATOM    128  H23 UNL A   1      22.678  20.372   3.400  1.00  0.00    +0.000 H 
ATOM    125  H20 UNL A   1      24.064  24.934   2.457  1.00  0.00    +0.000 H 
ATOM     22  C16 UNL A   1      20.331  24.099   1.616  1.00  0.00    +0.000 C 
ATOM     23  N4  UNL A   1      21.606  24.370   1.591  1.00  0.00    +0.000 N 
ATOM     24  C17 UNL A   1      22.472  23.557   2.336  1.00  0.00    +0.000 C 
ATOM     25  C18 UNL A   1      23.765  23.968   2.658  1.00  0.00    +0.000 C 
ATOM     26  C19 UNL A   1      24.662  23.070   3.255  1.00  0.00    +0.000 C 
ATOM     27  C20 UNL A   1      24.279  21.748   3.497  1.00  0.00    +0.000 C 
ATOM     28  C21 UNL A   1      22.977  21.343   3.216  1.00  0.00    +0.000 C 
ATOM     29  C22 UNL A   1      22.082  22.273   2.680  1.00  0.00    +0.000 C 
ATOM     30  C23 UNL A   1      20.648  21.992   2.549  1.00  0.00    +0.000 C 
ATOM     31  O3  UNL A   1      20.277  20.820   2.527  1.00  0.00    +0.000 O 
ATOM     32  N5  UNL A   1      19.824  23.119   2.451  1.00  0.00    +0.000 N 
BRANCH   32   33
ATOM     33  C24 UNL A   1      18.558  23.104   3.156  1.00  0.00    +0.000 C 
ATOM     34  C25 UNL A   1      18.527  23.410   4.534  1.00  0.00    +0.000 C 
ATOM    129  H24 UNL A   1      19.357  23.840   4.969  1.00  0.00    +0.000 H 
ATOM     35  C26 UNL A   1      17.407  23.150   5.329  1.00  0.00    +0.000 C 
ATOM    133  H28 UNL A   1      17.234  22.769   1.550  1.00  0.00    +0.000 H 
ATOM     38  C29 UNL A   1      17.329  22.773   2.578  1.00  0.00    +0.000 C 
ATOM     37  C28 UNL A   1      16.221  22.445   3.376  1.00  0.00    +0.000 C 
ATOM    130  H25 UNL A   1      17.426  23.368   6.337  1.00  0.00    +0.000 H 
ATOM     36  C27 UNL A   1      16.274  22.597   4.755  1.00  0.00    +0.000 C 
ATOM    132  H27 UNL A   1      15.360  22.087   2.933  1.00  0.00    +0.000 H 
ATOM    131  H26 UNL A   1      15.480  22.303   5.346  1.00  0.00    +0.000 H 
ENDBRANCH   32   33
ENDBRANCH   21   22
ENDBRANCH   20   21
ENDBRANCH   19   20
ENDBRANCH   16   17
ENDBRANCH   11   13
ENDBRANCH   10   11
ENDBRANCH    9   10
ENDBRANCH    8    9
ENDBRANCH    7    8
ENDBRANCH    6    7
ENDBRANCH    5    6
ENDBRANCH    4    5
ENDBRANCH    3    4
ENDBRANCH    2    3
ENDBRANCH   43    2
ENDBRANCH   47   46
BRANCH   51   52
ATOM     52  C40 UNL A   1      22.028  11.333   5.461  1.00  0.00    +0.000 C 
ATOM     53  C41 UNL A   1      21.441  10.112   5.068  1.00  0.00    +0.000 C 
ATOM     54  F1  UNL A   1      20.753  10.021   3.920  1.00  0.00    +0.000 F 
ATOM     55  C42 UNL A   1      21.451   8.985   5.895  1.00  0.00    +0.000 C 
ATOM     56  F2  UNL A   1      20.752   7.897   5.543  1.00  0.00    +0.000 F 
ATOM     57  C43 UNL A   1      22.109   9.013   7.109  1.00  0.00    +0.000 C 
ATOM     58  F3  UNL A   1      22.056   7.962   7.938  1.00  0.00    +0.000 F 
ATOM     59  C44 UNL A   1      22.783  10.155   7.483  1.00  0.00    +0.000 C 
ATOM     60  F4  UNL A   1      23.421  10.204   8.661  1.00  0.00    +0.000 F 
ATOM     61  C45 UNL A   1      22.733  11.296   6.685  1.00  0.00    +0.000 C 
ATOM     62  F5  UNL A   1      23.306  12.380   7.216  1.00  0.00    +0.000 F 
ENDBRANCH   51   52
BRANCH   68   69
ATOM     69  C51 UNL A   1      18.742  17.028   7.132  1.00  0.00    +0.000 C 
ATOM     70  C52 UNL A   1      19.050  18.076   6.246  1.00  0.00    +0.000 C 
ATOM     71  F6  UNL A   1      20.139  18.018   5.467  1.00  0.00    +0.000 F 
ATOM     72  C53 UNL A   1      18.202  19.174   6.105  1.00  0.00    +0.000 C 
ATOM     73  F7  UNL A   1      18.521  20.165   5.260  1.00  0.00    +0.000 F 
ATOM     74  C54 UNL A   1      17.008  19.223   6.807  1.00  0.00    +0.000 C 
ATOM     75  F8  UNL A   1      16.171  20.255   6.638  1.00  0.00    +0.000 F 
ATOM     76  C55 UNL A   1      16.667  18.185   7.659  1.00  0.00    +0.000 C 
ATOM     77  F9  UNL A   1      15.490  18.203   8.299  1.00  0.00    +0.000 F 
ATOM     78  C56 UNL A   1      17.530  17.106   7.830  1.00  0.00    +0.000 C 
ATOM     79  F10 UNL A   1      17.158  16.105   8.643  1.00  0.00    +0.000 F 
ENDBRANCH   68   69
BRANCH   83   84
ATOM     84  C60 UNL A   1      24.161  18.096  10.162  1.00  0.00    +0.000 C 
ATOM     85  C61 UNL A   1      25.554  18.152   9.992  1.00  0.00    +0.000 C 
ATOM     86  F11 UNL A   1      26.112  17.703   8.857  1.00  0.00    +0.000 F 
ATOM     87  C62 UNL A   1      26.388  18.731  10.954  1.00  0.00    +0.000 C 
ATOM     88  F12 UNL A   1      27.707  18.818  10.732  1.00  0.00    +0.000 F 
ATOM     89  C63 UNL A   1      25.854  19.268  12.114  1.00  0.00    +0.000 C 
ATOM     90  F13 UNL A   1      26.645  19.877  13.008  1.00  0.00    +0.000 F 
ATOM     91  C64 UNL A   1      24.488  19.211  12.322  1.00  0.00    +0.000 C 
ATOM     92  F14 UNL A   1      23.953  19.763  13.420  1.00  0.00    +0.000 F 
ATOM     93  C65 UNL A   1      23.656  18.638  11.361  1.00  0.00    +0.000 C 
ATOM     94  F15 UNL A   1      22.335  18.709  11.578  1.00  0.00    +0.000 F 
ENDBRANCH   83   84
TORSDOF 20
ENDMDL
MODEL 6
REMARK VINA RESULT:      -9.2     19.046     26.039
ROOT
ATOM    138  H33 UNL A   1      47.338  10.912  53.776  1.00  0.00    +0.000 H 
ATOM    139  H34 UNL A   1      48.526  12.470  51.969  1.00  0.00    +0.000 H 
ATOM    140  H35 UNL A   1      47.231   9.101  50.191  1.00  0.00    +0.000 H 
ATOM    141  H36 UNL A   1      42.583  14.884  46.548  1.00  0.00    +0.000 H 
ATOM    142  H37 UNL A   1      42.071  15.340  49.001  1.00  0.00    +0.000 H 
ATOM    143  H38 UNL A   1      44.507  11.975  48.861  1.00  0.00    +0.000 H 
ATOM    144  H39 UNL A   1      44.360   9.617  46.656  1.00  0.00    +0.000 H 
ATOM    145  H40 UNL A   1      45.977   9.301  48.641  1.00  0.00    +0.000 H 
ATOM    146  H41 UNL A   1      42.441   9.219  52.983  1.00  0.00    +0.000 H 
ATOM    147  H42 UNL A   1      41.126  11.087  51.799  1.00  0.00    +0.000 H 
ATOM     47  C36 UNL A   1      42.815  13.141  50.736  1.00  0.00    +0.000 C 
ATOM     48  C37 UNL A   1      43.219  11.859  51.379  1.00  0.00    +0.000 C 
ATOM     49  N8  UNL A   1      44.413  11.448  51.667  1.00  0.00    +0.000 N 
ATOM     50  C38 UNL A   1      44.259  10.167  52.197  1.00  0.00    +0.000 C 
ATOM     51  C39 UNL A   1      45.277   9.263  52.175  1.00  0.00    +0.000 C 
ATOM     63  C46 UNL A   1      46.552   9.915  52.016  1.00  0.00    +0.000 C 
ATOM     64  C47 UNL A   1      47.277  10.834  52.748  1.00  0.00    +0.000 C 
ATOM     65  C48 UNL A   1      47.924  11.654  51.776  1.00  0.00    +0.000 C 
ATOM     66  C49 UNL A   1      47.595  11.152  50.517  1.00  0.00    +0.000 C 
ATOM     67  N9  UNL A   1      47.145   9.886  50.780  1.00  0.00    +0.000 N 
ATOM     68  C50 UNL A   1      47.583  11.735  49.200  1.00  0.00    +0.000 C 
ATOM     80  C57 UNL A   1      46.822  11.283  48.162  1.00  0.00    +0.000 C 
ATOM     81  N10 UNL A   1      46.498  12.115  47.101  1.00  0.00    +0.000 N 
ATOM     82  C58 UNL A   1      45.370  11.642  46.645  1.00  0.00    +0.000 C 
ATOM     83  C59 UNL A   1      44.256  12.502  46.172  1.00  0.00    +0.000 C 
ATOM     95  C66 UNL A   1      43.763  13.152  47.257  1.00  0.00    +0.000 C 
ATOM     96  C67 UNL A   1      42.905  14.314  47.345  1.00  0.00    +0.000 C 
ATOM     97  C68 UNL A   1      42.597  14.529  48.641  1.00  0.00    +0.000 C 
ATOM     98  C69 UNL A   1      43.125  13.435  49.456  1.00  0.00    +0.000 C 
ATOM     99  N11 UNL A   1      43.912  12.710  48.587  1.00  0.00    +0.000 N 
ATOM    100  C70 UNL A   1      45.055  10.278  47.036  1.00  0.00    +0.000 C 
ATOM    101  C71 UNL A   1      45.933  10.132  48.032  1.00  0.00    +0.000 C 
ATOM    102  C72 UNL A   1      42.852   9.996  52.442  1.00  0.00    +0.000 C 
ATOM    103  C73 UNL A   1      42.150  10.976  51.873  1.00  0.00    +0.000 C 
ENDROOT
BRANCH   47   46
ATOM    104  C74 UNL A   1      42.458  14.983  52.354  1.00  0.00    +0.000 C 
ATOM    105  C75 UNL A   1      41.593  15.773  53.097  1.00  0.00    +0.000 C 
ATOM    136  H31 UNL A   1      38.672  14.535  52.031  1.00  0.00    +0.000 H 
ATOM     43  C32 UNL A   1      40.199  15.579  53.043  1.00  0.00    +0.000 C 
ATOM     44  C33 UNL A   1      39.693  14.636  52.147  1.00  0.00    +0.000 C 
ATOM     45  C34 UNL A   1      40.556  13.831  51.409  1.00  0.00    +0.000 C 
ATOM    137  H32 UNL A   1      40.174  13.125  50.759  1.00  0.00    +0.000 H 
ATOM     46  C35 UNL A   1      41.936  13.978  51.548  1.00  0.00    +0.000 C 
ATOM    148  H43 UNL A   1      43.478  15.140  52.400  1.00  0.00    +0.000 H 
ATOM    149  H44 UNL A   1      41.977  16.518  53.699  1.00  0.00    +0.000 H 
BRANCH   43    2
ATOM      1  O1  UNL A   1      39.223  17.572  53.798  1.00  0.00    +0.000 O 
ATOM      2  C1  UNL A   1      39.408  16.373  54.023  1.00  0.00    +0.000 C 
BRANCH    2    3
ATOM    106  H1  UNL A   1      39.341  16.321  55.987  1.00  0.00    +0.000 H 
ATOM      3  N1  UNL A   1      38.915  15.900  55.205  1.00  0.00    +0.000 N 
BRANCH    3    4
ATOM    108  H3  UNL A   1      37.627  15.145  56.583  1.00  0.00    +0.000 H 
ATOM    107  H2  UNL A   1      37.099  15.002  54.888  1.00  0.00    +0.000 H 
ATOM      4  C2  UNL A   1      37.915  14.925  55.576  1.00  0.00    +0.000 C 
BRANCH    4    5
ATOM    109  H4  UNL A   1      38.291  13.093  54.576  1.00  0.00    +0.000 H 
ATOM      5  C3  UNL A   1      38.417  13.481  55.564  1.00  0.00    +0.000 C 
ATOM    110  H5  UNL A   1      37.844  12.958  56.302  1.00  0.00    +0.000 H 
BRANCH    5    6
ATOM      6  C4  UNL A   1      39.889  13.305  55.960  1.00  0.00    +0.000 C 
ATOM    111  H6  UNL A   1      39.917  12.785  56.894  1.00  0.00    +0.000 H 
ATOM    112  H7  UNL A   1      40.299  14.293  55.999  1.00  0.00    +0.000 H 
BRANCH    6    7
ATOM    113  H8  UNL A   1      40.678  13.014  54.012  1.00  0.00    +0.000 H 
ATOM    114  H9  UNL A   1      40.391  11.527  54.972  1.00  0.00    +0.000 H 
ATOM      7  C5  UNL A   1      40.759  12.532  54.964  1.00  0.00    +0.000 C 
BRANCH    7    8
ATOM    115  H10 UNL A   1      42.769  13.184  54.758  1.00  0.00    +0.000 H 
ATOM    116  H11 UNL A   1      42.549  11.441  55.085  1.00  0.00    +0.000 H 
ATOM      8  C6  UNL A   1      42.245  12.439  55.321  1.00  0.00    +0.000 C 
BRANCH    8    9
ATOM      9  C7  UNL A   1      42.563  12.648  56.798  1.00  0.00    +0.000 C 
ATOM    117  H12 UNL A   1      43.030  11.762  57.176  1.00  0.00    +0.000 H 
ATOM    118  H13 UNL A   1      41.643  12.854  57.303  1.00  0.00    +0.000 H 
BRANCH    9   10
ATOM     10  N2  UNL A   1      43.454  13.775  57.021  1.00  0.00    +0.000 N 
ATOM    119  H14 UNL A   1      44.400  13.548  57.169  1.00  0.00    +0.000 H 
BRANCH   10   11
ATOM     11  C8  UNL A   1      43.153  15.113  57.051  1.00  0.00    +0.000 C 
ATOM     12  O2  UNL A   1      42.377  15.563  57.893  1.00  0.00    +0.000 O 
BRANCH   11   13
ATOM    134  H29 UNL A   1      43.675  19.172  54.954  1.00  0.00    +0.000 H 
ATOM    135  H30 UNL A   1      42.674  17.732  56.638  1.00  0.00    +0.000 H 
ATOM     41  C30 UNL A   1      43.955  18.182  55.023  1.00  0.00    +0.000 C 
ATOM     42  C31 UNL A   1      43.385  17.359  55.990  1.00  0.00    +0.000 C 
ATOM     13  C9  UNL A   1      43.785  16.022  56.075  1.00  0.00    +0.000 C 
ATOM     14  C10 UNL A   1      44.786  15.518  55.237  1.00  0.00    +0.000 C 
ATOM     15  C11 UNL A   1      45.331  16.327  54.237  1.00  0.00    +0.000 C 
ATOM     16  C12 UNL A   1      44.915  17.656  54.139  1.00  0.00    +0.000 C 
ATOM    120  H15 UNL A   1      45.123  14.550  55.357  1.00  0.00    +0.000 H 
ATOM    121  H16 UNL A   1      46.030  15.947  53.580  1.00  0.00    +0.000 H 
BRANCH   16   17
ATOM     39  N6  UNL A   1      46.864  19.223  51.653  1.00  0.00    +0.000 N 
ATOM     40  N7  UNL A   1      46.595  18.179  52.439  1.00  0.00    +0.000 N 
ATOM     17  N3  UNL A   1      45.550  18.513  53.222  1.00  0.00    +0.000 N 
ATOM     18  C13 UNL A   1      45.194  19.807  52.983  1.00  0.00    +0.000 C 
ATOM     19  C14 UNL A   1      46.050  20.272  52.019  1.00  0.00    +0.000 C 
ATOM    122  H17 UNL A   1      44.431  20.333  53.437  1.00  0.00    +0.000 H 
BRANCH   19   20
ATOM    124  H19 UNL A   1      45.575  22.198  51.982  1.00  0.00    +0.000 H 
ATOM    123  H18 UNL A   1      46.977  21.688  50.867  1.00  0.00    +0.000 H 
ATOM     20  C15 UNL A   1      45.990  21.537  51.250  1.00  0.00    +0.000 C 
BRANCH   20   21
ATOM     21  S1  UNL A   1      44.884  21.825  49.867  1.00  0.00    +0.000 S 
BRANCH   21   22
ATOM    127  H22 UNL A   1      38.777  17.278  50.367  1.00  0.00    +0.000 H 
ATOM    126  H21 UNL A   1      38.159  19.602  50.019  1.00  0.00    +0.000 H 
ATOM    128  H23 UNL A   1      41.123  16.632  50.283  1.00  0.00    +0.000 H 
ATOM    125  H20 UNL A   1      39.877  21.307  49.824  1.00  0.00    +0.000 H 
ATOM     22  C16 UNL A   1      43.716  20.557  49.612  1.00  0.00    +0.000 C 
ATOM     23  N4  UNL A   1      42.512  20.917  49.958  1.00  0.00    +0.000 N 
ATOM     24  C17 UNL A   1      41.493  19.956  49.918  1.00  0.00    +0.000 C 
ATOM     25  C18 UNL A   1      40.146  20.315  49.918  1.00  0.00    +0.000 C 
ATOM     26  C19 UNL A   1      39.154  19.333  50.048  1.00  0.00    +0.000 C 
ATOM     27  C20 UNL A   1      39.507  17.992  50.214  1.00  0.00    +0.000 C 
ATOM     28  C21 UNL A   1      40.848  17.620  50.173  1.00  0.00    +0.000 C 
ATOM     29  C22 UNL A   1      41.817  18.609  49.979  1.00  0.00    +0.000 C 
ATOM     30  C23 UNL A   1      43.224  18.285  49.718  1.00  0.00    +0.000 C 
ATOM     31  O3  UNL A   1      43.648  17.183  50.058  1.00  0.00    +0.000 O 
ATOM     32  N5  UNL A   1      43.964  19.297  49.095  1.00  0.00    +0.000 N 
BRANCH   32   33
ATOM     33  C24 UNL A   1      44.913  18.916  48.068  1.00  0.00    +0.000 C 
ATOM     34  C25 UNL A   1      46.255  19.344  48.168  1.00  0.00    +0.000 C 
ATOM    129  H24 UNL A   1      46.587  19.738  49.062  1.00  0.00    +0.000 H 
ATOM     35  C26 UNL A   1      47.147  19.253  47.097  1.00  0.00    +0.000 C 
ATOM    133  H28 UNL A   1      43.717  17.623  46.909  1.00  0.00    +0.000 H 
ATOM     38  C29 UNL A   1      44.598  18.161  46.934  1.00  0.00    +0.000 C 
ATOM     37  C28 UNL A   1      45.463  18.124  45.829  1.00  0.00    +0.000 C 
ATOM    130  H25 UNL A   1      48.115  19.594  47.198  1.00  0.00    +0.000 H 
ATOM     36  C27 UNL A   1      46.723  18.703  45.898  1.00  0.00    +0.000 C 
ATOM    132  H27 UNL A   1      45.160  17.661  44.958  1.00  0.00    +0.000 H 
ATOM    131  H26 UNL A   1      47.336  18.725  45.068  1.00  0.00    +0.000 H 
ENDBRANCH   32   33
ENDBRANCH   21   22
ENDBRANCH   20   21
ENDBRANCH   19   20
ENDBRANCH   16   17
ENDBRANCH   11   13
ENDBRANCH   10   11
ENDBRANCH    9   10
ENDBRANCH    8    9
ENDBRANCH    7    8
ENDBRANCH    6    7
ENDBRANCH    5    6
ENDBRANCH    4    5
ENDBRANCH    3    4
ENDBRANCH    2    3
ENDBRANCH   43    2
ENDBRANCH   47   46
BRANCH   51   52
ATOM     52  C40 UNL A   1      45.098   7.785  51.894  1.00  0.00    +0.000 C 
ATOM     53  C41 UNL A   1      45.432   6.857  52.904  1.00  0.00    +0.000 C 
ATOM     54  F1  UNL A   1      45.600   7.256  54.173  1.00  0.00    +0.000 F 
ATOM     55  C42 UNL A   1      45.710   5.517  52.616  1.00  0.00    +0.000 C 
ATOM     56  F2  UNL A   1      46.168   4.711  53.583  1.00  0.00    +0.000 F 
ATOM     57  C43 UNL A   1      45.593   5.040  51.325  1.00  0.00    +0.000 C 
ATOM     58  F3  UNL A   1      45.933   3.778  51.031  1.00  0.00    +0.000 F 
ATOM     59  C44 UNL A   1      45.169   5.891  50.327  1.00  0.00    +0.000 C 
ATOM     60  F4  UNL A   1      45.057   5.448  49.067  1.00  0.00    +0.000 F 
ATOM     61  C45 UNL A   1      44.940   7.239  50.601  1.00  0.00    +0.000 C 
ATOM     62  F5  UNL A   1      44.668   7.992  49.531  1.00  0.00    +0.000 F 
ENDBRANCH   51   52
BRANCH   68   69
ATOM     69  C51 UNL A   1      48.259  13.066  49.041  1.00  0.00    +0.000 C 
ATOM     70  C52 UNL A   1      47.643  14.293  49.347  1.00  0.00    +0.000 C 
ATOM     71  F6  UNL A   1      46.375  14.336  49.778  1.00  0.00    +0.000 F 
ATOM     72  C53 UNL A   1      48.350  15.493  49.272  1.00  0.00    +0.000 C 
ATOM     73  F7  UNL A   1      47.739  16.652  49.559  1.00  0.00    +0.000 F 
ATOM     74  C54 UNL A   1      49.695  15.486  48.940  1.00  0.00    +0.000 C 
ATOM     75  F8  UNL A   1      50.386  16.634  48.911  1.00  0.00    +0.000 F 
ATOM     76  C55 UNL A   1      50.331  14.285  48.668  1.00  0.00    +0.000 C 
ATOM     77  F9  UNL A   1      51.644  14.269  48.399  1.00  0.00    +0.000 F 
ATOM     78  C56 UNL A   1      49.618  13.091  48.706  1.00  0.00    +0.000 C 
ATOM     79  F10 UNL A   1      50.271  11.943  48.464  1.00  0.00    +0.000 F 
ENDBRANCH   68   69
BRANCH   83   84
ATOM     84  C60 UNL A   1      43.616  12.319  44.849  1.00  0.00    +0.000 C 
ATOM     85  C61 UNL A   1      42.888  11.157  44.544  1.00  0.00    +0.000 C 
ATOM     86  F11 UNL A   1      42.935  10.099  45.366  1.00  0.00    +0.000 F 
ATOM     87  C62 UNL A   1      42.048  11.090  43.427  1.00  0.00    +0.000 C 
ATOM     88  F12 UNL A   1      41.325   9.985  43.199  1.00  0.00    +0.000 F 
ATOM     89  C63 UNL A   1      41.915  12.181  42.583  1.00  0.00    +0.000 C 
ATOM     90  F13 UNL A   1      41.065  12.139  41.548  1.00  0.00    +0.000 F 
ATOM     91  C64 UNL A   1      42.634  13.333  42.843  1.00  0.00    +0.000 C 
ATOM     92  F14 UNL A   1      42.483  14.409  42.058  1.00  0.00    +0.000 F 
ATOM     93  C65 UNL A   1      43.468  13.401  43.959  1.00  0.00    +0.000 C 
ATOM     94  F15 UNL A   1      44.054  14.581  44.210  1.00  0.00    +0.000 F 
ENDBRANCH   83   84
TORSDOF 20
ENDMDL
MODEL 7
REMARK VINA RESULT:      -8.8     32.264     39.110
ROOT
ATOM    138  H33 UNL A   1      24.895  20.631   9.653  1.00  0.00    +0.000 H 
ATOM    139  H34 UNL A   1      26.568  19.555   7.879  1.00  0.00    +0.000 H 
ATOM    140  H35 UNL A   1      25.230  16.692  10.369  1.00  0.00    +0.000 H 
ATOM    141  H36 UNL A   1      22.037  14.321   3.124  1.00  0.00    +0.000 H 
ATOM    142  H37 UNL A   1      21.144  16.702   3.279  1.00  0.00    +0.000 H 
ATOM    143  H38 UNL A   1      23.151  15.910   6.831  1.00  0.00    +0.000 H 
ATOM    144  H39 UNL A   1      23.131  13.106   8.437  1.00  0.00    +0.000 H 
ATOM    145  H40 UNL A   1      24.311  15.112   9.548  1.00  0.00    +0.000 H 
ATOM    146  H41 UNL A   1      20.060  18.693  10.231  1.00  0.00    +0.000 H 
ATOM    147  H42 UNL A   1      19.212  17.946   7.919  1.00  0.00    +0.000 H 
ATOM     47  C36 UNL A   1      21.296  17.791   5.961  1.00  0.00    +0.000 C 
ATOM     48  C37 UNL A   1      21.422  18.073   7.418  1.00  0.00    +0.000 C 
ATOM     49  N8  UNL A   1      22.487  18.390   8.084  1.00  0.00    +0.000 N 
ATOM     50  C38 UNL A   1      22.089  18.487   9.418  1.00  0.00    +0.000 C 
ATOM     51  C39 UNL A   1      22.981  18.340  10.437  1.00  0.00    +0.000 C 
ATOM     63  C46 UNL A   1      24.331  18.563   9.987  1.00  0.00    +0.000 C 
ATOM     64  C47 UNL A   1      25.014  19.629   9.435  1.00  0.00    +0.000 C 
ATOM     65  C48 UNL A   1      25.919  19.046   8.500  1.00  0.00    +0.000 C 
ATOM     66  C49 UNL A   1      25.768  17.662   8.576  1.00  0.00    +0.000 C 
ATOM     67  N9  UNL A   1      25.132  17.469   9.773  1.00  0.00    +0.000 N 
ATOM     68  C50 UNL A   1      26.064  16.590   7.660  1.00  0.00    +0.000 C 
ATOM     80  C57 UNL A   1      25.457  15.368   7.679  1.00  0.00    +0.000 C 
ATOM     81  N10 UNL A   1      25.432  14.568   6.546  1.00  0.00    +0.000 N 
ATOM     82  C58 UNL A   1      24.358  13.839   6.683  1.00  0.00    +0.000 C 
ATOM     83  C59 UNL A   1      23.458  13.492   5.554  1.00  0.00    +0.000 C 
ATOM     95  C66 UNL A   1      22.855  14.641   5.155  1.00  0.00    +0.000 C 
ATOM     96  C67 UNL A   1      22.139  14.949   3.936  1.00  0.00    +0.000 C 
ATOM     97  C68 UNL A   1      21.628  16.194   4.036  1.00  0.00    +0.000 C 
ATOM     98  C69 UNL A   1      21.866  16.713   5.384  1.00  0.00    +0.000 C 
ATOM     99  N11 UNL A   1      22.707  15.786   5.962  1.00  0.00    +0.000 N 
ATOM    100  C70 UNL A   1      23.819  13.758   8.030  1.00  0.00    +0.000 C 
ATOM    101  C71 UNL A   1      24.477  14.779   8.587  1.00  0.00    +0.000 C 
ATOM    102  C72 UNL A   1      20.651  18.470   9.414  1.00  0.00    +0.000 C 
ATOM    103  C73 UNL A   1      20.185  18.127   8.213  1.00  0.00    +0.000 C 
ENDROOT
BRANCH   47   46
ATOM    104  C74 UNL A   1      19.039  18.369   5.119  1.00  0.00    +0.000 C 
ATOM    105  C75 UNL A   1      18.200  19.249   4.450  1.00  0.00    +0.000 C 
ATOM    136  H31 UNL A   1      20.379  21.709   3.819  1.00  0.00    +0.000 H 
ATOM     43  C32 UNL A   1      18.688  20.453   3.906  1.00  0.00    +0.000 C 
ATOM     44  C33 UNL A   1      20.022  20.795   4.138  1.00  0.00    +0.000 C 
ATOM     45  C34 UNL A   1      20.872  19.911   4.796  1.00  0.00    +0.000 C 
ATOM    137  H32 UNL A   1      21.861  20.165   4.951  1.00  0.00    +0.000 H 
ATOM     46  C35 UNL A   1      20.388  18.683   5.245  1.00  0.00    +0.000 C 
ATOM    148  H43 UNL A   1      18.667  17.493   5.517  1.00  0.00    +0.000 H 
ATOM    149  H44 UNL A   1      17.199  19.018   4.352  1.00  0.00    +0.000 H 
BRANCH   43    2
ATOM      1  O1  UNL A   1      16.514  21.021   3.240  1.00  0.00    +0.000 O 
ATOM      2  C1  UNL A   1      17.721  21.208   3.064  1.00  0.00    +0.000 C 
BRANCH    2    3
ATOM    106  H1  UNL A   1      17.269  22.383   1.554  1.00  0.00    +0.000 H 
ATOM      3  N1  UNL A   1      18.056  22.058   2.049  1.00  0.00    +0.000 N 
BRANCH    3    4
ATOM    108  H3  UNL A   1      19.839  22.978   2.368  1.00  0.00    +0.000 H 
ATOM    107  H2  UNL A   1      19.818  21.800   1.032  1.00  0.00    +0.000 H 
ATOM      4  C2  UNL A   1      19.296  22.589   1.531  1.00  0.00    +0.000 C 
BRANCH    4    5
ATOM    109  H4  UNL A   1      18.345  24.383   0.919  1.00  0.00    +0.000 H 
ATOM      5  C3  UNL A   1      19.117  23.744   0.546  1.00  0.00    +0.000 C 
ATOM    110  H5  UNL A   1      18.880  23.299  -0.398  1.00  0.00    +0.000 H 
BRANCH    5    6
ATOM      6  C4  UNL A   1      20.370  24.598   0.315  1.00  0.00    +0.000 C 
ATOM    111  H6  UNL A   1      20.838  24.257  -0.584  1.00  0.00    +0.000 H 
ATOM    112  H7  UNL A   1      20.971  24.475   1.192  1.00  0.00    +0.000 H 
BRANCH    6    7
ATOM    113  H8  UNL A   1      20.316  26.554   1.134  1.00  0.00    +0.000 H 
ATOM    114  H9  UNL A   1      19.127  26.215  -0.163  1.00  0.00    +0.000 H 
ATOM      7  C5  UNL A   1      20.134  26.105   0.180  1.00  0.00    +0.000 C 
BRANCH    7    8
ATOM    115  H10 UNL A   1      20.458  26.887  -1.767  1.00  0.00    +0.000 H 
ATOM    116  H11 UNL A   1      21.905  26.240  -0.942  1.00  0.00    +0.000 H 
ATOM      8  C6  UNL A   1      21.010  26.820  -0.852  1.00  0.00    +0.000 C 
BRANCH    8    9
ATOM      9  C7  UNL A   1      21.448  28.226  -0.457  1.00  0.00    +0.000 C 
ATOM    117  H12 UNL A   1      21.718  28.764  -1.342  1.00  0.00    +0.000 H 
ATOM    118  H13 UNL A   1      22.277  28.133   0.214  1.00  0.00    +0.000 H 
BRANCH    9   10
ATOM     10  N2  UNL A   1      20.400  28.961   0.234  1.00  0.00    +0.000 N 
ATOM    119  H14 UNL A   1      20.182  28.643   1.139  1.00  0.00    +0.000 H 
BRANCH   10   11
ATOM     11  C8  UNL A   1      19.675  30.040  -0.206  1.00  0.00    +0.000 C 
ATOM     12  O2  UNL A   1      20.147  31.174  -0.156  1.00  0.00    +0.000 O 
BRANCH   11   13
ATOM    134  H29 UNL A   1      16.692  28.139  -3.145  1.00  0.00    +0.000 H 
ATOM    135  H30 UNL A   1      18.917  28.387  -2.195  1.00  0.00    +0.000 H 
ATOM     41  C30 UNL A   1      16.855  28.799  -2.368  1.00  0.00    +0.000 C 
ATOM     42  C31 UNL A   1      18.128  28.937  -1.822  1.00  0.00    +0.000 C 
ATOM     13  C9  UNL A   1      18.326  29.829  -0.764  1.00  0.00    +0.000 C 
ATOM     14  C10 UNL A   1      17.252  30.541  -0.215  1.00  0.00    +0.000 C 
ATOM     15  C11 UNL A   1      15.982  30.438  -0.787  1.00  0.00    +0.000 C 
ATOM     16  C12 UNL A   1      15.790  29.564  -1.857  1.00  0.00    +0.000 C 
ATOM    120  H15 UNL A   1      17.398  31.141   0.611  1.00  0.00    +0.000 H 
ATOM    121  H16 UNL A   1      15.198  31.001  -0.423  1.00  0.00    +0.000 H 
BRANCH   16   17
ATOM     39  N6  UNL A   1      12.574  28.427  -2.753  1.00  0.00    +0.000 N 
ATOM     40  N7  UNL A   1      13.781  28.216  -2.226  1.00  0.00    +0.000 N 
ATOM     17  N3  UNL A   1      14.491  29.355  -2.355  1.00  0.00    +0.000 N 
ATOM     18  C13 UNL A   1      13.754  30.279  -3.035  1.00  0.00    +0.000 C 
ATOM     19  C14 UNL A   1      12.555  29.681  -3.324  1.00  0.00    +0.000 C 
ATOM    122  H17 UNL A   1      14.041  31.238  -3.283  1.00  0.00    +0.000 H 
BRANCH   19   20
ATOM    124  H19 UNL A   1      11.727  30.998  -4.556  1.00  0.00    +0.000 H 
ATOM    123  H18 UNL A   1      10.723  29.467  -4.212  1.00  0.00    +0.000 H 
ATOM     20  C15 UNL A   1      11.318  30.287  -3.868  1.00  0.00    +0.000 C 
BRANCH   20   21
ATOM     21  S1  UNL A   1      10.206  31.332  -2.924  1.00  0.00    +0.000 S 
BRANCH   21   22
ATOM    127  H22 UNL A   1      14.644  32.687   3.134  1.00  0.00    +0.000 H 
ATOM    126  H21 UNL A   1      15.259  34.060   1.226  1.00  0.00    +0.000 H 
ATOM    128  H23 UNL A   1      12.655  31.285   3.017  1.00  0.00    +0.000 H 
ATOM    125  H20 UNL A   1      14.039  33.862  -0.865  1.00  0.00    +0.000 H 
ATOM     22  C16 UNL A   1      10.785  31.731  -1.329  1.00  0.00    +0.000 C 
ATOM     23  N4  UNL A   1      11.992  32.224  -1.352  1.00  0.00    +0.000 N 
ATOM     24  C17 UNL A   1      12.629  32.479  -0.129  1.00  0.00    +0.000 C 
ATOM     25  C18 UNL A   1      13.740  33.316  -0.042  1.00  0.00    +0.000 C 
ATOM     26  C19 UNL A   1      14.455  33.418   1.160  1.00  0.00    +0.000 C 
ATOM     27  C20 UNL A   1      14.082  32.654   2.268  1.00  0.00    +0.000 C 
ATOM     28  C21 UNL A   1      12.949  31.847   2.202  1.00  0.00    +0.000 C 
ATOM     29  C22 UNL A   1      12.215  31.810   1.013  1.00  0.00    +0.000 C 
ATOM     30  C23 UNL A   1      10.905  31.156   0.922  1.00  0.00    +0.000 C 
ATOM     31  O3  UNL A   1      10.616  30.298   1.754  1.00  0.00    +0.000 O 
ATOM     32  N5  UNL A   1      10.096  31.582  -0.139  1.00  0.00    +0.000 N 
BRANCH   32   33
ATOM     33  C24 UNL A   1       8.678  31.748   0.108  1.00  0.00    +0.000 C 
ATOM     34  C25 UNL A   1       8.103  33.034   0.018  1.00  0.00    +0.000 C 
ATOM    129  H24 UNL A   1       8.646  33.793  -0.421  1.00  0.00    +0.000 H 
ATOM     35  C26 UNL A   1       6.823  33.313   0.504  1.00  0.00    +0.000 C 
ATOM    133  H28 UNL A   1       8.093  29.734   0.325  1.00  0.00    +0.000 H 
ATOM     38  C29 UNL A   1       7.807  30.715   0.468  1.00  0.00    +0.000 C 
ATOM     37  C28 UNL A   1       6.546  30.994   1.020  1.00  0.00    +0.000 C 
ATOM    130  H25 UNL A   1       6.441  34.269   0.440  1.00  0.00    +0.000 H 
ATOM     36  C27 UNL A   1       6.071  32.298   1.073  1.00  0.00    +0.000 C 
ATOM    132  H27 UNL A   1       5.968  30.224   1.390  1.00  0.00    +0.000 H 
ATOM    131  H26 UNL A   1       5.170  32.509   1.530  1.00  0.00    +0.000 H 
ENDBRANCH   32   33
ENDBRANCH   21   22
ENDBRANCH   20   21
ENDBRANCH   19   20
ENDBRANCH   16   17
ENDBRANCH   11   13
ENDBRANCH   10   11
ENDBRANCH    9   10
ENDBRANCH    8    9
ENDBRANCH    7    8
ENDBRANCH    6    7
ENDBRANCH    5    6
ENDBRANCH    4    5
ENDBRANCH    3    4
ENDBRANCH    2    3
ENDBRANCH   43    2
ENDBRANCH   47   46
BRANCH   51   52
ATOM     52  C40 UNL A   1      22.683  17.610  11.730  1.00  0.00    +0.000 C 
ATOM     53  C41 UNL A   1      22.295  18.362  12.860  1.00  0.00    +0.000 C 
ATOM     54  F1  UNL A   1      21.893  19.635  12.731  1.00  0.00    +0.000 F 
ATOM     55  C42 UNL A   1      22.416  17.862  14.160  1.00  0.00    +0.000 C 
ATOM     56  F2  UNL A   1      22.178  18.665  15.206  1.00  0.00    +0.000 F 
ATOM     57  C43 UNL A   1      22.857  16.570  14.375  1.00  0.00    +0.000 C 
ATOM     58  F3  UNL A   1      23.049  16.113  15.619  1.00  0.00    +0.000 F 
ATOM     59  C44 UNL A   1      23.148  15.769  13.292  1.00  0.00    +0.000 C 
ATOM     60  F4  UNL A   1      23.585  14.516  13.481  1.00  0.00    +0.000 F 
ATOM     61  C45 UNL A   1      23.077  16.280  11.998  1.00  0.00    +0.000 C 
ATOM     62  F5  UNL A   1      23.514  15.455  11.041  1.00  0.00    +0.000 F 
ENDBRANCH   51   52
BRANCH   68   69
ATOM     69  C51 UNL A   1      26.910  16.930   6.467  1.00  0.00    +0.000 C 
ATOM     70  C52 UNL A   1      26.399  17.502   5.289  1.00  0.00    +0.000 C 
ATOM     71  F6  UNL A   1      25.088  17.748   5.158  1.00  0.00    +0.000 F 
ATOM     72  C53 UNL A   1      27.243  17.887   4.249  1.00  0.00    +0.000 C 
ATOM     73  F7  UNL A   1      26.732  18.421   3.130  1.00  0.00    +0.000 F 
ATOM     74  C54 UNL A   1      28.616  17.755   4.385  1.00  0.00    +0.000 C 
ATOM     75  F8  UNL A   1      29.431  18.166   3.405  1.00  0.00    +0.000 F 
ATOM     76  C55 UNL A   1      29.145  17.227   5.552  1.00  0.00    +0.000 C 
ATOM     77  F9  UNL A   1      30.473  17.147   5.710  1.00  0.00    +0.000 F 
ATOM     78  C56 UNL A   1      28.301  16.808   6.576  1.00  0.00    +0.000 C 
ATOM     79  F10 UNL A   1      28.846  16.325   7.704  1.00  0.00    +0.000 F 
ENDBRANCH   68   69
BRANCH   83   84
ATOM     84  C60 UNL A   1      23.052  12.098   5.259  1.00  0.00    +0.000 C 
ATOM     85  C61 UNL A   1      22.016  11.473   5.971  1.00  0.00    +0.000 C 
ATOM     86  F11 UNL A   1      21.514  12.049   7.074  1.00  0.00    +0.000 F 
ATOM     87  C62 UNL A   1      21.433  10.283   5.524  1.00  0.00    +0.000 C 
ATOM     88  F12 UNL A   1      20.407   9.744   6.199  1.00  0.00    +0.000 F 
ATOM     89  C63 UNL A   1      21.871   9.683   4.355  1.00  0.00    +0.000 C 
ATOM     90  F13 UNL A   1      21.274   8.576   3.893  1.00  0.00    +0.000 F 
ATOM     91  C64 UNL A   1      22.904  10.262   3.641  1.00  0.00    +0.000 C 
ATOM     92  F14 UNL A   1      23.311   9.715   2.487  1.00  0.00    +0.000 F 
ATOM     93  C65 UNL A   1      23.483  11.451   4.084  1.00  0.00    +0.000 C 
ATOM     94  F15 UNL A   1      24.407  12.012   3.291  1.00  0.00    +0.000 F 
ENDBRANCH   83   84
TORSDOF 20
ENDMDL
MODEL 8
REMARK VINA RESULT:      -8.7     43.770     49.692
ROOT
ATOM    138  H33 UNL A   1       7.647  26.183  -3.232  1.00  0.00    +0.000 H 
ATOM    139  H34 UNL A   1       7.075  28.260  -1.664  1.00  0.00    +0.000 H 
ATOM    140  H35 UNL A   1      10.305  26.343  -0.224  1.00  0.00    +0.000 H 
ATOM    141  H36 UNL A   1      13.452  33.678  -2.369  1.00  0.00    +0.000 H 
ATOM    142  H37 UNL A   1      12.385  32.959  -4.567  1.00  0.00    +0.000 H 
ATOM    143  H38 UNL A   1      11.933  29.808  -1.895  1.00  0.00    +0.000 H 
ATOM    144  H39 UNL A   1      14.118  28.834   0.278  1.00  0.00    +0.000 H 
ATOM    145  H40 UNL A   1      11.985  27.412   0.008  1.00  0.00    +0.000 H 
ATOM    146  H41 UNL A   1      12.437  25.684  -5.300  1.00  0.00    +0.000 H 
ATOM    147  H42 UNL A   1      13.317  28.035  -5.869  1.00  0.00    +0.000 H 
ATOM     47  C36 UNL A   1      11.782  30.125  -4.654  1.00  0.00    +0.000 C 
ATOM     48  C37 UNL A   1      11.645  28.654  -4.463  1.00  0.00    +0.000 C 
ATOM     49  N8  UNL A   1      10.752  28.014  -3.778  1.00  0.00    +0.000 N 
ATOM     50  C38 UNL A   1      11.096  26.665  -3.866  1.00  0.00    +0.000 C 
ATOM     51  C39 UNL A   1      10.691  25.767  -2.925  1.00  0.00    +0.000 C 
ATOM     63  C46 UNL A   1       9.551  26.255  -2.193  1.00  0.00    +0.000 C 
ATOM     64  C47 UNL A   1       8.259  26.616  -2.522  1.00  0.00    +0.000 C 
ATOM     65  C48 UNL A   1       7.952  27.716  -1.667  1.00  0.00    +0.000 C 
ATOM     66  C49 UNL A   1       9.053  27.924  -0.838  1.00  0.00    +0.000 C 
ATOM     67  N9  UNL A   1       9.756  26.752  -0.930  1.00  0.00    +0.000 N 
ATOM     68  C50 UNL A   1       9.519  29.064  -0.091  1.00  0.00    +0.000 C 
ATOM     80  C57 UNL A   1      10.814  29.261   0.290  1.00  0.00    +0.000 C 
ATOM     81  N10 UNL A   1      11.285  30.533   0.582  1.00  0.00    +0.000 N 
ATOM     82  C58 UNL A   1      12.563  30.477   0.324  1.00  0.00    +0.000 C 
ATOM     83  C59 UNL A   1      13.316  31.586  -0.315  1.00  0.00    +0.000 C 
ATOM     95  C66 UNL A   1      12.870  31.689  -1.593  1.00  0.00    +0.000 C 
ATOM     96  C67 UNL A   1      13.018  32.761  -2.554  1.00  0.00    +0.000 C 
ATOM     97  C68 UNL A   1      12.492  32.363  -3.732  1.00  0.00    +0.000 C 
ATOM     98  C69 UNL A   1      12.098  30.957  -3.640  1.00  0.00    +0.000 C 
ATOM     99  N11 UNL A   1      12.238  30.650  -2.303  1.00  0.00    +0.000 N 
ATOM    100  C70 UNL A   1      13.134  29.143   0.257  1.00  0.00    +0.000 C 
ATOM    101  C71 UNL A   1      12.008  28.431   0.159  1.00  0.00    +0.000 C 
ATOM    102  C72 UNL A   1      12.103  26.569  -4.889  1.00  0.00    +0.000 C 
ATOM    103  C73 UNL A   1      12.545  27.779  -5.231  1.00  0.00    +0.000 C 
ENDROOT
BRANCH   47   46
ATOM    104  C74 UNL A   1      12.804  30.489  -6.881  1.00  0.00    +0.000 C 
ATOM    105  C75 UNL A   1      12.684  30.900  -8.201  1.00  0.00    +0.000 C 
ATOM    136  H31 UNL A   1       9.420  31.634  -8.250  1.00  0.00    +0.000 H 
ATOM     43  C32 UNL A   1      11.464  31.388  -8.705  1.00  0.00    +0.000 C 
ATOM     44  C33 UNL A   1      10.341  31.359  -7.875  1.00  0.00    +0.000 C 
ATOM     45  C34 UNL A   1      10.458  30.961  -6.547  1.00  0.00    +0.000 C 
ATOM    137  H32 UNL A   1       9.626  30.956  -5.934  1.00  0.00    +0.000 H 
ATOM     46  C35 UNL A   1      11.698  30.569  -6.042  1.00  0.00    +0.000 C 
ATOM    148  H43 UNL A   1      13.704  30.129  -6.526  1.00  0.00    +0.000 H 
ATOM    149  H44 UNL A   1      13.504  30.846  -8.825  1.00  0.00    +0.000 H 
BRANCH   43    2
ATOM      1  O1  UNL A   1      10.961  33.035 -10.296  1.00  0.00    +0.000 O 
ATOM      2  C1  UNL A   1      11.526  31.960 -10.078  1.00  0.00    +0.000 C 
BRANCH    2    3
ATOM    106  H1  UNL A   1      11.502  30.723 -11.607  1.00  0.00    +0.000 H 
ATOM      3  N1  UNL A   1      12.107  31.357 -11.157  1.00  0.00    +0.000 N 
BRANCH    3    4
ATOM    108  H3  UNL A   1      14.117  31.070 -11.081  1.00  0.00    +0.000 H 
ATOM    107  H2  UNL A   1      13.375  30.843 -12.684  1.00  0.00    +0.000 H 
ATOM      4  C2  UNL A   1      13.403  31.432 -11.792  1.00  0.00    +0.000 C 
BRANCH    4    5
ATOM    109  H4  UNL A   1      13.546  33.506 -11.371  1.00  0.00    +0.000 H 
ATOM      5  C3  UNL A   1      13.833  32.851 -12.166  1.00  0.00    +0.000 C 
ATOM    110  H5  UNL A   1      13.353  33.075 -13.095  1.00  0.00    +0.000 H 
BRANCH    5    6
ATOM      6  C4  UNL A   1      15.338  33.028 -12.407  1.00  0.00    +0.000 C 
ATOM    111  H6  UNL A   1      15.758  32.061 -12.582  1.00  0.00    +0.000 H 
ATOM    112  H7  UNL A   1      15.717  33.515 -11.532  1.00  0.00    +0.000 H 
BRANCH    6    7
ATOM    113  H8  UNL A   1      14.937  34.644 -13.723  1.00  0.00    +0.000 H 
ATOM    114  H9  UNL A   1      15.864  33.277 -14.420  1.00  0.00    +0.000 H 
ATOM      7  C5  UNL A   1      15.722  33.929 -13.584  1.00  0.00    +0.000 C 
BRANCH    7    8
ATOM    115  H10 UNL A   1      17.830  34.079 -13.786  1.00  0.00    +0.000 H 
ATOM    116  H11 UNL A   1      17.124  34.932 -12.383  1.00  0.00    +0.000 H 
ATOM      8  C6  UNL A   1      17.036  34.699 -13.424  1.00  0.00    +0.000 C 
BRANCH    8    9
ATOM      9  C7  UNL A   1      17.094  36.029 -14.169  1.00  0.00    +0.000 C 
ATOM    117  H12 UNL A   1      16.129  36.232 -14.584  1.00  0.00    +0.000 H 
ATOM    118  H13 UNL A   1      17.840  35.943 -14.931  1.00  0.00    +0.000 H 
BRANCH    9   10
ATOM     10  N2  UNL A   1      17.471  37.135 -13.303  1.00  0.00    +0.000 N 
ATOM    119  H14 UNL A   1      18.164  37.736 -13.658  1.00  0.00    +0.000 H 
BRANCH   10   11
ATOM     11  C8  UNL A   1      16.990  37.454 -12.059  1.00  0.00    +0.000 C 
ATOM     12  O2  UNL A   1      17.727  37.954 -11.211  1.00  0.00    +0.000 O 
BRANCH   11   13
ATOM    134  H29 UNL A   1      13.584  35.520  -9.649  1.00  0.00    +0.000 H 
ATOM    135  H30 UNL A   1      15.937  35.968 -10.073  1.00  0.00    +0.000 H 
ATOM     41  C30 UNL A   1      13.864  36.123 -10.438  1.00  0.00    +0.000 C 
ATOM     42  C31 UNL A   1      15.210  36.383 -10.678  1.00  0.00    +0.000 C 
ATOM     13  C9  UNL A   1      15.569  37.211 -11.746  1.00  0.00    +0.000 C 
ATOM     14  C10 UNL A   1      14.591  37.821 -12.539  1.00  0.00    +0.000 C 
ATOM     15  C11 UNL A   1      13.241  37.531 -12.330  1.00  0.00    +0.000 C 
ATOM     16  C12 UNL A   1      12.885  36.687 -11.277  1.00  0.00    +0.000 C 
ATOM    120  H15 UNL A   1      14.866  38.486 -13.279  1.00  0.00    +0.000 H 
ATOM    121  H16 UNL A   1      12.518  37.934 -12.946  1.00  0.00    +0.000 H 
BRANCH   16   17
ATOM     39  N6  UNL A   1       9.708  36.107  -9.861  1.00  0.00    +0.000 N 
ATOM     40  N7  UNL A   1      11.040  36.106  -9.780  1.00  0.00    +0.000 N 
ATOM     17  N3  UNL A   1      11.525  36.491 -10.977  1.00  0.00    +0.000 N 
ATOM     18  C13 UNL A   1      10.495  36.671 -11.852  1.00  0.00    +0.000 C 
ATOM     19  C14 UNL A   1       9.346  36.390 -11.159  1.00  0.00    +0.000 C 
ATOM    122  H17 UNL A   1      10.565  36.963 -12.839  1.00  0.00    +0.000 H 
BRANCH   19   20
ATOM    124  H19 UNL A   1       7.900  37.684 -11.578  1.00  0.00    +0.000 H 
ATOM    123  H18 UNL A   1       7.798  36.043 -12.454  1.00  0.00    +0.000 H 
ATOM     20  C15 UNL A   1       7.937  36.614 -11.560  1.00  0.00    +0.000 C 
BRANCH   20   21
ATOM     21  S1  UNL A   1       6.522  36.245 -10.521  1.00  0.00    +0.000 S 
BRANCH   21   22
ATOM    127  H22 UNL A   1       6.624  28.861  -8.601  1.00  0.00    +0.000 H 
ATOM    126  H21 UNL A   1       8.150  29.351 -10.428  1.00  0.00    +0.000 H 
ATOM    128  H23 UNL A   1       5.471  30.686  -7.474  1.00  0.00    +0.000 H 
ATOM    125  H20 UNL A   1       8.347  31.616 -11.280  1.00  0.00    +0.000 H 
ATOM     22  C16 UNL A   1       6.654  34.746  -9.642  1.00  0.00    +0.000 C 
ATOM     23  N4  UNL A   1       7.012  33.754 -10.409  1.00  0.00    +0.000 N 
ATOM     24  C17 UNL A   1       7.043  32.466  -9.858  1.00  0.00    +0.000 C 
ATOM     25  C18 UNL A   1       7.738  31.423 -10.470  1.00  0.00    +0.000 C 
ATOM     26  C19 UNL A   1       7.611  30.113  -9.989  1.00  0.00    +0.000 C 
ATOM     27  C20 UNL A   1       6.760  29.835  -8.917  1.00  0.00    +0.000 C 
ATOM     28  C21 UNL A   1       6.095  30.875  -8.274  1.00  0.00    +0.000 C 
ATOM     29  C22 UNL A   1       6.286  32.183  -8.732  1.00  0.00    +0.000 C 
ATOM     30  C23 UNL A   1       5.794  33.350  -7.992  1.00  0.00    +0.000 C 
ATOM     31  O3  UNL A   1       4.875  33.195  -7.190  1.00  0.00    +0.000 O 
ATOM     32  N5  UNL A   1       6.433  34.560  -8.289  1.00  0.00    +0.000 N 
BRANCH   32   33
ATOM     33  C24 UNL A   1       6.720  35.467  -7.196  1.00  0.00    +0.000 C 
ATOM     34  C25 UNL A   1       7.914  35.312  -6.459  1.00  0.00    +0.000 C 
ATOM    129  H24 UNL A   1       8.655  34.700  -6.833  1.00  0.00    +0.000 H 
ATOM     35  C26 UNL A   1       8.125  35.960  -5.239  1.00  0.00    +0.000 C 
ATOM    133  H28 UNL A   1       5.116  36.820  -7.398  1.00  0.00    +0.000 H 
ATOM     38  C29 UNL A   1       5.875  36.499  -6.776  1.00  0.00    +0.000 C 
ATOM     37  C28 UNL A   1       6.045  37.105  -5.521  1.00  0.00    +0.000 C 
ATOM    130  H25 UNL A   1       9.002  35.808  -4.717  1.00  0.00    +0.000 H 
ATOM     36  C27 UNL A   1       7.150  36.806  -4.736  1.00  0.00    +0.000 C 
ATOM    132  H27 UNL A   1       5.341  37.778  -5.179  1.00  0.00    +0.000 H 
ATOM    131  H26 UNL A   1       7.246  37.208  -3.790  1.00  0.00    +0.000 H 
ENDBRANCH   32   33
ENDBRANCH   21   22
ENDBRANCH   20   21
ENDBRANCH   19   20
ENDBRANCH   16   17
ENDBRANCH   11   13
ENDBRANCH   10   11
ENDBRANCH    9   10
ENDBRANCH    8    9
ENDBRANCH    7    8
ENDBRANCH    6    7
ENDBRANCH    5    6
ENDBRANCH    4    5
ENDBRANCH    3    4
ENDBRANCH    2    3
ENDBRANCH   43    2
ENDBRANCH   47   46
BRANCH   51   52
ATOM     52  C40 UNL A   1      11.554  24.639  -2.397  1.00  0.00    +0.000 C 
ATOM     53  C41 UNL A   1      12.829  24.947  -1.877  1.00  0.00    +0.000 C 
ATOM     54  F1  UNL A   1      13.154  26.209  -1.561  1.00  0.00    +0.000 F 
ATOM     55  C42 UNL A   1      13.838  23.985  -1.774  1.00  0.00    +0.000 C 
ATOM     56  F2  UNL A   1      15.075  24.355  -1.416  1.00  0.00    +0.000 F 
ATOM     57  C43 UNL A   1      13.589  22.669  -2.114  1.00  0.00    +0.000 C 
ATOM     58  F3  UNL A   1      14.573  21.761  -2.090  1.00  0.00    +0.000 F 
ATOM     59  C44 UNL A   1      12.326  22.308  -2.529  1.00  0.00    +0.000 C 
ATOM     60  F4  UNL A   1      12.067  21.038  -2.871  1.00  0.00    +0.000 F 
ATOM     61  C45 UNL A   1      11.332  23.274  -2.682  1.00  0.00    +0.000 C 
ATOM     62  F5  UNL A   1      10.193  22.828  -3.220  1.00  0.00    +0.000 F 
ENDBRANCH   51   52
BRANCH   68   69
ATOM     69  C51 UNL A   1       8.566  30.216   0.054  1.00  0.00    +0.000 C 
ATOM     70  C52 UNL A   1       8.332  31.164  -0.958  1.00  0.00    +0.000 C 
ATOM     71  F6  UNL A   1       8.992  31.102  -2.122  1.00  0.00    +0.000 F 
ATOM     72  C53 UNL A   1       7.365  32.157  -0.805  1.00  0.00    +0.000 C 
ATOM     73  F7  UNL A   1       7.167  33.057  -1.780  1.00  0.00    +0.000 F 
ATOM     74  C54 UNL A   1       6.580  32.192   0.336  1.00  0.00    +0.000 C 
ATOM     75  F8  UNL A   1       5.621  33.118   0.464  1.00  0.00    +0.000 F 
ATOM     76  C55 UNL A   1       6.770  31.245   1.331  1.00  0.00    +0.000 C 
ATOM     77  F9  UNL A   1       5.978  31.243   2.412  1.00  0.00    +0.000 F 
ATOM     78  C56 UNL A   1       7.760  30.276   1.197  1.00  0.00    +0.000 C 
ATOM     79  F10 UNL A   1       7.899  29.359   2.167  1.00  0.00    +0.000 F 
ENDBRANCH   68   69
BRANCH   83   84
ATOM     84  C60 UNL A   1      14.561  32.140   0.265  1.00  0.00    +0.000 C 
ATOM     85  C61 UNL A   1      14.533  33.225   1.156  1.00  0.00    +0.000 C 
ATOM     86  F11 UNL A   1      13.399  33.918   1.337  1.00  0.00    +0.000 F 
ATOM     87  C62 UNL A   1      15.649  33.571   1.925  1.00  0.00    +0.000 C 
ATOM     88  F12 UNL A   1      15.568  34.577   2.808  1.00  0.00    +0.000 F 
ATOM     89  C63 UNL A   1      16.824  32.845   1.823  1.00  0.00    +0.000 C 
ATOM     90  F13 UNL A   1      17.874  33.138   2.603  1.00  0.00    +0.000 F 
ATOM     91  C64 UNL A   1      16.892  31.784   0.940  1.00  0.00    +0.000 C 
ATOM     92  F14 UNL A   1      18.009  31.047   0.860  1.00  0.00    +0.000 F 
ATOM     93  C65 UNL A   1      15.778  31.435   0.176  1.00  0.00    +0.000 C 
ATOM     94  F15 UNL A   1      15.880  30.334  -0.582  1.00  0.00    +0.000 F 
ENDBRANCH   83   84
TORSDOF 20
ENDMDL
MODEL 9
REMARK VINA RESULT:      -8.7      5.337     11.460
ROOT
ATOM    138  H33 UNL A   1      41.421  31.423  29.667  1.00  0.00    +0.000 H 
ATOM    139  H34 UNL A   1      38.889  32.081  30.172  1.00  0.00    +0.000 H 
ATOM    140  H35 UNL A   1      40.116  29.331  32.839  1.00  0.00    +0.000 H 
ATOM    141  H36 UNL A   1      38.815  35.936  37.633  1.00  0.00    +0.000 H 
ATOM    142  H37 UNL A   1      40.436  36.904  35.922  1.00  0.00    +0.000 H 
ATOM    143  H38 UNL A   1      40.042  32.852  35.085  1.00  0.00    +0.000 H 
ATOM    144  H39 UNL A   1      39.806  30.478  37.265  1.00  0.00    +0.000 H 
ATOM    145  H40 UNL A   1      39.988  29.808  34.781  1.00  0.00    +0.000 H 
ATOM    146  H41 UNL A   1      45.045  31.802  33.434  1.00  0.00    +0.000 H 
ATOM    147  H42 UNL A   1      44.491  33.858  34.879  1.00  0.00    +0.000 H 
ATOM     47  C36 UNL A   1      41.847  34.863  34.426  1.00  0.00    +0.000 C 
ATOM     48  C37 UNL A   1      42.473  33.633  33.864  1.00  0.00    +0.000 C 
ATOM     49  N8  UNL A   1      41.984  32.812  32.990  1.00  0.00    +0.000 N 
ATOM     50  C38 UNL A   1      42.930  31.797  32.847  1.00  0.00    +0.000 C 
ATOM     51  C39 UNL A   1      42.580  30.560  32.395  1.00  0.00    +0.000 C 
ATOM     63  C46 UNL A   1      41.335  30.600  31.673  1.00  0.00    +0.000 C 
ATOM     64  C47 UNL A   1      40.887  31.233  30.530  1.00  0.00    +0.000 C 
ATOM     65  C48 UNL A   1      39.527  31.567  30.800  1.00  0.00    +0.000 C 
ATOM     66  C49 UNL A   1      39.216  31.073  32.066  1.00  0.00    +0.000 C 
ATOM     67  N9  UNL A   1      40.203  30.155  32.308  1.00  0.00    +0.000 N 
ATOM     68  C50 UNL A   1      38.206  31.418  33.034  1.00  0.00    +0.000 C 
ATOM     80  C57 UNL A   1      38.306  31.177  34.373  1.00  0.00    +0.000 C 
ATOM     81  N10 UNL A   1      37.561  31.910  35.285  1.00  0.00    +0.000 N 
ATOM     82  C58 UNL A   1      38.268  31.884  36.382  1.00  0.00    +0.000 C 
ATOM     83  C59 UNL A   1      38.409  33.050  37.290  1.00  0.00    +0.000 C 
ATOM     95  C66 UNL A   1      39.127  33.991  36.626  1.00  0.00    +0.000 C 
ATOM     96  C67 UNL A   1      39.297  35.403  36.893  1.00  0.00    +0.000 C 
ATOM     97  C68 UNL A   1      40.190  35.907  36.015  1.00  0.00    +0.000 C 
ATOM     98  C69 UNL A   1      40.755  34.819  35.216  1.00  0.00    +0.000 C 
ATOM     99  N11 UNL A   1      39.991  33.720  35.547  1.00  0.00    +0.000 N 
ATOM    100  C70 UNL A   1      39.277  30.841  36.457  1.00  0.00    +0.000 C 
ATOM    101  C71 UNL A   1      39.318  30.489  35.169  1.00  0.00    +0.000 C 
ATOM    102  C72 UNL A   1      44.121  32.256  33.509  1.00  0.00    +0.000 C 
ATOM    103  C73 UNL A   1      43.869  33.348  34.232  1.00  0.00    +0.000 C 
ENDROOT
BRANCH   47   46
ATOM    104  C74 UNL A   1      42.836  36.528  32.880  1.00  0.00    +0.000 C 
ATOM    105  C75 UNL A   1      43.533  37.711  32.682  1.00  0.00    +0.000 C 
ATOM    136  H31 UNL A   1      43.899  38.670  35.867  1.00  0.00    +0.000 H 
ATOM     43  C32 UNL A   1      43.991  38.480  33.769  1.00  0.00    +0.000 C 
ATOM     44  C33 UNL A   1      43.644  38.078  35.061  1.00  0.00    +0.000 C 
ATOM     45  C34 UNL A   1      42.958  36.885  35.267  1.00  0.00    +0.000 C 
ATOM    137  H32 UNL A   1      42.718  36.587  36.227  1.00  0.00    +0.000 H 
ATOM     46  C35 UNL A   1      42.595  36.092  34.179  1.00  0.00    +0.000 C 
ATOM    148  H43 UNL A   1      42.503  35.976  32.074  1.00  0.00    +0.000 H 
ATOM    149  H44 UNL A   1      43.717  38.035  31.720  1.00  0.00    +0.000 H 
BRANCH   43    2
ATOM      1  O1  UNL A   1      45.926  39.391  32.811  1.00  0.00    +0.000 O 
ATOM      2  C1  UNL A   1      44.874  39.623  33.412  1.00  0.00    +0.000 C 
BRANCH    2    3
ATOM    106  H1  UNL A   1      43.833  41.044  34.286  1.00  0.00    +0.000 H 
ATOM      3  N1  UNL A   1      44.654  40.926  33.756  1.00  0.00    +0.000 N 
BRANCH    3    4
ATOM    108  H3  UNL A   1      46.258  42.132  34.081  1.00  0.00    +0.000 H 
ATOM    107  H2  UNL A   1      45.513  42.272  32.469  1.00  0.00    +0.000 H 
ATOM      4  C2  UNL A   1      45.346  42.174  33.521  1.00  0.00    +0.000 C 
BRANCH    4    5
ATOM    109  H4  UNL A   1      45.302  44.126  34.346  1.00  0.00    +0.000 H 
ATOM      5  C3  UNL A   1      44.587  43.409  34.005  1.00  0.00    +0.000 C 
ATOM    110  H5  UNL A   1      43.923  43.071  34.774  1.00  0.00    +0.000 H 
BRANCH    5    6
ATOM      6  C4  UNL A   1      43.707  44.083  32.944  1.00  0.00    +0.000 C 
ATOM    111  H6  UNL A   1      44.306  44.240  32.073  1.00  0.00    +0.000 H 
ATOM    112  H7  UNL A   1      43.349  44.986  33.395  1.00  0.00    +0.000 H 
BRANCH    6    7
ATOM    113  H8  UNL A   1      41.625  43.977  32.549  1.00  0.00    +0.000 H 
ATOM    114  H9  UNL A   1      42.374  42.489  33.209  1.00  0.00    +0.000 H 
ATOM      7  C5  UNL A   1      42.457  43.305  32.523  1.00  0.00    +0.000 C 
BRANCH    7    8
ATOM    115  H10 UNL A   1      43.477  42.876  30.710  1.00  0.00    +0.000 H 
ATOM    116  H11 UNL A   1      41.711  43.115  30.568  1.00  0.00    +0.000 H 
ATOM      8  C6  UNL A   1      42.511  42.676  31.128  1.00  0.00    +0.000 C 
BRANCH    8    9
ATOM      9  C7  UNL A   1      42.281  41.169  31.095  1.00  0.00    +0.000 C 
ATOM    117  H12 UNL A   1      41.316  40.960  31.506  1.00  0.00    +0.000 H 
ATOM    118  H13 UNL A   1      43.059  40.708  31.667  1.00  0.00    +0.000 H 
BRANCH    9   10
ATOM     10  N2  UNL A   1      42.342  40.626  29.747  1.00  0.00    +0.000 N 
ATOM    119  H14 UNL A   1      41.492  40.621  29.252  1.00  0.00    +0.000 H 
BRANCH   10   11
ATOM     11  C8  UNL A   1      43.424  40.121  29.073  1.00  0.00    +0.000 C 
ATOM     12  O2  UNL A   1      44.204  40.870  28.488  1.00  0.00    +0.000 O 
BRANCH   11   13
ATOM    134  H29 UNL A   1      42.096  35.737  28.665  1.00  0.00    +0.000 H 
ATOM    135  H30 UNL A   1      41.679  38.131  28.569  1.00  0.00    +0.000 H 
ATOM     41  C30 UNL A   1      42.856  36.405  28.866  1.00  0.00    +0.000 C 
ATOM     42  C31 UNL A   1      42.618  37.776  28.806  1.00  0.00    +0.000 C 
ATOM     13  C9  UNL A   1      43.664  38.665  29.071  1.00  0.00    +0.000 C 
ATOM     14  C10 UNL A   1      44.954  38.195  29.342  1.00  0.00    +0.000 C 
ATOM     15  C11 UNL A   1      45.189  36.822  29.445  1.00  0.00    +0.000 C 
ATOM     16  C12 UNL A   1      44.140  35.935  29.202  1.00  0.00    +0.000 C 
ATOM    120  H15 UNL A   1      45.732  38.861  29.465  1.00  0.00    +0.000 H 
ATOM    121  H16 UNL A   1      46.125  36.469  29.698  1.00  0.00    +0.000 H 
BRANCH   16   17
ATOM     39  N6  UNL A   1      45.353  32.638  29.514  1.00  0.00    +0.000 N 
ATOM     40  N7  UNL A   1      45.512  33.958  29.638  1.00  0.00    +0.000 N 
ATOM     17  N3  UNL A   1      44.394  34.552  29.175  1.00  0.00    +0.000 N 
ATOM     18  C13 UNL A   1      43.543  33.607  28.685  1.00  0.00    +0.000 C 
ATOM     19  C14 UNL A   1      44.164  32.398  28.861  1.00  0.00    +0.000 C 
ATOM    122  H17 UNL A   1      42.615  33.769  28.265  1.00  0.00    +0.000 H 
BRANCH   19   20
ATOM    124  H19 UNL A   1      44.195  30.491  29.408  1.00  0.00    +0.000 H 
ATOM    123  H18 UNL A   1      42.554  31.134  28.806  1.00  0.00    +0.000 H 
ATOM     20  C15 UNL A   1      43.613  31.033  28.692  1.00  0.00    +0.000 C 
BRANCH   20   21
ATOM     21  S1  UNL A   1      43.851  30.023  27.228  1.00  0.00    +0.000 S 
BRANCH   21   22
ATOM    127  H22 UNL A   1      44.715  22.446  27.486  1.00  0.00    +0.000 H 
ATOM    126  H21 UNL A   1      46.524  23.611  28.617  1.00  0.00    +0.000 H 
ATOM    128  H23 UNL A   1      42.808  23.709  26.651  1.00  0.00    +0.000 H 
ATOM    125  H20 UNL A   1      46.546  26.038  28.707  1.00  0.00    +0.000 H 
ATOM     22  C16 UNL A   1      43.602  28.318  27.491  1.00  0.00    +0.000 C 
ATOM     23  N4  UNL A   1      44.725  27.675  27.651  1.00  0.00    +0.000 N 
ATOM     24  C17 UNL A   1      44.681  26.277  27.753  1.00  0.00    +0.000 C 
ATOM     25  C18 UNL A   1      45.749  25.547  28.272  1.00  0.00    +0.000 C 
ATOM     26  C19 UNL A   1      45.745  24.147  28.205  1.00  0.00    +0.000 C 
ATOM     27  C20 UNL A   1      44.689  23.474  27.585  1.00  0.00    +0.000 C 
ATOM     28  C21 UNL A   1      43.600  24.193  27.101  1.00  0.00    +0.000 C 
ATOM     29  C22 UNL A   1      43.597  25.585  27.236  1.00  0.00    +0.000 C 
ATOM     30  C23 UNL A   1      42.410  26.396  26.945  1.00  0.00    +0.000 C 
ATOM     31  O3  UNL A   1      41.544  25.930  26.207  1.00  0.00    +0.000 O 
ATOM     32  N5  UNL A   1      42.387  27.660  27.548  1.00  0.00    +0.000 N 
BRANCH   32   33
ATOM     33  C24 UNL A   1      41.128  28.138  28.083  1.00  0.00    +0.000 C 
ATOM     34  C25 UNL A   1      40.683  27.668  29.338  1.00  0.00    +0.000 C 
ATOM    129  H24 UNL A   1      41.346  27.162  29.945  1.00  0.00    +0.000 H 
ATOM     35  C26 UNL A   1      39.374  27.865  29.785  1.00  0.00    +0.000 C 
ATOM    133  H28 UNL A   1      40.630  29.591  26.639  1.00  0.00    +0.000 H 
ATOM     38  C29 UNL A   1      40.274  29.032  27.430  1.00  0.00    +0.000 C 
ATOM     37  C28 UNL A   1      38.938  29.181  27.836  1.00  0.00    +0.000 C 
ATOM    130  H25 UNL A   1      39.076  27.491  30.699  1.00  0.00    +0.000 H 
ATOM     36  C27 UNL A   1      38.478  28.566  28.993  1.00  0.00    +0.000 C 
ATOM    132  H27 UNL A   1      38.292  29.752  27.270  1.00  0.00    +0.000 H 
ATOM    131  H26 UNL A   1      37.484  28.629  29.261  1.00  0.00    +0.000 H 
ENDBRANCH   32   33
ENDBRANCH   21   22
ENDBRANCH   20   21
ENDBRANCH   19   20
ENDBRANCH   16   17
ENDBRANCH   11   13
ENDBRANCH   10   11
ENDBRANCH    9   10
ENDBRANCH    8    9
ENDBRANCH    7    8
ENDBRANCH    6    7
ENDBRANCH    5    6
ENDBRANCH    4    5
ENDBRANCH    3    4
ENDBRANCH    2    3
ENDBRANCH   43    2
ENDBRANCH   47   46
BRANCH   51   52
ATOM     52  C40 UNL A   1      43.145  29.264  32.939  1.00  0.00    +0.000 C 
ATOM     53  C41 UNL A   1      43.576  28.276  32.028  1.00  0.00    +0.000 C 
ATOM     54  F1  UNL A   1      43.783  28.578  30.738  1.00  0.00    +0.000 F 
ATOM     55  C42 UNL A   1      43.699  26.933  32.395  1.00  0.00    +0.000 C 
ATOM     56  F2  UNL A   1      43.966  26.011  31.461  1.00  0.00    +0.000 F 
ATOM     57  C43 UNL A   1      43.468  26.539  33.699  1.00  0.00    +0.000 C 
ATOM     58  F3  UNL A   1      43.509  25.244  34.038  1.00  0.00    +0.000 F 
ATOM     59  C44 UNL A   1      43.145  27.490  34.642  1.00  0.00    +0.000 C 
ATOM     60  F4  UNL A   1      42.909  27.127  35.911  1.00  0.00    +0.000 F 
ATOM     61  C45 UNL A   1      42.972  28.822  34.269  1.00  0.00    +0.000 C 
ATOM     62  F5  UNL A   1      42.525  29.625  35.240  1.00  0.00    +0.000 F 
ENDBRANCH   51   52
BRANCH   68   69
ATOM     69  C51 UNL A   1      37.097  32.315  32.567  1.00  0.00    +0.000 C 
ATOM     70  C52 UNL A   1      37.084  33.707  32.771  1.00  0.00    +0.000 C 
ATOM     71  F6  UNL A   1      38.075  34.311  33.440  1.00  0.00    +0.000 F 
ATOM     72  C53 UNL A   1      36.076  34.505  32.232  1.00  0.00    +0.000 C 
ATOM     73  F7  UNL A   1      36.079  35.829  32.449  1.00  0.00    +0.000 F 
ATOM     74  C54 UNL A   1      35.091  33.938  31.438  1.00  0.00    +0.000 C 
ATOM     75  F8  UNL A   1      34.148  34.711  30.883  1.00  0.00    +0.000 F 
ATOM     76  C55 UNL A   1      35.104  32.574  31.195  1.00  0.00    +0.000 C 
ATOM     77  F9  UNL A   1      34.186  32.030  30.385  1.00  0.00    +0.000 F 
ATOM     78  C56 UNL A   1      36.088  31.770  31.763  1.00  0.00    +0.000 C 
ATOM     79  F10 UNL A   1      36.087  30.457  31.485  1.00  0.00    +0.000 F 
ENDBRANCH   68   69
BRANCH   83   84
ATOM     84  C60 UNL A   1      38.145  32.962  38.745  1.00  0.00    +0.000 C 
ATOM     85  C61 UNL A   1      36.845  32.775  39.242  1.00  0.00    +0.000 C 
ATOM     86  F11 UNL A   1      35.789  32.884  38.422  1.00  0.00    +0.000 F 
ATOM     87  C62 UNL A   1      36.613  32.406  40.571  1.00  0.00    +0.000 C 
ATOM     88  F12 UNL A   1      35.362  32.180  40.995  1.00  0.00    +0.000 F 
ATOM     89  C63 UNL A   1      37.674  32.217  41.441  1.00  0.00    +0.000 C 
ATOM     90  F13 UNL A   1      37.458  31.805  42.698  1.00  0.00    +0.000 F 
ATOM     91  C64 UNL A   1      38.966  32.414  40.990  1.00  0.00    +0.000 C 
ATOM     92  F14 UNL A   1      40.004  32.195  41.809  1.00  0.00    +0.000 F 
ATOM     93  C65 UNL A   1      39.198  32.777  39.663  1.00  0.00    +0.000 C 
ATOM     94  F15 UNL A   1      40.476  32.850  39.265  1.00  0.00    +0.000 F 
ENDBRANCH   83   84
TORSDOF 20
ENDMDL
MODEL 10
REMARK VINA RESULT:      -8.6     20.403     28.080
ROOT
ATOM    138  H33 UNL A   1      47.432  10.879  53.917  1.00  0.00    +0.000 H 
ATOM    139  H34 UNL A   1      48.627  12.425  52.104  1.00  0.00    +0.000 H 
ATOM    140  H35 UNL A   1      47.363   9.032  50.349  1.00  0.00    +0.000 H 
ATOM    141  H36 UNL A   1      42.715  14.755  46.613  1.00  0.00    +0.000 H 
ATOM    142  H37 UNL A   1      42.180  15.233  49.057  1.00  0.00    +0.000 H 
ATOM    143  H38 UNL A   1      44.635  11.879  48.970  1.00  0.00    +0.000 H 
ATOM    144  H39 UNL A   1      44.517   9.499  46.787  1.00  0.00    +0.000 H 
ATOM    145  H40 UNL A   1      46.120   9.210  48.787  1.00  0.00    +0.000 H 
ATOM    146  H41 UNL A   1      42.551   9.153  53.103  1.00  0.00    +0.000 H 
ATOM    147  H42 UNL A   1      41.236  11.002  51.890  1.00  0.00    +0.000 H 
ATOM     47  C36 UNL A   1      42.922  13.055  50.820  1.00  0.00    +0.000 C 
ATOM     48  C37 UNL A   1      43.328  11.781  51.478  1.00  0.00    +0.000 C 
ATOM     49  N8  UNL A   1      44.521  11.379  51.780  1.00  0.00    +0.000 N 
ATOM     50  C38 UNL A   1      44.369  10.102  52.321  1.00  0.00    +0.000 C 
ATOM     51  C39 UNL A   1      45.393   9.203  52.316  1.00  0.00    +0.000 C 
ATOM     63  C46 UNL A   1      46.665   9.860  52.161  1.00  0.00    +0.000 C 
ATOM     64  C47 UNL A   1      47.380  10.791  52.889  1.00  0.00    +0.000 C 
ATOM     65  C48 UNL A   1      48.031  11.604  51.914  1.00  0.00    +0.000 C 
ATOM     66  C49 UNL A   1      47.714  11.088  50.658  1.00  0.00    +0.000 C 
ATOM     67  N9  UNL A   1      47.269   9.822  50.929  1.00  0.00    +0.000 N 
ATOM     68  C50 UNL A   1      47.709  11.659  49.335  1.00  0.00    +0.000 C 
ATOM     80  C57 UNL A   1      46.959  11.192  48.296  1.00  0.00    +0.000 C 
ATOM     81  N10 UNL A   1      46.639  12.012  47.224  1.00  0.00    +0.000 N 
ATOM     82  C58 UNL A   1      45.517  11.529  46.763  1.00  0.00    +0.000 C 
ATOM     83  C59 UNL A   1      44.403  12.378  46.274  1.00  0.00    +0.000 C 
ATOM     95  C66 UNL A   1      43.897  13.036  47.348  1.00  0.00    +0.000 C 
ATOM     96  C67 UNL A   1      43.033  14.194  47.418  1.00  0.00    +0.000 C 
ATOM     97  C68 UNL A   1      42.714  14.421  48.709  1.00  0.00    +0.000 C 
ATOM     98  C69 UNL A   1      43.241  13.337  49.540  1.00  0.00    +0.000 C 
ATOM     99  N11 UNL A   1      44.038  12.609  48.683  1.00  0.00    +0.000 N 
ATOM    100  C70 UNL A   1      45.206  10.167  47.165  1.00  0.00    +0.000 C 
ATOM    101  C71 UNL A   1      46.076  10.035  48.170  1.00  0.00    +0.000 C 
ATOM    102  C72 UNL A   1      42.962   9.926  52.557  1.00  0.00    +0.000 C 
ATOM    103  C73 UNL A   1      42.260  10.898  51.973  1.00  0.00    +0.000 C 
ENDROOT
BRANCH   47   46
ATOM    104  C74 UNL A   1      42.544  14.909  52.419  1.00  0.00    +0.000 C 
ATOM    105  C75 UNL A   1      41.668  15.702  53.147  1.00  0.00    +0.000 C 
ATOM    136  H31 UNL A   1      38.763  14.443  52.065  1.00  0.00    +0.000 H 
ATOM     43  C32 UNL A   1      40.276  15.502  53.082  1.00  0.00    +0.000 C 
ATOM     44  C33 UNL A   1      39.782  14.549  52.189  1.00  0.00    +0.000 C 
ATOM     45  C34 UNL A   1      40.654  13.741  51.466  1.00  0.00    +0.000 C 
ATOM    137  H32 UNL A   1      40.282  13.028  50.819  1.00  0.00    +0.000 H 
ATOM     46  C35 UNL A   1      42.032  13.895  51.616  1.00  0.00    +0.000 C 
ATOM    148  H43 UNL A   1      43.562  15.070  52.473  1.00  0.00    +0.000 H 
ATOM    149  H44 UNL A   1      42.044  16.453  53.746  1.00  0.00    +0.000 H 
BRANCH   43    2
ATOM      1  O1  UNL A   1      39.072  17.415  53.702  1.00  0.00    +0.000 O 
ATOM      2  C1  UNL A   1      39.473  16.301  54.048  1.00  0.00    +0.000 C 
BRANCH    2    3
ATOM    106  H1  UNL A   1      39.715  16.439  55.994  1.00  0.00    +0.000 H 
ATOM      3  N1  UNL A   1      39.191  15.933  55.331  1.00  0.00    +0.000 N 
BRANCH    3    4
ATOM    108  H3  UNL A   1      38.344  15.141  57.001  1.00  0.00    +0.000 H 
ATOM    107  H2  UNL A   1      37.321  15.118  55.544  1.00  0.00    +0.000 H 
ATOM      4  C2  UNL A   1      38.302  14.971  55.945  1.00  0.00    +0.000 C 
BRANCH    4    5
ATOM    109  H4  UNL A   1      38.618  13.309  54.667  1.00  0.00    +0.000 H 
ATOM      5  C3  UNL A   1      38.702  13.514  55.713  1.00  0.00    +0.000 C 
ATOM    110  H5  UNL A   1      38.045  12.923  56.316  1.00  0.00    +0.000 H 
BRANCH    5    6
ATOM      6  C4  UNL A   1      40.127  13.158  56.154  1.00  0.00    +0.000 C 
ATOM    111  H6  UNL A   1      40.056  12.464  56.965  1.00  0.00    +0.000 H 
ATOM    112  H7  UNL A   1      40.591  14.086  56.416  1.00  0.00    +0.000 H 
BRANCH    6    7
ATOM    113  H8  UNL A   1      41.246  13.292  54.356  1.00  0.00    +0.000 H 
ATOM    114  H9  UNL A   1      40.470  11.709  54.680  1.00  0.00    +0.000 H 
ATOM      7  C5  UNL A   1      41.022  12.535  55.078  1.00  0.00    +0.000 C 
BRANCH    7    8
ATOM    115  H10 UNL A   1      43.070  12.743  55.599  1.00  0.00    +0.000 H 
ATOM    116  H11 UNL A   1      42.604  11.164  54.902  1.00  0.00    +0.000 H 
ATOM      8  C6  UNL A   1      42.347  11.954  55.578  1.00  0.00    +0.000 C 
BRANCH    8    9
ATOM      9  C7  UNL A   1      42.288  11.327  56.967  1.00  0.00    +0.000 C 
ATOM    117  H12 UNL A   1      42.644  10.320  56.905  1.00  0.00    +0.000 H 
ATOM    118  H13 UNL A   1      41.271  11.363  57.298  1.00  0.00    +0.000 H 
BRANCH    9   10
ATOM     10  N2  UNL A   1      43.096  12.048  57.938  1.00  0.00    +0.000 N 
ATOM    119  H14 UNL A   1      42.595  12.556  58.615  1.00  0.00    +0.000 H 
BRANCH   10   11
ATOM     11  C8  UNL A   1      44.462  12.114  58.037  1.00  0.00    +0.000 C 
ATOM     12  O2  UNL A   1      45.016  13.158  58.379  1.00  0.00    +0.000 O 
BRANCH   11   13
ATOM    134  H29 UNL A   1      47.089   9.475  55.339  1.00  0.00    +0.000 H 
ATOM    135  H30 UNL A   1      45.843  11.512  55.804  1.00  0.00    +0.000 H 
ATOM     41  C30 UNL A   1      46.611   9.596  56.245  1.00  0.00    +0.000 C 
ATOM     42  C31 UNL A   1      45.902  10.764  56.513  1.00  0.00    +0.000 C 
ATOM     13  C9  UNL A   1      45.270  10.913  57.751  1.00  0.00    +0.000 C 
ATOM     14  C10 UNL A   1      45.387   9.929  58.739  1.00  0.00    +0.000 C 
ATOM     15  C11 UNL A   1      46.061   8.738  58.461  1.00  0.00    +0.000 C 
ATOM     16  C12 UNL A   1      46.674   8.580  57.217  1.00  0.00    +0.000 C 
ATOM    120  H15 UNL A   1      44.976  10.083  59.673  1.00  0.00    +0.000 H 
ATOM    121  H16 UNL A   1      46.105   7.985  59.165  1.00  0.00    +0.000 H 
BRANCH   16   17
ATOM     39  N6  UNL A   1      48.149   5.387  56.972  1.00  0.00    +0.000 N 
ATOM     40  N7  UNL A   1      47.244   6.217  57.494  1.00  0.00    +0.000 N 
ATOM     17  N3  UNL A   1      47.463   7.442  56.974  1.00  0.00    +0.000 N 
ATOM     18  C13 UNL A   1      48.562   7.407  56.167  1.00  0.00    +0.000 C 
ATOM     19  C14 UNL A   1      49.022   6.117  56.196  1.00  0.00    +0.000 C 
ATOM    122  H17 UNL A   1      48.967   8.196  55.639  1.00  0.00    +0.000 H 
BRANCH   19   20
ATOM    124  H19 UNL A   1      50.318   4.633  55.958  1.00  0.00    +0.000 H 
ATOM    123  H18 UNL A   1      49.612   5.351  54.391  1.00  0.00    +0.000 H 
ATOM     20  C15 UNL A   1      50.060   5.478  55.354  1.00  0.00    +0.000 C 
BRANCH   20   21
ATOM     21  S1  UNL A   1      51.683   6.180  55.047  1.00  0.00    +0.000 S 
BRANCH   21   22
ATOM    127  H22 UNL A   1      52.197  11.882  50.003  1.00  0.00    +0.000 H 
ATOM    126  H21 UNL A   1      50.735  10.104  49.225  1.00  0.00    +0.000 H 
ATOM    128  H23 UNL A   1      53.100  11.795  52.263  1.00  0.00    +0.000 H 
ATOM    125  H20 UNL A   1      50.365   8.137  50.601  1.00  0.00    +0.000 H 
ATOM     22  C16 UNL A   1      51.649   7.745  54.281  1.00  0.00    +0.000 C 
ATOM     23  N4  UNL A   1      51.433   7.662  52.998  1.00  0.00    +0.000 N 
ATOM     24  C17 UNL A   1      51.498   8.836  52.236  1.00  0.00    +0.000 C 
ATOM     25  C18 UNL A   1      50.943   8.913  50.958  1.00  0.00    +0.000 C 
ATOM     26  C19 UNL A   1      51.171  10.040  50.157  1.00  0.00    +0.000 C 
ATOM     27  C20 UNL A   1      51.984  11.080  50.616  1.00  0.00    +0.000 C 
ATOM     28  C21 UNL A   1      52.507  11.030  51.906  1.00  0.00    +0.000 C 
ATOM     29  C22 UNL A   1      52.215   9.924  52.710  1.00  0.00    +0.000 C 
ATOM     30  C23 UNL A   1      52.548   9.886  54.138  1.00  0.00    +0.000 C 
ATOM     31  O3  UNL A   1      53.432  10.631  54.557  1.00  0.00    +0.000 O 
ATOM     32  N5  UNL A   1      51.811   8.972  54.900  1.00  0.00    +0.000 N 
BRANCH   32   33
ATOM     33  C24 UNL A   1      51.376   9.377  56.222  1.00  0.00    +0.000 C 
ATOM     34  C25 UNL A   1      51.868   8.694  57.355  1.00  0.00    +0.000 C 
ATOM    129  H24 UNL A   1      52.678   8.065  57.246  1.00  0.00    +0.000 H 
ATOM     35  C26 UNL A   1      51.294   8.842  58.621  1.00  0.00    +0.000 C 
ATOM    133  H28 UNL A   1      50.243  11.088  55.739  1.00  0.00    +0.000 H 
ATOM     38  C29 UNL A   1      50.460  10.402  56.478  1.00  0.00    +0.000 C 
ATOM     37  C28 UNL A   1      49.831  10.511  57.729  1.00  0.00    +0.000 C 
ATOM    130  H25 UNL A   1      51.666   8.312  59.424  1.00  0.00    +0.000 H 
ATOM     36  C27 UNL A   1      50.222   9.704  58.790  1.00  0.00    +0.000 C 
ATOM    132  H27 UNL A   1      49.071  11.197  57.861  1.00  0.00    +0.000 H 
ATOM    131  H26 UNL A   1      49.722   9.745  59.691  1.00  0.00    +0.000 H 
ENDBRANCH   32   33
ENDBRANCH   21   22
ENDBRANCH   20   21
ENDBRANCH   19   20
ENDBRANCH   16   17
ENDBRANCH   11   13
ENDBRANCH   10   11
ENDBRANCH    9   10
ENDBRANCH    8    9
ENDBRANCH    7    8
ENDBRANCH    6    7
ENDBRANCH    5    6
ENDBRANCH    4    5
ENDBRANCH    3    4
ENDBRANCH    2    3
ENDBRANCH   43    2
ENDBRANCH   47   46
BRANCH   51   52
ATOM     52  C40 UNL A   1      45.223   7.722  52.048  1.00  0.00    +0.000 C 
ATOM     53  C41 UNL A   1      45.605   6.803  53.049  1.00  0.00    +0.000 C 
ATOM     54  F1  UNL A   1      45.814   7.211  54.310  1.00  0.00    +0.000 F 
ATOM     55  C42 UNL A   1      45.891   5.466  52.758  1.00  0.00    +0.000 C 
ATOM     56  F2  UNL A   1      46.394   4.671  53.711  1.00  0.00    +0.000 F 
ATOM     57  C43 UNL A   1      45.734   4.981  51.474  1.00  0.00    +0.000 C 
ATOM     58  F3  UNL A   1      46.080   3.722  51.174  1.00  0.00    +0.000 F 
ATOM     59  C44 UNL A   1      45.264   5.821  50.489  1.00  0.00    +0.000 C 
ATOM     60  F4  UNL A   1      45.113   5.371  49.235  1.00  0.00    +0.000 F 
ATOM     61  C45 UNL A   1      45.027   7.167  50.765  1.00  0.00    +0.000 C 
ATOM     62  F5  UNL A   1      44.707   7.912  49.702  1.00  0.00    +0.000 F 
ENDBRANCH   51   52
BRANCH   68   69
ATOM     69  C51 UNL A   1      48.379  12.991  49.168  1.00  0.00    +0.000 C 
ATOM     70  C52 UNL A   1      49.602  13.169  48.496  1.00  0.00    +0.000 C 
ATOM     71  F6  UNL A   1      50.263  12.120  47.987  1.00  0.00    +0.000 F 
ATOM     72  C53 UNL A   1      50.132  14.441  48.286  1.00  0.00    +0.000 C 
ATOM     73  F7  UNL A   1      51.305  14.584  47.652  1.00  0.00    +0.000 F 
ATOM     74  C54 UNL A   1      49.428  15.562  48.697  1.00  0.00    +0.000 C 
ATOM     75  F8  UNL A   1      49.914  16.787  48.455  1.00  0.00    +0.000 F 
ATOM     76  C55 UNL A   1      48.204  15.413  49.329  1.00  0.00    +0.000 C 
ATOM     77  F9  UNL A   1      47.495  16.495  49.680  1.00  0.00    +0.000 F 
ATOM     78  C56 UNL A   1      47.691  14.142  49.573  1.00  0.00    +0.000 C 
ATOM     79  F10 UNL A   1      46.491  14.034  50.164  1.00  0.00    +0.000 F 
ENDBRANCH   68   69
BRANCH   83   84
ATOM     84  C60 UNL A   1      43.774  12.179  44.947  1.00  0.00    +0.000 C 
ATOM     85  C61 UNL A   1      43.065  11.005  44.644  1.00  0.00    +0.000 C 
ATOM     86  F11 UNL A   1      43.122   9.951  45.472  1.00  0.00    +0.000 F 
ATOM     87  C62 UNL A   1      42.233  10.919  43.522  1.00  0.00    +0.000 C 
ATOM     88  F12 UNL A   1      41.528   9.802  43.295  1.00  0.00    +0.000 F 
ATOM     89  C63 UNL A   1      42.089  12.003  42.672  1.00  0.00    +0.000 C 
ATOM     90  F13 UNL A   1      41.247  11.944  41.631  1.00  0.00    +0.000 F 
ATOM     91  C64 UNL A   1      42.789  13.167  42.930  1.00  0.00    +0.000 C 
ATOM     92  F14 UNL A   1      42.628  14.237  42.139  1.00  0.00    +0.000 F 
ATOM     93  C65 UNL A   1      43.615  13.254  44.051  1.00  0.00    +0.000 C 
ATOM     94  F15 UNL A   1      44.182  14.444  44.299  1.00  0.00    +0.000 F 
ENDBRANCH   83   84
TORSDOF 20
ENDMDL
