MODEL 1
REMARK VINA RESULT:     -11.2      0.000      0.000
ROOT
ATOM     19  C15 UNL A   1      25.947  36.338  45.474  1.00  0.00    +0.000 C 
ATOM     20  C16 UNL A   1      25.857  37.515  46.402  1.00  0.00    +0.000 C 
ATOM     21  N3  UNL A   1      26.771  38.401  46.712  1.00  0.00    +0.000 N 
ATOM     22  C17 UNL A   1      26.151  39.302  47.568  1.00  0.00    +0.000 C 
ATOM     23  C18 UNL A   1      26.690  40.366  48.210  1.00  0.00    +0.000 C 
ATOM     35  C25 UNL A   1      28.073  40.752  48.115  1.00  0.00    +0.000 C 
ATOM     36  C26 UNL A   1      28.735  41.766  48.785  1.00  0.00    +0.000 C 
ATOM     37  C27 UNL A   1      30.061  41.791  48.341  1.00  0.00    +0.000 C 
ATOM     38  C28 UNL A   1      30.237  40.763  47.428  1.00  0.00    +0.000 C 
ATOM     39  N4  UNL A   1      29.009  40.136  47.297  1.00  0.00    +0.000 N 
ATOM     40  C29 UNL A   1      31.436  40.379  46.729  1.00  0.00    +0.000 C 
ATOM     52  C36 UNL A   1      31.528  39.354  45.845  1.00  0.00    +0.000 C 
ATOM     53  N5  UNL A   1      30.544  38.464  45.436  1.00  0.00    +0.000 N 
ATOM     54  C37 UNL A   1      31.119  37.666  44.570  1.00  0.00    +0.000 C 
ATOM     55  C38 UNL A   1      30.541  36.489  43.832  1.00  0.00    +0.000 C 
ATOM     67  C45 UNL A   1      29.255  36.150  44.039  1.00  0.00    +0.000 C 
ATOM     68  C46 UNL A   1      28.560  35.028  43.414  1.00  0.00    +0.000 C 
ATOM     69  C47 UNL A   1      27.292  34.999  43.851  1.00  0.00    +0.000 C 
ATOM     70  C48 UNL A   1      27.092  36.084  44.812  1.00  0.00    +0.000 C 
ATOM     71  N6  UNL A   1      28.305  36.726  44.847  1.00  0.00    +0.000 N 
ATOM     72  C49 UNL A   1      32.529  37.982  44.306  1.00  0.00    +0.000 C 
ATOM     73  C50 UNL A   1      32.739  38.991  45.140  1.00  0.00    +0.000 C 
ATOM     74  C51 UNL A   1      24.771  38.886  47.692  1.00  0.00    +0.000 C 
ATOM     75  C52 UNL A   1      24.556  37.748  47.050  1.00  0.00    +0.000 C 
ATOM    112  H21 UNL A   1      28.321  42.396  49.491  1.00  0.00    +0.000 H 
ATOM    113  H22 UNL A   1      30.787  42.462  48.642  1.00  0.00    +0.000 H 
ATOM    114  H23 UNL A   1      28.826  39.368  46.709  1.00  0.00    +0.000 H 
ATOM    115  H24 UNL A   1      28.978  34.363  42.743  1.00  0.00    +0.000 H 
ATOM    116  H25 UNL A   1      26.571  34.319  43.558  1.00  0.00    +0.000 H 
ATOM    117  H26 UNL A   1      28.478  37.523  45.398  1.00  0.00    +0.000 H 
ATOM    118  H27 UNL A   1      33.184  37.536  43.644  1.00  0.00    +0.000 H 
ATOM    119  H28 UNL A   1      33.650  39.457  45.270  1.00  0.00    +0.000 H 
ATOM    120  H29 UNL A   1      24.049  39.409  48.213  1.00  0.00    +0.000 H 
ATOM    121  H30 UNL A   1      23.700  37.173  47.015  1.00  0.00    +0.000 H 
ENDROOT
BRANCH   19   18
ATOM     76  C53 UNL A   1      24.600  34.295  45.974  1.00  0.00    +0.000 C 
ATOM     77  C54 UNL A   1      23.523  33.450  45.719  1.00  0.00    +0.000 C 
ATOM    110  H19 UNL A   1      21.971  35.277  43.371  1.00  0.00    +0.000 H 
ATOM     15  C11 UNL A   1      22.537  33.830  44.804  1.00  0.00    +0.000 C 
ATOM     16  C12 UNL A   1      22.685  35.009  44.066  1.00  0.00    +0.000 C 
ATOM     17  C13 UNL A   1      23.801  35.822  44.273  1.00  0.00    +0.000 C 
ATOM    111  H20 UNL A   1      23.922  36.679  43.710  1.00  0.00    +0.000 H 
ATOM     18  C14 UNL A   1      24.758  35.481  45.240  1.00  0.00    +0.000 C 
ATOM    122  H31 UNL A   1      25.285  34.049  46.705  1.00  0.00    +0.000 H 
ATOM    123  H32 UNL A   1      23.453  32.542  46.206  1.00  0.00    +0.000 H 
BRANCH   15   13
ATOM     13  C10 UNL A   1      21.347  32.987  44.565  1.00  0.00    +0.000 C 
ATOM     14  O2  UNL A   1      21.455  31.951  43.913  1.00  0.00    +0.000 O 
BRANCH   13   12
ATOM     12  N2  UNL A   1      20.124  33.363  45.056  1.00  0.00    +0.000 N 
ATOM    109  H18 UNL A   1      20.000  33.236  46.025  1.00  0.00    +0.000 H 
BRANCH   12   11
ATOM     11  C9  UNL A   1      18.985  33.924  44.350  1.00  0.00    +0.000 C 
ATOM    108  H17 UNL A   1      19.356  34.619  43.626  1.00  0.00    +0.000 H 
ATOM    107  H16 UNL A   1      18.343  34.404  45.059  1.00  0.00    +0.000 H 
BRANCH   11   10
ATOM    105  H14 UNL A   1      17.263  33.293  43.290  1.00  0.00    +0.000 H 
ATOM     10  C8  UNL A   1      18.187  32.857  43.610  1.00  0.00    +0.000 C 
ATOM    106  H15 UNL A   1      18.801  32.529  42.797  1.00  0.00    +0.000 H 
BRANCH   10    9
ATOM      9  C7  UNL A   1      17.864  31.610  44.436  1.00  0.00    +0.000 C 
ATOM    103  H12 UNL A   1      18.203  31.778  45.437  1.00  0.00    +0.000 H 
ATOM    104  H13 UNL A   1      16.805  31.469  44.363  1.00  0.00    +0.000 H 
BRANCH    9    8
ATOM    101  H10 UNL A   1      19.016  30.531  43.017  1.00  0.00    +0.000 H 
ATOM    102  H11 UNL A   1      19.150  29.976  44.713  1.00  0.00    +0.000 H 
ATOM      8  C6  UNL A   1      18.503  30.313  43.931  1.00  0.00    +0.000 C 
BRANCH    8    7
ATOM     99  H8  UNL A   1      17.570  28.917  42.623  1.00  0.00    +0.000 H 
ATOM    100  H9  UNL A   1      17.819  28.353  44.294  1.00  0.00    +0.000 H 
ATOM      7  C5  UNL A   1      17.522  29.164  43.663  1.00  0.00    +0.000 C 
BRANCH    7    6
ATOM     97  H6  UNL A   1      15.859  29.126  44.999  1.00  0.00    +0.000 H 
ATOM     98  H7  UNL A   1      15.934  30.548  43.969  1.00  0.00    +0.000 H 
ATOM      6  C4  UNL A   1      16.070  29.487  44.014  1.00  0.00    +0.000 C 
BRANCH    6    5
ATOM      5  N1  UNL A   1      15.161  28.864  43.077  1.00  0.00    +0.000 N 
ATOM     96  H5  UNL A   1      14.780  29.469  42.401  1.00  0.00    +0.000 H 
BRANCH    5    3
ATOM      3  C3  UNL A   1      14.753  27.564  42.985  1.00  0.00    +0.000 C 
ATOM      4  O1  UNL A   1      14.059  27.139  43.911  1.00  0.00    +0.000 O 
BRANCH    3    2
ATOM      2  C2  UNL A   1      15.227  26.699  41.808  1.00  0.00    +0.000 C 
ATOM     95  H4  UNL A   1      16.278  26.571  41.962  1.00  0.00    +0.000 H 
BRANCH    2    1
ATOM      1  C1  UNL A   1      15.060  27.371  40.442  1.00  0.00    +0.000 C 
ATOM     92  H1  UNL A   1      14.047  27.263  40.114  1.00  0.00    +0.000 H 
ATOM     93  H2  UNL A   1      15.714  26.908  39.734  1.00  0.00    +0.000 H 
ATOM     94  H3  UNL A   1      15.300  28.410  40.523  1.00  0.00    +0.000 H 
ENDBRANCH    2    1
BRANCH    2   78
ATOM    136  H45 UNL A   1      14.637  22.351  43.346  1.00  0.00    +0.000 H 
ATOM     78  C55 UNL A   1      14.562  25.333  41.805  1.00  0.00    +0.000 C 
ATOM     79  C56 UNL A   1      13.524  25.058  40.912  1.00  0.00    +0.000 C 
ATOM     80  C57 UNL A   1      12.893  23.807  40.919  1.00  0.00    +0.000 C 
ATOM     81  C58 UNL A   1      13.298  22.779  41.775  1.00  0.00    +0.000 C 
ATOM     89  C64 UNL A   1      14.329  23.073  42.675  1.00  0.00    +0.000 C 
ATOM     90  C65 UNL A   1      14.949  24.321  42.684  1.00  0.00    +0.000 C 
ATOM     91  F16 UNL A   1      15.922  24.540  43.581  1.00  0.00    +0.000 F 
ATOM    124  H33 UNL A   1      13.219  25.781  40.242  1.00  0.00    +0.000 H 
ATOM    125  H34 UNL A   1      12.107  23.640  40.272  1.00  0.00    +0.000 H 
BRANCH   81   82
ATOM     82  N7  UNL A   1      12.681  21.545  41.870  1.00  0.00    +0.000 N 
ATOM    126  H35 UNL A   1      12.545  21.204  42.784  1.00  0.00    +0.000 H 
BRANCH   82   83
ATOM    129  H38 UNL A   1      12.894  21.170  38.792  1.00  0.00    +0.000 H 
ATOM    130  H39 UNL A   1      14.055  18.585  39.612  1.00  0.00    +0.000 H 
ATOM    131  H40 UNL A   1      13.165  18.925  38.181  1.00  0.00    +0.000 H 
ATOM    132  H41 UNL A   1      12.043  17.440  40.077  1.00  0.00    +0.000 H 
ATOM    133  H42 UNL A   1      11.052  18.589  39.300  1.00  0.00    +0.000 H 
ATOM    134  H43 UNL A   1      12.478  18.870  41.985  1.00  0.00    +0.000 H 
ATOM     83  C59 UNL A   1      12.208  20.685  40.791  1.00  0.00    +0.000 C 
ATOM     84  C60 UNL A   1      13.181  20.552  39.616  1.00  0.00    +0.000 C 
ATOM     85  C61 UNL A   1      13.175  19.067  39.242  1.00  0.00    +0.000 C 
ATOM     86  C62 UNL A   1      11.931  18.489  39.903  1.00  0.00    +0.000 C 
ATOM     87  C63 UNL A   1      11.841  19.254  41.215  1.00  0.00    +0.000 C 
ATOM    127  H36 UNL A   1      11.325  21.208  40.486  1.00  0.00    +0.000 H 
ATOM    128  H37 UNL A   1      14.164  20.858  39.909  1.00  0.00    +0.000 H 
BRANCH   87   88
ATOM    135  H44 UNL A   1      10.591  19.037  42.721  1.00  0.00    +0.000 H 
ATOM     88  O3  UNL A   1      10.533  19.179  41.764  1.00  0.00    +0.000 O 
ENDBRANCH   87   88
ENDBRANCH   82   83
ENDBRANCH   81   82
ENDBRANCH    2   78
ENDBRANCH    3    2
ENDBRANCH    5    3
ENDBRANCH    6    5
ENDBRANCH    7    6
ENDBRANCH    8    7
ENDBRANCH    9    8
ENDBRANCH   10    9
ENDBRANCH   11   10
ENDBRANCH   12   11
ENDBRANCH   13   12
ENDBRANCH   15   13
ENDBRANCH   19   18
BRANCH   23   24
ATOM     33  C24 UNL A   1      25.115  42.306  48.542  1.00  0.00    +0.000 C 
ATOM     34  F5  UNL A   1      25.278  42.641  47.254  1.00  0.00    +0.000 F 
ATOM     24  C19 UNL A   1      25.778  41.189  49.073  1.00  0.00    +0.000 C 
ATOM     25  C20 UNL A   1      25.574  40.889  50.429  1.00  0.00    +0.000 C 
ATOM     26  F1  UNL A   1      26.174  39.824  50.982  1.00  0.00    +0.000 F 
ATOM     27  C21 UNL A   1      24.716  41.656  51.212  1.00  0.00    +0.000 C 
ATOM     28  F2  UNL A   1      24.495  41.317  52.489  1.00  0.00    +0.000 F 
ATOM     29  C22 UNL A   1      24.074  42.758  50.667  1.00  0.00    +0.000 C 
ATOM     30  F3  UNL A   1      23.251  43.497  51.423  1.00  0.00    +0.000 F 
ATOM     31  C23 UNL A   1      24.280  43.088  49.336  1.00  0.00    +0.000 C 
ATOM     32  F4  UNL A   1      23.671  44.161  48.812  1.00  0.00    +0.000 F 
ENDBRANCH   23   24
BRANCH   40   41
ATOM     41  C30 UNL A   1      32.690  41.153  47.013  1.00  0.00    +0.000 C 
ATOM     42  C31 UNL A   1      32.979  42.356  46.355  1.00  0.00    +0.000 C 
ATOM     43  F6  UNL A   1      32.150  42.826  45.411  1.00  0.00    +0.000 F 
ATOM     44  C32 UNL A   1      34.146  43.061  46.635  1.00  0.00    +0.000 C 
ATOM     45  F7  UNL A   1      34.427  44.184  45.959  1.00  0.00    +0.000 F 
ATOM     46  C33 UNL A   1      35.027  42.597  47.601  1.00  0.00    +0.000 C 
ATOM     47  F8  UNL A   1      36.148  43.279  47.872  1.00  0.00    +0.000 F 
ATOM     48  C34 UNL A   1      34.751  41.419  48.278  1.00  0.00    +0.000 C 
ATOM     49  F9  UNL A   1      35.593  40.973  49.220  1.00  0.00    +0.000 F 
ATOM     50  C35 UNL A   1      33.599  40.696  47.980  1.00  0.00    +0.000 C 
ATOM     51  F10 UNL A   1      33.365  39.553  48.642  1.00  0.00    +0.000 F 
ENDBRANCH   40   41
BRANCH   55   56
ATOM     65  C44 UNL A   1      32.098  34.559  43.380  1.00  0.00    +0.000 C 
ATOM     66  F15 UNL A   1      32.035  34.208  44.673  1.00  0.00    +0.000 F 
ATOM     56  C39 UNL A   1      31.385  35.674  42.920  1.00  0.00    +0.000 C 
ATOM     57  C40 UNL A   1      31.487  36.001  41.560  1.00  0.00    +0.000 C 
ATOM     58  F11 UNL A   1      30.806  37.048  41.070  1.00  0.00    +0.000 F 
ATOM     59  C41 UNL A   1      32.257  35.230  40.691  1.00  0.00    +0.000 C 
ATOM     60  F12 UNL A   1      32.303  35.540  39.388  1.00  0.00    +0.000 F 
ATOM     61  C42 UNL A   1      32.961  34.137  41.169  1.00  0.00    +0.000 C 
ATOM     62  F13 UNL A   1      33.703  33.398  40.335  1.00  0.00    +0.000 F 
ATOM     63  C43 UNL A   1      32.887  33.805  42.514  1.00  0.00    +0.000 C 
ATOM     64  F14 UNL A   1      33.577  32.755  42.983  1.00  0.00    +0.000 F 
ENDBRANCH   55   56
TORSDOF 20
ENDMDL
MODEL 2
REMARK VINA RESULT:     -11.1     40.285     47.291
ROOT
ATOM     19  C15 UNL A   1      52.701  20.596  11.453  1.00  0.00    +0.000 C 
ATOM     20  C16 UNL A   1      53.996  19.888  11.168  1.00  0.00    +0.000 C 
ATOM     21  N3  UNL A   1      55.016  19.672  11.960  1.00  0.00    +0.000 N 
ATOM     22  C17 UNL A   1      55.923  18.930  11.216  1.00  0.00    +0.000 C 
ATOM     23  C18 UNL A   1      57.161  18.507  11.569  1.00  0.00    +0.000 C 
ATOM     35  C25 UNL A   1      57.778  18.784  12.839  1.00  0.00    +0.000 C 
ATOM     36  C26 UNL A   1      59.056  18.467  13.266  1.00  0.00    +0.000 C 
ATOM     37  C27 UNL A   1      59.196  18.902  14.588  1.00  0.00    +0.000 C 
ATOM     38  C28 UNL A   1      58.021  19.529  14.970  1.00  0.00    +0.000 C 
ATOM     39  N4  UNL A   1      57.159  19.447  13.888  1.00  0.00    +0.000 N 
ATOM     40  C29 UNL A   1      57.707  20.160  16.226  1.00  0.00    +0.000 C 
ATOM     52  C36 UNL A   1      56.526  20.757  16.525  1.00  0.00    +0.000 C 
ATOM     53  N5  UNL A   1      55.400  20.911  15.727  1.00  0.00    +0.000 N 
ATOM     54  C37 UNL A   1      54.521  21.545  16.464  1.00  0.00    +0.000 C 
ATOM     55  C38 UNL A   1      53.137  22.012  16.103  1.00  0.00    +0.000 C 
ATOM     67  C45 UNL A   1      52.666  21.777  14.864  1.00  0.00    +0.000 C 
ATOM     68  C46 UNL A   1      51.357  22.183  14.361  1.00  0.00    +0.000 C 
ATOM     69  C47 UNL A   1      51.230  21.776  13.088  1.00  0.00    +0.000 C 
ATOM     70  C48 UNL A   1      52.464  21.106  12.676  1.00  0.00    +0.000 C 
ATOM     71  N6  UNL A   1      53.252  21.137  13.799  1.00  0.00    +0.000 N 
ATOM     72  C49 UNL A   1      54.980  21.836  17.829  1.00  0.00    +0.000 C 
ATOM     73  C50 UNL A   1      56.222  21.373  17.799  1.00  0.00    +0.000 C 
ATOM     74  C51 UNL A   1      55.314  18.688   9.926  1.00  0.00    +0.000 C 
ATOM     75  C52 UNL A   1      54.156  19.320   9.819  1.00  0.00    +0.000 C 
ATOM    112  H21 UNL A   1      59.781  17.992  12.706  1.00  0.00    +0.000 H 
ATOM    113  H22 UNL A   1      60.032  18.775  15.181  1.00  0.00    +0.000 H 
ATOM    114  H23 UNL A   1      56.242  19.804  13.868  1.00  0.00    +0.000 H 
ATOM    115  H24 UNL A   1      50.643  22.700  14.899  1.00  0.00    +0.000 H 
ATOM    116  H25 UNL A   1      50.397  21.914  12.495  1.00  0.00    +0.000 H 
ATOM    117  H26 UNL A   1      54.152  20.739  13.838  1.00  0.00    +0.000 H 
ATOM    118  H27 UNL A   1      54.470  22.283  18.606  1.00  0.00    +0.000 H 
ATOM    119  H28 UNL A   1      56.888  21.443  18.585  1.00  0.00    +0.000 H 
ATOM    120  H29 UNL A   1      55.730  18.101   9.186  1.00  0.00    +0.000 H 
ATOM    121  H30 UNL A   1      53.528  19.395   9.003  1.00  0.00    +0.000 H 
ENDROOT
BRANCH   19   18
ATOM     76  C53 UNL A   1      51.558  21.846   9.618  1.00  0.00    +0.000 C 
ATOM     77  C54 UNL A   1      50.543  21.972   8.673  1.00  0.00    +0.000 C 
ATOM    110  H19 UNL A   1      49.111  18.960   9.045  1.00  0.00    +0.000 H 
ATOM     15  C11 UNL A   1      49.679  20.900   8.430  1.00  0.00    +0.000 C 
ATOM     16  C12 UNL A   1      49.766  19.741   9.207  1.00  0.00    +0.000 C 
ATOM     17  C13 UNL A   1      50.741  19.642  10.201  1.00  0.00    +0.000 C 
ATOM    111  H20 UNL A   1      50.789  18.797  10.791  1.00  0.00    +0.000 H 
ATOM     18  C14 UNL A   1      51.656  20.687  10.402  1.00  0.00    +0.000 C 
ATOM    122  H31 UNL A   1      52.243  22.609   9.741  1.00  0.00    +0.000 H 
ATOM    123  H32 UNL A   1      50.428  22.856   8.153  1.00  0.00    +0.000 H 
BRANCH   15   13
ATOM     13  C10 UNL A   1      48.636  20.978   7.385  1.00  0.00    +0.000 C 
ATOM     14  O2  UNL A   1      48.105  22.057   7.133  1.00  0.00    +0.000 O 
BRANCH   13   12
ATOM     12  N2  UNL A   1      48.253  19.850   6.707  1.00  0.00    +0.000 N 
ATOM    109  H18 UNL A   1      47.405  19.446   7.004  1.00  0.00    +0.000 H 
BRANCH   12   11
ATOM     11  C9  UNL A   1      48.920  19.167   5.612  1.00  0.00    +0.000 C 
ATOM    108  H17 UNL A   1      49.582  18.440   6.033  1.00  0.00    +0.000 H 
ATOM    107  H16 UNL A   1      49.453  19.889   5.030  1.00  0.00    +0.000 H 
BRANCH   11   10
ATOM    105  H14 UNL A   1      47.902  18.950   3.768  1.00  0.00    +0.000 H 
ATOM     10  C8  UNL A   1      47.935  18.437   4.706  1.00  0.00    +0.000 C 
ATOM    106  H15 UNL A   1      48.290  17.431   4.623  1.00  0.00    +0.000 H 
BRANCH   10    9
ATOM      9  C7  UNL A   1      46.509  18.348   5.251  1.00  0.00    +0.000 C 
ATOM    103  H12 UNL A   1      46.473  17.548   5.961  1.00  0.00    +0.000 H 
ATOM    104  H13 UNL A   1      46.291  19.306   5.676  1.00  0.00    +0.000 H 
BRANCH    9    8
ATOM    101  H10 UNL A   1      45.632  17.154   3.730  1.00  0.00    +0.000 H 
ATOM    102  H11 UNL A   1      44.492  18.116   4.719  1.00  0.00    +0.000 H 
ATOM      8  C6  UNL A   1      45.426  18.095   4.197  1.00  0.00    +0.000 C 
BRANCH    8    7
ATOM     99  H8  UNL A   1      46.315  19.469   2.836  1.00  0.00    +0.000 H 
ATOM    100  H9  UNL A   1      44.804  18.707   2.278  1.00  0.00    +0.000 H 
ATOM      7  C5  UNL A   1      45.324  19.159   3.096  1.00  0.00    +0.000 C 
BRANCH    7    6
ATOM     97  H6  UNL A   1      44.178  20.281   4.504  1.00  0.00    +0.000 H 
ATOM     98  H7  UNL A   1      45.156  21.256   3.418  1.00  0.00    +0.000 H 
ATOM      6  C4  UNL A   1      44.523  20.398   3.498  1.00  0.00    +0.000 C 
BRANCH    6    5
ATOM      5  N1  UNL A   1      43.384  20.580   2.625  1.00  0.00    +0.000 N 
ATOM     96  H5  UNL A   1      43.346  21.450   2.165  1.00  0.00    +0.000 H 
BRANCH    5    3
ATOM      3  C3  UNL A   1      42.354  19.730   2.340  1.00  0.00    +0.000 C 
ATOM      4  O1  UNL A   1      41.786  19.211   3.303  1.00  0.00    +0.000 O 
BRANCH    3    2
ATOM      2  C2  UNL A   1      42.014  19.411   0.875  1.00  0.00    +0.000 C 
ATOM     95  H4  UNL A   1      41.698  18.389   0.880  1.00  0.00    +0.000 H 
BRANCH    2    1
ATOM      1  C1  UNL A   1      43.216  19.498  -0.069  1.00  0.00    +0.000 C 
ATOM     92  H1  UNL A   1      43.943  18.763   0.211  1.00  0.00    +0.000 H 
ATOM     93  H2  UNL A   1      43.653  20.472  -0.003  1.00  0.00    +0.000 H 
ATOM     94  H3  UNL A   1      42.896  19.319  -1.073  1.00  0.00    +0.000 H 
ENDBRANCH    2    1
BRANCH    2   78
ATOM    136  H45 UNL A   1      38.803  20.628  -2.259  1.00  0.00    +0.000 H 
ATOM     78  C55 UNL A   1      40.877  20.275   0.357  1.00  0.00    +0.000 C 
ATOM     79  C56 UNL A   1      40.396  21.339   1.125  1.00  0.00    +0.000 C 
ATOM     80  C57 UNL A   1      39.334  22.126   0.661  1.00  0.00    +0.000 C 
ATOM     81  C58 UNL A   1      38.748  21.915  -0.590  1.00  0.00    +0.000 C 
ATOM     89  C64 UNL A   1      39.230  20.837  -1.342  1.00  0.00    +0.000 C 
ATOM     90  C65 UNL A   1      40.275  20.040  -0.879  1.00  0.00    +0.000 C 
ATOM     91  F16 UNL A   1      40.679  19.015  -1.644  1.00  0.00    +0.000 F 
ATOM    124  H33 UNL A   1      40.825  21.546   2.040  1.00  0.00    +0.000 H 
ATOM    125  H34 UNL A   1      38.974  22.885   1.261  1.00  0.00    +0.000 H 
BRANCH   81   82
ATOM     82  N7  UNL A   1      37.663  22.619  -1.080  1.00  0.00    +0.000 N 
ATOM    126  H35 UNL A   1      37.808  23.581  -1.229  1.00  0.00    +0.000 H 
BRANCH   82   83
ATOM    129  H38 UNL A   1      35.205  21.234   0.226  1.00  0.00    +0.000 H 
ATOM    130  H39 UNL A   1      33.880  23.729  -0.624  1.00  0.00    +0.000 H 
ATOM    131  H40 UNL A   1      33.175  22.168  -0.475  1.00  0.00    +0.000 H 
ATOM    132  H41 UNL A   1      33.559  23.187  -2.899  1.00  0.00    +0.000 H 
ATOM    133  H42 UNL A   1      33.892  21.528  -2.689  1.00  0.00    +0.000 H 
ATOM    134  H43 UNL A   1      35.879  23.845  -2.670  1.00  0.00    +0.000 H 
ATOM     83  C59 UNL A   1      36.331  22.118  -1.403  1.00  0.00    +0.000 C 
ATOM     84  C60 UNL A   1      35.332  22.186  -0.245  1.00  0.00    +0.000 C 
ATOM     85  C61 UNL A   1      34.025  22.695  -0.857  1.00  0.00    +0.000 C 
ATOM     86  C62 UNL A   1      34.181  22.504  -2.359  1.00  0.00    +0.000 C 
ATOM     87  C63 UNL A   1      35.654  22.801  -2.601  1.00  0.00    +0.000 C 
ATOM    127  H36 UNL A   1      36.551  21.099  -1.646  1.00  0.00    +0.000 H 
ATOM    128  H37 UNL A   1      35.679  22.863   0.509  1.00  0.00    +0.000 H 
BRANCH   87   88
ATOM    135  H44 UNL A   1      37.039  22.422  -3.949  1.00  0.00    +0.000 H 
ATOM     88  O3  UNL A   1      36.089  22.260  -3.840  1.00  0.00    +0.000 O 
ENDBRANCH   87   88
ENDBRANCH   82   83
ENDBRANCH   81   82
ENDBRANCH    2   78
ENDBRANCH    3    2
ENDBRANCH    5    3
ENDBRANCH    6    5
ENDBRANCH    7    6
ENDBRANCH    8    7
ENDBRANCH    9    8
ENDBRANCH   10    9
ENDBRANCH   11   10
ENDBRANCH   12   11
ENDBRANCH   13   12
ENDBRANCH   15   13
ENDBRANCH   19   18
BRANCH   23   24
ATOM     33  C24 UNL A   1      57.854  16.296  10.574  1.00  0.00    +0.000 C 
ATOM     34  F5  UNL A   1      57.082  15.666  11.471  1.00  0.00    +0.000 F 
ATOM     24  C19 UNL A   1      57.929  17.697  10.565  1.00  0.00    +0.000 C 
ATOM     25  C20 UNL A   1      58.757  18.303   9.607  1.00  0.00    +0.000 C 
ATOM     26  F1  UNL A   1      58.855  19.640   9.547  1.00  0.00    +0.000 F 
ATOM     27  C21 UNL A   1      59.454  17.538   8.675  1.00  0.00    +0.000 C 
ATOM     28  F2  UNL A   1      60.194  18.141   7.736  1.00  0.00    +0.000 F 
ATOM     29  C22 UNL A   1      59.367  16.155   8.705  1.00  0.00    +0.000 C 
ATOM     30  F3  UNL A   1      60.040  15.420   7.810  1.00  0.00    +0.000 F 
ATOM     31  C23 UNL A   1      58.575  15.534   9.659  1.00  0.00    +0.000 C 
ATOM     32  F4  UNL A   1      58.500  14.196   9.698  1.00  0.00    +0.000 F 
ENDBRANCH   23   24
BRANCH   40   41
ATOM     41  C30 UNL A   1      58.772  20.183  17.283  1.00  0.00    +0.000 C 
ATOM     42  C31 UNL A   1      59.453  21.362  17.618  1.00  0.00    +0.000 C 
ATOM     43  F6  UNL A   1      59.193  22.503  16.961  1.00  0.00    +0.000 F 
ATOM     44  C32 UNL A   1      60.436  21.364  18.604  1.00  0.00    +0.000 C 
ATOM     45  F7  UNL A   1      61.108  22.492  18.875  1.00  0.00    +0.000 F 
ATOM     46  C33 UNL A   1      60.732  20.199  19.296  1.00  0.00    +0.000 C 
ATOM     47  F8  UNL A   1      61.675  20.204  20.247  1.00  0.00    +0.000 F 
ATOM     48  C34 UNL A   1      60.057  19.026  18.994  1.00  0.00    +0.000 C 
ATOM     49  F9  UNL A   1      60.332  17.901  19.669  1.00  0.00    +0.000 F 
ATOM     50  C35 UNL A   1      59.094  19.014  17.989  1.00  0.00    +0.000 C 
ATOM     51  F10 UNL A   1      58.467  17.861  17.710  1.00  0.00    +0.000 F 
ENDBRANCH   40   41
BRANCH   55   56
ATOM     65  C44 UNL A   1      52.278  24.167  17.086  1.00  0.00    +0.000 C 
ATOM     66  F15 UNL A   1      53.009  24.860  16.201  1.00  0.00    +0.000 F 
ATOM     56  C39 UNL A   1      52.310  22.766  17.080  1.00  0.00    +0.000 C 
ATOM     57  C40 UNL A   1      51.530  22.089  18.027  1.00  0.00    +0.000 C 
ATOM     58  F11 UNL A   1      51.514  20.748  18.046  1.00  0.00    +0.000 F 
ATOM     59  C41 UNL A   1      50.733  22.786  18.933  1.00  0.00    +0.000 C 
ATOM     60  F12 UNL A   1      49.964  22.114  19.801  1.00  0.00    +0.000 F 
ATOM     61  C42 UNL A   1      50.722  24.172  18.927  1.00  0.00    +0.000 C 
ATOM     62  F13 UNL A   1      49.958  24.842  19.799  1.00  0.00    +0.000 F 
ATOM     63  C43 UNL A   1      51.499  24.863  18.009  1.00  0.00    +0.000 C 
ATOM     64  F14 UNL A   1      51.501  26.203  18.008  1.00  0.00    +0.000 F 
ENDBRANCH   55   56
TORSDOF 20
ENDMDL
MODEL 3
REMARK VINA RESULT:     -11.1     40.484     47.556
ROOT
ATOM     19  C15 UNL A   1      53.197  19.787  11.426  1.00  0.00    +0.000 C 
ATOM     20  C16 UNL A   1      54.553  19.170  11.227  1.00  0.00    +0.000 C 
ATOM     21  N3  UNL A   1      55.575  19.132  12.045  1.00  0.00    +0.000 N 
ATOM     22  C17 UNL A   1      56.556  18.398  11.391  1.00  0.00    +0.000 C 
ATOM     23  C18 UNL A   1      57.820  18.126  11.796  1.00  0.00    +0.000 C 
ATOM     35  C25 UNL A   1      58.390  18.590  13.032  1.00  0.00    +0.000 C 
ATOM     36  C26 UNL A   1      59.683  18.436  13.499  1.00  0.00    +0.000 C 
ATOM     37  C27 UNL A   1      59.764  19.019  14.769  1.00  0.00    +0.000 C 
ATOM     38  C28 UNL A   1      58.532  19.577  15.073  1.00  0.00    +0.000 C 
ATOM     39  N4  UNL A   1      57.698  19.303  14.001  1.00  0.00    +0.000 N 
ATOM     40  C29 UNL A   1      58.144  20.307  16.252  1.00  0.00    +0.000 C 
ATOM     52  C36 UNL A   1      56.911  20.825  16.477  1.00  0.00    +0.000 C 
ATOM     53  N5  UNL A   1      55.789  20.793  15.660  1.00  0.00    +0.000 N 
ATOM     54  C37 UNL A   1      54.846  21.421  16.318  1.00  0.00    +0.000 C 
ATOM     55  C38 UNL A   1      53.433  21.722  15.900  1.00  0.00    +0.000 C 
ATOM     67  C45 UNL A   1      53.004  21.316  14.690  1.00  0.00    +0.000 C 
ATOM     68  C46 UNL A   1      51.672  21.549  14.138  1.00  0.00    +0.000 C 
ATOM     69  C47 UNL A   1      51.602  20.999  12.916  1.00  0.00    +0.000 C 
ATOM     70  C48 UNL A   1      52.896  20.401  12.586  1.00  0.00    +0.000 C 
ATOM     71  N6  UNL A   1      53.660  20.621  13.704  1.00  0.00    +0.000 N 
ATOM     72  C49 UNL A   1      55.256  21.895  17.647  1.00  0.00    +0.000 C 
ATOM     73  C50 UNL A   1      56.533  21.544  17.676  1.00  0.00    +0.000 C 
ATOM     74  C51 UNL A   1      55.991  17.967  10.130  1.00  0.00    +0.000 C 
ATOM     75  C52 UNL A   1      54.784  18.478   9.949  1.00  0.00    +0.000 C 
ATOM    112  H21 UNL A   1      60.457  17.970  12.998  1.00  0.00    +0.000 H 
ATOM    113  H22 UNL A   1      60.598  19.031  15.376  1.00  0.00    +0.000 H 
ATOM    114  H23 UNL A   1      56.754  19.574  13.935  1.00  0.00    +0.000 H 
ATOM    115  H24 UNL A   1      50.907  22.055  14.612  1.00  0.00    +0.000 H 
ATOM    116  H25 UNL A   1      50.770  20.998  12.305  1.00  0.00    +0.000 H 
ATOM    117  H26 UNL A   1      54.591  20.311  13.792  1.00  0.00    +0.000 H 
ATOM    118  H27 UNL A   1      54.696  22.375  18.369  1.00  0.00    +0.000 H 
ATOM    119  H28 UNL A   1      57.178  21.756  18.453  1.00  0.00    +0.000 H 
ATOM    120  H29 UNL A   1      56.469  17.344   9.461  1.00  0.00    +0.000 H 
ATOM    121  H30 UNL A   1      54.165  18.410   9.125  1.00  0.00    +0.000 H 
ENDROOT
BRANCH   19   18
ATOM     76  C53 UNL A   1      51.893  20.774   9.538  1.00  0.00    +0.000 C 
ATOM     77  C54 UNL A   1      50.884  20.702   8.582  1.00  0.00    +0.000 C 
ATOM    110  H19 UNL A   1      49.948  17.513   9.052  1.00  0.00    +0.000 H 
ATOM     15  C11 UNL A   1      50.206  19.497   8.371  1.00  0.00    +0.000 C 
ATOM     16  C12 UNL A   1      50.467  18.394   9.190  1.00  0.00    +0.000 C 
ATOM     17  C13 UNL A   1      51.432  18.489  10.194  1.00  0.00    +0.000 C 
ATOM    111  H20 UNL A   1      51.606  17.682  10.815  1.00  0.00    +0.000 H 
ATOM     18  C14 UNL A   1      52.165  19.673  10.365  1.00  0.00    +0.000 C 
ATOM    122  H31 UNL A   1      52.445  21.640   9.639  1.00  0.00    +0.000 H 
ATOM    123  H32 UNL A   1      50.635  21.537   8.030  1.00  0.00    +0.000 H 
BRANCH   15   13
ATOM     13  C10 UNL A   1      49.178  19.371   7.316  1.00  0.00    +0.000 C 
ATOM     14  O2  UNL A   1      48.653  20.381   6.852  1.00  0.00    +0.000 O 
BRANCH   13   12
ATOM     12  N2  UNL A   1      48.801  18.133   6.865  1.00  0.00    +0.000 N 
ATOM    109  H18 UNL A   1      47.989  17.761   7.279  1.00  0.00    +0.000 H 
BRANCH   12   11
ATOM     11  C9  UNL A   1      49.431  17.292   5.861  1.00  0.00    +0.000 C 
ATOM    108  H17 UNL A   1      50.096  16.621   6.364  1.00  0.00    +0.000 H 
ATOM    107  H16 UNL A   1      49.956  17.916   5.169  1.00  0.00    +0.000 H 
BRANCH   11   10
ATOM    105  H14 UNL A   1      48.614  16.563   4.048  1.00  0.00    +0.000 H 
ATOM     10  C8  UNL A   1      48.414  16.455   5.093  1.00  0.00    +0.000 C 
ATOM    106  H15 UNL A   1      48.526  15.449   5.441  1.00  0.00    +0.000 H 
BRANCH   10    9
ATOM      9  C7  UNL A   1      46.953  16.837   5.341  1.00  0.00    +0.000 C 
ATOM    103  H12 UNL A   1      46.514  16.088   5.966  1.00  0.00    +0.000 H 
ATOM    104  H13 UNL A   1      46.971  17.809   5.788  1.00  0.00    +0.000 H 
BRANCH    9    8
ATOM    101  H10 UNL A   1      46.415  16.217   3.383  1.00  0.00    +0.000 H 
ATOM    102  H11 UNL A   1      45.079  16.842   4.397  1.00  0.00    +0.000 H 
ATOM      8  C6  UNL A   1      46.093  16.964   4.079  1.00  0.00    +0.000 C 
BRANCH    8    7
ATOM     99  H8  UNL A   1      47.179  18.518   3.111  1.00  0.00    +0.000 H 
ATOM    100  H9  UNL A   1      45.514  18.267   2.527  1.00  0.00    +0.000 H 
ATOM      7  C5  UNL A   1      46.160  18.327   3.378  1.00  0.00    +0.000 C 
BRANCH    7    6
ATOM     97  H6  UNL A   1      45.528  19.159   5.239  1.00  0.00    +0.000 H 
ATOM     98  H7  UNL A   1      46.381  20.282   4.190  1.00  0.00    +0.000 H 
ATOM      6  C4  UNL A   1      45.659  19.493   4.231  1.00  0.00    +0.000 C 
BRANCH    6    5
ATOM      5  N1  UNL A   1      44.398  19.993   3.730  1.00  0.00    +0.000 N 
ATOM     96  H5  UNL A   1      44.138  20.881   4.068  1.00  0.00    +0.000 H 
BRANCH    5    3
ATOM      3  C3  UNL A   1      43.514  19.425   2.858  1.00  0.00    +0.000 C 
ATOM      4  O1  UNL A   1      42.738  18.590   3.328  1.00  0.00    +0.000 O 
BRANCH    3    2
ATOM      2  C2  UNL A   1      43.578  19.784   1.365  1.00  0.00    +0.000 C 
ATOM     95  H4  UNL A   1      43.918  18.894   0.879  1.00  0.00    +0.000 H 
BRANCH    2    1
ATOM      1  C1  UNL A   1      44.596  20.881   1.040  1.00  0.00    +0.000 C 
ATOM     92  H1  UNL A   1      44.558  21.103  -0.007  1.00  0.00    +0.000 H 
ATOM     93  H2  UNL A   1      45.579  20.543   1.296  1.00  0.00    +0.000 H 
ATOM     94  H3  UNL A   1      44.365  21.761   1.600  1.00  0.00    +0.000 H 
ENDBRANCH    2    1
BRANCH    2   78
ATOM    136  H45 UNL A   1      40.245  19.746  -1.876  1.00  0.00    +0.000 H 
ATOM     78  C55 UNL A   1      42.213  20.156   0.813  1.00  0.00    +0.000 C 
ATOM     79  C56 UNL A   1      41.334  20.933   1.574  1.00  0.00    +0.000 C 
ATOM     80  C57 UNL A   1      40.066  21.261   1.077  1.00  0.00    +0.000 C 
ATOM     81  C58 UNL A   1      39.646  20.871  -0.197  1.00  0.00    +0.000 C 
ATOM     89  C64 UNL A   1      40.530  20.081  -0.942  1.00  0.00    +0.000 C 
ATOM     90  C65 UNL A   1      41.787  19.737  -0.447  1.00  0.00    +0.000 C 
ATOM     91  F16 UNL A   1      42.579  18.966  -1.207  1.00  0.00    +0.000 F 
ATOM    124  H33 UNL A   1      41.622  21.267   2.506  1.00  0.00    +0.000 H 
ATOM    125  H34 UNL A   1      39.423  21.808   1.671  1.00  0.00    +0.000 H 
BRANCH   81   82
ATOM     82  N7  UNL A   1      38.389  21.114  -0.721  1.00  0.00    +0.000 N 
ATOM    126  H35 UNL A   1      38.155  20.601  -1.528  1.00  0.00    +0.000 H 
BRANCH   82   83
ATOM    129  H38 UNL A   1      37.472  24.075  -0.957  1.00  0.00    +0.000 H 
ATOM    130  H39 UNL A   1      35.036  22.794  -2.020  1.00  0.00    +0.000 H 
ATOM    131  H40 UNL A   1      35.148  24.278  -1.158  1.00  0.00    +0.000 H 
ATOM    132  H41 UNL A   1      34.055  22.170   0.035  1.00  0.00    +0.000 H 
ATOM    133  H42 UNL A   1      35.080  23.154   0.977  1.00  0.00    +0.000 H 
ATOM    134  H43 UNL A   1      35.783  20.536  -0.426  1.00  0.00    +0.000 H 
ATOM     83  C59 UNL A   1      37.368  22.034  -0.231  1.00  0.00    +0.000 C 
ATOM     84  C60 UNL A   1      37.000  23.150  -1.213  1.00  0.00    +0.000 C 
ATOM     85  C61 UNL A   1      35.474  23.258  -1.161  1.00  0.00    +0.000 C 
ATOM     86  C62 UNL A   1      35.060  22.528   0.109  1.00  0.00    +0.000 C 
ATOM     87  C63 UNL A   1      36.046  21.372   0.189  1.00  0.00    +0.000 C 
ATOM    127  H36 UNL A   1      37.857  22.441   0.629  1.00  0.00    +0.000 H 
ATOM    128  H37 UNL A   1      37.322  22.899  -2.203  1.00  0.00    +0.000 H 
BRANCH   87   88
ATOM    135  H44 UNL A   1      35.603  20.016   1.546  1.00  0.00    +0.000 H 
ATOM     88  O3  UNL A   1      36.110  20.842   1.505  1.00  0.00    +0.000 O 
ENDBRANCH   87   88
ENDBRANCH   82   83
ENDBRANCH   81   82
ENDBRANCH    2   78
ENDBRANCH    3    2
ENDBRANCH    5    3
ENDBRANCH    6    5
ENDBRANCH    7    6
ENDBRANCH    8    7
ENDBRANCH    9    8
ENDBRANCH   10    9
ENDBRANCH   11   10
ENDBRANCH   12   11
ENDBRANCH   13   12
ENDBRANCH   15   13
ENDBRANCH   19   18
BRANCH   23   24
ATOM     33  C24 UNL A   1      59.445  17.885   9.883  1.00  0.00    +0.000 C 
ATOM     34  F5  UNL A   1      59.443  19.218   9.731  1.00  0.00    +0.000 F 
ATOM     24  C19 UNL A   1      58.672  17.286  10.889  1.00  0.00    +0.000 C 
ATOM     25  C20 UNL A   1      58.710  15.887  10.998  1.00  0.00    +0.000 C 
ATOM     26  F1  UNL A   1      57.999  15.265  11.952  1.00  0.00    +0.000 F 
ATOM     27  C21 UNL A   1      59.514  15.123  10.157  1.00  0.00    +0.000 C 
ATOM     28  F2  UNL A   1      59.575  13.794  10.317  1.00  0.00    +0.000 F 
ATOM     29  C22 UNL A   1      60.267  15.737   9.168  1.00  0.00    +0.000 C 
ATOM     30  F3  UNL A   1      61.039  15.001   8.358  1.00  0.00    +0.000 F 
ATOM     31  C23 UNL A   1      60.226  17.116   9.025  1.00  0.00    +0.000 C 
ATOM     32  F4  UNL A   1      60.943  17.709   8.060  1.00  0.00    +0.000 F 
ENDBRANCH   23   24
BRANCH   40   41
ATOM     41  C30 UNL A   1      59.186  20.537  17.307  1.00  0.00    +0.000 C 
ATOM     42  C31 UNL A   1      59.376  19.636  18.364  1.00  0.00    +0.000 C 
ATOM     43  F6  UNL A   1      58.589  18.555  18.482  1.00  0.00    +0.000 F 
ATOM     44  C32 UNL A   1      60.351  19.865  19.332  1.00  0.00    +0.000 C 
ATOM     45  F7  UNL A   1      60.483  19.017  20.361  1.00  0.00    +0.000 F 
ATOM     46  C33 UNL A   1      61.175  20.977  19.241  1.00  0.00    +0.000 C 
ATOM     47  F8  UNL A   1      62.115  21.193  20.171  1.00  0.00    +0.000 F 
ATOM     48  C34 UNL A   1      61.018  21.870  18.193  1.00  0.00    +0.000 C 
ATOM     49  F9  UNL A   1      61.820  22.939  18.096  1.00  0.00    +0.000 F 
ATOM     50  C35 UNL A   1      60.025  21.660  17.240  1.00  0.00    +0.000 C 
ATOM     51  F10 UNL A   1      59.887  22.549  16.244  1.00  0.00    +0.000 F 
ENDBRANCH   40   41
BRANCH   55   56
ATOM     65  C44 UNL A   1      52.340  23.878  16.614  1.00  0.00    +0.000 C 
ATOM     66  F15 UNL A   1      52.991  24.529  15.639  1.00  0.00    +0.000 F 
ATOM     56  C39 UNL A   1      52.527  22.500  16.785  1.00  0.00    +0.000 C 
ATOM     57  C40 UNL A   1      51.826  21.868  17.821  1.00  0.00    +0.000 C 
ATOM     58  F11 UNL A   1      51.958  20.546  18.010  1.00  0.00    +0.000 F 
ATOM     59  C41 UNL A   1      50.956  22.584  18.642  1.00  0.00    +0.000 C 
ATOM     60  F12 UNL A   1      50.266  21.947  19.599  1.00  0.00    +0.000 F 
ATOM     61  C42 UNL A   1      50.793  23.948  18.461  1.00  0.00    +0.000 C 
ATOM     62  F13 UNL A   1      49.960  24.636  19.251  1.00  0.00    +0.000 F 
ATOM     63  C43 UNL A   1      51.489  24.597  17.452  1.00  0.00    +0.000 C 
ATOM     64  F14 UNL A   1      51.343  25.918  17.281  1.00  0.00    +0.000 F 
ENDBRANCH   55   56
TORSDOF 20
ENDMDL
MODEL 4
REMARK VINA RESULT:     -10.8      1.602      3.167
ROOT
ATOM     19  C15 UNL A   1      25.840  36.273  45.492  1.00  0.00    +0.000 C 
ATOM     20  C16 UNL A   1      25.768  37.425  46.454  1.00  0.00    +0.000 C 
ATOM     21  N3  UNL A   1      26.695  38.288  46.786  1.00  0.00    +0.000 N 
ATOM     22  C17 UNL A   1      26.090  39.172  47.669  1.00  0.00    +0.000 C 
ATOM     23  C18 UNL A   1      26.646  40.210  48.340  1.00  0.00    +0.000 C 
ATOM     35  C25 UNL A   1      28.034  40.580  48.252  1.00  0.00    +0.000 C 
ATOM     36  C26 UNL A   1      28.712  41.564  48.948  1.00  0.00    +0.000 C 
ATOM     37  C27 UNL A   1      30.037  41.584  48.500  1.00  0.00    +0.000 C 
ATOM     38  C28 UNL A   1      30.196  40.581  47.558  1.00  0.00    +0.000 C 
ATOM     39  N4  UNL A   1      28.959  39.975  47.413  1.00  0.00    +0.000 N 
ATOM     40  C29 UNL A   1      31.388  40.200  46.843  1.00  0.00    +0.000 C 
ATOM     52  C36 UNL A   1      31.462  39.200  45.930  1.00  0.00    +0.000 C 
ATOM     53  N5  UNL A   1      30.465  38.336  45.499  1.00  0.00    +0.000 N 
ATOM     54  C37 UNL A   1      31.026  37.555  44.608  1.00  0.00    +0.000 C 
ATOM     55  C38 UNL A   1      30.430  36.408  43.839  1.00  0.00    +0.000 C 
ATOM     67  C45 UNL A   1      29.139  36.081  44.041  1.00  0.00    +0.000 C 
ATOM     68  C46 UNL A   1      28.427  34.987  43.386  1.00  0.00    +0.000 C 
ATOM     69  C47 UNL A   1      27.160  34.963  43.827  1.00  0.00    +0.000 C 
ATOM     70  C48 UNL A   1      26.979  36.023  44.819  1.00  0.00    +0.000 C 
ATOM     71  N6  UNL A   1      28.200  36.647  44.868  1.00  0.00    +0.000 N 
ATOM     72  C49 UNL A   1      32.440  37.859  44.349  1.00  0.00    +0.000 C 
ATOM     73  C50 UNL A   1      32.666  38.841  45.210  1.00  0.00    +0.000 C 
ATOM     74  C51 UNL A   1      24.705  38.772  47.786  1.00  0.00    +0.000 C 
ATOM     75  C52 UNL A   1      24.472  37.656  47.113  1.00  0.00    +0.000 C 
ATOM    112  H21 UNL A   1      28.310  42.180  49.673  1.00  0.00    +0.000 H 
ATOM    113  H22 UNL A   1      30.773  42.236  48.817  1.00  0.00    +0.000 H 
ATOM    114  H23 UNL A   1      28.763  39.227  46.803  1.00  0.00    +0.000 H 
ATOM    115  H24 UNL A   1      28.834  34.337  42.695  1.00  0.00    +0.000 H 
ATOM    116  H25 UNL A   1      26.430  34.302  43.516  1.00  0.00    +0.000 H 
ATOM    117  H26 UNL A   1      28.386  37.425  45.442  1.00  0.00    +0.000 H 
ATOM    118  H27 UNL A   1      33.086  37.424  43.672  1.00  0.00    +0.000 H 
ATOM    119  H28 UNL A   1      33.584  39.291  45.350  1.00  0.00    +0.000 H 
ATOM    120  H29 UNL A   1      23.992  39.290  48.324  1.00  0.00    +0.000 H 
ATOM    121  H30 UNL A   1      23.608  37.095  47.064  1.00  0.00    +0.000 H 
ENDROOT
BRANCH   19   18
ATOM     76  C53 UNL A   1      23.633  35.912  44.380  1.00  0.00    +0.000 C 
ATOM     77  C54 UNL A   1      22.470  35.171  44.183  1.00  0.00    +0.000 C 
ATOM    110  H19 UNL A   1      23.234  32.499  46.065  1.00  0.00    +0.000 H 
ATOM     15  C11 UNL A   1      22.345  33.903  44.760  1.00  0.00    +0.000 C 
ATOM     16  C12 UNL A   1      23.339  33.423  45.618  1.00  0.00    +0.000 C 
ATOM     17  C13 UNL A   1      24.473  34.198  45.869  1.00  0.00    +0.000 C 
ATOM    111  H20 UNL A   1      25.194  33.854  46.522  1.00  0.00    +0.000 H 
ATOM     18  C14 UNL A   1      24.637  35.440  45.238  1.00  0.00    +0.000 C 
ATOM    122  H31 UNL A   1      23.756  36.813  43.891  1.00  0.00    +0.000 H 
ATOM    123  H32 UNL A   1      21.702  35.557  43.613  1.00  0.00    +0.000 H 
BRANCH   15   13
ATOM     13  C10 UNL A   1      21.153  33.063  44.512  1.00  0.00    +0.000 C 
ATOM     14  O2  UNL A   1      21.237  32.091  43.766  1.00  0.00    +0.000 O 
BRANCH   13   12
ATOM     12  N2  UNL A   1      19.956  33.374  45.102  1.00  0.00    +0.000 N 
ATOM    109  H18 UNL A   1      19.207  33.533  44.482  1.00  0.00    +0.000 H 
BRANCH   12   11
ATOM     11  C9  UNL A   1      19.635  33.502  46.514  1.00  0.00    +0.000 C 
ATOM    108  H17 UNL A   1      20.524  33.297  47.073  1.00  0.00    +0.000 H 
ATOM    107  H16 UNL A   1      18.855  32.810  46.753  1.00  0.00    +0.000 H 
BRANCH   11   10
ATOM    105  H14 UNL A   1      18.240  34.829  47.395  1.00  0.00    +0.000 H 
ATOM     10  C8  UNL A   1      19.170  34.909  46.872  1.00  0.00    +0.000 C 
ATOM    106  H15 UNL A   1      19.949  35.344  47.462  1.00  0.00    +0.000 H 
BRANCH   10    9
ATOM      9  C7  UNL A   1      18.964  35.839  45.675  1.00  0.00    +0.000 C 
ATOM    103  H12 UNL A   1      19.582  36.702  45.814  1.00  0.00    +0.000 H 
ATOM    104  H13 UNL A   1      19.219  35.268  44.806  1.00  0.00    +0.000 H 
BRANCH    9    8
ATOM    101  H10 UNL A   1      17.246  36.914  46.307  1.00  0.00    +0.000 H 
ATOM    102  H11 UNL A   1      17.522  36.855  44.539  1.00  0.00    +0.000 H 
ATOM      8  C6  UNL A   1      17.524  36.316  45.463  1.00  0.00    +0.000 C 
BRANCH    8    7
ATOM     99  H8  UNL A   1      16.684  34.448  46.044  1.00  0.00    +0.000 H 
ATOM    100  H9  UNL A   1      15.523  35.655  45.436  1.00  0.00    +0.000 H 
ATOM      7  C5  UNL A   1      16.483  35.200  45.309  1.00  0.00    +0.000 C 
BRANCH    7    6
ATOM     97  H6  UNL A   1      15.817  35.077  43.286  1.00  0.00    +0.000 H 
ATOM     98  H7  UNL A   1      17.473  34.549  43.541  1.00  0.00    +0.000 H 
ATOM      6  C4  UNL A   1      16.477  34.537  43.931  1.00  0.00    +0.000 C 
BRANCH    6    5
ATOM      5  N1  UNL A   1      16.033  33.164  44.022  1.00  0.00    +0.000 N 
ATOM     96  H5  UNL A   1      15.063  33.031  43.915  1.00  0.00    +0.000 H 
BRANCH    5    3
ATOM      3  C3  UNL A   1      16.752  32.022  44.232  1.00  0.00    +0.000 C 
ATOM      4  O1  UNL A   1      16.978  31.721  45.405  1.00  0.00    +0.000 O 
BRANCH    3    2
ATOM      2  C2  UNL A   1      17.296  31.233  43.030  1.00  0.00    +0.000 C 
ATOM     95  H4  UNL A   1      18.357  31.220  43.163  1.00  0.00    +0.000 H 
BRANCH    2    1
ATOM      1  C1  UNL A   1      17.027  31.905  41.680  1.00  0.00    +0.000 C 
ATOM     92  H1  UNL A   1      15.981  31.859  41.461  1.00  0.00    +0.000 H 
ATOM     93  H2  UNL A   1      17.574  31.397  40.913  1.00  0.00    +0.000 H 
ATOM     94  H3  UNL A   1      17.338  32.927  41.722  1.00  0.00    +0.000 H 
ENDBRANCH    2    1
BRANCH    2   78
ATOM    136  H45 UNL A   1      17.579  26.699  44.016  1.00  0.00    +0.000 H 
ATOM     78  C55 UNL A   1      16.785  29.803  43.014  1.00  0.00    +0.000 C 
ATOM     79  C56 UNL A   1      15.557  29.501  42.419  1.00  0.00    +0.000 C 
ATOM     80  C57 UNL A   1      15.072  28.186  42.419  1.00  0.00    +0.000 C 
ATOM     81  C58 UNL A   1      15.803  27.128  42.966  1.00  0.00    +0.000 C 
ATOM     89  C64 UNL A   1      17.023  27.447  43.572  1.00  0.00    +0.000 C 
ATOM     90  C65 UNL A   1      17.504  28.755  43.590  1.00  0.00    +0.000 C 
ATOM     91  F16 UNL A   1      18.675  28.994  44.199  1.00  0.00    +0.000 F 
ATOM    124  H33 UNL A   1      15.004  30.250  41.975  1.00  0.00    +0.000 H 
ATOM    125  H34 UNL A   1      14.148  27.994  42.002  1.00  0.00    +0.000 H 
BRANCH   81   82
ATOM     82  N7  UNL A   1      15.355  25.822  43.049  1.00  0.00    +0.000 N 
ATOM    126  H35 UNL A   1      15.608  25.334  43.866  1.00  0.00    +0.000 H 
BRANCH   82   83
ATOM    129  H38 UNL A   1      13.874  26.171  40.338  1.00  0.00    +0.000 H 
ATOM    130  H39 UNL A   1      15.824  24.125  39.492  1.00  0.00    +0.000 H 
ATOM    131  H40 UNL A   1      14.235  24.370  38.884  1.00  0.00    +0.000 H 
ATOM    132  H41 UNL A   1      14.730  22.227  40.373  1.00  0.00    +0.000 H 
ATOM    133  H42 UNL A   1      13.253  23.035  40.639  1.00  0.00    +0.000 H 
ATOM    134  H43 UNL A   1      15.840  23.308  42.236  1.00  0.00    +0.000 H 
ATOM     83  C59 UNL A   1      14.557  25.076  42.081  1.00  0.00    +0.000 C 
ATOM     84  C60 UNL A   1      14.702  25.562  40.636  1.00  0.00    +0.000 C 
ATOM     85  C61 UNL A   1      14.809  24.294  39.784  1.00  0.00    +0.000 C 
ATOM     86  C62 UNL A   1      14.315  23.165  40.677  1.00  0.00    +0.000 C 
ATOM     87  C63 UNL A   1      14.815  23.562  42.058  1.00  0.00    +0.000 C 
ATOM    127  H36 UNL A   1      13.569  25.269  42.442  1.00  0.00    +0.000 H 
ATOM    128  H37 UNL A   1      15.583  26.159  40.528  1.00  0.00    +0.000 H 
BRANCH   87   88
ATOM    135  H44 UNL A   1      13.295  22.489  42.702  1.00  0.00    +0.000 H 
ATOM     88  O3  UNL A   1      14.097  22.883  43.078  1.00  0.00    +0.000 O 
ENDBRANCH   87   88
ENDBRANCH   82   83
ENDBRANCH   81   82
ENDBRANCH    2   78
ENDBRANCH    3    2
ENDBRANCH    5    3
ENDBRANCH    6    5
ENDBRANCH    7    6
ENDBRANCH    8    7
ENDBRANCH    9    8
ENDBRANCH   10    9
ENDBRANCH   11   10
ENDBRANCH   12   11
ENDBRANCH   13   12
ENDBRANCH   15   13
ENDBRANCH   19   18
BRANCH   23   24
ATOM     33  C24 UNL A   1      25.548  40.648  50.567  1.00  0.00    +0.000 C 
ATOM     34  F5  UNL A   1      26.170  39.571  51.070  1.00  0.00    +0.000 F 
ATOM     24  C19 UNL A   1      25.748  41.021  49.229  1.00  0.00    +0.000 C 
ATOM     25  C20 UNL A   1      25.068  42.154  48.756  1.00  0.00    +0.000 C 
ATOM     26  F1  UNL A   1      25.234  42.560  47.488  1.00  0.00    +0.000 F 
ATOM     27  C21 UNL A   1      24.248  42.901  49.597  1.00  0.00    +0.000 C 
ATOM     28  F2  UNL A   1      23.652  44.009  49.136  1.00  0.00    +0.000 F 
ATOM     29  C22 UNL A   1      24.062  42.511  50.914  1.00  0.00    +0.000 C 
ATOM     30  F3  UNL A   1      23.271  43.230  51.721  1.00  0.00    +0.000 F 
ATOM     31  C23 UNL A   1      24.704  41.381  51.397  1.00  0.00    +0.000 C 
ATOM     32  F4  UNL A   1      24.515  40.996  52.667  1.00  0.00    +0.000 F 
ENDBRANCH   23   24
BRANCH   40   41
ATOM     41  C30 UNL A   1      32.653  40.948  47.145  1.00  0.00    +0.000 C 
ATOM     42  C31 UNL A   1      33.581  40.478  48.084  1.00  0.00    +0.000 C 
ATOM     43  F6  UNL A   1      33.334  39.354  48.776  1.00  0.00    +0.000 F 
ATOM     44  C32 UNL A   1      34.752  41.184  48.348  1.00  0.00    +0.000 C 
ATOM     45  F7  UNL A   1      35.602  40.742  49.285  1.00  0.00    +0.000 F 
ATOM     46  C33 UNL A   1      35.032  42.352  47.655  1.00  0.00    +0.000 C 
ATOM     47  F8  UNL A   1      36.161  43.029  47.908  1.00  0.00    +0.000 F 
ATOM     48  C34 UNL A   1      34.137  42.825  46.707  1.00  0.00    +0.000 C 
ATOM     49  F9  UNL A   1      34.411  43.947  46.028  1.00  0.00    +0.000 F 
ATOM     50  C35 UNL A   1      32.952  42.137  46.462  1.00  0.00    +0.000 C 
ATOM     51  F10 UNL A   1      32.099  42.626  45.549  1.00  0.00    +0.000 F 
ENDBRANCH   40   41
BRANCH   55   56
ATOM     65  C44 UNL A   1      31.909  34.438  43.312  1.00  0.00    +0.000 C 
ATOM     66  F15 UNL A   1      31.798  34.017  44.580  1.00  0.00    +0.000 F 
ATOM     56  C39 UNL A   1      31.259  35.609  42.901  1.00  0.00    +0.000 C 
ATOM     57  C40 UNL A   1      31.411  36.008  41.565  1.00  0.00    +0.000 C 
ATOM     58  F11 UNL A   1      30.790  37.111  41.121  1.00  0.00    +0.000 F 
ATOM     59  C41 UNL A   1      32.167  35.253  40.671  1.00  0.00    +0.000 C 
ATOM     60  F12 UNL A   1      32.261  35.634  39.389  1.00  0.00    +0.000 F 
ATOM     61  C42 UNL A   1      32.809  34.102  41.101  1.00  0.00    +0.000 C 
ATOM     62  F13 UNL A   1      33.538  33.378  40.242  1.00  0.00    +0.000 F 
ATOM     63  C43 UNL A   1      32.686  33.698  42.422  1.00  0.00    +0.000 C 
ATOM     64  F14 UNL A   1      33.315  32.593  42.845  1.00  0.00    +0.000 F 
ENDBRANCH   55   56
TORSDOF 20
ENDMDL
MODEL 5
REMARK VINA RESULT:     -10.7     40.698     48.393
ROOT
ATOM     19  C15 UNL A   1      52.753  20.565  11.531  1.00  0.00    +0.000 C 
ATOM     20  C16 UNL A   1      54.054  19.862  11.261  1.00  0.00    +0.000 C 
ATOM     21  N3  UNL A   1      55.070  19.659  12.063  1.00  0.00    +0.000 N 
ATOM     22  C17 UNL A   1      55.986  18.915  11.331  1.00  0.00    +0.000 C 
ATOM     23  C18 UNL A   1      57.223  18.502  11.697  1.00  0.00    +0.000 C 
ATOM     35  C25 UNL A   1      57.830  18.793  12.969  1.00  0.00    +0.000 C 
ATOM     36  C26 UNL A   1      59.106  18.487  13.407  1.00  0.00    +0.000 C 
ATOM     37  C27 UNL A   1      59.234  18.933  14.727  1.00  0.00    +0.000 C 
ATOM     38  C28 UNL A   1      58.053  19.557  15.095  1.00  0.00    +0.000 C 
ATOM     39  N4  UNL A   1      57.199  19.461  14.008  1.00  0.00    +0.000 N 
ATOM     40  C29 UNL A   1      57.726  20.196  16.344  1.00  0.00    +0.000 C 
ATOM     52  C36 UNL A   1      56.540  20.789  16.629  1.00  0.00    +0.000 C 
ATOM     53  N5  UNL A   1      55.419  20.931  15.822  1.00  0.00    +0.000 N 
ATOM     54  C37 UNL A   1      54.532  21.566  16.546  1.00  0.00    +0.000 C 
ATOM     55  C38 UNL A   1      53.148  22.022  16.172  1.00  0.00    +0.000 C 
ATOM     67  C45 UNL A   1      52.687  21.775  14.931  1.00  0.00    +0.000 C 
ATOM     68  C46 UNL A   1      51.379  22.169  14.416  1.00  0.00    +0.000 C 
ATOM     69  C47 UNL A   1      51.264  21.751  13.146  1.00  0.00    +0.000 C 
ATOM     70  C48 UNL A   1      52.504  21.084  12.748  1.00  0.00    +0.000 C 
ATOM     71  N6  UNL A   1      53.284  21.129  13.876  1.00  0.00    +0.000 N 
ATOM     72  C49 UNL A   1      54.979  21.871  17.912  1.00  0.00    +0.000 C 
ATOM     73  C50 UNL A   1      56.223  21.414  17.896  1.00  0.00    +0.000 C 
ATOM     74  C51 UNL A   1      55.388  18.660  10.039  1.00  0.00    +0.000 C 
ATOM     75  C52 UNL A   1      54.226  19.284   9.919  1.00  0.00    +0.000 C 
ATOM    112  H21 UNL A   1      59.838  18.011  12.856  1.00  0.00    +0.000 H 
ATOM    113  H22 UNL A   1      60.067  18.816  15.327  1.00  0.00    +0.000 H 
ATOM    114  H23 UNL A   1      56.280  19.813  13.978  1.00  0.00    +0.000 H 
ATOM    115  H24 UNL A   1      50.659  22.687  14.944  1.00  0.00    +0.000 H 
ATOM    116  H25 UNL A   1      50.434  21.879  12.545  1.00  0.00    +0.000 H 
ATOM    117  H26 UNL A   1      54.186  20.736  13.925  1.00  0.00    +0.000 H 
ATOM    118  H27 UNL A   1      54.461  22.321  18.683  1.00  0.00    +0.000 H 
ATOM    119  H28 UNL A   1      56.883  21.495  18.685  1.00  0.00    +0.000 H 
ATOM    120  H29 UNL A   1      55.812  18.068   9.307  1.00  0.00    +0.000 H 
ATOM    121  H30 UNL A   1      53.605  19.348   9.098  1.00  0.00    +0.000 H 
ENDROOT
BRANCH   19   18
ATOM     76  C53 UNL A   1      50.823  19.574  10.295  1.00  0.00    +0.000 C 
ATOM     77  C54 UNL A   1      49.887  19.605   9.265  1.00  0.00    +0.000 C 
ATOM    110  H19 UNL A   1      50.576  22.646   8.025  1.00  0.00    +0.000 H 
ATOM     15  C11 UNL A   1      49.764  20.745   8.466  1.00  0.00    +0.000 C 
ATOM     16  C12 UNL A   1      50.650  21.814   8.632  1.00  0.00    +0.000 C 
ATOM     17  C13 UNL A   1      51.633  21.754   9.621  1.00  0.00    +0.000 C 
ATOM    111  H20 UNL A   1      52.302  22.533   9.726  1.00  0.00    +0.000 H 
ATOM     18  C14 UNL A   1      51.716  20.642  10.472  1.00  0.00    +0.000 C 
ATOM    122  H31 UNL A   1      50.859  18.763  10.932  1.00  0.00    +0.000 H 
ATOM    123  H32 UNL A   1      49.284  18.785   9.090  1.00  0.00    +0.000 H 
BRANCH   15   13
ATOM     13  C10 UNL A   1      48.732  20.835   7.410  1.00  0.00    +0.000 C 
ATOM     14  O2  UNL A   1      48.077  21.866   7.284  1.00  0.00    +0.000 O 
BRANCH   13   12
ATOM     12  N2  UNL A   1      48.499  19.768   6.582  1.00  0.00    +0.000 N 
ATOM    109  H18 UNL A   1      47.895  19.077   6.942  1.00  0.00    +0.000 H 
BRANCH   12   11
ATOM     11  C9  UNL A   1      49.016  19.510   5.249  1.00  0.00    +0.000 C 
ATOM    108  H17 UNL A   1      49.334  20.444   4.834  1.00  0.00    +0.000 H 
ATOM    107  H16 UNL A   1      48.243  19.064   4.660  1.00  0.00    +0.000 H 
BRANCH   11   10
ATOM    105  H14 UNL A   1      50.085  17.877   6.071  1.00  0.00    +0.000 H 
ATOM     10  C8  UNL A   1      50.219  18.574   5.271  1.00  0.00    +0.000 C 
ATOM    106  H15 UNL A   1      50.257  18.107   4.309  1.00  0.00    +0.000 H 
BRANCH   10    9
ATOM      9  C7  UNL A   1      51.568  19.269   5.467  1.00  0.00    +0.000 C 
ATOM    103  H12 UNL A   1      52.165  19.089   4.597  1.00  0.00    +0.000 H 
ATOM    104  H13 UNL A   1      51.350  20.305   5.626  1.00  0.00    +0.000 H 
BRANCH    9    8
ATOM    101  H10 UNL A   1      52.148  19.478   7.498  1.00  0.00    +0.000 H 
ATOM    102  H11 UNL A   1      52.060  17.800   6.882  1.00  0.00    +0.000 H 
ATOM      8  C6  UNL A   1      52.364  18.808   6.692  1.00  0.00    +0.000 C 
BRANCH    8    7
ATOM     99  H8  UNL A   1      54.302  19.658   6.925  1.00  0.00    +0.000 H 
ATOM    100  H9  UNL A   1      54.232  17.879   6.990  1.00  0.00    +0.000 H 
ATOM      7  C5  UNL A   1      53.886  18.767   6.504  1.00  0.00    +0.000 C 
BRANCH    7    6
ATOM     97  H6  UNL A   1      53.470  18.564   4.421  1.00  0.00    +0.000 H 
ATOM     98  H7  UNL A   1      54.867  19.564   4.791  1.00  0.00    +0.000 H 
ATOM      6  C4  UNL A   1      54.332  18.672   5.044  1.00  0.00    +0.000 C 
BRANCH    6    5
ATOM      5  N1  UNL A   1      55.206  17.537   4.845  1.00  0.00    +0.000 N 
ATOM     96  H5  UNL A   1      55.821  17.348   5.590  1.00  0.00    +0.000 H 
BRANCH    5    3
ATOM      3  C3  UNL A   1      55.309  16.686   3.782  1.00  0.00    +0.000 C 
ATOM      4  O1  UNL A   1      55.680  17.180   2.715  1.00  0.00    +0.000 O 
BRANCH    3    2
ATOM      2  C2  UNL A   1      54.894  15.215   3.942  1.00  0.00    +0.000 C 
ATOM     95  H4  UNL A   1      55.414  14.873   4.812  1.00  0.00    +0.000 H 
BRANCH    2    1
ATOM      1  C1  UNL A   1      55.339  14.320   2.782  1.00  0.00    +0.000 C 
ATOM     92  H1  UNL A   1      56.408  14.262   2.766  1.00  0.00    +0.000 H 
ATOM     93  H2  UNL A   1      54.992  14.735   1.858  1.00  0.00    +0.000 H 
ATOM     94  H3  UNL A   1      54.930  13.341   2.908  1.00  0.00    +0.000 H 
ENDBRANCH    2    1
BRANCH    2   78
ATOM    136  H45 UNL A   1      51.082  15.121   6.601  1.00  0.00    +0.000 H 
ATOM     78  C55 UNL A   1      53.400  15.070   4.173  1.00  0.00    +0.000 C 
ATOM     79  C56 UNL A   1      52.541  14.840   3.096  1.00  0.00    +0.000 C 
ATOM     80  C57 UNL A   1      51.159  14.726   3.302  1.00  0.00    +0.000 C 
ATOM     81  C58 UNL A   1      50.593  14.790   4.578  1.00  0.00    +0.000 C 
ATOM     89  C64 UNL A   1      51.464  15.035   5.646  1.00  0.00    +0.000 C 
ATOM     90  C65 UNL A   1      52.837  15.167   5.446  1.00  0.00    +0.000 C 
ATOM     91  F16 UNL A   1      53.613  15.414   6.512  1.00  0.00    +0.000 F 
ATOM    124  H33 UNL A   1      52.925  14.754   2.142  1.00  0.00    +0.000 H 
ATOM    125  H34 UNL A   1      50.542  14.589   2.486  1.00  0.00    +0.000 H 
BRANCH   81   82
ATOM     82  N7  UNL A   1      49.236  14.742   4.840  1.00  0.00    +0.000 N 
ATOM    126  H35 UNL A   1      48.929  13.968   5.367  1.00  0.00    +0.000 H 
BRANCH   82   83
ATOM    129  H38 UNL A   1      47.938  15.985   2.305  1.00  0.00    +0.000 H 
ATOM    130  H39 UNL A   1      45.538  14.667   3.403  1.00  0.00    +0.000 H 
ATOM    131  H40 UNL A   1      45.604  16.104   2.462  1.00  0.00    +0.000 H 
ATOM    132  H41 UNL A   1      44.984  16.276   5.040  1.00  0.00    +0.000 H 
ATOM    133  H42 UNL A   1      46.020  17.473   4.406  1.00  0.00    +0.000 H 
ATOM    134  H43 UNL A   1      46.802  14.961   5.955  1.00  0.00    +0.000 H 
ATOM     83  C59 UNL A   1      48.202  15.689   4.436  1.00  0.00    +0.000 C 
ATOM     84  C60 UNL A   1      47.547  15.372   3.089  1.00  0.00    +0.000 C 
ATOM     85  C61 UNL A   1      46.048  15.601   3.296  1.00  0.00    +0.000 C 
ATOM     86  C62 UNL A   1      45.937  16.419   4.575  1.00  0.00    +0.000 C 
ATOM     87  C63 UNL A   1      47.057  15.868   5.445  1.00  0.00    +0.000 C 
ATOM    127  H36 UNL A   1      48.770  16.593   4.371  1.00  0.00    +0.000 H 
ATOM    128  H37 UNL A   1      47.734  14.355   2.812  1.00  0.00    +0.000 H 
BRANCH   87   88
ATOM    135  H44 UNL A   1      47.957  16.330   7.134  1.00  0.00    +0.000 H 
ATOM     88  O3  UNL A   1      47.396  16.777   6.481  1.00  0.00    +0.000 O 
ENDBRANCH   87   88
ENDBRANCH   82   83
ENDBRANCH   81   82
ENDBRANCH    2   78
ENDBRANCH    3    2
ENDBRANCH    5    3
ENDBRANCH    6    5
ENDBRANCH    7    6
ENDBRANCH    8    7
ENDBRANCH    9    8
ENDBRANCH   10    9
ENDBRANCH   11   10
ENDBRANCH   12   11
ENDBRANCH   13   12
ENDBRANCH   15   13
ENDBRANCH   19   18
BRANCH   23   24
ATOM     33  C24 UNL A   1      57.953  16.287  10.740  1.00  0.00    +0.000 C 
ATOM     34  F5  UNL A   1      57.195  15.659  11.651  1.00  0.00    +0.000 F 
ATOM     24  C19 UNL A   1      58.003  17.688  10.705  1.00  0.00    +0.000 C 
ATOM     25  C20 UNL A   1      58.817  18.291   9.733  1.00  0.00    +0.000 C 
ATOM     26  F1  UNL A   1      58.890  19.628   9.649  1.00  0.00    +0.000 F 
ATOM     27  C21 UNL A   1      59.525  17.522   8.813  1.00  0.00    +0.000 C 
ATOM     28  F2  UNL A   1      60.252  18.122   7.861  1.00  0.00    +0.000 F 
ATOM     29  C22 UNL A   1      59.463  16.138   8.869  1.00  0.00    +0.000 C 
ATOM     30  F3  UNL A   1      60.147  15.400   7.985  1.00  0.00    +0.000 F 
ATOM     31  C23 UNL A   1      58.686  15.521   9.837  1.00  0.00    +0.000 C 
ATOM     32  F4  UNL A   1      58.636  14.182   9.900  1.00  0.00    +0.000 F 
ENDBRANCH   23   24
BRANCH   40   41
ATOM     41  C30 UNL A   1      58.784  20.234  17.408  1.00  0.00    +0.000 C 
ATOM     42  C31 UNL A   1      59.462  21.418  17.732  1.00  0.00    +0.000 C 
ATOM     43  F6  UNL A   1      59.207  22.549  17.057  1.00  0.00    +0.000 F 
ATOM     44  C32 UNL A   1      60.438  21.434  18.724  1.00  0.00    +0.000 C 
ATOM     45  F7  UNL A   1      61.108  22.565  18.984  1.00  0.00    +0.000 F 
ATOM     46  C33 UNL A   1      60.729  20.278  19.435  1.00  0.00    +0.000 C 
ATOM     47  F8  UNL A   1      61.665  20.297  20.393  1.00  0.00    +0.000 F 
ATOM     48  C34 UNL A   1      60.056  19.101  19.145  1.00  0.00    +0.000 C 
ATOM     49  F9  UNL A   1      60.326  17.986  19.836  1.00  0.00    +0.000 F 
ATOM     50  C35 UNL A   1      59.100  19.075  18.133  1.00  0.00    +0.000 C 
ATOM     51  F10 UNL A   1      58.475  17.918  17.865  1.00  0.00    +0.000 F 
ENDBRANCH   40   41
BRANCH   55   56
ATOM     65  C44 UNL A   1      51.507  22.128  18.082  1.00  0.00    +0.000 C 
ATOM     66  F15 UNL A   1      51.476  20.788  18.127  1.00  0.00    +0.000 F 
ATOM     56  C39 UNL A   1      52.310  22.780  17.137  1.00  0.00    +0.000 C 
ATOM     57  C40 UNL A   1      52.303  24.182  17.128  1.00  0.00    +0.000 C 
ATOM     58  F11 UNL A   1      53.072  24.850  16.255  1.00  0.00    +0.000 F 
ATOM     59  C41 UNL A   1      51.539  24.903  18.043  1.00  0.00    +0.000 C 
ATOM     60  F12 UNL A   1      51.583  26.243  18.041  1.00  0.00    +0.000 F 
ATOM     61  C42 UNL A   1      50.745  24.238  18.964  1.00  0.00    +0.000 C 
ATOM     62  F13 UNL A   1      50.008  24.930  19.841  1.00  0.00    +0.000 F 
ATOM     63  C43 UNL A   1      50.723  22.851  18.979  1.00  0.00    +0.000 C 
ATOM     64  F14 UNL A   1      49.948  22.203  19.860  1.00  0.00    +0.000 F 
ENDBRANCH   55   56
TORSDOF 20
ENDMDL
MODEL 6
REMARK VINA RESULT:     -10.7      0.855      7.197
ROOT
ATOM     19  C15 UNL A   1      25.983  36.357  45.666  1.00  0.00    +0.000 C 
ATOM     20  C16 UNL A   1      27.287  36.192  44.938  1.00  0.00    +0.000 C 
ATOM     21  N3  UNL A   1      28.408  36.856  45.082  1.00  0.00    +0.000 N 
ATOM     22  C17 UNL A   1      29.310  36.268  44.205  1.00  0.00    +0.000 C 
ATOM     23  C18 UNL A   1      30.588  36.630  43.938  1.00  0.00    +0.000 C 
ATOM     35  C25 UNL A   1      31.253  37.753  44.544  1.00  0.00    +0.000 C 
ATOM     36  C26 UNL A   1      32.518  38.251  44.285  1.00  0.00    +0.000 C 
ATOM     37  C27 UNL A   1      32.749  39.330  45.146  1.00  0.00    +0.000 C 
ATOM     38  C28 UNL A   1      31.610  39.533  45.908  1.00  0.00    +0.000 C 
ATOM     39  N4  UNL A   1      30.702  38.557  45.531  1.00  0.00    +0.000 N 
ATOM     40  C29 UNL A   1      31.366  40.543  46.906  1.00  0.00    +0.000 C 
ATOM     52  C36 UNL A   1      30.217  40.677  47.614  1.00  0.00    +0.000 C 
ATOM     53  N5  UNL A   1      29.053  39.923  47.540  1.00  0.00    +0.000 N 
ATOM     54  C37 UNL A   1      28.235  40.436  48.425  1.00  0.00    +0.000 C 
ATOM     55  C38 UNL A   1      26.820  40.045  48.752  1.00  0.00    +0.000 C 
ATOM     67  C45 UNL A   1      26.247  39.028  48.081  1.00  0.00    +0.000 C 
ATOM     68  C46 UNL A   1      24.882  38.545  48.271  1.00  0.00    +0.000 C 
ATOM     69  C47 UNL A   1      24.659  37.519  47.436  1.00  0.00    +0.000 C 
ATOM     70  C48 UNL A   1      25.858  37.290  46.629  1.00  0.00    +0.000 C 
ATOM     71  N6  UNL A   1      26.755  38.220  47.093  1.00  0.00    +0.000 N 
ATOM     72  C49 UNL A   1      28.801  41.558  49.187  1.00  0.00    +0.000 C 
ATOM     73  C50 UNL A   1      29.994  41.690  48.624  1.00  0.00    +0.000 C 
ATOM     74  C51 UNL A   1      28.624  35.164  43.569  1.00  0.00    +0.000 C 
ATOM     75  C52 UNL A   1      27.352  35.119  43.933  1.00  0.00    +0.000 C 
ATOM    112  H21 UNL A   1      33.178  37.888  43.579  1.00  0.00    +0.000 H 
ATOM    113  H22 UNL A   1      33.620  39.881  45.204  1.00  0.00    +0.000 H 
ATOM    114  H23 UNL A   1      29.799  38.449  45.909  1.00  0.00    +0.000 H 
ATOM    115  H24 UNL A   1      24.198  38.931  48.941  1.00  0.00    +0.000 H 
ATOM    116  H25 UNL A   1      23.783  36.976  47.372  1.00  0.00    +0.000 H 
ATOM    117  H26 UNL A   1      27.675  38.301  46.751  1.00  0.00    +0.000 H 
ATOM    118  H27 UNL A   1      28.381  42.099  49.959  1.00  0.00    +0.000 H 
ATOM    119  H28 UNL A   1      30.677  42.422  48.874  1.00  0.00    +0.000 H 
ATOM    120  H29 UNL A   1      29.070  34.499  42.917  1.00  0.00    +0.000 H 
ATOM    121  H30 UNL A   1      26.601  34.495  43.598  1.00  0.00    +0.000 H 
ENDROOT
BRANCH   19   18
ATOM     76  C53 UNL A   1      24.742  34.219  46.020  1.00  0.00    +0.000 C 
ATOM     77  C54 UNL A   1      23.714  33.336  45.700  1.00  0.00    +0.000 C 
ATOM    110  H19 UNL A   1      22.091  35.221  43.448  1.00  0.00    +0.000 H 
ATOM     15  C11 UNL A   1      22.719  33.720  44.796  1.00  0.00    +0.000 C 
ATOM     16  C12 UNL A   1      22.811  34.948  44.135  1.00  0.00    +0.000 C 
ATOM     17  C13 UNL A   1      23.879  35.805  44.406  1.00  0.00    +0.000 C 
ATOM    111  H20 UNL A   1      23.960  36.700  43.899  1.00  0.00    +0.000 H 
ATOM     18  C14 UNL A   1      24.843  35.456  45.364  1.00  0.00    +0.000 C 
ATOM    122  H31 UNL A   1      25.431  33.965  46.745  1.00  0.00    +0.000 H 
ATOM    123  H32 UNL A   1      23.687  32.398  46.129  1.00  0.00    +0.000 H 
BRANCH   15   13
ATOM     13  C10 UNL A   1      21.578  32.831  44.489  1.00  0.00    +0.000 C 
ATOM     14  O2  UNL A   1      21.680  31.996  43.594  1.00  0.00    +0.000 O 
BRANCH   13   12
ATOM     12  N2  UNL A   1      20.406  32.946  45.190  1.00  0.00    +0.000 N 
ATOM    109  H18 UNL A   1      20.225  32.221  45.833  1.00  0.00    +0.000 H 
BRANCH   12   11
ATOM     11  C9  UNL A   1      19.393  33.985  45.120  1.00  0.00    +0.000 C 
ATOM    108  H17 UNL A   1      19.892  34.924  45.006  1.00  0.00    +0.000 H 
ATOM    107  H16 UNL A   1      18.810  33.959  46.017  1.00  0.00    +0.000 H 
BRANCH   11   10
ATOM    105  H14 UNL A   1      18.419  34.726  43.391  1.00  0.00    +0.000 H 
ATOM     10  C8  UNL A   1      18.463  33.800  43.926  1.00  0.00    +0.000 C 
ATOM    106  H15 UNL A   1      18.872  32.999  43.345  1.00  0.00    +0.000 H 
BRANCH   10    9
ATOM      9  C7  UNL A   1      17.034  33.388  44.285  1.00  0.00    +0.000 C 
ATOM    103  H12 UNL A   1      17.048  32.956  45.264  1.00  0.00    +0.000 H 
ATOM    104  H13 UNL A   1      16.442  34.278  44.221  1.00  0.00    +0.000 H 
BRANCH    9    8
ATOM    101  H10 UNL A   1      15.572  32.863  42.838  1.00  0.00    +0.000 H 
ATOM    102  H11 UNL A   1      17.165  32.065  42.662  1.00  0.00    +0.000 H 
ATOM      8  C6  UNL A   1      16.390  32.379  43.330  1.00  0.00    +0.000 C 
BRANCH    8    7
ATOM     99  H8  UNL A   1      16.240  31.056  44.991  1.00  0.00    +0.000 H 
ATOM    100  H9  UNL A   1      14.789  31.163  43.962  1.00  0.00    +0.000 H 
ATOM      7  C5  UNL A   1      15.856  31.102  43.993  1.00  0.00    +0.000 C 
BRANCH    7    6
ATOM     97  H6  UNL A   1      16.784  30.061  42.378  1.00  0.00    +0.000 H 
ATOM     98  H7  UNL A   1      16.854  29.223  43.921  1.00  0.00    +0.000 H 
ATOM      6  C4  UNL A   1      16.245  29.813  43.268  1.00  0.00    +0.000 C 
BRANCH    6    5
ATOM      5  N1  UNL A   1      15.071  29.047  42.913  1.00  0.00    +0.000 N 
ATOM     96  H5  UNL A   1      14.299  29.581  42.615  1.00  0.00    +0.000 H 
BRANCH    5    3
ATOM      3  C3  UNL A   1      14.869  27.697  42.925  1.00  0.00    +0.000 C 
ATOM      4  O1  UNL A   1      14.290  27.235  43.911  1.00  0.00    +0.000 O 
BRANCH    3    2
ATOM      2  C2  UNL A   1      15.424  26.834  41.781  1.00  0.00    +0.000 C 
ATOM     95  H4  UNL A   1      16.457  26.688  42.019  1.00  0.00    +0.000 H 
BRANCH    2    1
ATOM      1  C1  UNL A   1      15.378  27.521  40.413  1.00  0.00    +0.000 C 
ATOM     92  H1  UNL A   1      16.248  28.134  40.293  1.00  0.00    +0.000 H 
ATOM     93  H2  UNL A   1      14.502  28.131  40.349  1.00  0.00    +0.000 H 
ATOM     94  H3  UNL A   1      15.354  26.781  39.642  1.00  0.00    +0.000 H 
ENDBRANCH    2    1
BRANCH    2   78
ATOM    136  H45 UNL A   1      14.674  22.468  43.192  1.00  0.00    +0.000 H 
ATOM     78  C55 UNL A   1      14.740  25.479  41.710  1.00  0.00    +0.000 C 
ATOM     79  C56 UNL A   1      13.754  25.238  40.749  1.00  0.00    +0.000 C 
ATOM     80  C57 UNL A   1      13.106  23.997  40.692  1.00  0.00    +0.000 C 
ATOM     81  C58 UNL A   1      13.442  22.948  41.551  1.00  0.00    +0.000 C 
ATOM     89  C64 UNL A   1      14.420  23.207  42.518  1.00  0.00    +0.000 C 
ATOM     90  C65 UNL A   1      15.057  24.445  42.591  1.00  0.00    +0.000 C 
ATOM     91  F16 UNL A   1      15.975  24.631  43.550  1.00  0.00    +0.000 F 
ATOM    124  H33 UNL A   1      13.502  25.979  40.076  1.00  0.00    +0.000 H 
ATOM    125  H34 UNL A   1      12.359  23.855  39.995  1.00  0.00    +0.000 H 
BRANCH   81   82
ATOM     82  N7  UNL A   1      12.802  21.722  41.584  1.00  0.00    +0.000 N 
ATOM    126  H35 UNL A   1      12.001  21.672  42.154  1.00  0.00    +0.000 H 
BRANCH   82   83
ATOM    129  H38 UNL A   1      13.161  18.670  42.053  1.00  0.00    +0.000 H 
ATOM    130  H39 UNL A   1      10.996  18.536  40.053  1.00  0.00    +0.000 H 
ATOM    131  H40 UNL A   1      12.244  17.385  40.323  1.00  0.00    +0.000 H 
ATOM    132  H41 UNL A   1      12.303  18.860  38.114  1.00  0.00    +0.000 H 
ATOM    133  H42 UNL A   1      13.788  18.583  38.906  1.00  0.00    +0.000 H 
ATOM    134  H43 UNL A   1      11.998  21.047  39.111  1.00  0.00    +0.000 H 
ATOM     83  C59 UNL A   1      13.162  20.494  40.881  1.00  0.00    +0.000 C 
ATOM     84  C60 UNL A   1      12.494  19.232  41.433  1.00  0.00    +0.000 C 
ATOM     85  C61 UNL A   1      12.050  18.431  40.207  1.00  0.00    +0.000 C 
ATOM     86  C62 UNL A   1      12.821  19.024  39.036  1.00  0.00    +0.000 C 
ATOM     87  C63 UNL A   1      12.885  20.507  39.370  1.00  0.00    +0.000 C 
ATOM    127  H36 UNL A   1      14.218  20.464  41.055  1.00  0.00    +0.000 H 
ATOM    128  H37 UNL A   1      11.649  19.490  42.037  1.00  0.00    +0.000 H 
BRANCH   87   88
ATOM    135  H44 UNL A   1      14.593  21.480  39.260  1.00  0.00    +0.000 H 
ATOM     88  O3  UNL A   1      13.921  21.152  38.643  1.00  0.00    +0.000 O 
ENDBRANCH   87   88
ENDBRANCH   82   83
ENDBRANCH   81   82
ENDBRANCH    2   78
ENDBRANCH    3    2
ENDBRANCH    5    3
ENDBRANCH    6    5
ENDBRANCH    7    6
ENDBRANCH    8    7
ENDBRANCH    9    8
ENDBRANCH   10    9
ENDBRANCH   11   10
ENDBRANCH   12   11
ENDBRANCH   13   12
ENDBRANCH   15   13
ENDBRANCH   19   18
BRANCH   23   24
ATOM     33  C24 UNL A   1      31.414  36.183  41.599  1.00  0.00    +0.000 C 
ATOM     34  F5  UNL A   1      30.806  37.304  41.184  1.00  0.00    +0.000 F 
ATOM     24  C19 UNL A   1      31.351  35.800  42.947  1.00  0.00    +0.000 C 
ATOM     25  C20 UNL A   1      32.002  34.614  43.323  1.00  0.00    +0.000 C 
ATOM     26  F1  UNL A   1      31.982  34.210  44.603  1.00  0.00    +0.000 F 
ATOM     27  C21 UNL A   1      32.715  33.862  42.394  1.00  0.00    +0.000 C 
ATOM     28  F2  UNL A   1      33.374  32.764  42.788  1.00  0.00    +0.000 F 
ATOM     29  C22 UNL A   1      32.761  34.258  41.066  1.00  0.00    +0.000 C 
ATOM     30  F3  UNL A   1      33.446  33.532  40.172  1.00  0.00    +0.000 F 
ATOM     31  C23 UNL A   1      32.104  35.412  40.667  1.00  0.00    +0.000 C 
ATOM     32  F4  UNL A   1      32.137  35.789  39.381  1.00  0.00    +0.000 F 
ENDBRANCH   23   24
BRANCH   40   41
ATOM     41  C30 UNL A   1      32.454  41.542  47.170  1.00  0.00    +0.000 C 
ATOM     42  C31 UNL A   1      32.425  42.828  46.614  1.00  0.00    +0.000 C 
ATOM     43  F6  UNL A   1      31.430  43.184  45.785  1.00  0.00    +0.000 F 
ATOM     44  C32 UNL A   1      33.441  43.743  46.874  1.00  0.00    +0.000 C 
ATOM     45  F7  UNL A   1      33.419  44.951  46.293  1.00  0.00    +0.000 F 
ATOM     46  C33 UNL A   1      34.486  43.402  47.721  1.00  0.00    +0.000 C 
ATOM     47  F8  UNL A   1      35.462  44.285  47.973  1.00  0.00    +0.000 F 
ATOM     48  C34 UNL A   1      34.524  42.142  48.298  1.00  0.00    +0.000 C 
ATOM     49  F9  UNL A   1      35.526  41.813  49.125  1.00  0.00    +0.000 F 
ATOM     50  C35 UNL A   1      33.524  41.215  48.017  1.00  0.00    +0.000 C 
ATOM     51  F10 UNL A   1      33.595  39.999  48.579  1.00  0.00    +0.000 F 
ENDBRANCH   40   41
BRANCH   55   56
ATOM     65  C44 UNL A   1      26.029  40.414  51.116  1.00  0.00    +0.000 C 
ATOM     66  F15 UNL A   1      26.731  39.344  51.516  1.00  0.00    +0.000 F 
ATOM     56  C39 UNL A   1      26.038  40.796  49.768  1.00  0.00    +0.000 C 
ATOM     57  C40 UNL A   1      25.284  41.920  49.400  1.00  0.00    +0.000 C 
ATOM     58  F11 UNL A   1      25.279  42.335  48.125  1.00  0.00    +0.000 F 
ATOM     59  C41 UNL A   1      24.566  42.645  50.349  1.00  0.00    +0.000 C 
ATOM     60  F12 UNL A   1      23.887  43.740  49.978  1.00  0.00    +0.000 F 
ATOM     61  C42 UNL A   1      24.563  42.244  51.676  1.00  0.00    +0.000 C 
ATOM     62  F13 UNL A   1      23.871  42.939  52.587  1.00  0.00    +0.000 F 
ATOM     63  C43 UNL A   1      25.289  41.126  52.059  1.00  0.00    +0.000 C 
ATOM     64  F14 UNL A   1      25.279  40.728  53.338  1.00  0.00    +0.000 F 
ENDBRANCH   55   56
TORSDOF 20
ENDMDL
MODEL 7
REMARK VINA RESULT:     -10.6     40.969     45.237
ROOT
ATOM     19  C15 UNL A   1      15.440  21.893   5.751  1.00  0.00    +0.000 C 
ATOM     20  C16 UNL A   1      16.660  22.189   4.925  1.00  0.00    +0.000 C 
ATOM     21  N3  UNL A   1      17.779  21.515   4.826  1.00  0.00    +0.000 N 
ATOM     22  C17 UNL A   1      18.548  22.194   3.891  1.00  0.00    +0.000 C 
ATOM     23  C18 UNL A   1      19.813  21.929   3.483  1.00  0.00    +0.000 C 
ATOM     35  C25 UNL A   1      20.615  20.847   3.988  1.00  0.00    +0.000 C 
ATOM     36  C26 UNL A   1      21.932  20.539   3.698  1.00  0.00    +0.000 C 
ATOM     37  C27 UNL A   1      22.275  19.375   4.396  1.00  0.00    +0.000 C 
ATOM     38  C28 UNL A   1      21.184  18.985   5.157  1.00  0.00    +0.000 C 
ATOM     39  N4  UNL A   1      20.173  19.894   4.895  1.00  0.00    +0.000 N 
ATOM     40  C29 UNL A   1      21.073  17.867   6.058  1.00  0.00    +0.000 C 
ATOM     52  C36 UNL A   1      19.964  17.549   6.772  1.00  0.00    +0.000 C 
ATOM     53  N5  UNL A   1      18.738  18.200   6.816  1.00  0.00    +0.000 N 
ATOM     54  C37 UNL A   1      17.993  17.508   7.642  1.00  0.00    +0.000 C 
ATOM     55  C38 UNL A   1      16.584  17.771   8.100  1.00  0.00    +0.000 C 
ATOM     67  C45 UNL A   1      15.932  18.853   7.633  1.00  0.00    +0.000 C 
ATOM     68  C46 UNL A   1      14.575  19.249   7.997  1.00  0.00    +0.000 C 
ATOM     69  C47 UNL A   1      14.254  20.372   7.336  1.00  0.00    +0.000 C 
ATOM     70  C48 UNL A   1      15.396  20.791   6.523  1.00  0.00    +0.000 C 
ATOM     71  N6  UNL A   1      16.340  19.820   6.748  1.00  0.00    +0.000 N 
ATOM     72  C49 UNL A   1      18.653  16.316   8.191  1.00  0.00    +0.000 C 
ATOM     73  C50 UNL A   1      19.864  16.412   7.662  1.00  0.00    +0.000 C 
ATOM     74  C51 UNL A   1      17.753  23.305   3.415  1.00  0.00    +0.000 C 
ATOM     75  C52 UNL A   1      16.608  23.389   4.074  1.00  0.00    +0.000 C 
ATOM    112  H21 UNL A   1      22.556  21.074   3.073  1.00  0.00    +0.000 H 
ATOM    113  H22 UNL A   1      23.184  18.889   4.351  1.00  0.00    +0.000 H 
ATOM    114  H23 UNL A   1      19.272  19.868   5.292  1.00  0.00    +0.000 H 
ATOM    115  H24 UNL A   1      13.960  18.746   8.657  1.00  0.00    +0.000 H 
ATOM    116  H25 UNL A   1      13.347  20.863   7.391  1.00  0.00    +0.000 H 
ATOM    117  H26 UNL A   1      17.225  19.817   6.317  1.00  0.00    +0.000 H 
ATOM    118  H27 UNL A   1      18.273  15.593   8.822  1.00  0.00    +0.000 H 
ATOM    119  H28 UNL A   1      20.639  15.759   7.861  1.00  0.00    +0.000 H 
ATOM    120  H29 UNL A   1      18.041  23.947   2.660  1.00  0.00    +0.000 H 
ATOM    121  H30 UNL A   1      15.871  24.108   4.009  1.00  0.00    +0.000 H 
ENDROOT
BRANCH   19   18
ATOM     76  C53 UNL A   1      14.060  23.765   6.661  1.00  0.00    +0.000 C 
ATOM     77  C54 UNL A   1      12.921  24.566   6.639  1.00  0.00    +0.000 C 
ATOM    110  H19 UNL A   1      11.524  23.405   3.817  1.00  0.00    +0.000 H 
ATOM     15  C11 UNL A   1      12.019  24.468   5.575  1.00  0.00    +0.000 C 
ATOM     16  C12 UNL A   1      12.204  23.495   4.588  1.00  0.00    +0.000 C 
ATOM     17  C13 UNL A   1      13.310  22.646   4.649  1.00  0.00    +0.000 C 
ATOM    111  H20 UNL A   1      13.432  21.911   3.934  1.00  0.00    +0.000 H 
ATOM     18  C14 UNL A   1      14.257  22.786   5.675  1.00  0.00    +0.000 C 
ATOM    122  H31 UNL A   1      14.764  23.893   7.405  1.00  0.00    +0.000 H 
ATOM    123  H32 UNL A   1      12.743  25.231   7.407  1.00  0.00    +0.000 H 
BRANCH   15   13
ATOM     13  C10 UNL A   1      10.838  25.354   5.488  1.00  0.00    +0.000 C 
ATOM     14  O2  UNL A   1      10.342  25.810   6.515  1.00  0.00    +0.000 O 
BRANCH   13   12
ATOM     12  N2  UNL A   1      10.291  25.655   4.268  1.00  0.00    +0.000 N 
ATOM    109  H18 UNL A   1       9.536  25.085   3.990  1.00  0.00    +0.000 H 
BRANCH   12   11
ATOM     11  C9  UNL A   1      10.666  26.696   3.326  1.00  0.00    +0.000 C 
ATOM    108  H17 UNL A   1      10.109  26.541   2.426  1.00  0.00    +0.000 H 
ATOM    107  H16 UNL A   1      11.719  26.636   3.149  1.00  0.00    +0.000 H 
BRANCH   11   10
ATOM    105  H14 UNL A   1       9.270  28.178   3.909  1.00  0.00    +0.000 H 
ATOM     10  C8  UNL A   1      10.334  28.089   3.849  1.00  0.00    +0.000 C 
ATOM    106  H15 UNL A   1      10.819  28.179   4.799  1.00  0.00    +0.000 H 
BRANCH   10    9
ATOM      9  C7  UNL A   1      10.860  29.238   2.986  1.00  0.00    +0.000 C 
ATOM    103  H12 UNL A   1      10.055  29.921   2.813  1.00  0.00    +0.000 H 
ATOM    104  H13 UNL A   1      11.676  29.669   3.528  1.00  0.00    +0.000 H 
BRANCH    9    8
ATOM    101  H10 UNL A   1      12.301  28.227   1.798  1.00  0.00    +0.000 H 
ATOM    102  H11 UNL A   1      10.642  28.290   1.127  1.00  0.00    +0.000 H 
ATOM      8  C6  UNL A   1      11.427  28.820   1.625  1.00  0.00    +0.000 C 
BRANCH    8    7
ATOM     99  H8  UNL A   1      12.837  30.234   0.887  1.00  0.00    +0.000 H 
ATOM    100  H9  UNL A   1      11.654  29.637  -0.305  1.00  0.00    +0.000 H 
ATOM      7  C5  UNL A   1      11.815  29.978   0.696  1.00  0.00    +0.000 C 
BRANCH    7    6
ATOM     97  H6  UNL A   1      10.566  31.528  -0.072  1.00  0.00    +0.000 H 
ATOM     98  H7  UNL A   1      10.172  31.018   1.562  1.00  0.00    +0.000 H 
ATOM      6  C4  UNL A   1      10.964  31.236   0.877  1.00  0.00    +0.000 C 
BRANCH    6    5
ATOM      5  N1  UNL A   1      11.755  32.321   1.413  1.00  0.00    +0.000 N 
ATOM     96  H5  UNL A   1      11.268  33.166   1.546  1.00  0.00    +0.000 H 
BRANCH    5    3
ATOM      3  C3  UNL A   1      13.074  32.353   1.765  1.00  0.00    +0.000 C 
ATOM      4  O1  UNL A   1      13.363  31.871   2.862  1.00  0.00    +0.000 O 
BRANCH    3    2
ATOM      2  C2  UNL A   1      14.093  33.038   0.840  1.00  0.00    +0.000 C 
ATOM     95  H4  UNL A   1      14.395  33.920   1.365  1.00  0.00    +0.000 H 
BRANCH    2    1
ATOM      1  C1  UNL A   1      13.500  33.498  -0.494  1.00  0.00    +0.000 C 
ATOM     92  H1  UNL A   1      13.523  34.567  -0.544  1.00  0.00    +0.000 H 
ATOM     93  H2  UNL A   1      12.488  33.160  -0.571  1.00  0.00    +0.000 H 
ATOM     94  H3  UNL A   1      14.074  33.091  -1.300  1.00  0.00    +0.000 H 
ENDBRANCH    2    1
BRANCH    2   78
ATOM    136  H45 UNL A   1      18.466  31.682   1.645  1.00  0.00    +0.000 H 
ATOM     78  C55 UNL A   1      15.313  32.166   0.599  1.00  0.00    +0.000 C 
ATOM     79  C56 UNL A   1      15.273  31.149  -0.358  1.00  0.00    +0.000 C 
ATOM     80  C57 UNL A   1      16.390  30.330  -0.570  1.00  0.00    +0.000 C 
ATOM     81  C58 UNL A   1      17.588  30.518   0.123  1.00  0.00    +0.000 C 
ATOM     89  C64 UNL A   1      17.610  31.530   1.089  1.00  0.00    +0.000 C 
ATOM     90  C65 UNL A   1      16.497  32.338   1.317  1.00  0.00    +0.000 C 
ATOM     91  F16 UNL A   1      16.581  33.282   2.267  1.00  0.00    +0.000 F 
ATOM    124  H33 UNL A   1      14.416  31.000  -0.913  1.00  0.00    +0.000 H 
ATOM    125  H34 UNL A   1      16.324  29.564  -1.260  1.00  0.00    +0.000 H 
BRANCH   81   82
ATOM     82  N7  UNL A   1      18.704  29.709   0.000  1.00  0.00    +0.000 N 
ATOM    126  H35 UNL A   1      18.572  28.870  -0.497  1.00  0.00    +0.000 H 
BRANCH   82   83
ATOM    129  H38 UNL A   1      20.595  28.870   2.320  1.00  0.00    +0.000 H 
ATOM    130  H39 UNL A   1      22.215  27.862   0.070  1.00  0.00    +0.000 H 
ATOM    131  H40 UNL A   1      22.779  28.448   1.585  1.00  0.00    +0.000 H 
ATOM    132  H41 UNL A   1      23.185  29.909  -0.596  1.00  0.00    +0.000 H 
ATOM    133  H42 UNL A   1      22.736  30.738   0.824  1.00  0.00    +0.000 H 
ATOM    134  H43 UNL A   1      20.932  29.892  -1.488  1.00  0.00    +0.000 H 
ATOM     83  C59 UNL A   1      20.050  29.941   0.515  1.00  0.00    +0.000 C 
ATOM     84  C60 UNL A   1      20.655  28.747   1.259  1.00  0.00    +0.000 C 
ATOM     85  C61 UNL A   1      22.106  28.656   0.779  1.00  0.00    +0.000 C 
ATOM     86  C62 UNL A   1      22.401  29.999   0.127  1.00  0.00    +0.000 C 
ATOM     87  C63 UNL A   1      21.083  30.365  -0.540  1.00  0.00    +0.000 C 
ATOM    127  H36 UNL A   1      19.871  30.750   1.192  1.00  0.00    +0.000 H 
ATOM    128  H37 UNL A   1      20.125  27.849   1.018  1.00  0.00    +0.000 H 
BRANCH   87   88
ATOM    135  H44 UNL A   1      21.803  32.196  -0.456  1.00  0.00    +0.000 H 
ATOM     88  O3  UNL A   1      21.020  31.756  -0.820  1.00  0.00    +0.000 O 
ENDBRANCH   87   88
ENDBRANCH   82   83
ENDBRANCH   81   82
ENDBRANCH    2   78
ENDBRANCH    3    2
ENDBRANCH    5    3
ENDBRANCH    6    5
ENDBRANCH    7    6
ENDBRANCH    8    7
ENDBRANCH    9    8
ENDBRANCH   10    9
ENDBRANCH   11   10
ENDBRANCH   12   11
ENDBRANCH   13   12
ENDBRANCH   15   13
ENDBRANCH   19   18
BRANCH   23   24
ATOM     33  C24 UNL A   1      21.258  23.878   2.800  1.00  0.00    +0.000 C 
ATOM     34  F5  UNL A   1      21.566  24.084   4.089  1.00  0.00    +0.000 F 
ATOM     24  C19 UNL A   1      20.405  22.826   2.435  1.00  0.00    +0.000 C 
ATOM     25  C20 UNL A   1      20.115  22.661   1.071  1.00  0.00    +0.000 C 
ATOM     26  F1  UNL A   1      19.315  21.662   0.668  1.00  0.00    +0.000 F 
ATOM     27  C21 UNL A   1      20.682  23.494   0.111  1.00  0.00    +0.000 C 
ATOM     28  F2  UNL A   1      20.433  23.282  -1.188  1.00  0.00    +0.000 F 
ATOM     29  C22 UNL A   1      21.519  24.530   0.496  1.00  0.00    +0.000 C 
ATOM     30  F3  UNL A   1      22.062  25.333  -0.429  1.00  0.00    +0.000 F 
ATOM     31  C23 UNL A   1      21.800  24.728   1.839  1.00  0.00    +0.000 C 
ATOM     32  F4  UNL A   1      22.599  25.737   2.213  1.00  0.00    +0.000 F 
ENDBRANCH   23   24
BRANCH   40   41
ATOM     41  C30 UNL A   1      22.281  16.996   6.245  1.00  0.00    +0.000 C 
ATOM     42  C31 UNL A   1      22.541  15.906   5.404  1.00  0.00    +0.000 C 
ATOM     43  F6  UNL A   1      21.680  15.586   4.425  1.00  0.00    +0.000 F 
ATOM     44  C32 UNL A   1      23.669  15.112   5.591  1.00  0.00    +0.000 C 
ATOM     45  F7  UNL A   1      23.874  14.045   4.806  1.00  0.00    +0.000 F 
ATOM     46  C33 UNL A   1      24.574  15.412   6.599  1.00  0.00    +0.000 C 
ATOM     47  F8  UNL A   1      25.661  14.649   6.775  1.00  0.00    +0.000 F 
ATOM     48  C34 UNL A   1      24.346  16.498   7.430  1.00  0.00    +0.000 C 
ATOM     49  F9  UNL A   1      25.223  16.799   8.397  1.00  0.00    +0.000 F 
ATOM     50  C35 UNL A   1      23.204  17.277   7.264  1.00  0.00    +0.000 C 
ATOM     51  F10 UNL A   1      23.003  18.313   8.092  1.00  0.00    +0.000 F 
ENDBRANCH   40   41
BRANCH   55   56
ATOM     65  C44 UNL A   1      15.328  15.673   8.710  1.00  0.00    +0.000 C 
ATOM     66  F15 UNL A   1      15.331  15.299   7.422  1.00  0.00    +0.000 F 
ATOM     56  C39 UNL A   1      15.928  16.881   9.092  1.00  0.00    +0.000 C 
ATOM     57  C40 UNL A   1      15.895  17.228  10.450  1.00  0.00    +0.000 C 
ATOM     58  F11 UNL A   1      16.473  18.364  10.865  1.00  0.00    +0.000 F 
ATOM     59  C41 UNL A   1      15.302  16.389  11.392  1.00  0.00    +0.000 C 
ATOM     60  F12 UNL A   1      15.321  16.724  12.689  1.00  0.00    +0.000 F 
ATOM     61  C42 UNL A   1      14.707  15.203  10.991  1.00  0.00    +0.000 C 
ATOM     62  F13 UNL A   1      14.135  14.398  11.895  1.00  0.00    +0.000 F 
ATOM     63  C43 UNL A   1      14.714  14.848   9.650  1.00  0.00    +0.000 C 
ATOM     64  F14 UNL A   1      14.129  13.708   9.257  1.00  0.00    +0.000 F 
ENDBRANCH   55   56
TORSDOF 20
ENDMDL
MODEL 8
REMARK VINA RESULT:     -10.6      0.766      2.131
ROOT
ATOM     19  C15 UNL A   1      25.768  36.105  45.469  1.00  0.00    +0.000 C 
ATOM     20  C16 UNL A   1      25.662  37.280  46.399  1.00  0.00    +0.000 C 
ATOM     21  N3  UNL A   1      26.564  38.180  46.705  1.00  0.00    +0.000 N 
ATOM     22  C17 UNL A   1      25.934  39.069  47.566  1.00  0.00    +0.000 C 
ATOM     23  C18 UNL A   1      26.459  40.141  48.207  1.00  0.00    +0.000 C 
ATOM     35  C25 UNL A   1      27.834  40.549  48.106  1.00  0.00    +0.000 C 
ATOM     36  C26 UNL A   1      28.483  41.573  48.774  1.00  0.00    +0.000 C 
ATOM     37  C27 UNL A   1      29.807  41.620  48.324  1.00  0.00    +0.000 C 
ATOM     38  C28 UNL A   1      29.995  40.596  47.408  1.00  0.00    +0.000 C 
ATOM     39  N4  UNL A   1      28.776  39.950  47.282  1.00  0.00    +0.000 N 
ATOM     40  C29 UNL A   1      31.197  40.232  46.703  1.00  0.00    +0.000 C 
ATOM     52  C36 UNL A   1      31.301  39.210  45.817  1.00  0.00    +0.000 C 
ATOM     53  N5  UNL A   1      30.330  38.305  45.412  1.00  0.00    +0.000 N 
ATOM     54  C37 UNL A   1      30.912  37.517  44.542  1.00  0.00    +0.000 C 
ATOM     55  C38 UNL A   1      30.351  36.332  43.805  1.00  0.00    +0.000 C 
ATOM     67  C45 UNL A   1      29.071  35.972  44.018  1.00  0.00    +0.000 C 
ATOM     68  C46 UNL A   1      28.391  34.840  43.395  1.00  0.00    +0.000 C 
ATOM     69  C47 UNL A   1      27.126  34.790  43.838  1.00  0.00    +0.000 C 
ATOM     70  C48 UNL A   1      26.914  35.871  44.801  1.00  0.00    +0.000 C 
ATOM     71  N6  UNL A   1      28.116  36.532  44.831  1.00  0.00    +0.000 N 
ATOM     72  C49 UNL A   1      32.316  37.856  44.271  1.00  0.00    +0.000 C 
ATOM     73  C50 UNL A   1      32.514  38.867  45.105  1.00  0.00    +0.000 C 
ATOM     74  C51 UNL A   1      24.561  38.631  47.696  1.00  0.00    +0.000 C 
ATOM     75  C52 UNL A   1      24.361  37.490  47.054  1.00  0.00    +0.000 C 
ATOM    112  H21 UNL A   1      28.063  42.195  49.482  1.00  0.00    +0.000 H 
ATOM    113  H22 UNL A   1      30.523  42.302  48.621  1.00  0.00    +0.000 H 
ATOM    114  H23 UNL A   1      28.603  39.180  46.694  1.00  0.00    +0.000 H 
ATOM    115  H24 UNL A   1      28.817  34.183  42.721  1.00  0.00    +0.000 H 
ATOM    116  H25 UNL A   1      26.415  34.099  43.547  1.00  0.00    +0.000 H 
ATOM    117  H26 UNL A   1      28.279  37.331  45.383  1.00  0.00    +0.000 H 
ATOM    118  H27 UNL A   1      32.975  37.422  43.606  1.00  0.00    +0.000 H 
ATOM    119  H28 UNL A   1      33.418  39.349  45.232  1.00  0.00    +0.000 H 
ATOM    120  H29 UNL A   1      23.834  39.142  48.221  1.00  0.00    +0.000 H 
ATOM    121  H30 UNL A   1      23.514  36.902  47.021  1.00  0.00    +0.000 H 
ENDROOT
BRANCH   19   18
ATOM     76  C53 UNL A   1      24.484  34.013  45.932  1.00  0.00    +0.000 C 
ATOM     77  C54 UNL A   1      23.419  33.153  45.679  1.00  0.00    +0.000 C 
ATOM    110  H19 UNL A   1      21.750  35.029  43.453  1.00  0.00    +0.000 H 
ATOM     15  C11 UNL A   1      22.396  33.544  44.810  1.00  0.00    +0.000 C 
ATOM     16  C12 UNL A   1      22.493  34.752  44.114  1.00  0.00    +0.000 C 
ATOM     17  C13 UNL A   1      23.596  35.584  44.316  1.00  0.00    +0.000 C 
ATOM    111  H20 UNL A   1      23.679  36.464  43.783  1.00  0.00    +0.000 H 
ATOM     18  C14 UNL A   1      24.591  35.230  45.240  1.00  0.00    +0.000 C 
ATOM    122  H31 UNL A   1      25.197  33.756  46.632  1.00  0.00    +0.000 H 
ATOM    123  H32 UNL A   1      23.385  32.226  46.132  1.00  0.00    +0.000 H 
BRANCH   15   13
ATOM     13  C10 UNL A   1      21.217  32.682  44.576  1.00  0.00    +0.000 C 
ATOM     14  O2  UNL A   1      21.377  31.503  44.268  1.00  0.00    +0.000 O 
BRANCH   13   12
ATOM     12  N2  UNL A   1      19.952  33.196  44.689  1.00  0.00    +0.000 N 
ATOM    109  H18 UNL A   1      19.624  33.315  45.610  1.00  0.00    +0.000 H 
BRANCH   12   11
ATOM     11  C9  UNL A   1      19.027  33.593  43.642  1.00  0.00    +0.000 C 
ATOM    108  H17 UNL A   1      19.584  34.107  42.887  1.00  0.00    +0.000 H 
ATOM    107  H16 UNL A   1      18.273  34.222  44.068  1.00  0.00    +0.000 H 
BRANCH   11   10
ATOM    105  H14 UNL A   1      18.266  32.587  41.940  1.00  0.00    +0.000 H 
ATOM     10  C8  UNL A   1      18.351  32.392  42.988  1.00  0.00    +0.000 C 
ATOM    106  H15 UNL A   1      18.963  31.543  43.210  1.00  0.00    +0.000 H 
BRANCH   10    9
ATOM      9  C7  UNL A   1      16.956  32.071  43.528  1.00  0.00    +0.000 C 
ATOM    103  H12 UNL A   1      16.665  32.860  44.189  1.00  0.00    +0.000 H 
ATOM    104  H13 UNL A   1      16.320  31.976  42.672  1.00  0.00    +0.000 H 
BRANCH    9    8
ATOM    101  H10 UNL A   1      16.624  30.973  45.314  1.00  0.00    +0.000 H 
ATOM    102  H11 UNL A   1      16.073  30.188  43.803  1.00  0.00    +0.000 H 
ATOM      8  C6  UNL A   1      16.843  30.748  44.291  1.00  0.00    +0.000 C 
BRANCH    8    7
ATOM     99  H8  UNL A   1      18.868  30.397  43.736  1.00  0.00    +0.000 H 
ATOM    100  H9  UNL A   1      18.356  29.658  45.274  1.00  0.00    +0.000 H 
ATOM      7  C5  UNL A   1      18.099  29.866  44.257  1.00  0.00    +0.000 C 
BRANCH    7    6
ATOM     97  H6  UNL A   1      18.288  28.566  42.575  1.00  0.00    +0.000 H 
ATOM     98  H7  UNL A   1      18.403  27.763  44.134  1.00  0.00    +0.000 H 
ATOM      6  C4  UNL A   1      17.894  28.516  43.569  1.00  0.00    +0.000 C 
BRANCH    6    5
ATOM      5  N1  UNL A   1      16.490  28.177  43.505  1.00  0.00    +0.000 N 
ATOM     96  H5  UNL A   1      15.981  28.353  44.330  1.00  0.00    +0.000 H 
BRANCH    5    3
ATOM      3  C3  UNL A   1      15.761  27.652  42.477  1.00  0.00    +0.000 C 
ATOM      4  O1  UNL A   1      16.180  27.868  41.338  1.00  0.00    +0.000 O 
BRANCH    3    2
ATOM      2  C2  UNL A   1      14.450  26.907  42.776  1.00  0.00    +0.000 C 
ATOM     95  H4  UNL A   1      13.675  27.557  42.429  1.00  0.00    +0.000 H 
BRANCH    2    1
ATOM      1  C1  UNL A   1      14.199  26.677  44.268  1.00  0.00    +0.000 C 
ATOM     92  H1  UNL A   1      14.159  27.620  44.772  1.00  0.00    +0.000 H 
ATOM     93  H2  UNL A   1      14.994  26.089  44.678  1.00  0.00    +0.000 H 
ATOM     94  H3  UNL A   1      13.271  26.162  44.400  1.00  0.00    +0.000 H 
ENDBRANCH    2    1
BRANCH    2   78
ATOM    136  H45 UNL A   1      15.480  22.426  42.082  1.00  0.00    +0.000 H 
ATOM     78  C55 UNL A   1      14.363  25.591  42.021  1.00  0.00    +0.000 C 
ATOM     79  C56 UNL A   1      13.568  25.489  40.876  1.00  0.00    +0.000 C 
ATOM     80  C57 UNL A   1      13.468  24.273  40.187  1.00  0.00    +0.000 C 
ATOM     81  C58 UNL A   1      14.182  23.138  40.582  1.00  0.00    +0.000 C 
ATOM     89  C64 UNL A   1      14.962  23.250  41.739  1.00  0.00    +0.000 C 
ATOM     90  C65 UNL A   1      15.053  24.453  42.438  1.00  0.00    +0.000 C 
ATOM     91  F16 UNL A   1      15.808  24.488  43.546  1.00  0.00    +0.000 F 
ATOM    124  H33 UNL A   1      13.052  26.315  40.535  1.00  0.00    +0.000 H 
ATOM    125  H34 UNL A   1      12.849  24.214  39.364  1.00  0.00    +0.000 H 
BRANCH   81   82
ATOM     82  N7  UNL A   1      14.082  21.897  39.981  1.00  0.00    +0.000 N 
ATOM    126  H35 UNL A   1      14.852  21.624  39.431  1.00  0.00    +0.000 H 
BRANCH   82   83
ATOM    129  H38 UNL A   1      12.414  19.968  38.203  1.00  0.00    +0.000 H 
ATOM    130  H39 UNL A   1      13.564  17.962  40.036  1.00  0.00    +0.000 H 
ATOM    131  H40 UNL A   1      12.046  17.897  39.232  1.00  0.00    +0.000 H 
ATOM    132  H41 UNL A   1      12.101  18.288  41.859  1.00  0.00    +0.000 H 
ATOM    133  H42 UNL A   1      10.966  19.190  40.961  1.00  0.00    +0.000 H 
ATOM    134  H43 UNL A   1      13.712  20.096  41.939  1.00  0.00    +0.000 H 
ATOM     83  C59 UNL A   1      12.982  20.941  40.056  1.00  0.00    +0.000 C 
ATOM     84  C60 UNL A   1      13.064  19.802  39.036  1.00  0.00    +0.000 C 
ATOM     85  C61 UNL A   1      12.689  18.532  39.805  1.00  0.00    +0.000 C 
ATOM     86  C62 UNL A   1      12.016  19.017  41.081  1.00  0.00    +0.000 C 
ATOM     87  C63 UNL A   1      12.789  20.281  41.430  1.00  0.00    +0.000 C 
ATOM    127  H36 UNL A   1      12.147  21.575  39.840  1.00  0.00    +0.000 H 
ATOM    128  H37 UNL A   1      14.057  19.721  38.645  1.00  0.00    +0.000 H 
BRANCH   87   88
ATOM    135  H44 UNL A   1      11.165  21.263  41.955  1.00  0.00    +0.000 H 
ATOM     88  O3  UNL A   1      12.050  21.105  42.319  1.00  0.00    +0.000 O 
ENDBRANCH   87   88
ENDBRANCH   82   83
ENDBRANCH   81   82
ENDBRANCH    2   78
ENDBRANCH    3    2
ENDBRANCH    5    3
ENDBRANCH    6    5
ENDBRANCH    7    6
ENDBRANCH    8    7
ENDBRANCH    9    8
ENDBRANCH   10    9
ENDBRANCH   11   10
ENDBRANCH   12   11
ENDBRANCH   13   12
ENDBRANCH   15   13
ENDBRANCH   19   18
BRANCH   23   24
ATOM     33  C24 UNL A   1      25.347  40.604  50.421  1.00  0.00    +0.000 C 
ATOM     34  F5  UNL A   1      25.998  39.559  50.952  1.00  0.00    +0.000 F 
ATOM     24  C19 UNL A   1      25.538  40.949  49.075  1.00  0.00    +0.000 C 
ATOM     25  C20 UNL A   1      24.826  42.049  48.572  1.00  0.00    +0.000 C 
ATOM     26  F1  UNL A   1      24.982  42.428  47.295  1.00  0.00    +0.000 F 
ATOM     27  C21 UNL A   1      23.985  42.795  49.394  1.00  0.00    +0.000 C 
ATOM     28  F2  UNL A   1      23.359  43.874  48.905  1.00  0.00    +0.000 F 
ATOM     29  C22 UNL A   1      23.808  42.434  50.721  1.00  0.00    +0.000 C 
ATOM     30  F3  UNL A   1      22.997  43.151  51.510  1.00  0.00    +0.000 F 
ATOM     31  C23 UNL A   1      24.482  41.335  51.232  1.00  0.00    +0.000 C 
ATOM     32  F4  UNL A   1      24.303  40.977  52.512  1.00  0.00    +0.000 F 
ENDBRANCH   23   24
BRANCH   40   41
ATOM     41  C30 UNL A   1      32.440  41.026  46.982  1.00  0.00    +0.000 C 
ATOM     42  C31 UNL A   1      33.406  40.585  47.896  1.00  0.00    +0.000 C 
ATOM     43  F6  UNL A   1      33.217  39.448  48.585  1.00  0.00    +0.000 F 
ATOM     44  C32 UNL A   1      34.554  41.333  48.140  1.00  0.00    +0.000 C 
ATOM     45  F7  UNL A   1      35.442  40.918  49.054  1.00  0.00    +0.000 F 
ATOM     46  C33 UNL A   1      34.775  42.516  47.449  1.00  0.00    +0.000 C 
ATOM     47  F8  UNL A   1      35.882  43.233  47.681  1.00  0.00    +0.000 F 
ATOM     48  C34 UNL A   1      33.841  42.961  46.525  1.00  0.00    +0.000 C 
ATOM     49  F9  UNL A   1      34.057  44.097  45.848  1.00  0.00    +0.000 F 
ATOM     50  C35 UNL A   1      32.678  42.230  46.301  1.00  0.00    +0.000 C 
ATOM     51  F10 UNL A   1      31.787  42.692  45.411  1.00  0.00    +0.000 F 
ENDBRANCH   40   41
BRANCH   55   56
ATOM     65  C44 UNL A   1      31.378  35.896  41.546  1.00  0.00    +0.000 C 
ATOM     66  F15 UNL A   1      30.764  36.984  41.058  1.00  0.00    +0.000 F 
ATOM     56  C39 UNL A   1      31.203  35.532  42.888  1.00  0.00    +0.000 C 
ATOM     57  C40 UNL A   1      31.863  34.384  43.347  1.00  0.00    +0.000 C 
ATOM     58  F11 UNL A   1      31.742  34.009  44.629  1.00  0.00    +0.000 F 
ATOM     59  C41 UNL A   1      32.683  33.640  42.501  1.00  0.00    +0.000 C 
ATOM     60  F12 UNL A   1      33.337  32.570  42.976  1.00  0.00    +0.000 F 
ATOM     61  C42 UNL A   1      32.836  34.012  41.175  1.00  0.00    +0.000 C 
ATOM     62  F13 UNL A   1      33.621  33.296  40.361  1.00  0.00    +0.000 F 
ATOM     63  C43 UNL A   1      32.178  35.136  40.695  1.00  0.00    +0.000 C 
ATOM     64  F14 UNL A   1      32.313  35.492  39.410  1.00  0.00    +0.000 F 
ENDBRANCH   55   56
TORSDOF 20
ENDMDL
MODEL 9
REMARK VINA RESULT:     -10.6     18.572     26.000
ROOT
ATOM     19  C15 UNL A   1      43.114  27.968  33.594  1.00  0.00    +0.000 C 
ATOM     20  C16 UNL A   1      42.922  27.662  32.135  1.00  0.00    +0.000 C 
ATOM     21  N3  UNL A   1      42.048  28.153  31.292  1.00  0.00    +0.000 N 
ATOM     22  C17 UNL A   1      42.340  27.573  30.064  1.00  0.00    +0.000 C 
ATOM     23  C18 UNL A   1      41.685  27.712  28.887  1.00  0.00    +0.000 C 
ATOM     35  C25 UNL A   1      40.506  28.518  28.707  1.00  0.00    +0.000 C 
ATOM     36  C26 UNL A   1      39.724  28.664  27.575  1.00  0.00    +0.000 C 
ATOM     37  C27 UNL A   1      38.707  29.582  27.861  1.00  0.00    +0.000 C 
ATOM     38  C28 UNL A   1      38.829  29.972  29.186  1.00  0.00    +0.000 C 
ATOM     39  N4  UNL A   1      39.939  29.314  29.691  1.00  0.00    +0.000 N 
ATOM     40  C29 UNL A   1      37.995  30.876  29.936  1.00  0.00    +0.000 C 
ATOM     52  C36 UNL A   1      38.182  31.209  31.237  1.00  0.00    +0.000 C 
ATOM     53  N5  UNL A   1      39.160  30.769  32.119  1.00  0.00    +0.000 N 
ATOM     54  C37 UNL A   1      38.923  31.380  33.254  1.00  0.00    +0.000 C 
ATOM     55  C38 UNL A   1      39.642  31.257  34.569  1.00  0.00    +0.000 C 
ATOM     67  C45 UNL A   1      40.691  30.419  34.669  1.00  0.00    +0.000 C 
ATOM     68  C46 UNL A   1      41.474  30.178  35.877  1.00  0.00    +0.000 C 
ATOM     69  C47 UNL A   1      42.441  29.288  35.603  1.00  0.00    +0.000 C 
ATOM     70  C48 UNL A   1      42.326  28.873  34.205  1.00  0.00    +0.000 C 
ATOM     71  N6  UNL A   1      41.272  29.609  33.724  1.00  0.00    +0.000 N 
ATOM     72  C49 UNL A   1      37.783  32.306  33.210  1.00  0.00    +0.000 C 
ATOM     73  C50 UNL A   1      37.342  32.131  31.972  1.00  0.00    +0.000 C 
ATOM     74  C51 UNL A   1      43.501  26.733  30.259  1.00  0.00    +0.000 C 
ATOM     75  C52 UNL A   1      43.855  26.695  31.534  1.00  0.00    +0.000 C 
ATOM    112  H21 UNL A   1      39.866  28.181  26.674  1.00  0.00    +0.000 H 
ATOM    113  H22 UNL A   1      37.988  29.913  27.199  1.00  0.00    +0.000 H 
ATOM    114  H23 UNL A   1      40.276  29.400  30.612  1.00  0.00    +0.000 H 
ATOM    115  H24 UNL A   1      41.311  30.621  36.795  1.00  0.00    +0.000 H 
ATOM    116  H25 UNL A   1      43.152  28.950  36.271  1.00  0.00    +0.000 H 
ATOM    117  H26 UNL A   1      40.961  29.561  32.791  1.00  0.00    +0.000 H 
ATOM    118  H27 UNL A   1      37.421  32.929  33.948  1.00  0.00    +0.000 H 
ATOM    119  H28 UNL A   1      36.506  32.593  31.582  1.00  0.00    +0.000 H 
ATOM    120  H29 UNL A   1      43.988  26.228  29.502  1.00  0.00    +0.000 H 
ATOM    121  H30 UNL A   1      44.593  26.135  31.988  1.00  0.00    +0.000 H 
ENDROOT
BRANCH   19   18
ATOM     76  C53 UNL A   1      45.493  27.881  34.348  1.00  0.00    +0.000 C 
ATOM     77  C54 UNL A   1      46.544  27.244  35.002  1.00  0.00    +0.000 C 
ATOM    110  H19 UNL A   1      44.855  24.650  36.299  1.00  0.00    +0.000 H 
ATOM     15  C11 UNL A   1      46.303  26.091  35.755  1.00  0.00    +0.000 C 
ATOM     16  C12 UNL A   1      45.028  25.516  35.765  1.00  0.00    +0.000 C 
ATOM     17  C13 UNL A   1      43.989  26.118  35.052  1.00  0.00    +0.000 C 
ATOM    111  H20 UNL A   1      43.055  25.680  35.040  1.00  0.00    +0.000 H 
ATOM     18  C14 UNL A   1      44.209  27.315  34.353  1.00  0.00    +0.000 C 
ATOM    122  H31 UNL A   1      45.658  28.774  33.858  1.00  0.00    +0.000 H 
ATOM    123  H32 UNL A   1      47.502  27.623  34.931  1.00  0.00    +0.000 H 
BRANCH   15   13
ATOM     13  C10 UNL A   1      47.385  25.432  36.517  1.00  0.00    +0.000 C 
ATOM     14  O2  UNL A   1      47.718  25.878  37.612  1.00  0.00    +0.000 O 
BRANCH   13   12
ATOM     12  N2  UNL A   1      48.024  24.335  36.000  1.00  0.00    +0.000 N 
ATOM    109  H18 UNL A   1      48.904  24.511  35.593  1.00  0.00    +0.000 H 
BRANCH   12   11
ATOM     11  C9  UNL A   1      47.587  22.950  35.967  1.00  0.00    +0.000 C 
ATOM    108  H17 UNL A   1      46.808  22.833  36.691  1.00  0.00    +0.000 H 
ATOM    107  H16 UNL A   1      48.423  22.320  36.187  1.00  0.00    +0.000 H 
BRANCH   11   10
ATOM    105  H14 UNL A   1      46.142  23.142  34.429  1.00  0.00    +0.000 H 
ATOM     10  C8  UNL A   1      47.022  22.559  34.605  1.00  0.00    +0.000 C 
ATOM    106  H15 UNL A   1      47.798  22.743  33.892  1.00  0.00    +0.000 H 
BRANCH   10    9
ATOM      9  C7  UNL A   1      46.651  21.081  34.467  1.00  0.00    +0.000 C 
ATOM    103  H12 UNL A   1      46.416  20.891  33.441  1.00  0.00    +0.000 H 
ATOM    104  H13 UNL A   1      47.495  20.527  34.821  1.00  0.00    +0.000 H 
BRANCH    9    8
ATOM    101  H10 UNL A   1      45.496  21.158  36.248  1.00  0.00    +0.000 H 
ATOM    102  H11 UNL A   1      44.584  20.844  34.740  1.00  0.00    +0.000 H 
ATOM      8  C6  UNL A   1      45.459  20.630  35.317  1.00  0.00    +0.000 C 
BRANCH    8    7
ATOM     99  H8  UNL A   1      44.438  18.763  35.363  1.00  0.00    +0.000 H 
ATOM    100  H9  UNL A   1      46.191  18.670  35.057  1.00  0.00    +0.000 H 
ATOM      7  C5  UNL A   1      45.409  19.128  35.626  1.00  0.00    +0.000 C 
BRANCH    7    6
ATOM     97  H6  UNL A   1      44.756  18.864  37.641  1.00  0.00    +0.000 H 
ATOM     98  H7  UNL A   1      46.052  17.785  37.147  1.00  0.00    +0.000 H 
ATOM      6  C4  UNL A   1      45.672  18.783  37.092  1.00  0.00    +0.000 C 
BRANCH    6    5
ATOM      5  N1  UNL A   1      46.648  19.682  37.666  1.00  0.00    +0.000 N 
ATOM     96  H5  UNL A   1      47.450  19.835  37.115  1.00  0.00    +0.000 H 
BRANCH    5    3
ATOM      3  C3  UNL A   1      46.629  20.354  38.855  1.00  0.00    +0.000 C 
ATOM      4  O1  UNL A   1      46.095  21.465  38.851  1.00  0.00    +0.000 O 
BRANCH    3    2
ATOM      2  C2  UNL A   1      47.320  19.745  40.085  1.00  0.00    +0.000 C 
ATOM     95  H4  UNL A   1      47.523  20.574  40.729  1.00  0.00    +0.000 H 
BRANCH    2    1
ATOM      1  C1  UNL A   1      48.667  19.088  39.772  1.00  0.00    +0.000 C 
ATOM     92  H1  UNL A   1      48.998  18.529  40.623  1.00  0.00    +0.000 H 
ATOM     93  H2  UNL A   1      49.388  19.845  39.541  1.00  0.00    +0.000 H 
ATOM     94  H3  UNL A   1      48.559  18.432  38.934  1.00  0.00    +0.000 H 
ENDBRANCH    2    1
BRANCH    2   78
ATOM    136  H45 UNL A   1      43.757  18.639  42.859  1.00  0.00    +0.000 H 
ATOM     78  C55 UNL A   1      46.417  18.765  40.815  1.00  0.00    +0.000 C 
ATOM     79  C56 UNL A   1      46.624  17.389  40.689  1.00  0.00    +0.000 C 
ATOM     80  C57 UNL A   1      45.781  16.482  41.344  1.00  0.00    +0.000 C 
ATOM     81  C58 UNL A   1      44.741  16.905  42.175  1.00  0.00    +0.000 C 
ATOM     89  C64 UNL A   1      44.535  18.285  42.280  1.00  0.00    +0.000 C 
ATOM     90  C65 UNL A   1      45.359  19.194  41.618  1.00  0.00    +0.000 C 
ATOM     91  F16 UNL A   1      45.098  20.503  41.751  1.00  0.00    +0.000 F 
ATOM    124  H33 UNL A   1      47.403  17.039  40.110  1.00  0.00    +0.000 H 
ATOM    125  H34 UNL A   1      45.935  15.470  41.209  1.00  0.00    +0.000 H 
BRANCH   81   82
ATOM     82  N7  UNL A   1      43.841  16.062  42.802  1.00  0.00    +0.000 N 
ATOM    126  H35 UNL A   1      44.040  15.846  43.742  1.00  0.00    +0.000 H 
BRANCH   82   83
ATOM    129  H38 UNL A   1      41.848  16.335  40.432  1.00  0.00    +0.000 H 
ATOM    130  H39 UNL A   1      42.842  13.622  39.835  1.00  0.00    +0.000 H 
ATOM    131  H40 UNL A   1      41.284  14.264  39.495  1.00  0.00    +0.000 H 
ATOM    132  H41 UNL A   1      41.537  12.429  41.399  1.00  0.00    +0.000 H 
ATOM    133  H42 UNL A   1      40.474  13.727  41.704  1.00  0.00    +0.000 H 
ATOM    134  H43 UNL A   1      43.363  13.424  42.644  1.00  0.00    +0.000 H 
ATOM     83  C59 UNL A   1      42.637  15.451  42.248  1.00  0.00    +0.000 C 
ATOM     84  C60 UNL A   1      42.519  15.555  40.725  1.00  0.00    +0.000 C 
ATOM     85  C61 UNL A   1      42.032  14.182  40.255  1.00  0.00    +0.000 C 
ATOM     86  C62 UNL A   1      41.499  13.493  41.503  1.00  0.00    +0.000 C 
ATOM     87  C63 UNL A   1      42.442  13.968  42.599  1.00  0.00    +0.000 C 
ATOM    127  H36 UNL A   1      41.876  16.037  42.722  1.00  0.00    +0.000 H 
ATOM    128  H37 UNL A   1      43.470  15.783  40.291  1.00  0.00    +0.000 H 
BRANCH   87   88
ATOM    135  H44 UNL A   1      42.432  13.223  44.422  1.00  0.00    +0.000 H 
ATOM     88  O3  UNL A   1      41.863  13.795  43.884  1.00  0.00    +0.000 O 
ENDBRANCH   87   88
ENDBRANCH   82   83
ENDBRANCH   81   82
ENDBRANCH    2   78
ENDBRANCH    3    2
ENDBRANCH    5    3
ENDBRANCH    6    5
ENDBRANCH    7    6
ENDBRANCH    8    7
ENDBRANCH    9    8
ENDBRANCH   10    9
ENDBRANCH   11   10
ENDBRANCH   12   11
ENDBRANCH   13   12
ENDBRANCH   15   13
ENDBRANCH   19   18
BRANCH   23   24
ATOM     33  C24 UNL A   1      41.838  25.654  27.439  1.00  0.00    +0.000 C 
ATOM     34  F5  UNL A   1      40.955  25.041  28.241  1.00  0.00    +0.000 F 
ATOM     24  C19 UNL A   1      42.232  26.975  27.698  1.00  0.00    +0.000 C 
ATOM     25  C20 UNL A   1      43.162  27.565  26.828  1.00  0.00    +0.000 C 
ATOM     26  F1  UNL A   1      43.562  28.831  27.025  1.00  0.00    +0.000 F 
ATOM     27  C21 UNL A   1      43.650  26.872  25.724  1.00  0.00    +0.000 C 
ATOM     28  F2  UNL A   1      44.495  27.475  24.877  1.00  0.00    +0.000 F 
ATOM     29  C22 UNL A   1      43.250  25.565  25.489  1.00  0.00    +0.000 C 
ATOM     30  F3  UNL A   1      43.722  24.899  24.427  1.00  0.00    +0.000 F 
ATOM     31  C23 UNL A   1      42.351  24.954  26.350  1.00  0.00    +0.000 C 
ATOM     32  F4  UNL A   1      41.972  23.687  26.131  1.00  0.00    +0.000 F 
ENDBRANCH   23   24
BRANCH   40   41
ATOM     41  C30 UNL A   1      36.813  31.481  29.237  1.00  0.00    +0.000 C 
ATOM     42  C31 UNL A   1      35.680  30.722  28.914  1.00  0.00    +0.000 C 
ATOM     43  F6  UNL A   1      35.645  29.408  29.189  1.00  0.00    +0.000 F 
ATOM     44  C32 UNL A   1      34.591  31.301  28.269  1.00  0.00    +0.000 C 
ATOM     45  F7  UNL A   1      33.538  30.547  27.926  1.00  0.00    +0.000 F 
ATOM     46  C33 UNL A   1      34.600  32.655  27.965  1.00  0.00    +0.000 C 
ATOM     47  F8  UNL A   1      33.550  33.212  27.347  1.00  0.00    +0.000 F 
ATOM     48  C34 UNL A   1      35.703  33.429  28.293  1.00  0.00    +0.000 C 
ATOM     49  F9  UNL A   1      35.711  34.739  28.012  1.00  0.00    +0.000 F 
ATOM     50  C35 UNL A   1      36.805  32.846  28.913  1.00  0.00    +0.000 C 
ATOM     51  F10 UNL A   1      37.864  33.617  29.205  1.00  0.00    +0.000 F 
ENDBRANCH   40   41
BRANCH   55   56
ATOM     65  C44 UNL A   1      38.290  31.444  36.687  1.00  0.00    +0.000 C 
ATOM     66  F15 UNL A   1      37.830  30.198  36.503  1.00  0.00    +0.000 F 
ATOM     56  C39 UNL A   1      39.178  32.009  35.763  1.00  0.00    +0.000 C 
ATOM     57  C40 UNL A   1      39.626  33.316  36.001  1.00  0.00    +0.000 C 
ATOM     58  F11 UNL A   1      40.493  33.892  35.154  1.00  0.00    +0.000 F 
ATOM     59  C41 UNL A   1      39.215  34.023  37.130  1.00  0.00    +0.000 C 
ATOM     60  F12 UNL A   1      39.691  35.256  37.355  1.00  0.00    +0.000 F 
ATOM     61  C42 UNL A   1      38.329  33.448  38.026  1.00  0.00    +0.000 C 
ATOM     62  F13 UNL A   1      37.932  34.127  39.110  1.00  0.00    +0.000 F 
ATOM     63  C43 UNL A   1      37.861  32.161  37.803  1.00  0.00    +0.000 C 
ATOM     64  F14 UNL A   1      36.994  31.606  38.661  1.00  0.00    +0.000 F 
ENDBRANCH   55   56
TORSDOF 20
ENDMDL
MODEL 10
REMARK VINA RESULT:     -10.5      0.708      7.411
ROOT
ATOM     19  C15 UNL A   1      26.035  36.328  45.690  1.00  0.00    +0.000 C 
ATOM     20  C16 UNL A   1      27.323  36.173  44.933  1.00  0.00    +0.000 C 
ATOM     21  N3  UNL A   1      28.448  36.833  45.064  1.00  0.00    +0.000 N 
ATOM     22  C17 UNL A   1      29.331  36.258  44.160  1.00  0.00    +0.000 C 
ATOM     23  C18 UNL A   1      30.604  36.624  43.873  1.00  0.00    +0.000 C 
ATOM     35  C25 UNL A   1      31.282  37.736  44.482  1.00  0.00    +0.000 C 
ATOM     36  C26 UNL A   1      32.542  38.237  44.206  1.00  0.00    +0.000 C 
ATOM     37  C27 UNL A   1      32.793  39.301  45.079  1.00  0.00    +0.000 C 
ATOM     38  C28 UNL A   1      31.670  39.493  45.868  1.00  0.00    +0.000 C 
ATOM     39  N4  UNL A   1      30.752  38.525  45.494  1.00  0.00    +0.000 N 
ATOM     40  C29 UNL A   1      31.447  40.487  46.887  1.00  0.00    +0.000 C 
ATOM     52  C36 UNL A   1      30.313  40.611  47.620  1.00  0.00    +0.000 C 
ATOM     53  N5  UNL A   1      29.147  39.860  47.557  1.00  0.00    +0.000 N 
ATOM     54  C37 UNL A   1      28.348  40.359  48.467  1.00  0.00    +0.000 C 
ATOM     55  C38 UNL A   1      26.939  39.964  48.817  1.00  0.00    +0.000 C 
ATOM     67  C45 UNL A   1      26.352  38.958  48.141  1.00  0.00    +0.000 C 
ATOM     68  C46 UNL A   1      24.990  38.474  48.352  1.00  0.00    +0.000 C 
ATOM     69  C47 UNL A   1      24.749  37.461  47.505  1.00  0.00    +0.000 C 
ATOM     70  C48 UNL A   1      25.931  37.245  46.670  1.00  0.00    +0.000 C 
ATOM     71  N6  UNL A   1      26.838  38.166  47.130  1.00  0.00    +0.000 N 
ATOM     72  C49 UNL A   1      28.931  41.467  49.236  1.00  0.00    +0.000 C 
ATOM     73  C50 UNL A   1      30.112  41.607  48.651  1.00  0.00    +0.000 C 
ATOM     74  C51 UNL A   1      28.631  35.166  43.520  1.00  0.00    +0.000 C 
ATOM     75  C52 UNL A   1      27.366  35.116  43.909  1.00  0.00    +0.000 C 
ATOM    112  H21 UNL A   1      33.188  37.885  43.481  1.00  0.00    +0.000 H 
ATOM    113  H22 UNL A   1      33.666  39.850  45.128  1.00  0.00    +0.000 H 
ATOM    114  H23 UNL A   1      29.857  38.411  45.888  1.00  0.00    +0.000 H 
ATOM    115  H24 UNL A   1      24.321  38.850  49.042  1.00  0.00    +0.000 H 
ATOM    116  H25 UNL A   1      23.871  36.921  47.450  1.00  0.00    +0.000 H 
ATOM    117  H26 UNL A   1      27.751  38.251  46.771  1.00  0.00    +0.000 H 
ATOM    118  H27 UNL A   1      28.528  41.997  50.025  1.00  0.00    +0.000 H 
ATOM    119  H28 UNL A   1      30.801  42.335  48.898  1.00  0.00    +0.000 H 
ATOM    120  H29 UNL A   1      29.062  34.511  42.849  1.00  0.00    +0.000 H 
ATOM    121  H30 UNL A   1      26.608  34.499  43.580  1.00  0.00    +0.000 H 
ENDROOT
BRANCH   19   18
ATOM     76  C53 UNL A   1      24.750  34.226  46.100  1.00  0.00    +0.000 C 
ATOM     77  C54 UNL A   1      23.716  33.346  45.791  1.00  0.00    +0.000 C 
ATOM    110  H19 UNL A   1      22.179  35.161  43.423  1.00  0.00    +0.000 H 
ATOM     15  C11 UNL A   1      22.750  33.708  44.848  1.00  0.00    +0.000 C 
ATOM     16  C12 UNL A   1      22.878  34.906  44.138  1.00  0.00    +0.000 C 
ATOM     17  C13 UNL A   1      23.954  35.756  44.401  1.00  0.00    +0.000 C 
ATOM    111  H20 UNL A   1      24.062  36.628  43.859  1.00  0.00    +0.000 H 
ATOM     18  C14 UNL A   1      24.888  35.432  45.396  1.00  0.00    +0.000 C 
ATOM    122  H31 UNL A   1      25.417  33.991  46.852  1.00  0.00    +0.000 H 
ATOM    123  H32 UNL A   1      23.663  32.427  46.257  1.00  0.00    +0.000 H 
BRANCH   15   13
ATOM     13  C10 UNL A   1      21.602  32.825  44.549  1.00  0.00    +0.000 C 
ATOM     14  O2  UNL A   1      21.740  31.890  43.763  1.00  0.00    +0.000 O 
BRANCH   13   12
ATOM     12  N2  UNL A   1      20.384  33.055  45.134  1.00  0.00    +0.000 N 
ATOM    109  H18 UNL A   1      20.133  32.426  45.850  1.00  0.00    +0.000 H 
BRANCH   12   11
ATOM     11  C9  UNL A   1      19.411  34.094  44.848  1.00  0.00    +0.000 C 
ATOM    108  H17 UNL A   1      19.942  34.956  44.502  1.00  0.00    +0.000 H 
ATOM    107  H16 UNL A   1      18.862  34.307  45.741  1.00  0.00    +0.000 H 
BRANCH   11   10
ATOM    105  H14 UNL A   1      18.181  34.548  43.184  1.00  0.00    +0.000 H 
ATOM     10  C8  UNL A   1      18.430  33.679  43.757  1.00  0.00    +0.000 C 
ATOM    106  H15 UNL A   1      18.922  32.923  43.181  1.00  0.00    +0.000 H 
BRANCH   10    9
ATOM      9  C7  UNL A   1      17.130  33.056  44.268  1.00  0.00    +0.000 C 
ATOM    103  H12 UNL A   1      17.366  32.431  45.104  1.00  0.00    +0.000 H 
ATOM    104  H13 UNL A   1      16.485  33.873  44.516  1.00  0.00    +0.000 H 
BRANCH    9    8
ATOM    101  H10 UNL A   1      15.506  32.760  42.933  1.00  0.00    +0.000 H 
ATOM    102  H11 UNL A   1      17.059  32.012  42.450  1.00  0.00    +0.000 H 
ATOM      8  C6  UNL A   1      16.369  32.209  43.244  1.00  0.00    +0.000 C 
BRANCH    8    7
ATOM     99  H8  UNL A   1      16.466  30.590  44.623  1.00  0.00    +0.000 H 
ATOM    100  H9  UNL A   1      14.852  30.926  43.948  1.00  0.00    +0.000 H 
ATOM      7  C5  UNL A   1      15.900  30.838  43.750  1.00  0.00    +0.000 C 
BRANCH    7    6
ATOM     97  H6  UNL A   1      16.230  30.130  41.764  1.00  0.00    +0.000 H 
ATOM     98  H7  UNL A   1      16.895  29.102  43.025  1.00  0.00    +0.000 H 
ATOM      6  C4  UNL A   1      16.063  29.708  42.733  1.00  0.00    +0.000 C 
BRANCH    6    5
ATOM      5  N1  UNL A   1      14.879  28.878  42.691  1.00  0.00    +0.000 N 
ATOM     96  H5  UNL A   1      14.033  29.365  42.562  1.00  0.00    +0.000 H 
BRANCH    5    3
ATOM      3  C3  UNL A   1      14.754  27.523  42.800  1.00  0.00    +0.000 C 
ATOM      4  O1  UNL A   1      14.272  27.097  43.851  1.00  0.00    +0.000 O 
BRANCH    3    2
ATOM      2  C2  UNL A   1      15.277  26.618  41.673  1.00  0.00    +0.000 C 
ATOM     95  H4  UNL A   1      16.326  26.521  41.858  1.00  0.00    +0.000 H 
BRANCH    2    1
ATOM      1  C1  UNL A   1      15.129  27.226  40.276  1.00  0.00    +0.000 C 
ATOM     92  H1  UNL A   1      14.109  27.511  40.116  1.00  0.00    +0.000 H 
ATOM     93  H2  UNL A   1      15.416  26.505  39.539  1.00  0.00    +0.000 H 
ATOM     94  H3  UNL A   1      15.757  28.088  40.193  1.00  0.00    +0.000 H 
ENDBRANCH    2    1
BRANCH    2   78
ATOM    136  H45 UNL A   1      14.687  22.354  43.431  1.00  0.00    +0.000 H 
ATOM     78  C55 UNL A   1      14.641  25.239  41.714  1.00  0.00    +0.000 C 
ATOM     79  C56 UNL A   1      13.661  24.888  40.781  1.00  0.00    +0.000 C 
ATOM     80  C57 UNL A   1      13.057  23.624  40.827  1.00  0.00    +0.000 C 
ATOM     81  C58 UNL A   1      13.433  22.658  41.764  1.00  0.00    +0.000 C 
ATOM     89  C64 UNL A   1      14.404  23.028  42.702  1.00  0.00    +0.000 C 
ATOM     90  C65 UNL A   1      14.997  24.289  42.672  1.00  0.00    +0.000 C 
ATOM     91  F16 UNL A   1      15.911  24.584  43.608  1.00  0.00    +0.000 F 
ATOM    124  H33 UNL A   1      13.381  25.563  40.053  1.00  0.00    +0.000 H 
ATOM    125  H34 UNL A   1      12.313  23.401  40.147  1.00  0.00    +0.000 H 
BRANCH   81   82
ATOM     82  N7  UNL A   1      12.837  21.417  41.897  1.00  0.00    +0.000 N 
ATOM    126  H35 UNL A   1      12.860  21.026  42.801  1.00  0.00    +0.000 H 
BRANCH   82   83
ATOM    129  H38 UNL A   1      12.730  21.029  38.815  1.00  0.00    +0.000 H 
ATOM    130  H39 UNL A   1      13.681  18.334  39.546  1.00  0.00    +0.000 H 
ATOM    131  H40 UNL A   1      12.706  18.770  38.199  1.00  0.00    +0.000 H 
ATOM    132  H41 UNL A   1      11.610  17.407  40.199  1.00  0.00    +0.000 H 
ATOM    133  H42 UNL A   1      10.680  18.656  39.506  1.00  0.00    +0.000 H 
ATOM    134  H43 UNL A   1      12.364  18.778  42.049  1.00  0.00    +0.000 H 
ATOM     83  C59 UNL A   1      12.180  20.614  40.871  1.00  0.00    +0.000 C 
ATOM     84  C60 UNL A   1      13.024  20.382  39.615  1.00  0.00    +0.000 C 
ATOM     85  C61 UNL A   1      12.827  18.908  39.253  1.00  0.00    +0.000 C 
ATOM     86  C62 UNL A   1      11.594  18.463  40.028  1.00  0.00    +0.000 C 
ATOM     87  C63 UNL A   1      11.704  19.230  41.337  1.00  0.00    +0.000 C 
ATOM    127  H36 UNL A   1      11.334  21.229  40.644  1.00  0.00    +0.000 H 
ATOM    128  H37 UNL A   1      14.056  20.582  39.815  1.00  0.00    +0.000 H 
BRANCH   87   88
ATOM    135  H44 UNL A   1      10.392  20.117  42.508  1.00  0.00    +0.000 H 
ATOM     88  O3  UNL A   1      10.451  19.292  42.002  1.00  0.00    +0.000 O 
ENDBRANCH   87   88
ENDBRANCH   82   83
ENDBRANCH   81   82
ENDBRANCH    2   78
ENDBRANCH    3    2
ENDBRANCH    5    3
ENDBRANCH    6    5
ENDBRANCH    7    6
ENDBRANCH    8    7
ENDBRANCH    9    8
ENDBRANCH   10    9
ENDBRANCH   11   10
ENDBRANCH   12   11
ENDBRANCH   13   12
ENDBRANCH   15   13
ENDBRANCH   19   18
BRANCH   23   24
ATOM     33  C24 UNL A   1      32.026  34.643  43.234  1.00  0.00    +0.000 C 
ATOM     34  F5  UNL A   1      32.008  34.235  44.511  1.00  0.00    +0.000 F 
ATOM     24  C19 UNL A   1      31.345  35.809  42.853  1.00  0.00    +0.000 C 
ATOM     25  C20 UNL A   1      31.403  36.190  41.503  1.00  0.00    +0.000 C 
ATOM     26  F1  UNL A   1      30.759  37.290  41.085  1.00  0.00    +0.000 F 
ATOM     27  C21 UNL A   1      32.086  35.417  40.568  1.00  0.00    +0.000 C 
ATOM     28  F2  UNL A   1      32.080  35.772  39.277  1.00  0.00    +0.000 F 
ATOM     29  C22 UNL A   1      32.754  34.270  40.968  1.00  0.00    +0.000 C 
ATOM     30  F3  UNL A   1      33.412  33.528  40.068  1.00  0.00    +0.000 F 
ATOM     31  C23 UNL A   1      32.732  33.888  42.301  1.00  0.00    +0.000 C 
ATOM     32  F4  UNL A   1      33.389  32.786  42.691  1.00  0.00    +0.000 F 
ENDBRANCH   23   24
BRANCH   40   41
ATOM     41  C30 UNL A   1      32.542  41.481  47.145  1.00  0.00    +0.000 C 
ATOM     42  C31 UNL A   1      33.685  41.144  47.883  1.00  0.00    +0.000 C 
ATOM     43  F6  UNL A   1      33.806  39.920  48.420  1.00  0.00    +0.000 F 
ATOM     44  C32 UNL A   1      34.691  42.079  48.109  1.00  0.00    +0.000 C 
ATOM     45  F7  UNL A   1      35.753  41.751  48.859  1.00  0.00    +0.000 F 
ATOM     46  C33 UNL A   1      34.591  43.355  47.573  1.00  0.00    +0.000 C 
ATOM     47  F8  UNL A   1      35.562  44.252  47.788  1.00  0.00    +0.000 F 
ATOM     48  C34 UNL A   1      33.478  43.703  46.822  1.00  0.00    +0.000 C 
ATOM     49  F9  UNL A   1      33.383  44.930  46.294  1.00  0.00    +0.000 F 
ATOM     50  C35 UNL A   1      32.456  42.780  46.619  1.00  0.00    +0.000 C 
ATOM     51  F10 UNL A   1      31.386  43.150  45.901  1.00  0.00    +0.000 F 
ENDBRANCH   40   41
BRANCH   55   56
ATOM     65  C44 UNL A   1      25.389  41.812  49.545  1.00  0.00    +0.000 C 
ATOM     66  F15 UNL A   1      25.310  42.243  48.277  1.00  0.00    +0.000 F 
ATOM     56  C39 UNL A   1      26.179  40.699  49.860  1.00  0.00    +0.000 C 
ATOM     57  C40 UNL A   1      26.230  40.291  51.201  1.00  0.00    +0.000 C 
ATOM     58  F11 UNL A   1      26.957  39.219  51.547  1.00  0.00    +0.000 F 
ATOM     59  C41 UNL A   1      25.503  40.960  52.184  1.00  0.00    +0.000 C 
ATOM     60  F12 UNL A   1      25.537  40.523  53.451  1.00  0.00    +0.000 F 
ATOM     61  C42 UNL A   1      24.734  42.064  51.851  1.00  0.00    +0.000 C 
ATOM     62  F13 UNL A   1      24.038  42.708  52.796  1.00  0.00    +0.000 F 
ATOM     63  C43 UNL A   1      24.682  42.495  50.534  1.00  0.00    +0.000 C 
ATOM     64  F14 UNL A   1      23.950  43.569  50.210  1.00  0.00    +0.000 F 
ENDBRANCH   55   56
TORSDOF 20
ENDMDL
