MODEL 1
REMARK VINA RESULT:      -9.1      0.000      0.000
ROOT
ATOM     19  C15 UNL A   1      13.534  50.350   0.820  1.00  0.00    +0.000 C 
ATOM     20  C16 UNL A   1      14.224  51.647   1.138  1.00  0.00    +0.000 C 
ATOM     21  N3  UNL A   1      14.383  52.239   2.296  1.00  0.00    +0.000 N 
ATOM     22  C17 UNL A   1      15.124  53.385   2.038  1.00  0.00    +0.000 C 
ATOM     23  C18 UNL A   1      15.504  54.359   2.900  1.00  0.00    +0.000 C 
ATOM     35  C25 UNL A   1      15.182  54.375   4.303  1.00  0.00    +0.000 C 
ATOM     36  C26 UNL A   1      15.471  55.348   5.244  1.00  0.00    +0.000 C 
ATOM     37  C27 UNL A   1      14.996  54.913   6.486  1.00  0.00    +0.000 C 
ATOM     38  C28 UNL A   1      14.374  53.689   6.311  1.00  0.00    +0.000 C 
ATOM     39  N4  UNL A   1      14.499  53.368   4.968  1.00  0.00    +0.000 N 
ATOM     40  C29 UNL A   1      13.715  52.868   7.294  1.00  0.00    +0.000 C 
ATOM     52  C36 UNL A   1      13.115  51.680   7.038  1.00  0.00    +0.000 C 
ATOM     53  N5  UNL A   1      12.996  51.008   5.829  1.00  0.00    +0.000 N 
ATOM     54  C37 UNL A   1      12.347  49.900   6.097  1.00  0.00    +0.000 C 
ATOM     55  C38 UNL A   1      11.915  48.805   5.162  1.00  0.00    +0.000 C 
ATOM     67  C45 UNL A   1      12.183  48.914   3.847  1.00  0.00    +0.000 C 
ATOM     68  C46 UNL A   1      11.818  47.936   2.826  1.00  0.00    +0.000 C 
ATOM     69  C47 UNL A   1      12.283  48.351   1.636  1.00  0.00    +0.000 C 
ATOM     70  C48 UNL A   1      12.950  49.641   1.806  1.00  0.00    +0.000 C 
ATOM     71  N6  UNL A   1      12.834  49.902   3.149  1.00  0.00    +0.000 N 
ATOM     72  C49 UNL A   1      12.005  49.734   7.517  1.00  0.00    +0.000 C 
ATOM     73  C50 UNL A   1      12.461  50.863   8.038  1.00  0.00    +0.000 C 
ATOM     74  C51 UNL A   1      15.419  53.385   0.620  1.00  0.00    +0.000 C 
ATOM     75  C52 UNL A   1      14.836  52.365   0.008  1.00  0.00    +0.000 C 
ATOM    112  H21 UNL A   1      15.954  56.241   5.060  1.00  0.00    +0.000 H 
ATOM    113  H22 UNL A   1      15.093  55.420   7.380  1.00  0.00    +0.000 H 
ATOM    114  H23 UNL A   1      14.152  52.548   4.549  1.00  0.00    +0.000 H 
ATOM    115  H24 UNL A   1      11.288  47.066   2.992  1.00  0.00    +0.000 H 
ATOM    116  H25 UNL A   1      12.186  47.839   0.745  1.00  0.00    +0.000 H 
ATOM    117  H26 UNL A   1      13.184  50.719   3.572  1.00  0.00    +0.000 H 
ATOM    118  H27 UNL A   1      11.533  48.944   7.984  1.00  0.00    +0.000 H 
ATOM    119  H28 UNL A   1      12.364  51.127   9.032  1.00  0.00    +0.000 H 
ATOM    120  H29 UNL A   1      16.009  54.088   0.148  1.00  0.00    +0.000 H 
ATOM    121  H30 UNL A   1      14.816  52.133  -0.997  1.00  0.00    +0.000 H 
ENDROOT
BRANCH   19   18
ATOM     76  C53 UNL A   1      14.547  48.904  -0.952  1.00  0.00    +0.000 C 
ATOM     77  C54 UNL A   1      14.562  48.379  -2.246  1.00  0.00    +0.000 C 
ATOM    110  H19 UNL A   1      11.805  49.867  -3.441  1.00  0.00    +0.000 H 
ATOM     15  C11 UNL A   1      13.528  48.682  -3.136  1.00  0.00    +0.000 C 
ATOM     16  C12 UNL A   1      12.544  49.606  -2.770  1.00  0.00    +0.000 C 
ATOM     17  C13 UNL A   1      12.563  50.179  -1.495  1.00  0.00    +0.000 C 
ATOM    111  H20 UNL A   1      11.849  50.878  -1.236  1.00  0.00    +0.000 H 
ATOM     18  C14 UNL A   1      13.546  49.808  -0.564  1.00  0.00    +0.000 C 
ATOM    122  H31 UNL A   1      15.276  48.625  -0.278  1.00  0.00    +0.000 H 
ATOM    123  H32 UNL A   1      15.338  47.767  -2.544  1.00  0.00    +0.000 H 
BRANCH   15   13
ATOM     13  C10 UNL A   1      13.476  48.089  -4.493  1.00  0.00    +0.000 C 
ATOM     14  O2  UNL A   1      12.459  48.208  -5.166  1.00  0.00    +0.000 O 
BRANCH   13   12
ATOM     12  N2  UNL A   1      14.555  47.405  -5.000  1.00  0.00    +0.000 N 
ATOM    109  H18 UNL A   1      14.735  46.534  -4.577  1.00  0.00    +0.000 H 
BRANCH   12   11
ATOM     11  C9  UNL A   1      15.469  47.776  -6.067  1.00  0.00    +0.000 C 
ATOM    108  H17 UNL A   1      15.450  48.842  -6.159  1.00  0.00    +0.000 H 
ATOM    107  H16 UNL A   1      15.152  47.301  -6.973  1.00  0.00    +0.000 H 
BRANCH   11   10
ATOM    105  H14 UNL A   1      17.497  47.548  -6.640  1.00  0.00    +0.000 H 
ATOM     10  C8  UNL A   1      16.908  47.356  -5.768  1.00  0.00    +0.000 C 
ATOM    106  H15 UNL A   1      17.209  47.925  -4.912  1.00  0.00    +0.000 H 
BRANCH   10    9
ATOM      9  C7  UNL A   1      17.098  45.883  -5.382  1.00  0.00    +0.000 C 
ATOM    103  H12 UNL A   1      16.157  45.514  -5.028  1.00  0.00    +0.000 H 
ATOM    104  H13 UNL A   1      17.453  45.394  -6.265  1.00  0.00    +0.000 H 
BRANCH    9    8
ATOM    101  H10 UNL A   1      17.702  44.987  -3.551  1.00  0.00    +0.000 H 
ATOM    102  H11 UNL A   1      18.973  45.130  -4.794  1.00  0.00    +0.000 H 
ATOM      8  C6  UNL A   1      18.149  45.603  -4.301  1.00  0.00    +0.000 C 
BRANCH    8    7
ATOM     99  H8  UNL A   1      19.772  46.747  -3.534  1.00  0.00    +0.000 H 
ATOM    100  H9  UNL A   1      18.437  47.692  -4.227  1.00  0.00    +0.000 H 
ATOM      7  C5  UNL A   1      18.711  46.856  -3.621  1.00  0.00    +0.000 C 
BRANCH    7    6
ATOM     97  H6  UNL A   1      17.075  47.236  -2.303  1.00  0.00    +0.000 H 
ATOM     98  H7  UNL A   1      18.362  46.259  -1.608  1.00  0.00    +0.000 H 
ATOM      6  C4  UNL A   1      18.133  47.103  -2.224  1.00  0.00    +0.000 C 
BRANCH    6    5
ATOM      5  N1  UNL A   1      18.716  48.286  -1.619  1.00  0.00    +0.000 N 
ATOM     96  H5  UNL A   1      19.580  48.147  -1.170  1.00  0.00    +0.000 H 
BRANCH    5    3
ATOM      3  C3  UNL A   1      18.237  49.569  -1.583  1.00  0.00    +0.000 C 
ATOM      4  O1  UNL A   1      17.541  49.939  -2.532  1.00  0.00    +0.000 O 
BRANCH    3    2
ATOM      2  C2  UNL A   1      18.589  50.504  -0.411  1.00  0.00    +0.000 C 
ATOM     95  H4  UNL A   1      19.616  50.360  -0.150  1.00  0.00    +0.000 H 
BRANCH    2    1
ATOM      1  C1  UNL A   1      18.405  51.964  -0.848  1.00  0.00    +0.000 C 
ATOM     92  H1  UNL A   1      17.388  52.124  -1.140  1.00  0.00    +0.000 H 
ATOM     93  H2  UNL A   1      19.050  52.174  -1.676  1.00  0.00    +0.000 H 
ATOM     94  H3  UNL A   1      18.648  52.614  -0.033  1.00  0.00    +0.000 H 
ENDBRANCH    2    1
BRANCH    2   78
ATOM    129  H38 UNL A   1      16.081  49.708   8.529  1.00  0.00    +0.000 H 
ATOM    130  H39 UNL A   1      15.283  47.479   5.048  1.00  0.00    +0.000 H 
ATOM     78  C55 UNL A   1      17.794  50.167   0.848  1.00  0.00    +0.000 C 
ATOM     79  C56 UNL A   1      17.115  48.949   0.992  1.00  0.00    +0.000 C 
ATOM     80  C57 UNL A   1      16.518  48.581   2.208  1.00  0.00    +0.000 C 
ATOM     81  C58 UNL A   1      16.672  49.414   3.334  1.00  0.00    +0.000 C 
ATOM     82  C59 UNL A   1      17.315  50.636   3.163  1.00  0.00    +0.000 C 
ATOM     83  C60 UNL A   1      17.816  51.065   1.930  1.00  0.00    +0.000 C 
ATOM     84  N7  UNL A   1      17.375  51.240   4.396  1.00  0.00    +0.000 N 
ATOM     85  C61 UNL A   1      16.846  50.426   5.368  1.00  0.00    +0.000 C 
ATOM     86  C62 UNL A   1      16.780  50.607   6.755  1.00  0.00    +0.000 C 
ATOM     87  C63 UNL A   1      16.145  49.612   7.503  1.00  0.00    +0.000 C 
ATOM     88  C64 UNL A   1      15.596  48.494   6.880  1.00  0.00    +0.000 C 
ATOM     89 Cl1  UNL A   1      14.802  47.301   7.836  1.00  0.00    +0.000 Cl
ATOM     90  C65 UNL A   1      15.686  48.316   5.497  1.00  0.00    +0.000 C 
ATOM     91  C66 UNL A   1      16.336  49.300   4.722  1.00  0.00    +0.000 C 
ATOM    124  H33 UNL A   1      17.051  48.309   0.184  1.00  0.00    +0.000 H 
ATOM    125  H34 UNL A   1      15.974  47.707   2.278  1.00  0.00    +0.000 H 
ATOM    126  H35 UNL A   1      18.194  52.019   1.816  1.00  0.00    +0.000 H 
ATOM    127  H36 UNL A   1      17.748  52.136   4.561  1.00  0.00    +0.000 H 
ATOM    128  H37 UNL A   1      17.184  51.443   7.206  1.00  0.00    +0.000 H 
ENDBRANCH    2   78
ENDBRANCH    3    2
ENDBRANCH    5    3
ENDBRANCH    6    5
ENDBRANCH    7    6
ENDBRANCH    8    7
ENDBRANCH    9    8
ENDBRANCH   10    9
ENDBRANCH   11   10
ENDBRANCH   12   11
ENDBRANCH   13   12
ENDBRANCH   15   13
ENDBRANCH   19   18
BRANCH   23   24
ATOM     33  C24 UNL A   1      15.669  56.622   1.801  1.00  0.00    +0.000 C 
ATOM     34  F5  UNL A   1      14.331  56.706   1.800  1.00  0.00    +0.000 F 
ATOM     24  C19 UNL A   1      16.308  55.498   2.348  1.00  0.00    +0.000 C 
ATOM     25  C20 UNL A   1      17.710  55.460   2.316  1.00  0.00    +0.000 C 
ATOM     26  F1  UNL A   1      18.369  54.412   2.834  1.00  0.00    +0.000 F 
ATOM     27  C21 UNL A   1      18.444  56.515   1.779  1.00  0.00    +0.000 C 
ATOM     28  F2  UNL A   1      19.783  56.474   1.798  1.00  0.00    +0.000 F 
ATOM     29  C22 UNL A   1      17.791  57.612   1.238  1.00  0.00    +0.000 C 
ATOM     30  F3  UNL A   1      18.500  58.623   0.715  1.00  0.00    +0.000 F 
ATOM     31  C23 UNL A   1      16.406  57.664   1.242  1.00  0.00    +0.000 C 
ATOM     32  F4  UNL A   1      15.773  58.717   0.706  1.00  0.00    +0.000 F 
ENDBRANCH   23   24
BRANCH   40   41
ATOM     41  C30 UNL A   1      13.666  53.370   8.707  1.00  0.00    +0.000 C 
ATOM     42  C31 UNL A   1      12.690  54.287   9.127  1.00  0.00    +0.000 C 
ATOM     43  F6  UNL A   1      11.801  54.776   8.249  1.00  0.00    +0.000 F 
ATOM     44  C32 UNL A   1      12.650  54.735  10.445  1.00  0.00    +0.000 C 
ATOM     45  F7  UNL A   1      11.738  55.645  10.813  1.00  0.00    +0.000 F 
ATOM     46  C33 UNL A   1      13.562  54.253  11.372  1.00  0.00    +0.000 C 
ATOM     47  F8  UNL A   1      13.519  54.683  12.641  1.00  0.00    +0.000 F 
ATOM     48  C34 UNL A   1      14.524  53.334  10.983  1.00  0.00    +0.000 C 
ATOM     49  F9  UNL A   1      15.399  52.860  11.879  1.00  0.00    +0.000 F 
ATOM     50  C35 UNL A   1      14.583  52.903   9.660  1.00  0.00    +0.000 C 
ATOM     51  F10 UNL A   1      15.533  52.023   9.309  1.00  0.00    +0.000 F 
ENDBRANCH   40   41
BRANCH   55   56
ATOM     65  C44 UNL A   1       9.807  47.679   5.955  1.00  0.00    +0.000 C 
ATOM     66  F15 UNL A   1       9.133  48.824   5.777  1.00  0.00    +0.000 F 
ATOM     56  C39 UNL A   1      11.179  47.620   5.672  1.00  0.00    +0.000 C 
ATOM     57  C40 UNL A   1      11.837  46.400   5.881  1.00  0.00    +0.000 C 
ATOM     58  F11 UNL A   1      13.145  46.291   5.603  1.00  0.00    +0.000 F 
ATOM     59  C41 UNL A   1      11.148  45.279   6.337  1.00  0.00    +0.000 C 
ATOM     60  F12 UNL A   1      11.794  44.115   6.489  1.00  0.00    +0.000 F 
ATOM     61  C42 UNL A   1       9.793  45.363   6.620  1.00  0.00    +0.000 C 
ATOM     62  F13 UNL A   1       9.131  44.286   7.063  1.00  0.00    +0.000 F 
ATOM     63  C43 UNL A   1       9.124  46.564   6.437  1.00  0.00    +0.000 C 
ATOM     64  F14 UNL A   1       7.817  46.654   6.723  1.00  0.00    +0.000 F 
ENDBRANCH   55   56
TORSDOF 17
ENDMDL
MODEL 2
REMARK VINA RESULT:      -8.6     34.669     38.605
ROOT
ATOM     19  C15 UNL A   1      46.544  50.831  17.975  1.00  0.00    +0.000 C 
ATOM     20  C16 UNL A   1      47.516  50.473  19.065  1.00  0.00    +0.000 C 
ATOM     21  N3  UNL A   1      48.550  51.145  19.507  1.00  0.00    +0.000 N 
ATOM     22  C17 UNL A   1      49.078  50.389  20.545  1.00  0.00    +0.000 C 
ATOM     23  C18 UNL A   1      50.184  50.630  21.290  1.00  0.00    +0.000 C 
ATOM     35  C25 UNL A   1      51.049  51.768  21.119  1.00  0.00    +0.000 C 
ATOM     36  C26 UNL A   1      52.225  52.067  21.784  1.00  0.00    +0.000 C 
ATOM     37  C27 UNL A   1      52.698  53.296  21.311  1.00  0.00    +0.000 C 
ATOM     38  C28 UNL A   1      51.839  53.742  20.320  1.00  0.00    +0.000 C 
ATOM     39  N4  UNL A   1      50.830  52.798  20.216  1.00  0.00    +0.000 N 
ATOM     40  C29 UNL A   1      51.929  54.941  19.528  1.00  0.00    +0.000 C 
ATOM     52  C36 UNL A   1      51.047  55.301  18.563  1.00  0.00    +0.000 C 
ATOM     53  N5  UNL A   1      49.910  54.634  18.129  1.00  0.00    +0.000 N 
ATOM     54  C37 UNL A   1      49.389  55.387  17.191  1.00  0.00    +0.000 C 
ATOM     55  C38 UNL A   1      48.164  55.144  16.352  1.00  0.00    +0.000 C 
ATOM     67  C45 UNL A   1      47.462  54.008  16.520  1.00  0.00    +0.000 C 
ATOM     68  C46 UNL A   1      46.263  53.637  15.774  1.00  0.00    +0.000 C 
ATOM     69  C47 UNL A   1      45.805  52.462  16.237  1.00  0.00    +0.000 C 
ATOM     70  C48 UNL A   1      46.699  51.981  17.289  1.00  0.00    +0.000 C 
ATOM     71  N6  UNL A   1      47.659  52.958  17.384  1.00  0.00    +0.000 N 
ATOM     72  C49 UNL A   1      50.125  56.635  16.944  1.00  0.00    +0.000 C 
ATOM     73  C50 UNL A   1      51.147  56.514  17.778  1.00  0.00    +0.000 C 
ATOM     74  C51 UNL A   1      48.227  49.228  20.696  1.00  0.00    +0.000 C 
ATOM     75  C52 UNL A   1      47.282  49.201  19.768  1.00  0.00    +0.000 C 
ATOM    112  H21 UNL A   1      52.676  51.483  22.506  1.00  0.00    +0.000 H 
ATOM    113  H22 UNL A   1      53.543  53.786  21.643  1.00  0.00    +0.000 H 
ATOM    114  H23 UNL A   1      50.070  52.850  19.591  1.00  0.00    +0.000 H 
ATOM    115  H24 UNL A   1      45.835  54.189  15.015  1.00  0.00    +0.000 H 
ATOM    116  H25 UNL A   1      44.957  51.977  15.903  1.00  0.00    +0.000 H 
ATOM    117  H26 UNL A   1      48.417  52.911  18.011  1.00  0.00    +0.000 H 
ATOM    118  H27 UNL A   1      49.904  57.403  16.291  1.00  0.00    +0.000 H 
ATOM    119  H28 UNL A   1      51.916  57.198  17.860  1.00  0.00    +0.000 H 
ATOM    120  H29 UNL A   1      48.340  48.513  21.432  1.00  0.00    +0.000 H 
ATOM    121  H30 UNL A   1      46.568  48.479  19.585  1.00  0.00    +0.000 H 
ENDROOT
BRANCH   19   18
ATOM     76  C53 UNL A   1      45.488  48.919  16.755  1.00  0.00    +0.000 C 
ATOM     77  C54 UNL A   1      44.400  48.088  16.488  1.00  0.00    +0.000 C 
ATOM    110  H19 UNL A   1      42.190  49.420  18.629  1.00  0.00    +0.000 H 
ATOM     15  C11 UNL A   1      43.215  48.230  17.214  1.00  0.00    +0.000 C 
ATOM     16  C12 UNL A   1      43.080  49.284  18.124  1.00  0.00    +0.000 C 
ATOM     17  C13 UNL A   1      44.150  50.155  18.348  1.00  0.00    +0.000 C 
ATOM    111  H20 UNL A   1      44.040  50.945  19.003  1.00  0.00    +0.000 H 
ATOM     18  C14 UNL A   1      45.375  49.960  17.690  1.00  0.00    +0.000 C 
ATOM    122  H31 UNL A   1      46.382  48.768  16.263  1.00  0.00    +0.000 H 
ATOM    123  H32 UNL A   1      44.471  47.367  15.751  1.00  0.00    +0.000 H 
BRANCH   15   13
ATOM     13  C10 UNL A   1      42.063  47.321  17.004  1.00  0.00    +0.000 C 
ATOM     14  O2  UNL A   1      41.329  47.490  16.038  1.00  0.00    +0.000 O 
BRANCH   13   12
ATOM     12  N2  UNL A   1      41.812  46.295  17.884  1.00  0.00    +0.000 N 
ATOM    109  H18 UNL A   1      41.261  46.538  18.663  1.00  0.00    +0.000 H 
BRANCH   12   11
ATOM     11  C9  UNL A   1      42.237  44.907  17.833  1.00  0.00    +0.000 C 
ATOM    108  H17 UNL A   1      41.963  44.514  16.876  1.00  0.00    +0.000 H 
ATOM    107  H16 UNL A   1      41.759  44.370  18.626  1.00  0.00    +0.000 H 
BRANCH   11   10
ATOM    105  H14 UNL A   1      44.022  43.775  17.667  1.00  0.00    +0.000 H 
ATOM     10  C8  UNL A   1      43.752  44.761  17.982  1.00  0.00    +0.000 C 
ATOM    106  H15 UNL A   1      44.183  45.538  17.385  1.00  0.00    +0.000 H 
BRANCH   10    9
ATOM      9  C7  UNL A   1      44.296  44.970  19.402  1.00  0.00    +0.000 C 
ATOM    103  H12 UNL A   1      43.477  44.877  20.084  1.00  0.00    +0.000 H 
ATOM    104  H13 UNL A   1      45.059  44.230  19.533  1.00  0.00    +0.000 H 
BRANCH    9    8
ATOM    101  H10 UNL A   1      45.778  46.431  18.968  1.00  0.00    +0.000 H 
ATOM    102  H11 UNL A   1      44.220  47.067  19.561  1.00  0.00    +0.000 H 
ATOM      8  C6  UNL A   1      44.977  46.318  19.667  1.00  0.00    +0.000 C 
BRANCH    8    7
ATOM     99  H8  UNL A   1      46.563  46.805  21.001  1.00  0.00    +0.000 H 
ATOM    100  H9  UNL A   1      44.930  47.183  21.592  1.00  0.00    +0.000 H 
ATOM      7  C5  UNL A   1      45.548  46.476  21.080  1.00  0.00    +0.000 C 
BRANCH    7    6
ATOM     97  H6  UNL A   1      45.127  45.389  22.870  1.00  0.00    +0.000 H 
ATOM     98  H7  UNL A   1      44.907  44.469  21.387  1.00  0.00    +0.000 H 
ATOM      6  C4  UNL A   1      45.522  45.180  21.897  1.00  0.00    +0.000 C 
BRANCH    6    5
ATOM      5  N1  UNL A   1      46.854  44.623  22.036  1.00  0.00    +0.000 N 
ATOM     96  H5  UNL A   1      46.920  43.830  22.615  1.00  0.00    +0.000 H 
BRANCH    5    3
ATOM      3  C3  UNL A   1      48.033  45.040  21.477  1.00  0.00    +0.000 C 
ATOM      4  O1  UNL A   1      48.593  46.009  21.997  1.00  0.00    +0.000 O 
BRANCH    3    2
ATOM      2  C2  UNL A   1      48.603  44.334  20.232  1.00  0.00    +0.000 C 
ATOM     95  H4  UNL A   1      49.593  43.994  20.450  1.00  0.00    +0.000 H 
BRANCH    2    1
ATOM      1  C1  UNL A   1      47.738  43.111  19.898  1.00  0.00    +0.000 C 
ATOM     92  H1  UNL A   1      48.143  42.244  20.378  1.00  0.00    +0.000 H 
ATOM     93  H2  UNL A   1      47.727  42.960  18.839  1.00  0.00    +0.000 H 
ATOM     94  H3  UNL A   1      46.739  43.275  20.245  1.00  0.00    +0.000 H 
ENDBRANCH    2    1
BRANCH    2   78
ATOM    129  H38 UNL A   1      50.358  51.959  15.171  1.00  0.00    +0.000 H 
ATOM    130  H39 UNL A   1      47.720  48.705  14.755  1.00  0.00    +0.000 H 
ATOM     78  C55 UNL A   1      48.748  45.288  19.050  1.00  0.00    +0.000 C 
ATOM     79  C56 UNL A   1      47.798  45.342  18.020  1.00  0.00    +0.000 C 
ATOM     80  C57 UNL A   1      47.855  46.326  17.021  1.00  0.00    +0.000 C 
ATOM     81  C58 UNL A   1      48.840  47.331  17.094  1.00  0.00    +0.000 C 
ATOM     82  C59 UNL A   1      49.798  47.239  18.099  1.00  0.00    +0.000 C 
ATOM     83  C60 UNL A   1      49.819  46.200  19.035  1.00  0.00    +0.000 C 
ATOM     84  N7  UNL A   1      50.613  48.339  17.987  1.00  0.00    +0.000 N 
ATOM     85  C61 UNL A   1      50.181  49.171  16.982  1.00  0.00    +0.000 C 
ATOM     86  C62 UNL A   1      50.660  50.424  16.584  1.00  0.00    +0.000 C 
ATOM     87  C63 UNL A   1      50.036  51.032  15.491  1.00  0.00    +0.000 C 
ATOM     88  C64 UNL A   1      48.985  50.402  14.829  1.00  0.00    +0.000 C 
ATOM     89 Cl1  UNL A   1      48.257  51.175  13.472  1.00  0.00    +0.000 Cl
ATOM     90  C65 UNL A   1      48.504  49.159  15.249  1.00  0.00    +0.000 C 
ATOM     91  C66 UNL A   1      49.108  48.532  16.359  1.00  0.00    +0.000 C 
ATOM    124  H33 UNL A   1      47.039  44.643  17.997  1.00  0.00    +0.000 H 
ATOM    125  H34 UNL A   1      47.180  46.316  16.240  1.00  0.00    +0.000 H 
ATOM    126  H35 UNL A   1      50.602  46.104  19.701  1.00  0.00    +0.000 H 
ATOM    127  H36 UNL A   1      51.401  48.510  18.552  1.00  0.00    +0.000 H 
ATOM    128  H37 UNL A   1      51.443  50.881  17.077  1.00  0.00    +0.000 H 
ENDBRANCH    2   78
ENDBRANCH    3    2
ENDBRANCH    5    3
ENDBRANCH    6    5
ENDBRANCH    7    6
ENDBRANCH    8    7
ENDBRANCH    9    8
ENDBRANCH   10    9
ENDBRANCH   11   10
ENDBRANCH   12   11
ENDBRANCH   13   12
ENDBRANCH   15   13
ENDBRANCH   19   18
BRANCH   23   24
ATOM     33  C24 UNL A   1      51.305  48.506  22.058  1.00  0.00    +0.000 C 
ATOM     34  F5  UNL A   1      51.776  48.320  20.816  1.00  0.00    +0.000 F 
ATOM     24  C19 UNL A   1      50.531  49.637  22.360  1.00  0.00    +0.000 C 
ATOM     25  C20 UNL A   1      50.058  49.777  23.672  1.00  0.00    +0.000 C 
ATOM     26  F1  UNL A   1      49.322  50.845  24.015  1.00  0.00    +0.000 F 
ATOM     27  C21 UNL A   1      50.368  48.835  24.651  1.00  0.00    +0.000 C 
ATOM     28  F2  UNL A   1      49.940  49.013  25.908  1.00  0.00    +0.000 F 
ATOM     29  C22 UNL A   1      51.129  47.721  24.328  1.00  0.00    +0.000 C 
ATOM     30  F3  UNL A   1      51.419  46.811  25.269  1.00  0.00    +0.000 F 
ATOM     31  C23 UNL A   1      51.591  47.553  23.032  1.00  0.00    +0.000 C 
ATOM     32  F4  UNL A   1      52.314  46.469  22.715  1.00  0.00    +0.000 F 
ENDBRANCH   23   24
BRANCH   40   41
ATOM     41  C30 UNL A   1      53.094  55.855  19.768  1.00  0.00    +0.000 C 
ATOM     42  C31 UNL A   1      54.288  55.728  19.043  1.00  0.00    +0.000 C 
ATOM     43  F6  UNL A   1      54.430  54.742  18.144  1.00  0.00    +0.000 F 
ATOM     44  C32 UNL A   1      55.357  56.591  19.268  1.00  0.00    +0.000 C 
ATOM     45  F7  UNL A   1      56.504  56.423  18.597  1.00  0.00    +0.000 F 
ATOM     46  C33 UNL A   1      55.242  57.613  20.199  1.00  0.00    +0.000 C 
ATOM     47  F8  UNL A   1      56.271  58.445  20.412  1.00  0.00    +0.000 F 
ATOM     48  C34 UNL A   1      54.065  57.768  20.914  1.00  0.00    +0.000 C 
ATOM     49  F9  UNL A   1      53.948  58.761  21.805  1.00  0.00    +0.000 F 
ATOM     50  C35 UNL A   1      53.003  56.891  20.710  1.00  0.00    +0.000 C 
ATOM     51  F10 UNL A   1      51.881  57.057  21.425  1.00  0.00    +0.000 F 
ENDBRANCH   40   41
BRANCH   55   56
ATOM     65  C44 UNL A   1      47.001  57.274  15.677  1.00  0.00    +0.000 C 
ATOM     66  F15 UNL A   1      46.657  57.487  16.955  1.00  0.00    +0.000 F 
ATOM     56  C39 UNL A   1      47.738  56.133  15.329  1.00  0.00    +0.000 C 
ATOM     57  C40 UNL A   1      48.067  55.955  13.978  1.00  0.00    +0.000 C 
ATOM     58  F11 UNL A   1      48.790  54.889  13.601  1.00  0.00    +0.000 F 
ATOM     59  C41 UNL A   1      47.691  56.889  13.016  1.00  0.00    +0.000 C 
ATOM     60  F12 UNL A   1      48.055  56.716  11.738  1.00  0.00    +0.000 F 
ATOM     61  C42 UNL A   1      46.954  58.006  13.382  1.00  0.00    +0.000 C 
ATOM     62  F13 UNL A   1      46.589  58.902  12.456  1.00  0.00    +0.000 F 
ATOM     63  C43 UNL A   1      46.602  58.194  14.710  1.00  0.00    +0.000 C 
ATOM     64  F14 UNL A   1      45.878  59.265  15.066  1.00  0.00    +0.000 F 
ENDBRANCH   55   56
TORSDOF 17
ENDMDL
MODEL 3
REMARK VINA RESULT:      -8.6     44.353     48.136
ROOT
ATOM     19  C15 UNL A   1      24.922  38.245  48.273  1.00  0.00    +0.000 C 
ATOM     20  C16 UNL A   1      24.781  36.927  47.564  1.00  0.00    +0.000 C 
ATOM     21  N3  UNL A   1      25.665  36.269  46.853  1.00  0.00    +0.000 N 
ATOM     22  C17 UNL A   1      25.037  35.095  46.460  1.00  0.00    +0.000 C 
ATOM     23  C18 UNL A   1      25.513  34.106  45.665  1.00  0.00    +0.000 C 
ATOM     35  C25 UNL A   1      26.818  34.108  45.057  1.00  0.00    +0.000 C 
ATOM     36  C26 UNL A   1      27.367  33.180  44.189  1.00  0.00    +0.000 C 
ATOM     37  C27 UNL A   1      28.674  33.577  43.891  1.00  0.00    +0.000 C 
ATOM     38  C28 UNL A   1      28.925  34.775  44.539  1.00  0.00    +0.000 C 
ATOM     39  N4  UNL A   1      27.780  35.086  45.255  1.00  0.00    +0.000 N 
ATOM     40  C29 UNL A   1      30.122  35.577  44.512  1.00  0.00    +0.000 C 
ATOM     52  C36 UNL A   1      30.284  36.751  45.170  1.00  0.00    +0.000 C 
ATOM     53  N5  UNL A   1      29.382  37.427  45.980  1.00  0.00    +0.000 N 
ATOM     54  C37 UNL A   1      30.008  38.503  46.393  1.00  0.00    +0.000 C 
ATOM     55  C38 UNL A   1      29.504  39.613  47.274  1.00  0.00    +0.000 C 
ATOM     67  C45 UNL A   1      28.237  39.573  47.729  1.00  0.00    +0.000 C 
ATOM     68  C46 UNL A   1      27.614  40.581  48.582  1.00  0.00    +0.000 C 
ATOM     69  C47 UNL A   1      26.362  40.193  48.875  1.00  0.00    +0.000 C 
ATOM     70  C48 UNL A   1      26.084  38.924  48.201  1.00  0.00    +0.000 C 
ATOM     71  N6  UNL A   1      27.251  38.637  47.537  1.00  0.00    +0.000 N 
ATOM     72  C49 UNL A   1      31.391  38.615  45.909  1.00  0.00    +0.000 C 
ATOM     73  C50 UNL A   1      31.495  37.543  45.138  1.00  0.00    +0.000 C 
ATOM     74  C51 UNL A   1      23.712  35.109  47.045  1.00  0.00    +0.000 C 
ATOM     75  C52 UNL A   1      23.483  36.245  47.687  1.00  0.00    +0.000 C 
ATOM    112  H21 UNL A   1      26.892  32.339  43.824  1.00  0.00    +0.000 H 
ATOM    113  H22 UNL A   1      29.339  33.065  43.289  1.00  0.00    +0.000 H 
ATOM    114  H23 UNL A   1      27.666  35.886  45.819  1.00  0.00    +0.000 H 
ATOM    115  H24 UNL A   1      28.063  41.451  48.908  1.00  0.00    +0.000 H 
ATOM    116  H25 UNL A   1      25.702  40.707  49.479  1.00  0.00    +0.000 H 
ATOM    117  H26 UNL A   1      27.369  37.836  46.977  1.00  0.00    +0.000 H 
ATOM    118  H27 UNL A   1      32.096  39.341  46.117  1.00  0.00    +0.000 H 
ATOM    119  H28 UNL A   1      32.333  37.303  44.586  1.00  0.00    +0.000 H 
ATOM    120  H29 UNL A   1      23.035  34.334  46.973  1.00  0.00    +0.000 H 
ATOM    121  H30 UNL A   1      22.621  36.568  48.153  1.00  0.00    +0.000 H 
ENDROOT
BRANCH   19   18
ATOM     76  C53 UNL A   1      23.807  38.542  50.493  1.00  0.00    +0.000 C 
ATOM     77  C54 UNL A   1      22.777  39.045  51.289  1.00  0.00    +0.000 C 
ATOM    110  H19 UNL A   1      21.018  40.634  48.919  1.00  0.00    +0.000 H 
ATOM     15  C11 UNL A   1      21.791  39.860  50.726  1.00  0.00    +0.000 C 
ATOM     16  C12 UNL A   1      21.770  40.071  49.343  1.00  0.00    +0.000 C 
ATOM     17  C13 UNL A   1      22.768  39.517  48.537  1.00  0.00    +0.000 C 
ATOM    111  H20 UNL A   1      22.737  39.656  47.514  1.00  0.00    +0.000 H 
ATOM     18  C14 UNL A   1      23.814  38.775  49.109  1.00  0.00    +0.000 C 
ATOM    122  H31 UNL A   1      24.569  37.996  50.924  1.00  0.00    +0.000 H 
ATOM    123  H32 UNL A   1      22.744  38.814  52.295  1.00  0.00    +0.000 H 
BRANCH   15   13
ATOM     13  C10 UNL A   1      20.722  40.466  51.554  1.00  0.00    +0.000 C 
ATOM     14  O2  UNL A   1      20.920  41.544  52.102  1.00  0.00    +0.000 O 
BRANCH   13   12
ATOM     12  N2  UNL A   1      19.514  39.829  51.713  1.00  0.00    +0.000 N 
ATOM    109  H18 UNL A   1      18.724  40.362  51.467  1.00  0.00    +0.000 H 
BRANCH   12   11
ATOM     11  C9  UNL A   1      19.232  38.485  52.190  1.00  0.00    +0.000 C 
ATOM    108  H17 UNL A   1      18.361  38.533  52.810  1.00  0.00    +0.000 H 
ATOM    107  H16 UNL A   1      20.080  38.127  52.735  1.00  0.00    +0.000 H 
BRANCH   11   10
ATOM    105  H14 UNL A   1      18.120  36.894  51.340  1.00  0.00    +0.000 H 
ATOM     10  C8  UNL A   1      18.938  37.516  51.044  1.00  0.00    +0.000 C 
ATOM    106  H15 UNL A   1      18.729  38.126  50.189  1.00  0.00    +0.000 H 
BRANCH   10    9
ATOM      9  C7  UNL A   1      20.104  36.605  50.638  1.00  0.00    +0.000 C 
ATOM    103  H12 UNL A   1      21.007  37.177  50.708  1.00  0.00    +0.000 H 
ATOM    104  H13 UNL A   1      20.065  35.768  51.304  1.00  0.00    +0.000 H 
BRANCH    9    8
ATOM    101  H10 UNL A   1      20.969  35.548  49.008  1.00  0.00    +0.000 H 
ATOM    102  H11 UNL A   1      19.213  35.324  49.225  1.00  0.00    +0.000 H 
ATOM      8  C6  UNL A   1      20.031  36.013  49.225  1.00  0.00    +0.000 C 
BRANCH    8    7
ATOM     99  H8  UNL A   1      19.818  38.017  48.540  1.00  0.00    +0.000 H 
ATOM    100  H9  UNL A   1      20.446  36.867  47.340  1.00  0.00    +0.000 H 
ATOM      7  C5  UNL A   1      19.737  37.035  48.122  1.00  0.00    +0.000 C 
BRANCH    7    6
ATOM     97  H6  UNL A   1      17.842  36.064  47.973  1.00  0.00    +0.000 H 
ATOM     98  H7  UNL A   1      17.802  37.795  47.662  1.00  0.00    +0.000 H 
ATOM      6  C4  UNL A   1      18.343  36.885  47.505  1.00  0.00    +0.000 C 
BRANCH    6    5
ATOM      5  N1  UNL A   1      18.426  36.638  46.078  1.00  0.00    +0.000 N 
ATOM     96  H5  UNL A   1      18.719  37.405  45.535  1.00  0.00    +0.000 H 
BRANCH    5    3
ATOM      3  C3  UNL A   1      18.155  35.493  45.377  1.00  0.00    +0.000 C 
ATOM      4  O1  UNL A   1      17.034  34.997  45.516  1.00  0.00    +0.000 O 
BRANCH    3    2
ATOM      2  C2  UNL A   1      19.230  34.851  44.480  1.00  0.00    +0.000 C 
ATOM     95  H4  UNL A   1      19.193  35.307  43.514  1.00  0.00    +0.000 H 
BRANCH    2    1
ATOM      1  C1  UNL A   1      20.619  35.111  45.081  1.00  0.00    +0.000 C 
ATOM     92  H1  UNL A   1      20.553  35.105  46.149  1.00  0.00    +0.000 H 
ATOM     93  H2  UNL A   1      20.978  36.063  44.751  1.00  0.00    +0.000 H 
ATOM     94  H3  UNL A   1      21.295  34.345  44.762  1.00  0.00    +0.000 H 
ENDBRANCH    2    1
BRANCH    2   78
ATOM    129  H38 UNL A   1      15.003  26.863  42.204  1.00  0.00    +0.000 H 
ATOM    130  H39 UNL A   1      18.031  27.905  44.937  1.00  0.00    +0.000 H 
ATOM     78  C55 UNL A   1      18.965  33.366  44.243  1.00  0.00    +0.000 C 
ATOM     79  C56 UNL A   1      19.405  32.382  45.140  1.00  0.00    +0.000 C 
ATOM     80  C57 UNL A   1      19.025  31.038  44.999  1.00  0.00    +0.000 C 
ATOM     81  C58 UNL A   1      18.118  30.679  43.982  1.00  0.00    +0.000 C 
ATOM     82  C59 UNL A   1      17.724  31.660  43.078  1.00  0.00    +0.000 C 
ATOM     83  C60 UNL A   1      18.183  32.980  43.140  1.00  0.00    +0.000 C 
ATOM     84  N7  UNL A   1      16.821  31.082  42.219  1.00  0.00    +0.000 N 
ATOM     85  C61 UNL A   1      16.572  29.777  42.571  1.00  0.00    +0.000 C 
ATOM     86  C62 UNL A   1      15.670  28.855  42.028  1.00  0.00    +0.000 C 
ATOM     87  C63 UNL A   1      15.658  27.569  42.575  1.00  0.00    +0.000 C 
ATOM     88  C64 UNL A   1      16.520  27.230  43.615  1.00  0.00    +0.000 C 
ATOM     89 Cl1  UNL A   1      16.489  25.628  44.248  1.00  0.00    +0.000 Cl
ATOM     90  C65 UNL A   1      17.403  28.166  44.161  1.00  0.00    +0.000 C 
ATOM     91  C66 UNL A   1      17.423  29.475  43.635  1.00  0.00    +0.000 C 
ATOM    124  H33 UNL A   1      20.023  32.652  45.922  1.00  0.00    +0.000 H 
ATOM    125  H34 UNL A   1      19.404  30.319  45.635  1.00  0.00    +0.000 H 
ATOM    126  H35 UNL A   1      17.953  33.655  42.394  1.00  0.00    +0.000 H 
ATOM    127  H36 UNL A   1      16.406  31.542  41.453  1.00  0.00    +0.000 H 
ATOM    128  H37 UNL A   1      15.039  29.115  41.253  1.00  0.00    +0.000 H 
ENDBRANCH    2   78
ENDBRANCH    3    2
ENDBRANCH    5    3
ENDBRANCH    6    5
ENDBRANCH    7    6
ENDBRANCH    8    7
ENDBRANCH    9    8
ENDBRANCH   10    9
ENDBRANCH   11   10
ENDBRANCH   12   11
ENDBRANCH   13   12
ENDBRANCH   15   13
ENDBRANCH   19   18
BRANCH   23   24
ATOM     33  C24 UNL A   1      23.650  32.995  44.380  1.00  0.00    +0.000 C 
ATOM     34  F5  UNL A   1      23.550  34.086  43.606  1.00  0.00    +0.000 F 
ATOM     24  C19 UNL A   1      24.613  32.936  45.399  1.00  0.00    +0.000 C 
ATOM     25  C20 UNL A   1      24.669  31.774  46.182  1.00  0.00    +0.000 C 
ATOM     26  F1  UNL A   1      25.578  31.664  47.163  1.00  0.00    +0.000 F 
ATOM     27  C21 UNL A   1      23.811  30.703  45.939  1.00  0.00    +0.000 C 
ATOM     28  F2  UNL A   1      23.912  29.587  46.674  1.00  0.00    +0.000 F 
ATOM     29  C22 UNL A   1      22.863  30.786  44.931  1.00  0.00    +0.000 C 
ATOM     30  F3  UNL A   1      22.033  29.758  44.704  1.00  0.00    +0.000 F 
ATOM     31  C23 UNL A   1      22.777  31.933  44.156  1.00  0.00    +0.000 C 
ATOM     32  F4  UNL A   1      21.851  32.021  43.191  1.00  0.00    +0.000 F 
ENDBRANCH   23   24
BRANCH   40   41
ATOM     41  C30 UNL A   1      31.271  35.093  43.679  1.00  0.00    +0.000 C 
ATOM     42  C31 UNL A   1      32.256  34.245  44.208  1.00  0.00    +0.000 C 
ATOM     43  F6  UNL A   1      32.214  33.886  45.500  1.00  0.00    +0.000 F 
ATOM     44  C32 UNL A   1      33.311  33.795  43.418  1.00  0.00    +0.000 C 
ATOM     45  F7  UNL A   1      34.265  33.022  43.956  1.00  0.00    +0.000 F 
ATOM     46  C33 UNL A   1      33.384  34.157  42.081  1.00  0.00    +0.000 C 
ATOM     47  F8  UNL A   1      34.398  33.720  41.322  1.00  0.00    +0.000 F 
ATOM     48  C34 UNL A   1      32.412  34.980  41.533  1.00  0.00    +0.000 C 
ATOM     49  F9  UNL A   1      32.476  35.323  40.240  1.00  0.00    +0.000 F 
ATOM     50  C35 UNL A   1      31.370  35.453  42.326  1.00  0.00    +0.000 C 
ATOM     51  F10 UNL A   1      30.451  36.259  41.773  1.00  0.00    +0.000 F 
ENDBRANCH   40   41
BRANCH   55   56
ATOM     65  C44 UNL A   1      31.134  40.767  48.808  1.00  0.00    +0.000 C 
ATOM     66  F15 UNL A   1      31.065  39.730  49.656  1.00  0.00    +0.000 F 
ATOM     56  C39 UNL A   1      30.382  40.759  47.626  1.00  0.00    +0.000 C 
ATOM     57  C40 UNL A   1      30.486  41.870  46.777  1.00  0.00    +0.000 C 
ATOM     58  F11 UNL A   1      29.801  41.897  45.624  1.00  0.00    +0.000 F 
ATOM     59  C41 UNL A   1      31.324  42.937  47.089  1.00  0.00    +0.000 C 
ATOM     60  F12 UNL A   1      31.437  43.968  46.240  1.00  0.00    +0.000 F 
ATOM     61  C42 UNL A   1      32.052  42.928  48.270  1.00  0.00    +0.000 C 
ATOM     62  F13 UNL A   1      32.855  43.957  48.572  1.00  0.00    +0.000 F 
ATOM     63  C43 UNL A   1      31.952  41.847  49.133  1.00  0.00    +0.000 C 
ATOM     64  F14 UNL A   1      32.643  41.840  50.281  1.00  0.00    +0.000 F 
ENDBRANCH   55   56
TORSDOF 17
ENDMDL
MODEL 4
REMARK VINA RESULT:      -8.6     43.895     47.486
ROOT
ATOM     19  C15 UNL A   1      21.305  38.299  49.370  1.00  0.00    +0.000 C 
ATOM     20  C16 UNL A   1      22.152  39.537  49.473  1.00  0.00    +0.000 C 
ATOM     21  N3  UNL A   1      23.327  39.782  48.947  1.00  0.00    +0.000 N 
ATOM     22  C17 UNL A   1      23.644  41.083  49.317  1.00  0.00    +0.000 C 
ATOM     23  C18 UNL A   1      24.777  41.782  49.065  1.00  0.00    +0.000 C 
ATOM     35  C25 UNL A   1      25.907  41.266  48.338  1.00  0.00    +0.000 C 
ATOM     36  C26 UNL A   1      27.123  41.878  48.085  1.00  0.00    +0.000 C 
ATOM     37  C27 UNL A   1      27.898  41.010  47.308  1.00  0.00    +0.000 C 
ATOM     38  C28 UNL A   1      27.182  39.841  47.114  1.00  0.00    +0.000 C 
ATOM     39  N4  UNL A   1      25.961  40.013  47.747  1.00  0.00    +0.000 N 
ATOM     40  C29 UNL A   1      27.578  38.653  46.402  1.00  0.00    +0.000 C 
ATOM     52  C36 UNL A   1      26.818  37.539  46.267  1.00  0.00    +0.000 C 
ATOM     53  N5  UNL A   1      25.545  37.288  46.761  1.00  0.00    +0.000 N 
ATOM     54  C37 UNL A   1      25.234  36.080  46.355  1.00  0.00    +0.000 C 
ATOM     55  C38 UNL A   1      23.986  35.284  46.619  1.00  0.00    +0.000 C 
ATOM     67  C45 UNL A   1      23.013  35.813  47.384  1.00  0.00    +0.000 C 
ATOM     68  C46 UNL A   1      21.757  35.154  47.729  1.00  0.00    +0.000 C 
ATOM     69  C47 UNL A   1      21.010  35.992  48.466  1.00  0.00    +0.000 C 
ATOM     70  C48 UNL A   1      21.752  37.236  48.674  1.00  0.00    +0.000 C 
ATOM     71  N6  UNL A   1      22.933  37.036  48.004  1.00  0.00    +0.000 N 
ATOM     72  C49 UNL A   1      26.270  35.439  45.532  1.00  0.00    +0.000 C 
ATOM     73  C50 UNL A   1      27.228  36.354  45.542  1.00  0.00    +0.000 C 
ATOM     74  C51 UNL A   1      22.519  41.591  50.075  1.00  0.00    +0.000 C 
ATOM     75  C52 UNL A   1      21.598  40.655  50.252  1.00  0.00    +0.000 C 
ATOM    112  H21 UNL A   1      27.408  42.814  48.412  1.00  0.00    +0.000 H 
ATOM    113  H22 UNL A   1      28.843  41.207  46.942  1.00  0.00    +0.000 H 
ATOM    114  H23 UNL A   1      25.239  39.344  47.775  1.00  0.00    +0.000 H 
ATOM    115  H24 UNL A   1      21.485  34.198  47.450  1.00  0.00    +0.000 H 
ATOM    116  H25 UNL A   1      20.065  35.791  48.827  1.00  0.00    +0.000 H 
ATOM    117  H26 UNL A   1      23.654  37.705  47.970  1.00  0.00    +0.000 H 
ATOM    118  H27 UNL A   1      26.254  34.517  45.069  1.00  0.00    +0.000 H 
ATOM    119  H28 UNL A   1      28.148  36.238  45.091  1.00  0.00    +0.000 H 
ATOM    120  H29 UNL A   1      22.445  42.556  50.432  1.00  0.00    +0.000 H 
ATOM    121  H30 UNL A   1      20.720  40.700  50.793  1.00  0.00    +0.000 H 
ENDROOT
BRANCH   19   18
ATOM     76  C53 UNL A   1      19.765  37.704  51.250  1.00  0.00    +0.000 C 
ATOM     77  C54 UNL A   1      18.497  37.673  51.833  1.00  0.00    +0.000 C 
ATOM    110  H19 UNL A   1      16.773  39.213  49.404  1.00  0.00    +0.000 H 
ATOM     15  C11 UNL A   1      17.415  38.278  51.187  1.00  0.00    +0.000 C 
ATOM     16  C12 UNL A   1      17.580  38.807  49.903  1.00  0.00    +0.000 C 
ATOM     17  C13 UNL A   1      18.837  38.784  49.293  1.00  0.00    +0.000 C 
ATOM    111  H20 UNL A   1      18.950  39.155  48.336  1.00  0.00    +0.000 H 
ATOM     18  C14 UNL A   1      19.947  38.262  49.975  1.00  0.00    +0.000 C 
ATOM    122  H31 UNL A   1      20.573  37.315  51.760  1.00  0.00    +0.000 H 
ATOM    123  H32 UNL A   1      18.359  37.202  52.742  1.00  0.00    +0.000 H 
BRANCH   15   13
ATOM     13  C10 UNL A   1      16.070  38.324  51.807  1.00  0.00    +0.000 C 
ATOM     14  O2  UNL A   1      15.966  38.530  53.011  1.00  0.00    +0.000 O 
BRANCH   13   12
ATOM     12  N2  UNL A   1      14.941  38.135  51.046  1.00  0.00    +0.000 N 
ATOM    109  H18 UNL A   1      14.611  38.937  50.580  1.00  0.00    +0.000 H 
BRANCH   12   11
ATOM     11  C9  UNL A   1      14.164  36.927  50.826  1.00  0.00    +0.000 C 
ATOM    108  H17 UNL A   1      13.515  36.796  51.668  1.00  0.00    +0.000 H 
ATOM    107  H16 UNL A   1      14.835  36.100  50.719  1.00  0.00    +0.000 H 
BRANCH   11   10
ATOM    105  H14 UNL A   1      12.374  36.508  49.770  1.00  0.00    +0.000 H 
ATOM     10  C8  UNL A   1      13.292  37.020  49.573  1.00  0.00    +0.000 C 
ATOM    106  H15 UNL A   1      13.169  38.065  49.377  1.00  0.00    +0.000 H 
BRANCH   10    9
ATOM      9  C7  UNL A   1      13.905  36.422  48.299  1.00  0.00    +0.000 C 
ATOM    103  H12 UNL A   1      13.525  35.427  48.189  1.00  0.00    +0.000 H 
ATOM    104  H13 UNL A   1      13.630  37.085  47.506  1.00  0.00    +0.000 H 
BRANCH    9    8
ATOM    101  H10 UNL A   1      15.820  36.975  49.040  1.00  0.00    +0.000 H 
ATOM    102  H11 UNL A   1      15.693  35.316  48.395  1.00  0.00    +0.000 H 
ATOM      8  C6  UNL A   1      15.437  36.346  48.264  1.00  0.00    +0.000 C 
BRANCH    8    7
ATOM     99  H8  UNL A   1      15.522  36.325  46.138  1.00  0.00    +0.000 H 
ATOM    100  H9  UNL A   1      16.014  37.852  46.903  1.00  0.00    +0.000 H 
ATOM      7  C5  UNL A   1      16.065  36.785  46.937  1.00  0.00    +0.000 C 
BRANCH    7    6
ATOM     97  H6  UNL A   1      18.037  37.125  46.193  1.00  0.00    +0.000 H 
ATOM     98  H7  UNL A   1      17.975  36.371  47.782  1.00  0.00    +0.000 H 
ATOM      6  C4  UNL A   1      17.542  36.400  46.804  1.00  0.00    +0.000 C 
BRANCH    6    5
ATOM      5  N1  UNL A   1      17.688  35.090  46.197  1.00  0.00    +0.000 N 
ATOM     96  H5  UNL A   1      17.955  34.369  46.811  1.00  0.00    +0.000 H 
BRANCH    5    3
ATOM      3  C3  UNL A   1      17.507  34.712  44.892  1.00  0.00    +0.000 C 
ATOM      4  O1  UNL A   1      16.607  35.271  44.261  1.00  0.00    +0.000 O 
BRANCH    3    2
ATOM      2  C2  UNL A   1      18.385  33.610  44.268  1.00  0.00    +0.000 C 
ATOM     95  H4  UNL A   1      18.957  34.034  43.470  1.00  0.00    +0.000 H 
BRANCH    2    1
ATOM      1  C1  UNL A   1      19.359  33.072  45.326  1.00  0.00    +0.000 C 
ATOM     92  H1  UNL A   1      20.146  33.781  45.480  1.00  0.00    +0.000 H 
ATOM     93  H2  UNL A   1      19.775  32.145  44.990  1.00  0.00    +0.000 H 
ATOM     94  H3  UNL A   1      18.835  32.915  46.246  1.00  0.00    +0.000 H 
ENDBRANCH    2    1
BRANCH    2   78
ATOM    129  H38 UNL A   1      14.638  25.276  42.435  1.00  0.00    +0.000 H 
ATOM    130  H39 UNL A   1      15.481  28.688  40.116  1.00  0.00    +0.000 H 
ATOM     78  C55 UNL A   1      17.547  32.505  43.629  1.00  0.00    +0.000 C 
ATOM     79  C56 UNL A   1      17.377  32.412  42.241  1.00  0.00    +0.000 C 
ATOM     80  C57 UNL A   1      16.738  31.309  41.652  1.00  0.00    +0.000 C 
ATOM     81  C58 UNL A   1      16.328  30.233  42.464  1.00  0.00    +0.000 C 
ATOM     82  C59 UNL A   1      16.469  30.360  43.842  1.00  0.00    +0.000 C 
ATOM     83  C60 UNL A   1      17.002  31.502  44.450  1.00  0.00    +0.000 C 
ATOM     84  N7  UNL A   1      16.041  29.182  44.405  1.00  0.00    +0.000 N 
ATOM     85  C61 UNL A   1      15.684  28.275  43.436  1.00  0.00    +0.000 C 
ATOM     86  C62 UNL A   1      15.277  26.941  43.559  1.00  0.00    +0.000 C 
ATOM     87  C63 UNL A   1      14.939  26.263  42.385  1.00  0.00    +0.000 C 
ATOM     88  C64 UNL A   1      15.003  26.902  41.149  1.00  0.00    +0.000 C 
ATOM     89 Cl1  UNL A   1      14.557  26.036  39.728  1.00  0.00    +0.000 Cl
ATOM     90  C65 UNL A   1      15.430  28.228  41.039  1.00  0.00    +0.000 C 
ATOM     91  C66 UNL A   1      15.791  28.930  42.209  1.00  0.00    +0.000 C 
ATOM    124  H33 UNL A   1      17.729  33.172  41.637  1.00  0.00    +0.000 H 
ATOM    125  H34 UNL A   1      16.572  31.286  40.634  1.00  0.00    +0.000 H 
ATOM    126  H35 UNL A   1      16.996  31.605  45.477  1.00  0.00    +0.000 H 
ATOM    127  H36 UNL A   1      15.998  29.009  45.374  1.00  0.00    +0.000 H 
ATOM    128  H37 UNL A   1      15.227  26.478  44.480  1.00  0.00    +0.000 H 
ENDBRANCH    2   78
ENDBRANCH    3    2
ENDBRANCH    5    3
ENDBRANCH    6    5
ENDBRANCH    7    6
ENDBRANCH    8    7
ENDBRANCH    9    8
ENDBRANCH   10    9
ENDBRANCH   11   10
ENDBRANCH   12   11
ENDBRANCH   13   12
ENDBRANCH   15   13
ENDBRANCH   19   18
BRANCH   23   24
ATOM     33  C24 UNL A   1      25.303  43.437  50.893  1.00  0.00    +0.000 C 
ATOM     34  F5  UNL A   1      25.701  42.425  51.678  1.00  0.00    +0.000 F 
ATOM     24  C19 UNL A   1      24.855  43.187  49.587  1.00  0.00    +0.000 C 
ATOM     25  C20 UNL A   1      24.444  44.282  48.813  1.00  0.00    +0.000 C 
ATOM     26  F1  UNL A   1      24.017  44.096  47.554  1.00  0.00    +0.000 F 
ATOM     27  C21 UNL A   1      24.501  45.578  49.318  1.00  0.00    +0.000 C 
ATOM     28  F2  UNL A   1      24.142  46.612  48.544  1.00  0.00    +0.000 F 
ATOM     29  C22 UNL A   1      24.940  45.802  50.614  1.00  0.00    +0.000 C 
ATOM     30  F3  UNL A   1      24.986  47.050  51.101  1.00  0.00    +0.000 F 
ATOM     31  C23 UNL A   1      25.334  44.732  51.404  1.00  0.00    +0.000 C 
ATOM     32  F4  UNL A   1      25.745  44.945  52.662  1.00  0.00    +0.000 F 
ENDBRANCH   23   24
BRANCH   40   41
ATOM     41  C30 UNL A   1      28.941  38.633  45.777  1.00  0.00    +0.000 C 
ATOM     42  C31 UNL A   1      29.212  39.317  44.582  1.00  0.00    +0.000 C 
ATOM     43  F6  UNL A   1      28.231  39.970  43.941  1.00  0.00    +0.000 F 
ATOM     44  C32 UNL A   1      30.486  39.298  44.021  1.00  0.00    +0.000 C 
ATOM     45  F7  UNL A   1      30.711  39.920  42.855  1.00  0.00    +0.000 F 
ATOM     46  C33 UNL A   1      31.518  38.624  44.656  1.00  0.00    +0.000 C 
ATOM     47  F8  UNL A   1      32.744  38.610  44.117  1.00  0.00    +0.000 F 
ATOM     48  C34 UNL A   1      31.277  37.956  45.848  1.00  0.00    +0.000 C 
ATOM     49  F9  UNL A   1      32.274  37.312  46.468  1.00  0.00    +0.000 F 
ATOM     50  C35 UNL A   1      29.998  37.950  46.398  1.00  0.00    +0.000 C 
ATOM     51  F10 UNL A   1      29.791  37.285  47.545  1.00  0.00    +0.000 F 
ENDBRANCH   40   41
BRANCH   55   56
ATOM     65  C44 UNL A   1      23.073  33.678  44.908  1.00  0.00    +0.000 C 
ATOM     66  F15 UNL A   1      22.463  34.695  44.283  1.00  0.00    +0.000 F 
ATOM     56  C39 UNL A   1      23.830  33.915  46.063  1.00  0.00    +0.000 C 
ATOM     57  C40 UNL A   1      24.442  32.815  46.681  1.00  0.00    +0.000 C 
ATOM     58  F11 UNL A   1      25.194  32.997  47.776  1.00  0.00    +0.000 F 
ATOM     59  C41 UNL A   1      24.318  31.532  46.153  1.00  0.00    +0.000 C 
ATOM     60  F12 UNL A   1      24.948  30.505  46.739  1.00  0.00    +0.000 F 
ATOM     61  C42 UNL A   1      23.556  31.320  45.013  1.00  0.00    +0.000 C 
ATOM     62  F13 UNL A   1      23.434  30.085  44.508  1.00  0.00    +0.000 F 
ATOM     63  C43 UNL A   1      22.927  32.390  44.395  1.00  0.00    +0.000 C 
ATOM     64  F14 UNL A   1      22.179  32.187  43.302  1.00  0.00    +0.000 F 
ENDBRANCH   55   56
TORSDOF 17
ENDMDL
MODEL 5
REMARK VINA RESULT:      -8.5     46.422     50.277
ROOT
ATOM     19  C15 UNL A   1      53.511  19.733  11.675  1.00  0.00    +0.000 C 
ATOM     20  C16 UNL A   1      54.867  19.098  11.542  1.00  0.00    +0.000 C 
ATOM     21  N3  UNL A   1      55.853  19.062  12.404  1.00  0.00    +0.000 N 
ATOM     22  C17 UNL A   1      56.858  18.319  11.800  1.00  0.00    +0.000 C 
ATOM     23  C18 UNL A   1      58.100  18.040  12.264  1.00  0.00    +0.000 C 
ATOM     35  C25 UNL A   1      58.619  18.497  13.526  1.00  0.00    +0.000 C 
ATOM     36  C26 UNL A   1      59.886  18.317  14.055  1.00  0.00    +0.000 C 
ATOM     37  C27 UNL A   1      59.919  18.904  15.325  1.00  0.00    +0.000 C 
ATOM     38  C28 UNL A   1      58.686  19.487  15.569  1.00  0.00    +0.000 C 
ATOM     39  N4  UNL A   1      57.898  19.226  14.459  1.00  0.00    +0.000 N 
ATOM     40  C29 UNL A   1      58.257  20.225  16.728  1.00  0.00    +0.000 C 
ATOM     52  C36 UNL A   1      57.029  20.778  16.885  1.00  0.00    +0.000 C 
ATOM     53  N5  UNL A   1      55.951  20.768  16.010  1.00  0.00    +0.000 N 
ATOM     54  C37 UNL A   1      54.990  21.422  16.617  1.00  0.00    +0.000 C 
ATOM     55  C38 UNL A   1      53.605  21.743  16.126  1.00  0.00    +0.000 C 
ATOM     67  C45 UNL A   1      53.232  21.350  14.894  1.00  0.00    +0.000 C 
ATOM     68  C46 UNL A   1      51.929  21.598  14.286  1.00  0.00    +0.000 C 
ATOM     69  C47 UNL A   1      51.896  21.026  13.071  1.00  0.00    +0.000 C 
ATOM     70  C48 UNL A   1      53.190  20.399  12.802  1.00  0.00    +0.000 C 
ATOM     71  N6  UNL A   1      53.923  20.650  13.935  1.00  0.00    +0.000 N 
ATOM     72  C49 UNL A   1      55.345  21.898  17.962  1.00  0.00    +0.000 C 
ATOM     73  C50 UNL A   1      56.609  21.513  18.059  1.00  0.00    +0.000 C 
ATOM     74  C51 UNL A   1      56.348  17.886  10.515  1.00  0.00    +0.000 C 
ATOM     75  C52 UNL A   1      55.145  18.391  10.283  1.00  0.00    +0.000 C 
ATOM    112  H21 UNL A   1      60.671  17.832  13.593  1.00  0.00    +0.000 H 
ATOM    113  H22 UNL A   1      60.725  18.903  15.970  1.00  0.00    +0.000 H 
ATOM    114  H23 UNL A   1      56.963  19.517  14.350  1.00  0.00    +0.000 H 
ATOM    115  H24 UNL A   1      51.156  22.127  14.720  1.00  0.00    +0.000 H 
ATOM    116  H25 UNL A   1      51.086  21.027  12.431  1.00  0.00    +0.000 H 
ATOM    117  H26 UNL A   1      54.856  20.356  14.050  1.00  0.00    +0.000 H 
ATOM    118  H27 UNL A   1      54.761  22.401  18.649  1.00  0.00    +0.000 H 
ATOM    119  H28 UNL A   1      57.217  21.711  18.870  1.00  0.00    +0.000 H 
ATOM    120  H29 UNL A   1      56.855  17.264   9.866  1.00  0.00    +0.000 H 
ATOM    121  H30 UNL A   1      54.556  18.308   9.439  1.00  0.00    +0.000 H 
ENDROOT
BRANCH   19   18
ATOM     76  C53 UNL A   1      51.684  18.433  10.566  1.00  0.00    +0.000 C 
ATOM     77  C54 UNL A   1      50.720  18.281   9.569  1.00  0.00    +0.000 C 
ATOM    110  H19 UNL A   1      51.185  21.180   7.951  1.00  0.00    +0.000 H 
ATOM     15  C11 UNL A   1      50.494  19.310   8.650  1.00  0.00    +0.000 C 
ATOM     16  C12 UNL A   1      51.319  20.440   8.657  1.00  0.00    +0.000 C 
ATOM     17  C13 UNL A   1      52.326  20.565   9.618  1.00  0.00    +0.000 C 
ATOM    111  H20 UNL A   1      52.946  21.389   9.606  1.00  0.00    +0.000 H 
ATOM     18  C14 UNL A   1      52.495  19.578  10.601  1.00  0.00    +0.000 C 
ATOM    122  H31 UNL A   1      51.801  17.699  11.282  1.00  0.00    +0.000 H 
ATOM    123  H32 UNL A   1      50.172  17.407   9.510  1.00  0.00    +0.000 H 
BRANCH   15   13
ATOM     13  C10 UNL A   1      49.432  19.210   7.621  1.00  0.00    +0.000 C 
ATOM     14  O2  UNL A   1      48.383  19.825   7.774  1.00  0.00    +0.000 O 
BRANCH   13   12
ATOM     12  N2  UNL A   1      49.613  18.434   6.501  1.00  0.00    +0.000 N 
ATOM    109  H18 UNL A   1      50.131  18.857   5.778  1.00  0.00    +0.000 H 
BRANCH   12   11
ATOM     11  C9  UNL A   1      49.155  17.082   6.228  1.00  0.00    +0.000 C 
ATOM    108  H17 UNL A   1      49.494  16.453   7.025  1.00  0.00    +0.000 H 
ATOM    107  H16 UNL A   1      49.553  16.767   5.286  1.00  0.00    +0.000 H 
BRANCH   11   10
ATOM    105  H14 UNL A   1      47.356  15.966   6.323  1.00  0.00    +0.000 H 
ATOM     10  C8  UNL A   1      47.630  16.989   6.175  1.00  0.00    +0.000 C 
ATOM    106  H15 UNL A   1      47.268  17.647   6.938  1.00  0.00    +0.000 H 
BRANCH   10    9
ATOM      9  C7  UNL A   1      46.987  17.467   4.866  1.00  0.00    +0.000 C 
ATOM    103  H12 UNL A   1      47.660  17.236   4.066  1.00  0.00    +0.000 H 
ATOM    104  H13 UNL A   1      46.046  16.962   4.803  1.00  0.00    +0.000 H 
BRANCH    9    8
ATOM    101  H10 UNL A   1      46.211  19.257   5.712  1.00  0.00    +0.000 H 
ATOM    102  H11 UNL A   1      47.584  19.467   4.591  1.00  0.00    +0.000 H 
ATOM      8  C6  UNL A   1      46.660  18.964   4.787  1.00  0.00    +0.000 C 
BRANCH    8    7
ATOM     99  H8  UNL A   1      46.259  19.352   2.733  1.00  0.00    +0.000 H 
ATOM    100  H9  UNL A   1      44.917  18.628   3.645  1.00  0.00    +0.000 H 
ATOM      7  C5  UNL A   1      45.708  19.348   3.649  1.00  0.00    +0.000 C 
BRANCH    7    6
ATOM     97  H6  UNL A   1      44.770  20.840   4.855  1.00  0.00    +0.000 H 
ATOM     98  H7  UNL A   1      45.777  21.473   3.558  1.00  0.00    +0.000 H 
ATOM      6  C4  UNL A   1      45.063  20.725   3.832  1.00  0.00    +0.000 C 
BRANCH    6    5
ATOM      5  N1  UNL A   1      43.894  20.871   2.984  1.00  0.00    +0.000 N 
ATOM     96  H5  UNL A   1      43.310  21.633   3.201  1.00  0.00    +0.000 H 
BRANCH    5    3
ATOM      3  C3  UNL A   1      43.486  20.102   1.927  1.00  0.00    +0.000 C 
ATOM      4  O1  UNL A   1      44.048  20.285   0.844  1.00  0.00    +0.000 O 
BRANCH    3    2
ATOM      2  C2  UNL A   1      42.349  19.076   2.097  1.00  0.00    +0.000 C 
ATOM     95  H4  UNL A   1      42.621  18.172   1.596  1.00  0.00    +0.000 H 
BRANCH    2    1
ATOM      1  C1  UNL A   1      42.163  18.763   3.589  1.00  0.00    +0.000 C 
ATOM     92  H1  UNL A   1      41.739  17.786   3.698  1.00  0.00    +0.000 H 
ATOM     93  H2  UNL A   1      41.508  19.487   4.027  1.00  0.00    +0.000 H 
ATOM     94  H3  UNL A   1      43.113  18.797   4.082  1.00  0.00    +0.000 H 
ENDBRANCH    2    1
BRANCH    2   78
ATOM    129  H38 UNL A   1      35.827  24.506  -1.753  1.00  0.00    +0.000 H 
ATOM    130  H39 UNL A   1      35.736  20.892   0.403  1.00  0.00    +0.000 H 
ATOM     78  C55 UNL A   1      41.056  19.541   1.432  1.00  0.00    +0.000 C 
ATOM     79  C56 UNL A   1      39.804  19.035   1.812  1.00  0.00    +0.000 C 
ATOM     80  C57 UNL A   1      38.611  19.577   1.309  1.00  0.00    +0.000 C 
ATOM     81  C58 UNL A   1      38.665  20.705   0.465  1.00  0.00    +0.000 C 
ATOM     82  C59 UNL A   1      39.915  21.169   0.069  1.00  0.00    +0.000 C 
ATOM     83  C60 UNL A   1      41.112  20.568   0.473  1.00  0.00    +0.000 C 
ATOM     84  N7  UNL A   1      39.709  22.284  -0.707  1.00  0.00    +0.000 N 
ATOM     85  C61 UNL A   1      38.372  22.593  -0.777  1.00  0.00    +0.000 C 
ATOM     86  C62 UNL A   1      37.730  23.680  -1.383  1.00  0.00    +0.000 C 
ATOM     87  C63 UNL A   1      36.335  23.718  -1.322  1.00  0.00    +0.000 C 
ATOM     88  C64 UNL A   1      35.622  22.703  -0.688  1.00  0.00    +0.000 C 
ATOM     89 Cl1  UNL A   1      33.901  22.775  -0.655  1.00  0.00    +0.000 Cl
ATOM     90  C65 UNL A   1      36.275  21.633  -0.071  1.00  0.00    +0.000 C 
ATOM     91  C66 UNL A   1      37.685  21.581  -0.105  1.00  0.00    +0.000 C 
ATOM    124  H33 UNL A   1      39.759  18.246   2.476  1.00  0.00    +0.000 H 
ATOM    125  H34 UNL A   1      37.702  19.155   1.555  1.00  0.00    +0.000 H 
ATOM    126  H35 UNL A   1      42.016  20.872   0.078  1.00  0.00    +0.000 H 
ATOM    127  H36 UNL A   1      40.424  22.794  -1.152  1.00  0.00    +0.000 H 
ATOM    128  H37 UNL A   1      38.268  24.424  -1.855  1.00  0.00    +0.000 H 
ENDBRANCH    2   78
ENDBRANCH    3    2
ENDBRANCH    5    3
ENDBRANCH    6    5
ENDBRANCH    7    6
ENDBRANCH    8    7
ENDBRANCH    9    8
ENDBRANCH   10    9
ENDBRANCH   11   10
ENDBRANCH   12   11
ENDBRANCH   13   12
ENDBRANCH   15   13
ENDBRANCH   19   18
BRANCH   23   24
ATOM     33  C24 UNL A   1      59.019  15.807  11.536  1.00  0.00    +0.000 C 
ATOM     34  F5  UNL A   1      58.215  15.202  12.423  1.00  0.00    +0.000 F 
ATOM     24  C19 UNL A   1      58.994  17.204  11.396  1.00  0.00    +0.000 C 
ATOM     25  C20 UNL A   1      59.860  17.785  10.458  1.00  0.00    +0.000 C 
ATOM     26  F1  UNL A   1      59.868  19.114  10.279  1.00  0.00    +0.000 F 
ATOM     27  C21 UNL A   1      60.701  16.997   9.675  1.00  0.00    +0.000 C 
ATOM     28  F2  UNL A   1      61.489  17.573   8.756  1.00  0.00    +0.000 F 
ATOM     29  C22 UNL A   1      60.714  15.620   9.835  1.00  0.00    +0.000 C 
ATOM     30  F3  UNL A   1      61.530  14.865   9.086  1.00  0.00    +0.000 F 
ATOM     31  C23 UNL A   1      59.879  15.026  10.769  1.00  0.00    +0.000 C 
ATOM     32  F4  UNL A   1      59.901  13.696  10.936  1.00  0.00    +0.000 F 
ENDBRANCH   23   24
BRANCH   40   41
ATOM     41  C30 UNL A   1      59.243  20.420  17.841  1.00  0.00    +0.000 C 
ATOM     42  C31 UNL A   1      59.492  19.413  18.786  1.00  0.00    +0.000 C 
ATOM     43  F6  UNL A   1      58.806  18.261  18.741  1.00  0.00    +0.000 F 
ATOM     44  C32 UNL A   1      60.420  19.604  19.806  1.00  0.00    +0.000 C 
ATOM     45  F7  UNL A   1      60.609  18.647  20.725  1.00  0.00    +0.000 F 
ATOM     46  C33 UNL A   1      61.137  20.789  19.883  1.00  0.00    +0.000 C 
ATOM     47  F8  UNL A   1      62.032  20.970  20.864  1.00  0.00    +0.000 F 
ATOM     48  C34 UNL A   1      60.920  21.791  18.949  1.00  0.00    +0.000 C 
ATOM     49  F9  UNL A   1      61.619  22.932  19.016  1.00  0.00    +0.000 F 
ATOM     50  C35 UNL A   1      59.974  21.613  17.943  1.00  0.00    +0.000 C 
ATOM     51  F10 UNL A   1      59.776  22.604  17.060  1.00  0.00    +0.000 F 
ENDBRANCH   40   41
BRANCH   55   56
ATOM     65  C44 UNL A   1      52.504  23.893  16.837  1.00  0.00    +0.000 C 
ATOM     66  F15 UNL A   1      53.225  24.560  15.925  1.00  0.00    +0.000 F 
ATOM     56  C39 UNL A   1      52.658  22.507  16.978  1.00  0.00    +0.000 C 
ATOM     57  C40 UNL A   1      51.884  21.859  17.950  1.00  0.00    +0.000 C 
ATOM     58  F11 UNL A   1      51.982  20.530  18.106  1.00  0.00    +0.000 F 
ATOM     59  C41 UNL A   1      50.977  22.565  18.737  1.00  0.00    +0.000 C 
ATOM     60  F12 UNL A   1      50.219  21.914  19.630  1.00  0.00    +0.000 F 
ATOM     61  C42 UNL A   1      50.847  23.938  18.586  1.00  0.00    +0.000 C 
ATOM     62  F13 UNL A   1      49.978  24.618  19.346  1.00  0.00    +0.000 F 
ATOM     63  C43 UNL A   1      51.616  24.603  17.643  1.00  0.00    +0.000 C 
ATOM     64  F14 UNL A   1      51.504  25.931  17.504  1.00  0.00    +0.000 F 
ENDBRANCH   55   56
TORSDOF 17
ENDMDL
MODEL 6
REMARK VINA RESULT:      -8.4     29.355     37.269
ROOT
ATOM     19  C15 UNL A   1      27.557  24.299 -10.691  1.00  0.00    +0.000 C 
ATOM     20  C16 UNL A   1      26.772  23.091 -11.120  1.00  0.00    +0.000 C 
ATOM     21  N3  UNL A   1      27.173  22.036 -11.787  1.00  0.00    +0.000 N 
ATOM     22  C17 UNL A   1      26.066  21.204 -11.882  1.00  0.00    +0.000 C 
ATOM     23  C18 UNL A   1      25.952  20.016 -12.524  1.00  0.00    +0.000 C 
ATOM     35  C25 UNL A   1      27.016  19.384 -13.259  1.00  0.00    +0.000 C 
ATOM     36  C26 UNL A   1      26.979  18.210 -13.992  1.00  0.00    +0.000 C 
ATOM     37  C27 UNL A   1      28.261  17.970 -14.500  1.00  0.00    +0.000 C 
ATOM     38  C28 UNL A   1      29.085  19.015 -14.119  1.00  0.00    +0.000 C 
ATOM     39  N4  UNL A   1      28.310  19.873 -13.355  1.00  0.00    +0.000 N 
ATOM     40  C29 UNL A   1      30.477  19.218 -14.426  1.00  0.00    +0.000 C 
ATOM     52  C36 UNL A   1      31.214  20.282 -14.022  1.00  0.00    +0.000 C 
ATOM     53  N5  UNL A   1      30.822  21.374 -13.260  1.00  0.00    +0.000 N 
ATOM     54  C37 UNL A   1      31.891  22.121 -13.127  1.00  0.00    +0.000 C 
ATOM     55  C38 UNL A   1      32.044  23.440 -12.421  1.00  0.00    +0.000 C 
ATOM     67  C45 UNL A   1      30.972  24.003 -11.832  1.00  0.00    +0.000 C 
ATOM     68  C46 UNL A   1      30.970  25.278 -11.121  1.00  0.00    +0.000 C 
ATOM     69  C47 UNL A   1      29.743  25.503 -10.626  1.00  0.00    +0.000 C 
ATOM     70  C48 UNL A   1      28.861  24.402 -11.015  1.00  0.00    +0.000 C 
ATOM     71  N6  UNL A   1      29.674  23.563 -11.736  1.00  0.00    +0.000 N 
ATOM     72  C49 UNL A   1      33.092  21.570 -13.771  1.00  0.00    +0.000 C 
ATOM     73  C50 UNL A   1      32.616  20.469 -14.334  1.00  0.00    +0.000 C 
ATOM     74  C51 UNL A   1      24.987  21.856 -11.169  1.00  0.00    +0.000 C 
ATOM     75  C52 UNL A   1      25.354  23.051 -10.731  1.00  0.00    +0.000 C 
ATOM    112  H21 UNL A   1      26.149  17.615 -14.139  1.00  0.00    +0.000 H 
ATOM    113  H22 UNL A   1      28.543  17.152 -15.063  1.00  0.00    +0.000 H 
ATOM    114  H23 UNL A   1      28.630  20.708 -12.942  1.00  0.00    +0.000 H 
ATOM    115  H24 UNL A   1      31.783  25.906 -11.015  1.00  0.00    +0.000 H 
ATOM    116  H25 UNL A   1      29.465  26.321 -10.061  1.00  0.00    +0.000 H 
ATOM    117  H26 UNL A   1      29.358  22.725 -12.145  1.00  0.00    +0.000 H 
ATOM    118  H27 UNL A   1      34.054  21.944 -13.781  1.00  0.00    +0.000 H 
ATOM    119  H28 UNL A   1      33.172  19.827 -14.919  1.00  0.00    +0.000 H 
ATOM    120  H29 UNL A   1      24.052  21.443 -11.021  1.00  0.00    +0.000 H 
ATOM    121  H30 UNL A   1      24.793  23.767 -10.243  1.00  0.00    +0.000 H 
ENDROOT
BRANCH   19   18
ATOM     76  C53 UNL A   1      27.028  25.291  -8.456  1.00  0.00    +0.000 C 
ATOM     77  C54 UNL A   1      26.448  26.280  -7.661  1.00  0.00    +0.000 C 
ATOM    110  H19 UNL A   1      25.207  28.234 -10.087  1.00  0.00    +0.000 H 
ATOM     15  C11 UNL A   1      25.836  27.387  -8.256  1.00  0.00    +0.000 C 
ATOM     16  C12 UNL A   1      25.699  27.441  -9.647  1.00  0.00    +0.000 C 
ATOM     17  C13 UNL A   1      26.227  26.420 -10.441  1.00  0.00    +0.000 C 
ATOM    111  H20 UNL A   1      26.104  26.452 -11.466  1.00  0.00    +0.000 H 
ATOM     18  C14 UNL A   1      26.925  25.352  -9.855  1.00  0.00    +0.000 C 
ATOM    122  H31 UNL A   1      27.536  24.510  -8.013  1.00  0.00    +0.000 H 
ATOM    123  H32 UNL A   1      26.471  26.194  -6.632  1.00  0.00    +0.000 H 
BRANCH   15   13
ATOM     13  C10 UNL A   1      25.270  28.489  -7.443  1.00  0.00    +0.000 C 
ATOM     14  O2  UNL A   1      25.803  29.592  -7.465  1.00  0.00    +0.000 O 
BRANCH   13   12
ATOM     12  N2  UNL A   1      24.156  28.284  -6.663  1.00  0.00    +0.000 N 
ATOM    109  H18 UNL A   1      24.176  28.721  -5.781  1.00  0.00    +0.000 H 
BRANCH   12   11
ATOM     11  C9  UNL A   1      22.955  27.517  -6.948  1.00  0.00    +0.000 C 
ATOM    108  H17 UNL A   1      23.108  26.999  -7.872  1.00  0.00    +0.000 H 
ATOM    107  H16 UNL A   1      22.124  28.188  -7.010  1.00  0.00    +0.000 H 
BRANCH   11   10
ATOM    105  H14 UNL A   1      22.978  26.876  -4.928  1.00  0.00    +0.000 H 
ATOM     10  C8  UNL A   1      22.666  26.474  -5.869  1.00  0.00    +0.000 C 
ATOM    106  H15 UNL A   1      21.615  26.274  -5.926  1.00  0.00    +0.000 H 
BRANCH   10    9
ATOM      9  C7  UNL A   1      23.363  25.119  -6.059  1.00  0.00    +0.000 C 
ATOM    103  H12 UNL A   1      22.624  24.352  -5.947  1.00  0.00    +0.000 H 
ATOM    104  H13 UNL A   1      23.809  25.156  -7.031  1.00  0.00    +0.000 H 
BRANCH    9    8
ATOM    101  H10 UNL A   1      25.433  24.924  -5.615  1.00  0.00    +0.000 H 
ATOM    102  H11 UNL A   1      24.408  25.498  -4.272  1.00  0.00    +0.000 H 
ATOM      8  C6  UNL A   1      24.509  24.813  -5.088  1.00  0.00    +0.000 C 
BRANCH    8    7
ATOM     99  H8  UNL A   1      24.094  23.479  -3.483  1.00  0.00    +0.000 H 
ATOM    100  H9  UNL A   1      23.844  22.810  -5.110  1.00  0.00    +0.000 H 
ATOM      7  C5  UNL A   1      24.470  23.406  -4.481  1.00  0.00    +0.000 C 
BRANCH    7    6
ATOM     97  H6  UNL A   1      26.129  22.592  -3.411  1.00  0.00    +0.000 H 
ATOM     98  H7  UNL A   1      25.767  21.778  -4.928  1.00  0.00    +0.000 H 
ATOM      6  C4  UNL A   1      25.841  22.724  -4.433  1.00  0.00    +0.000 C 
BRANCH    6    5
ATOM      5  N1  UNL A   1      26.846  23.521  -5.111  1.00  0.00    +0.000 N 
ATOM     96  H5  UNL A   1      26.503  24.300  -5.604  1.00  0.00    +0.000 H 
BRANCH    5    3
ATOM      3  C3  UNL A   1      28.204  23.345  -5.164  1.00  0.00    +0.000 C 
ATOM      4  O1  UNL A   1      28.689  22.472  -4.441  1.00  0.00    +0.000 O 
BRANCH    3    2
ATOM      2  C2  UNL A   1      29.073  24.233  -6.075  1.00  0.00    +0.000 C 
ATOM     95  H4  UNL A   1      28.441  24.921  -6.594  1.00  0.00    +0.000 H 
BRANCH    2    1
ATOM      1  C1  UNL A   1      30.056  25.040  -5.214  1.00  0.00    +0.000 C 
ATOM     92  H1  UNL A   1      29.930  24.774  -4.184  1.00  0.00    +0.000 H 
ATOM     93  H2  UNL A   1      29.866  26.085  -5.339  1.00  0.00    +0.000 H 
ATOM     94  H3  UNL A   1      31.059  24.821  -5.518  1.00  0.00    +0.000 H 
ENDBRANCH    2    1
BRANCH    2   78
ATOM    129  H38 UNL A   1      31.587  17.197 -11.644  1.00  0.00    +0.000 H 
ATOM    130  H39 UNL A   1      33.557  20.606 -10.153  1.00  0.00    +0.000 H 
ATOM     78  C55 UNL A   1      29.777  23.423  -7.161  1.00  0.00    +0.000 C 
ATOM     79  C56 UNL A   1      31.154  23.541  -7.399  1.00  0.00    +0.000 C 
ATOM     80  C57 UNL A   1      31.820  22.684  -8.289  1.00  0.00    +0.000 C 
ATOM     81  C58 UNL A   1      31.110  21.629  -8.897  1.00  0.00    +0.000 C 
ATOM     82  C59 UNL A   1      29.738  21.551  -8.679  1.00  0.00    +0.000 C 
ATOM     83  C60 UNL A   1      29.041  22.467  -7.883  1.00  0.00    +0.000 C 
ATOM     84  N7  UNL A   1      29.284  20.433  -9.336  1.00  0.00    +0.000 N 
ATOM     85  C61 UNL A   1      30.324  19.752  -9.922  1.00  0.00    +0.000 C 
ATOM     86  C62 UNL A   1      30.326  18.533 -10.611  1.00  0.00    +0.000 C 
ATOM     87  C63 UNL A   1      31.545  18.093 -11.135  1.00  0.00    +0.000 C 
ATOM     88  C64 UNL A   1      32.703  18.852 -10.977  1.00  0.00    +0.000 C 
ATOM     89 Cl1  UNL A   1      34.181  18.285 -11.657  1.00  0.00    +0.000 Cl
ATOM     90  C65 UNL A   1      32.691  20.058 -10.271  1.00  0.00    +0.000 C 
ATOM     91  C66 UNL A   1      31.475  20.514  -9.719  1.00  0.00    +0.000 C 
ATOM    124  H33 UNL A   1      31.689  24.276  -6.910  1.00  0.00    +0.000 H 
ATOM    125  H34 UNL A   1      32.822  22.822  -8.495  1.00  0.00    +0.000 H 
ATOM    126  H35 UNL A   1      28.011  22.441  -7.827  1.00  0.00    +0.000 H 
ATOM    127  H36 UNL A   1      28.341  20.156  -9.380  1.00  0.00    +0.000 H 
ATOM    128  H37 UNL A   1      29.462  17.981 -10.727  1.00  0.00    +0.000 H 
ENDBRANCH    2   78
ENDBRANCH    3    2
ENDBRANCH    5    3
ENDBRANCH    6    5
ENDBRANCH    7    6
ENDBRANCH    8    7
ENDBRANCH    9    8
ENDBRANCH   10    9
ENDBRANCH   11   10
ENDBRANCH   12   11
ENDBRANCH   13   12
ENDBRANCH   15   13
ENDBRANCH   19   18
BRANCH   23   24
ATOM     33  C24 UNL A   1      24.438  18.210 -11.626  1.00  0.00    +0.000 C 
ATOM     34  F5  UNL A   1      25.436  17.782 -10.839  1.00  0.00    +0.000 F 
ATOM     24  C19 UNL A   1      24.625  19.320 -12.465  1.00  0.00    +0.000 C 
ATOM     25  C20 UNL A   1      23.550  19.720 -13.273  1.00  0.00    +0.000 C 
ATOM     26  F1  UNL A   1      23.674  20.781 -14.085  1.00  0.00    +0.000 F 
ATOM     27  C21 UNL A   1      22.330  19.050 -13.226  1.00  0.00    +0.000 C 
ATOM     28  F2  UNL A   1      21.304  19.477 -13.976  1.00  0.00    +0.000 F 
ATOM     29  C22 UNL A   1      22.171  17.951 -12.395  1.00  0.00    +0.000 C 
ATOM     30  F3  UNL A   1      20.998  17.302 -12.357  1.00  0.00    +0.000 F 
ATOM     31  C23 UNL A   1      23.225  17.527 -11.601  1.00  0.00    +0.000 C 
ATOM     32  F4  UNL A   1      23.078  16.456 -10.808  1.00  0.00    +0.000 F 
ENDBRANCH   23   24
BRANCH   40   41
ATOM     41  C30 UNL A   1      31.165  18.190 -15.274  1.00  0.00    +0.000 C 
ATOM     42  C31 UNL A   1      31.656  16.994 -14.725  1.00  0.00    +0.000 C 
ATOM     43  F6  UNL A   1      31.561  16.769 -13.406  1.00  0.00    +0.000 F 
ATOM     44  C32 UNL A   1      32.282  16.044 -15.527  1.00  0.00    +0.000 C 
ATOM     45  F7  UNL A   1      32.783  14.931 -14.975  1.00  0.00    +0.000 F 
ATOM     46  C33 UNL A   1      32.402  16.255 -16.893  1.00  0.00    +0.000 C 
ATOM     47  F8  UNL A   1      33.001  15.337 -17.664  1.00  0.00    +0.000 F 
ATOM     48  C34 UNL A   1      31.909  17.421 -17.459  1.00  0.00    +0.000 C 
ATOM     49  F9  UNL A   1      32.015  17.622 -18.779  1.00  0.00    +0.000 F 
ATOM     50  C35 UNL A   1      31.306  18.385 -16.656  1.00  0.00    +0.000 C 
ATOM     51  F10 UNL A   1      30.849  19.510 -17.228  1.00  0.00    +0.000 F 
ENDBRANCH   40   41
BRANCH   55   56
ATOM     65  C44 UNL A   1      33.705  25.083 -13.361  1.00  0.00    +0.000 C 
ATOM     66  F15 UNL A   1      32.852  25.373 -14.353  1.00  0.00    +0.000 F 
ATOM     56  C39 UNL A   1      33.357  24.135 -12.389  1.00  0.00    +0.000 C 
ATOM     57  C40 UNL A   1      34.287  23.863 -11.376  1.00  0.00    +0.000 C 
ATOM     58  F11 UNL A   1      33.988  22.980 -10.413  1.00  0.00    +0.000 F 
ATOM     59  C41 UNL A   1      35.511  24.528 -11.327  1.00  0.00    +0.000 C 
ATOM     60  F12 UNL A   1      36.365  24.280 -10.325  1.00  0.00    +0.000 F 
ATOM     61  C42 UNL A   1      35.839  25.455 -12.305  1.00  0.00    +0.000 C 
ATOM     62  F13 UNL A   1      37.017  26.090 -12.260  1.00  0.00    +0.000 F 
ATOM     63  C43 UNL A   1      34.940  25.727 -13.326  1.00  0.00    +0.000 C 
ATOM     64  F14 UNL A   1      35.259  26.612 -14.281  1.00  0.00    +0.000 F 
ENDBRANCH   55   56
TORSDOF 17
ENDMDL
MODEL 7
REMARK VINA RESULT:      -8.3     34.374     38.343
ROOT
ATOM     19  C15 UNL A   1      46.593  51.118  17.986  1.00  0.00    +0.000 C 
ATOM     20  C16 UNL A   1      47.623  50.716  19.004  1.00  0.00    +0.000 C 
ATOM     21  N3  UNL A   1      48.678  51.373  19.420  1.00  0.00    +0.000 N 
ATOM     22  C17 UNL A   1      49.264  50.574  20.392  1.00  0.00    +0.000 C 
ATOM     23  C18 UNL A   1      50.409  50.786  21.085  1.00  0.00    +0.000 C 
ATOM     35  C25 UNL A   1      51.260  51.936  20.919  1.00  0.00    +0.000 C 
ATOM     36  C26 UNL A   1      52.470  52.210  21.533  1.00  0.00    +0.000 C 
ATOM     37  C27 UNL A   1      52.913  53.461  21.091  1.00  0.00    +0.000 C 
ATOM     38  C28 UNL A   1      52.000  53.947  20.169  1.00  0.00    +0.000 C 
ATOM     39  N4  UNL A   1      50.989  53.003  20.077  1.00  0.00    +0.000 N 
ATOM     40  C29 UNL A   1      52.043  55.181  19.428  1.00  0.00    +0.000 C 
ATOM     52  C36 UNL A   1      51.109  55.580  18.530  1.00  0.00    +0.000 C 
ATOM     53  N5  UNL A   1      49.952  54.927  18.128  1.00  0.00    +0.000 N 
ATOM     54  C37 UNL A   1      49.378  55.719  17.255  1.00  0.00    +0.000 C 
ATOM     55  C38 UNL A   1      48.110  55.508  16.474  1.00  0.00    +0.000 C 
ATOM     67  C45 UNL A   1      47.421  54.361  16.628  1.00  0.00    +0.000 C 
ATOM     68  C46 UNL A   1      46.185  54.018  15.933  1.00  0.00    +0.000 C 
ATOM     69  C47 UNL A   1      45.756  52.821  16.365  1.00  0.00    +0.000 C 
ATOM     70  C48 UNL A   1      46.708  52.298  17.345  1.00  0.00    +0.000 C 
ATOM     71  N6  UNL A   1      47.668  53.274  17.432  1.00  0.00    +0.000 N 
ATOM     72  C49 UNL A   1      50.097  56.980  17.025  1.00  0.00    +0.000 C 
ATOM     73  C50 UNL A   1      51.163  56.827  17.797  1.00  0.00    +0.000 C 
ATOM     74  C51 UNL A   1      48.425  49.402  20.536  1.00  0.00    +0.000 C 
ATOM     75  C52 UNL A   1      47.432  49.413  19.660  1.00  0.00    +0.000 C 
ATOM    112  H21 UNL A   1      52.961  51.597  22.202  1.00  0.00    +0.000 H 
ATOM    113  H22 UNL A   1      53.774  53.940  21.398  1.00  0.00    +0.000 H 
ATOM    114  H23 UNL A   1      50.196  53.080  19.498  1.00  0.00    +0.000 H 
ATOM    115  H24 UNL A   1      45.715  54.602  15.223  1.00  0.00    +0.000 H 
ATOM    116  H25 UNL A   1      44.893  52.347  16.056  1.00  0.00    +0.000 H 
ATOM    117  H26 UNL A   1      48.459  53.204  18.014  1.00  0.00    +0.000 H 
ATOM    118  H27 UNL A   1      49.838  57.776  16.421  1.00  0.00    +0.000 H 
ATOM    119  H28 UNL A   1      51.934  57.511  17.867  1.00  0.00    +0.000 H 
ATOM    120  H29 UNL A   1      48.581  48.655  21.232  1.00  0.00    +0.000 H 
ATOM    121  H30 UNL A   1      46.711  48.695  19.484  1.00  0.00    +0.000 H 
ENDROOT
BRANCH   19   18
ATOM     76  C53 UNL A   1      44.264  50.379  18.524  1.00  0.00    +0.000 C 
ATOM     77  C54 UNL A   1      43.145  49.582  18.282  1.00  0.00    +0.000 C 
ATOM    110  H19 UNL A   1      44.282  47.886  15.622  1.00  0.00    +0.000 H 
ATOM     15  C11 UNL A   1      43.127  48.715  17.186  1.00  0.00    +0.000 C 
ATOM     16  C12 UNL A   1      44.276  48.559  16.404  1.00  0.00    +0.000 C 
ATOM     17  C13 UNL A   1      45.419  49.314  16.683  1.00  0.00    +0.000 C 
ATOM    111  H20 UNL A   1      46.273  49.180  16.119  1.00  0.00    +0.000 H 
ATOM     18  C14 UNL A   1      45.412  50.254  17.726  1.00  0.00    +0.000 C 
ATOM    122  H31 UNL A   1      44.248  51.065  19.294  1.00  0.00    +0.000 H 
ATOM    123  H32 UNL A   1      42.329  49.632  18.914  1.00  0.00    +0.000 H 
BRANCH   15   13
ATOM     13  C10 UNL A   1      41.930  47.904  16.859  1.00  0.00    +0.000 C 
ATOM     14  O2  UNL A   1      40.829  48.261  17.261  1.00  0.00    +0.000 O 
BRANCH   13   12
ATOM     12  N2  UNL A   1      42.046  46.755  16.113  1.00  0.00    +0.000 N 
ATOM    109  H18 UNL A   1      42.348  46.887  15.185  1.00  0.00    +0.000 H 
BRANCH   12   11
ATOM     11  C9  UNL A   1      41.789  45.376  16.491  1.00  0.00    +0.000 C 
ATOM    108  H17 UNL A   1      41.298  44.896  15.670  1.00  0.00    +0.000 H 
ATOM    107  H16 UNL A   1      41.178  45.367  17.370  1.00  0.00    +0.000 H 
BRANCH   11   10
ATOM    105  H14 UNL A   1      43.329  44.041  15.906  1.00  0.00    +0.000 H 
ATOM     10  C8  UNL A   1      43.079  44.606  16.779  1.00  0.00    +0.000 C 
ATOM    106  H15 UNL A   1      43.810  45.344  17.040  1.00  0.00    +0.000 H 
BRANCH   10    9
ATOM      9  C7  UNL A   1      43.015  43.638  17.968  1.00  0.00    +0.000 C 
ATOM    103  H12 UNL A   1      43.212  42.652  17.599  1.00  0.00    +0.000 H 
ATOM    104  H13 UNL A   1      43.740  43.992  18.671  1.00  0.00    +0.000 H 
BRANCH    9    8
ATOM    101  H10 UNL A   1      41.121  44.467  18.465  1.00  0.00    +0.000 H 
ATOM    102  H11 UNL A   1      41.201  42.685  18.449  1.00  0.00    +0.000 H 
ATOM      8  C6  UNL A   1      41.684  43.597  18.729  1.00  0.00    +0.000 C 
BRANCH    8    7
ATOM     99  H8  UNL A   1      42.165  44.521  20.585  1.00  0.00    +0.000 H 
ATOM    100  H9  UNL A   1      40.864  43.313  20.653  1.00  0.00    +0.000 H 
ATOM      7  C5  UNL A   1      41.824  43.563  20.255  1.00  0.00    +0.000 C 
BRANCH    7    6
ATOM     97  H6  UNL A   1      42.330  41.544  20.732  1.00  0.00    +0.000 H 
ATOM     98  H7  UNL A   1      43.667  42.507  20.115  1.00  0.00    +0.000 H 
ATOM      6  C4  UNL A   1      42.809  42.501  20.754  1.00  0.00    +0.000 C 
BRANCH    6    5
ATOM      5  N1  UNL A   1      43.242  42.784  22.109  1.00  0.00    +0.000 N 
ATOM     96  H5  UNL A   1      42.582  42.586  22.811  1.00  0.00    +0.000 H 
BRANCH    5    3
ATOM      3  C3  UNL A   1      44.436  43.289  22.553  1.00  0.00    +0.000 C 
ATOM      4  O1  UNL A   1      45.197  42.512  23.134  1.00  0.00    +0.000 O 
BRANCH    3    2
ATOM      2  C2  UNL A   1      44.781  44.776  22.349  1.00  0.00    +0.000 C 
ATOM     95  H4  UNL A   1      43.881  45.350  22.396  1.00  0.00    +0.000 H 
BRANCH    2    1
ATOM      1  C1  UNL A   1      45.710  45.245  23.478  1.00  0.00    +0.000 C 
ATOM     92  H1  UNL A   1      45.329  44.904  24.418  1.00  0.00    +0.000 H 
ATOM     93  H2  UNL A   1      45.761  46.313  23.479  1.00  0.00    +0.000 H 
ATOM     94  H3  UNL A   1      46.690  44.842  23.324  1.00  0.00    +0.000 H 
ENDBRANCH    2    1
BRANCH    2   78
ATOM    129  H38 UNL A   1      50.848  45.947  15.372  1.00  0.00    +0.000 H 
ATOM    130  H39 UNL A   1      47.013  47.467  16.211  1.00  0.00    +0.000 H 
ATOM     78  C55 UNL A   1      45.365  45.043  20.963  1.00  0.00    +0.000 C 
ATOM     79  C56 UNL A   1      44.863  46.052  20.129  1.00  0.00    +0.000 C 
ATOM     80  C57 UNL A   1      45.502  46.395  18.927  1.00  0.00    +0.000 C 
ATOM     81  C58 UNL A   1      46.717  45.768  18.586  1.00  0.00    +0.000 C 
ATOM     82  C59 UNL A   1      47.180  44.743  19.405  1.00  0.00    +0.000 C 
ATOM     83  C60 UNL A   1      46.494  44.315  20.547  1.00  0.00    +0.000 C 
ATOM     84  N7  UNL A   1      48.384  44.325  18.893  1.00  0.00    +0.000 N 
ATOM     85  C61 UNL A   1      48.746  45.083  17.806  1.00  0.00    +0.000 C 
ATOM     86  C62 UNL A   1      49.918  45.056  17.041  1.00  0.00    +0.000 C 
ATOM     87  C63 UNL A   1      49.997  45.934  15.957  1.00  0.00    +0.000 C 
ATOM     88  C64 UNL A   1      48.942  46.791  15.656  1.00  0.00    +0.000 C 
ATOM     89 Cl1  UNL A   1      49.070  47.843  14.297  1.00  0.00    +0.000 Cl
ATOM     90  C65 UNL A   1      47.785  46.822  16.439  1.00  0.00    +0.000 C 
ATOM     91  C66 UNL A   1      47.688  45.955  17.548  1.00  0.00    +0.000 C 
ATOM    124  H33 UNL A   1      44.005  46.554  20.405  1.00  0.00    +0.000 H 
ATOM    125  H34 UNL A   1      45.086  47.100  18.298  1.00  0.00    +0.000 H 
ATOM    126  H35 UNL A   1      46.810  43.485  21.073  1.00  0.00    +0.000 H 
ATOM    127  H36 UNL A   1      48.917  43.582  19.258  1.00  0.00    +0.000 H 
ATOM    128  H37 UNL A   1      50.693  44.413  17.269  1.00  0.00    +0.000 H 
ENDBRANCH    2   78
ENDBRANCH    3    2
ENDBRANCH    5    3
ENDBRANCH    6    5
ENDBRANCH    7    6
ENDBRANCH    8    7
ENDBRANCH    9    8
ENDBRANCH   10    9
ENDBRANCH   11   10
ENDBRANCH   12   11
ENDBRANCH   13   12
ENDBRANCH   15   13
ENDBRANCH   19   18
BRANCH   23   24
ATOM     33  C24 UNL A   1      50.407  49.852  23.428  1.00  0.00    +0.000 C 
ATOM     34  F5  UNL A   1      49.617  50.864  23.817  1.00  0.00    +0.000 F 
ATOM     24  C19 UNL A   1      50.815  49.748  22.089  1.00  0.00    +0.000 C 
ATOM     25  C20 UNL A   1      51.647  48.674  21.739  1.00  0.00    +0.000 C 
ATOM     26  F1  UNL A   1      52.057  48.524  20.470  1.00  0.00    +0.000 F 
ATOM     27  C21 UNL A   1      52.036  47.730  22.686  1.00  0.00    +0.000 C 
ATOM     28  F2  UNL A   1      52.796  46.689  22.318  1.00  0.00    +0.000 F 
ATOM     29  C22 UNL A   1      51.627  47.857  24.004  1.00  0.00    +0.000 C 
ATOM     30  F3  UNL A   1      52.009  46.951  24.916  1.00  0.00    +0.000 F 
ATOM     31  C23 UNL A   1      50.819  48.921  24.377  1.00  0.00    +0.000 C 
ATOM     32  F4  UNL A   1      50.435  49.054  25.655  1.00  0.00    +0.000 F 
ENDBRANCH   23   24
BRANCH   40   41
ATOM     41  C30 UNL A   1      53.217  56.089  19.646  1.00  0.00    +0.000 C 
ATOM     42  C31 UNL A   1      54.389  55.970  18.883  1.00  0.00    +0.000 C 
ATOM     43  F6  UNL A   1      54.500  54.997  17.966  1.00  0.00    +0.000 F 
ATOM     44  C32 UNL A   1      55.466  56.828  19.088  1.00  0.00    +0.000 C 
ATOM     45  F7  UNL A   1      56.592  56.667  18.380  1.00  0.00    +0.000 F 
ATOM     46  C33 UNL A   1      55.382  57.837  20.036  1.00  0.00    +0.000 C 
ATOM     47  F8  UNL A   1      56.418  58.664  20.230  1.00  0.00    +0.000 F 
ATOM     48  C34 UNL A   1      54.227  57.984  20.789  1.00  0.00    +0.000 C 
ATOM     49  F9  UNL A   1      54.140  58.964  21.698  1.00  0.00    +0.000 F 
ATOM     50  C35 UNL A   1      53.157  57.112  20.605  1.00  0.00    +0.000 C 
ATOM     51  F10 UNL A   1      52.058  57.269  21.356  1.00  0.00    +0.000 F 
ENDBRANCH   40   41
BRANCH   55   56
ATOM     65  C44 UNL A   1      47.819  56.404  14.139  1.00  0.00    +0.000 C 
ATOM     66  F15 UNL A   1      48.458  55.331  13.651  1.00  0.00    +0.000 F 
ATOM     56  C39 UNL A   1      47.627  56.539  15.521  1.00  0.00    +0.000 C 
ATOM     57  C40 UNL A   1      46.958  57.683  15.979  1.00  0.00    +0.000 C 
ATOM     58  F11 UNL A   1      46.732  57.844  17.291  1.00  0.00    +0.000 F 
ATOM     59  C41 UNL A   1      46.482  58.643  15.089  1.00  0.00    +0.000 C 
ATOM     60  F12 UNL A   1      45.808  59.705  15.550  1.00  0.00    +0.000 F 
ATOM     61  C42 UNL A   1      46.691  58.492  13.726  1.00  0.00    +0.000 C 
ATOM     62  F13 UNL A   1      46.238  59.418  12.871  1.00  0.00    +0.000 F 
ATOM     63  C43 UNL A   1      47.366  57.378  13.251  1.00  0.00    +0.000 C 
ATOM     64  F14 UNL A   1      47.583  57.236  11.936  1.00  0.00    +0.000 F 
ENDBRANCH   55   56
TORSDOF 17
ENDMDL
MODEL 8
REMARK VINA RESULT:      -8.3     46.142     52.286
ROOT
ATOM     19  C15 UNL A   1       7.075   2.742  26.029  1.00  0.00    +0.000 C 
ATOM     20  C16 UNL A   1       6.345   3.893  25.393  1.00  0.00    +0.000 C 
ATOM     21  N3  UNL A   1       6.581   5.178  25.488  1.00  0.00    +0.000 N 
ATOM     22  C17 UNL A   1       5.642   5.798  24.674  1.00  0.00    +0.000 C 
ATOM     23  C18 UNL A   1       5.437   7.122  24.475  1.00  0.00    +0.000 C 
ATOM     35  C25 UNL A   1       6.194   8.168  25.112  1.00  0.00    +0.000 C 
ATOM     36  C26 UNL A   1       6.021   9.538  25.020  1.00  0.00    +0.000 C 
ATOM     37  C27 UNL A   1       7.016  10.159  25.782  1.00  0.00    +0.000 C 
ATOM     38  C28 UNL A   1       7.783   9.175  26.384  1.00  0.00    +0.000 C 
ATOM     39  N4  UNL A   1       7.271   7.959  25.961  1.00  0.00    +0.000 N 
ATOM     40  C29 UNL A   1       8.902   9.330  27.277  1.00  0.00    +0.000 C 
ATOM     52  C36 UNL A   1       9.596   8.309  27.836  1.00  0.00    +0.000 C 
ATOM     53  N5  UNL A   1       9.402   6.942  27.692  1.00  0.00    +0.000 N 
ATOM     54  C37 UNL A   1      10.331   6.369  28.418  1.00  0.00    +0.000 C 
ATOM     55  C38 UNL A   1      10.581   4.905  28.654  1.00  0.00    +0.000 C 
ATOM     67  C45 UNL A   1       9.767   3.995  28.086  1.00  0.00    +0.000 C 
ATOM     68  C46 UNL A   1       9.884   2.547  28.234  1.00  0.00    +0.000 C 
ATOM     69  C47 UNL A   1       8.934   1.953  27.494  1.00  0.00    +0.000 C 
ATOM     70  C48 UNL A   1       8.119   2.980  26.847  1.00  0.00    +0.000 C 
ATOM     71  N6  UNL A   1       8.681   4.162  27.262  1.00  0.00    +0.000 N 
ATOM     72  C49 UNL A   1      11.239   7.313  29.084  1.00  0.00    +0.000 C 
ATOM     73  C50 UNL A   1      10.724   8.480  28.728  1.00  0.00    +0.000 C 
ATOM     74  C51 UNL A   1       4.860   4.746  24.059  1.00  0.00    +0.000 C 
ATOM     75  C52 UNL A   1       5.214   3.554  24.515  1.00  0.00    +0.000 C 
ATOM    112  H21 UNL A   1       5.284  10.019  24.481  1.00  0.00    +0.000 H 
ATOM    113  H22 UNL A   1       7.155  11.177  25.880  1.00  0.00    +0.000 H 
ATOM    114  H23 UNL A   1       7.619   7.076  26.225  1.00  0.00    +0.000 H 
ATOM    115  H24 UNL A   1      10.585   2.059  28.814  1.00  0.00    +0.000 H 
ATOM    116  H25 UNL A   1       8.801   0.934  27.398  1.00  0.00    +0.000 H 
ATOM    117  H26 UNL A   1       8.338   5.046  26.996  1.00  0.00    +0.000 H 
ATOM    118  H27 UNL A   1      12.063   7.117  29.675  1.00  0.00    +0.000 H 
ATOM    119  H28 UNL A   1      11.081   9.396  29.045  1.00  0.00    +0.000 H 
ATOM    120  H29 UNL A   1       4.121   4.905  23.355  1.00  0.00    +0.000 H 
ATOM    121  H30 UNL A   1       4.805   2.629  24.308  1.00  0.00    +0.000 H 
ENDROOT
BRANCH   19   18
ATOM     76  C53 UNL A   1       7.214   0.717  24.568  1.00  0.00    +0.000 C 
ATOM     77  C54 UNL A   1       6.874  -0.603  24.267  1.00  0.00    +0.000 C 
ATOM    110  H19 UNL A   1       4.917  -1.250  26.911  1.00  0.00    +0.000 H 
ATOM     15  C11 UNL A   1       6.086  -1.342  25.153  1.00  0.00    +0.000 C 
ATOM     16  C12 UNL A   1       5.537  -0.720  26.280  1.00  0.00    +0.000 C 
ATOM     17  C13 UNL A   1       5.829   0.620  26.549  1.00  0.00    +0.000 C 
ATOM    111  H20 UNL A   1       5.404   1.082  27.369  1.00  0.00    +0.000 H 
ATOM     18  C14 UNL A   1       6.696   1.341  25.713  1.00  0.00    +0.000 C 
ATOM    122  H31 UNL A   1       7.851   1.237  23.944  1.00  0.00    +0.000 H 
ATOM    123  H32 UNL A   1       7.206  -1.033  23.389  1.00  0.00    +0.000 H 
BRANCH   15   13
ATOM     13  C10 UNL A   1       5.762  -2.766  24.899  1.00  0.00    +0.000 C 
ATOM     14  O2  UNL A   1       4.632  -3.179  25.129  1.00  0.00    +0.000 O 
BRANCH   13   12
ATOM     12  N2  UNL A   1       6.718  -3.625  24.412  1.00  0.00    +0.000 N 
ATOM    109  H18 UNL A   1       6.802  -3.645  23.431  1.00  0.00    +0.000 H 
BRANCH   12   11
ATOM     11  C9  UNL A   1       7.623  -4.506  25.130  1.00  0.00    +0.000 C 
ATOM    108  H17 UNL A   1       8.291  -4.943  24.416  1.00  0.00    +0.000 H 
ATOM    107  H16 UNL A   1       7.049  -5.254  25.635  1.00  0.00    +0.000 H 
BRANCH   11   10
ATOM    105  H14 UNL A   1       7.809  -3.144  26.743  1.00  0.00    +0.000 H 
ATOM     10  C8  UNL A   1       8.466  -3.753  26.160  1.00  0.00    +0.000 C 
ATOM    106  H15 UNL A   1       8.976  -4.504  26.728  1.00  0.00    +0.000 H 
BRANCH   10    9
ATOM      9  C7  UNL A   1       9.561  -2.848  25.579  1.00  0.00    +0.000 C 
ATOM    103  H12 UNL A   1      10.436  -3.447  25.428  1.00  0.00    +0.000 H 
ATOM    104  H13 UNL A   1       9.152  -2.438  24.679  1.00  0.00    +0.000 H 
BRANCH    9    8
ATOM    101  H10 UNL A   1      10.483  -0.947  25.818  1.00  0.00    +0.000 H 
ATOM    102  H11 UNL A   1       9.054  -1.245  26.845  1.00  0.00    +0.000 H 
ATOM      8  C6  UNL A   1       9.961  -1.643  26.439  1.00  0.00    +0.000 C 
BRANCH    8    7
ATOM     99  H8  UNL A   1      11.048  -1.085  28.182  1.00  0.00    +0.000 H 
ATOM    100  H9  UNL A   1      10.338  -2.714  28.219  1.00  0.00    +0.000 H 
ATOM      7  C5  UNL A   1      10.857  -1.984  27.635  1.00  0.00    +0.000 C 
BRANCH    7    6
ATOM     97  H6  UNL A   1      12.940  -2.329  27.958  1.00  0.00    +0.000 H 
ATOM     98  H7  UNL A   1      12.087  -3.665  27.194  1.00  0.00    +0.000 H 
ATOM      6  C4  UNL A   1      12.201  -2.601  27.234  1.00  0.00    +0.000 C 
BRANCH    6    5
ATOM      5  N1  UNL A   1      12.622  -2.133  25.927  1.00  0.00    +0.000 N 
ATOM     96  H5  UNL A   1      12.215  -2.599  25.162  1.00  0.00    +0.000 H 
BRANCH    5    3
ATOM      3  C3  UNL A   1      13.505  -1.137  25.604  1.00  0.00    +0.000 C 
ATOM      4  O1  UNL A   1      14.608  -1.478  25.169  1.00  0.00    +0.000 O 
BRANCH    3    2
ATOM      2  C2  UNL A   1      13.127   0.342  25.812  1.00  0.00    +0.000 C 
ATOM     95  H4  UNL A   1      12.492   0.419  26.668  1.00  0.00    +0.000 H 
BRANCH    2    1
ATOM      1  C1  UNL A   1      14.397   1.162  26.079  1.00  0.00    +0.000 C 
ATOM     92  H1  UNL A   1      15.132   0.540  26.547  1.00  0.00    +0.000 H 
ATOM     93  H2  UNL A   1      14.163   1.983  26.724  1.00  0.00    +0.000 H 
ATOM     94  H3  UNL A   1      14.783   1.535  25.153  1.00  0.00    +0.000 H 
ENDBRANCH    2    1
BRANCH    2   78
ATOM    129  H38 UNL A   1      10.843   4.404  17.741  1.00  0.00    +0.000 H 
ATOM    130  H39 UNL A   1       8.907   3.959  21.453  1.00  0.00    +0.000 H 
ATOM     78  C55 UNL A   1      12.311   0.893  24.645  1.00  0.00    +0.000 C 
ATOM     79  C56 UNL A   1      11.107   1.584  24.843  1.00  0.00    +0.000 C 
ATOM     80  C57 UNL A   1      10.444   2.222  23.783  1.00  0.00    +0.000 C 
ATOM     81  C58 UNL A   1      11.039   2.237  22.505  1.00  0.00    +0.000 C 
ATOM     82  C59 UNL A   1      12.212   1.514  22.318  1.00  0.00    +0.000 C 
ATOM     83  C60 UNL A   1      12.824   0.781  23.341  1.00  0.00    +0.000 C 
ATOM     84  N7  UNL A   1      12.611   1.714  21.019  1.00  0.00    +0.000 N 
ATOM     85  C61 UNL A   1      11.770   2.590  20.375  1.00  0.00    +0.000 C 
ATOM     86  C62 UNL A   1      11.849   3.131  19.087  1.00  0.00    +0.000 C 
ATOM     87  C63 UNL A   1      10.817   3.982  18.683  1.00  0.00    +0.000 C 
ATOM     88  C64 UNL A   1       9.753   4.266  19.536  1.00  0.00    +0.000 C 
ATOM     89 Cl1  UNL A   1       8.490   5.303  18.992  1.00  0.00    +0.000 Cl
ATOM     90  C65 UNL A   1       9.696   3.734  20.827  1.00  0.00    +0.000 C 
ATOM     91  C66 UNL A   1      10.734   2.884  21.263  1.00  0.00    +0.000 C 
ATOM    124  H33 UNL A   1      10.699   1.625  25.791  1.00  0.00    +0.000 H 
ATOM    125  H34 UNL A   1       9.531   2.677  23.937  1.00  0.00    +0.000 H 
ATOM    126  H35 UNL A   1      13.634   0.173  23.142  1.00  0.00    +0.000 H 
ATOM    127  H36 UNL A   1      13.397   1.289  20.604  1.00  0.00    +0.000 H 
ATOM    128  H37 UNL A   1      12.639   2.910  18.460  1.00  0.00    +0.000 H 
ENDBRANCH    2   78
ENDBRANCH    3    2
ENDBRANCH    5    3
ENDBRANCH    6    5
ENDBRANCH    7    6
ENDBRANCH    8    7
ENDBRANCH    9    8
ENDBRANCH   10    9
ENDBRANCH   11   10
ENDBRANCH   12   11
ENDBRANCH   13   12
ENDBRANCH   15   13
ENDBRANCH   19   18
BRANCH   23   24
ATOM     33  C24 UNL A   1       4.570   7.550  22.146  1.00  0.00    +0.000 C 
ATOM     34  F5  UNL A   1       5.762   7.187  21.649  1.00  0.00    +0.000 F 
ATOM     24  C19 UNL A   1       4.341   7.520  23.531  1.00  0.00    +0.000 C 
ATOM     25  C20 UNL A   1       3.079   7.918  23.996  1.00  0.00    +0.000 C 
ATOM     26  F1  UNL A   1       2.807   7.897  25.310  1.00  0.00    +0.000 F 
ATOM     27  C21 UNL A   1       2.078   8.307  23.109  1.00  0.00    +0.000 C 
ATOM     28  F2  UNL A   1       0.867   8.642  23.575  1.00  0.00    +0.000 F 
ATOM     29  C22 UNL A   1       2.329   8.336  21.746  1.00  0.00    +0.000 C 
ATOM     30  F3  UNL A   1       1.367   8.719  20.894  1.00  0.00    +0.000 F 
ATOM     31  C23 UNL A   1       3.575   7.965  21.265  1.00  0.00    +0.000 C 
ATOM     32  F4  UNL A   1       3.824   8.007  19.948  1.00  0.00    +0.000 F 
ENDBRANCH   23   24
BRANCH   40   41
ATOM     41  C30 UNL A   1       9.324  10.724  27.636  1.00  0.00    +0.000 C 
ATOM     42  C31 UNL A   1      10.422  11.342  27.018  1.00  0.00    +0.000 C 
ATOM     43  F6  UNL A   1      11.154  10.670  26.117  1.00  0.00    +0.000 F 
ATOM     44  C32 UNL A   1      10.794  12.640  27.354  1.00  0.00    +0.000 C 
ATOM     45  F7  UNL A   1      11.873  13.194  26.784  1.00  0.00    +0.000 F 
ATOM     46  C33 UNL A   1      10.061  13.356  28.289  1.00  0.00    +0.000 C 
ATOM     47  F8  UNL A   1      10.418  14.607  28.608  1.00  0.00    +0.000 F 
ATOM     48  C34 UNL A   1       8.962  12.771  28.900  1.00  0.00    +0.000 C 
ATOM     49  F9  UNL A   1       8.246  13.464  29.795  1.00  0.00    +0.000 F 
ATOM     50  C35 UNL A   1       8.602  11.463  28.585  1.00  0.00    +0.000 C 
ATOM     51  F10 UNL A   1       7.542  10.918  29.201  1.00  0.00    +0.000 F 
ENDBRANCH   40   41
BRANCH   55   56
ATOM     65  C44 UNL A   1      11.645   4.605  30.917  1.00  0.00    +0.000 C 
ATOM     66  F15 UNL A   1      10.572   5.168  31.492  1.00  0.00    +0.000 F 
ATOM     56  C39 UNL A   1      11.699   4.458  29.524  1.00  0.00    +0.000 C 
ATOM     57  C40 UNL A   1      12.845   3.868  28.974  1.00  0.00    +0.000 C 
ATOM     58  F11 UNL A   1      12.932   3.687  27.648  1.00  0.00    +0.000 F 
ATOM     59  C41 UNL A   1      13.888   3.426  29.785  1.00  0.00    +0.000 C 
ATOM     60  F12 UNL A   1      14.953   2.828  29.236  1.00  0.00    +0.000 F 
ATOM     61  C42 UNL A   1      13.816   3.591  31.160  1.00  0.00    +0.000 C 
ATOM     62  F13 UNL A   1      14.821   3.170  31.940  1.00  0.00    +0.000 F 
ATOM     63  C43 UNL A   1      12.699   4.187  31.726  1.00  0.00    +0.000 C 
ATOM     64  F14 UNL A   1      12.633   4.361  33.053  1.00  0.00    +0.000 F 
ENDBRANCH   55   56
TORSDOF 17
ENDMDL
MODEL 9
REMARK VINA RESULT:      -8.2     46.131     52.263
ROOT
ATOM     19  C15 UNL A   1       7.032   2.772  25.990  1.00  0.00    +0.000 C 
ATOM     20  C16 UNL A   1       6.308   3.920  25.344  1.00  0.00    +0.000 C 
ATOM     21  N3  UNL A   1       6.544   5.206  25.436  1.00  0.00    +0.000 N 
ATOM     22  C17 UNL A   1       5.611   5.822  24.612  1.00  0.00    +0.000 C 
ATOM     23  C18 UNL A   1       5.408   7.146  24.406  1.00  0.00    +0.000 C 
ATOM     35  C25 UNL A   1       6.160   8.194  25.044  1.00  0.00    +0.000 C 
ATOM     36  C26 UNL A   1       5.988   9.564  24.944  1.00  0.00    +0.000 C 
ATOM     37  C27 UNL A   1       6.978  10.188  25.711  1.00  0.00    +0.000 C 
ATOM     38  C28 UNL A   1       7.740   9.206  26.323  1.00  0.00    +0.000 C 
ATOM     39  N4  UNL A   1       7.230   7.988  25.901  1.00  0.00    +0.000 N 
ATOM     40  C29 UNL A   1       8.853   9.365  27.223  1.00  0.00    +0.000 C 
ATOM     52  C36 UNL A   1       9.542   8.346  27.792  1.00  0.00    +0.000 C 
ATOM     53  N5  UNL A   1       9.348   6.978  27.653  1.00  0.00    +0.000 N 
ATOM     54  C37 UNL A   1      10.272   6.408  28.388  1.00  0.00    +0.000 C 
ATOM     55  C38 UNL A   1      10.519   4.945  28.632  1.00  0.00    +0.000 C 
ATOM     67  C45 UNL A   1       9.710   4.032  28.062  1.00  0.00    +0.000 C 
ATOM     68  C46 UNL A   1       9.825   2.586  28.217  1.00  0.00    +0.000 C 
ATOM     69  C47 UNL A   1       8.881   1.988  27.473  1.00  0.00    +0.000 C 
ATOM     70  C48 UNL A   1       8.071   3.013  26.814  1.00  0.00    +0.000 C 
ATOM     71  N6  UNL A   1       8.630   4.197  27.230  1.00  0.00    +0.000 N 
ATOM     72  C49 UNL A   1      11.175   7.355  29.057  1.00  0.00    +0.000 C 
ATOM     73  C50 UNL A   1      10.663   8.521  28.692  1.00  0.00    +0.000 C 
ATOM     74  C51 UNL A   1       4.832   4.768  23.995  1.00  0.00    +0.000 C 
ATOM     75  C52 UNL A   1       5.183   3.578  24.459  1.00  0.00    +0.000 C 
ATOM    112  H21 UNL A   1       5.256  10.043  24.398  1.00  0.00    +0.000 H 
ATOM    113  H22 UNL A   1       7.116  11.206  25.806  1.00  0.00    +0.000 H 
ATOM    114  H23 UNL A   1       7.576   7.107  26.172  1.00  0.00    +0.000 H 
ATOM    115  H24 UNL A   1      10.521   2.100  28.804  1.00  0.00    +0.000 H 
ATOM    116  H25 UNL A   1       8.748   0.969  27.379  1.00  0.00    +0.000 H 
ATOM    117  H26 UNL A   1       8.289   5.079  26.956  1.00  0.00    +0.000 H 
ATOM    118  H27 UNL A   1      11.994   7.161  29.655  1.00  0.00    +0.000 H 
ATOM    119  H28 UNL A   1      11.018   9.437  29.007  1.00  0.00    +0.000 H 
ATOM    120  H29 UNL A   1       4.099   4.924  23.285  1.00  0.00    +0.000 H 
ATOM    121  H30 UNL A   1       4.776   2.652  24.253  1.00  0.00    +0.000 H 
ENDROOT
BRANCH   19   18
ATOM     76  C53 UNL A   1       7.198   0.734  24.550  1.00  0.00    +0.000 C 
ATOM     77  C54 UNL A   1       6.860  -0.588  24.253  1.00  0.00    +0.000 C 
ATOM    110  H19 UNL A   1       4.838  -1.204  26.855  1.00  0.00    +0.000 H 
ATOM     15  C11 UNL A   1       6.048  -1.316  25.126  1.00  0.00    +0.000 C 
ATOM     16  C12 UNL A   1       5.475  -0.682  26.234  1.00  0.00    +0.000 C 
ATOM     17  C13 UNL A   1       5.765   0.660  26.499  1.00  0.00    +0.000 C 
ATOM    111  H20 UNL A   1       5.323   1.130  27.304  1.00  0.00    +0.000 H 
ATOM     18  C14 UNL A   1       6.655   1.369  25.678  1.00  0.00    +0.000 C 
ATOM    122  H31 UNL A   1       7.852   1.246  23.938  1.00  0.00    +0.000 H 
ATOM    123  H32 UNL A   1       7.211  -1.027  23.386  1.00  0.00    +0.000 H 
BRANCH   15   13
ATOM     13  C10 UNL A   1       5.724  -2.740  24.876  1.00  0.00    +0.000 C 
ATOM     14  O2  UNL A   1       4.584  -3.144  25.070  1.00  0.00    +0.000 O 
BRANCH   13   12
ATOM     12  N2  UNL A   1       6.692  -3.611  24.434  1.00  0.00    +0.000 N 
ATOM    109  H18 UNL A   1       6.775  -3.682  23.455  1.00  0.00    +0.000 H 
BRANCH   12   11
ATOM     11  C9  UNL A   1       7.611  -4.439  25.196  1.00  0.00    +0.000 C 
ATOM    108  H17 UNL A   1       8.302  -4.880  24.508  1.00  0.00    +0.000 H 
ATOM    107  H16 UNL A   1       7.050  -5.185  25.719  1.00  0.00    +0.000 H 
BRANCH   11   10
ATOM    105  H14 UNL A   1       7.735  -2.996  26.744  1.00  0.00    +0.000 H 
ATOM     10  C8  UNL A   1       8.415  -3.626  26.211  1.00  0.00    +0.000 C 
ATOM    106  H15 UNL A   1       8.917  -4.341  26.830  1.00  0.00    +0.000 H 
BRANCH   10    9
ATOM      9  C7  UNL A   1       9.517  -2.737  25.617  1.00  0.00    +0.000 C 
ATOM    103  H12 UNL A   1      10.340  -3.369  25.352  1.00  0.00    +0.000 H 
ATOM    104  H13 UNL A   1       9.068  -2.234  24.786  1.00  0.00    +0.000 H 
BRANCH    9    8
ATOM    101  H10 UNL A   1      10.690  -0.996  25.955  1.00  0.00    +0.000 H 
ATOM    102  H11 UNL A   1       9.197  -1.119  26.924  1.00  0.00    +0.000 H 
ATOM      8  C6  UNL A   1      10.052  -1.630  26.533  1.00  0.00    +0.000 C 
BRANCH    8    7
ATOM     99  H8  UNL A   1      10.866  -1.360  28.481  1.00  0.00    +0.000 H 
ATOM    100  H9  UNL A   1      10.357  -3.018  28.094  1.00  0.00    +0.000 H 
ATOM      7  C5  UNL A   1      10.846  -2.134  27.743  1.00  0.00    +0.000 C 
BRANCH    7    6
ATOM     97  H6  UNL A   1      12.946  -2.067  28.121  1.00  0.00    +0.000 H 
ATOM     98  H7  UNL A   1      12.373  -3.586  27.445  1.00  0.00    +0.000 H 
ATOM      6  C4  UNL A   1      12.290  -2.520  27.408  1.00  0.00    +0.000 C 
BRANCH    6    5
ATOM      5  N1  UNL A   1      12.655  -2.075  26.076  1.00  0.00    +0.000 N 
ATOM     96  H5  UNL A   1      12.226  -2.562  25.338  1.00  0.00    +0.000 H 
BRANCH    5    3
ATOM      3  C3  UNL A   1      13.510  -1.073  25.699  1.00  0.00    +0.000 C 
ATOM      4  O1  UNL A   1      14.604  -1.408  25.237  1.00  0.00    +0.000 O 
BRANCH    3    2
ATOM      2  C2  UNL A   1      13.115   0.405  25.882  1.00  0.00    +0.000 C 
ATOM     95  H4  UNL A   1      12.472   0.488  26.732  1.00  0.00    +0.000 H 
BRANCH    2    1
ATOM      1  C1  UNL A   1      14.375   1.242  26.147  1.00  0.00    +0.000 C 
ATOM     92  H1  UNL A   1      14.610   1.212  27.191  1.00  0.00    +0.000 H 
ATOM     93  H2  UNL A   1      14.200   2.254  25.850  1.00  0.00    +0.000 H 
ATOM     94  H3  UNL A   1      15.194   0.841  25.586  1.00  0.00    +0.000 H 
ENDBRANCH    2    1
BRANCH    2   78
ATOM    129  H38 UNL A   1      10.855   4.320  17.733  1.00  0.00    +0.000 H 
ATOM    130  H39 UNL A   1       8.894   3.912  21.436  1.00  0.00    +0.000 H 
ATOM     78  C55 UNL A   1      12.303   0.929  24.701  1.00  0.00    +0.000 C 
ATOM     79  C56 UNL A   1      11.091   1.611  24.879  1.00  0.00    +0.000 C 
ATOM     80  C57 UNL A   1      10.430   2.226  23.804  1.00  0.00    +0.000 C 
ATOM     81  C58 UNL A   1      11.034   2.228  22.531  1.00  0.00    +0.000 C 
ATOM     82  C59 UNL A   1      12.217   1.514  22.364  1.00  0.00    +0.000 C 
ATOM     83  C60 UNL A   1      12.828   0.803  23.402  1.00  0.00    +0.000 C 
ATOM     84  N7  UNL A   1      12.624   1.699  21.065  1.00  0.00    +0.000 N 
ATOM     85  C61 UNL A   1      11.779   2.556  20.402  1.00  0.00    +0.000 C 
ATOM     86  C62 UNL A   1      11.863   3.078  19.106  1.00  0.00    +0.000 C 
ATOM     87  C63 UNL A   1      10.826   3.912  18.681  1.00  0.00    +0.000 C 
ATOM     88  C64 UNL A   1       9.752   4.198  19.521  1.00  0.00    +0.000 C 
ATOM     89 Cl1  UNL A   1       8.483   5.214  18.951  1.00  0.00    +0.000 Cl
ATOM     90  C65 UNL A   1       9.690   3.685  20.820  1.00  0.00    +0.000 C 
ATOM     91  C66 UNL A   1      10.734   2.853  21.277  1.00  0.00    +0.000 C 
ATOM    124  H33 UNL A   1      10.675   1.662  25.822  1.00  0.00    +0.000 H 
ATOM    125  H34 UNL A   1       9.511   2.674  23.944  1.00  0.00    +0.000 H 
ATOM    126  H35 UNL A   1      13.646   0.200  23.220  1.00  0.00    +0.000 H 
ATOM    127  H36 UNL A   1      13.417   1.275  20.663  1.00  0.00    +0.000 H 
ATOM    128  H37 UNL A   1      12.660   2.855  18.489  1.00  0.00    +0.000 H 
ENDBRANCH    2   78
ENDBRANCH    3    2
ENDBRANCH    5    3
ENDBRANCH    6    5
ENDBRANCH    7    6
ENDBRANCH    8    7
ENDBRANCH    9    8
ENDBRANCH   10    9
ENDBRANCH   11   10
ENDBRANCH   12   11
ENDBRANCH   13   12
ENDBRANCH   15   13
ENDBRANCH   19   18
BRANCH   23   24
ATOM     33  C24 UNL A   1       3.054   7.916  23.930  1.00  0.00    +0.000 C 
ATOM     34  F5  UNL A   1       2.816   7.962  25.249  1.00  0.00    +0.000 F 
ATOM     24  C19 UNL A   1       4.319   7.540  23.452  1.00  0.00    +0.000 C 
ATOM     25  C20 UNL A   1       4.510   7.502  22.063  1.00  0.00    +0.000 C 
ATOM     26  F1  UNL A   1       5.704   7.159  21.555  1.00  0.00    +0.000 F 
ATOM     27  C21 UNL A   1       3.484   7.849  21.188  1.00  0.00    +0.000 C 
ATOM     28  F2  UNL A   1       3.704   7.845  19.866  1.00  0.00    +0.000 F 
ATOM     29  C22 UNL A   1       2.240   8.210  21.683  1.00  0.00    +0.000 C 
ATOM     30  F3  UNL A   1       1.250   8.535  20.838  1.00  0.00    +0.000 F 
ATOM     31  C23 UNL A   1       2.022   8.237  23.052  1.00  0.00    +0.000 C 
ATOM     32  F4  UNL A   1       0.816   8.571  23.531  1.00  0.00    +0.000 F 
ENDBRANCH   23   24
BRANCH   40   41
ATOM     41  C30 UNL A   1       9.272  10.760  27.581  1.00  0.00    +0.000 C 
ATOM     42  C31 UNL A   1       8.589  11.506  28.553  1.00  0.00    +0.000 C 
ATOM     43  F6  UNL A   1       7.503  10.997  29.153  1.00  0.00    +0.000 F 
ATOM     44  C32 UNL A   1       8.998  12.796  28.882  1.00  0.00    +0.000 C 
ATOM     45  F7  UNL A   1       8.303  13.508  29.780  1.00  0.00    +0.000 F 
ATOM     46  C33 UNL A   1      10.112  13.351  28.270  1.00  0.00    +0.000 C 
ATOM     47  F8  UNL A   1      10.506  14.591  28.591  1.00  0.00    +0.000 F 
ATOM     48  C34 UNL A   1      10.813  12.624  27.319  1.00  0.00    +0.000 C 
ATOM     49  F9  UNL A   1      11.895  13.155  26.735  1.00  0.00    +0.000 F 
ATOM     50  C35 UNL A   1      10.392  11.345  26.969  1.00  0.00    +0.000 C 
ATOM     51  F10 UNL A   1      11.081  10.670  26.036  1.00  0.00    +0.000 F 
ENDBRANCH   40   41
BRANCH   55   56
ATOM     65  C44 UNL A   1      11.557   4.634  30.906  1.00  0.00    +0.000 C 
ATOM     66  F15 UNL A   1      10.470   5.179  31.472  1.00  0.00    +0.000 F 
ATOM     56  C39 UNL A   1      11.631   4.501  29.512  1.00  0.00    +0.000 C 
ATOM     57  C40 UNL A   1      12.791   3.930  28.971  1.00  0.00    +0.000 C 
ATOM     58  F11 UNL A   1      12.897   3.763  27.645  1.00  0.00    +0.000 F 
ATOM     59  C41 UNL A   1      13.827   3.491  29.792  1.00  0.00    +0.000 C 
ATOM     60  F12 UNL A   1      14.907   2.910  29.251  1.00  0.00    +0.000 F 
ATOM     61  C42 UNL A   1      13.736   3.641  31.168  1.00  0.00    +0.000 C 
ATOM     62  F13 UNL A   1      14.735   3.222  31.956  1.00  0.00    +0.000 F 
ATOM     63  C43 UNL A   1      12.605   4.219  31.724  1.00  0.00    +0.000 C 
ATOM     64  F14 UNL A   1      12.519   4.378  33.052  1.00  0.00    +0.000 F 
ENDBRANCH   55   56
TORSDOF 17
ENDMDL
MODEL 10
REMARK VINA RESULT:      -8.2     27.758     33.295
ROOT
ATOM     19  C15 UNL A   1      20.213  19.174   5.267  1.00  0.00    +0.000 C 
ATOM     20  C16 UNL A   1      19.145  18.819   6.263  1.00  0.00    +0.000 C 
ATOM     21  N3  UNL A   1      17.878  19.154   6.275  1.00  0.00    +0.000 N 
ATOM     22  C17 UNL A   1      17.331  18.531   7.389  1.00  0.00    +0.000 C 
ATOM     23  C18 UNL A   1      16.065  18.610   7.866  1.00  0.00    +0.000 C 
ATOM     35  C25 UNL A   1      15.019  19.399   7.272  1.00  0.00    +0.000 C 
ATOM     36  C26 UNL A   1      13.722  19.589   7.717  1.00  0.00    +0.000 C 
ATOM     37  C27 UNL A   1      13.056  20.404   6.795  1.00  0.00    +0.000 C 
ATOM     38  C28 UNL A   1      13.950  20.756   5.798  1.00  0.00    +0.000 C 
ATOM     39  N4  UNL A   1      15.149  20.129   6.100  1.00  0.00    +0.000 N 
ATOM     40  C29 UNL A   1      13.730  21.599   4.651  1.00  0.00    +0.000 C 
ATOM     52  C36 UNL A   1      14.667  21.907   3.722  1.00  0.00    +0.000 C 
ATOM     53  N5  UNL A   1      15.995  21.506   3.658  1.00  0.00    +0.000 N 
ATOM     54  C37 UNL A   1      16.483  22.052   2.571  1.00  0.00    +0.000 C 
ATOM     55  C38 UNL A   1      17.880  21.979   2.019  1.00  0.00    +0.000 C 
ATOM     67  C45 UNL A   1      18.821  21.288   2.689  1.00  0.00    +0.000 C 
ATOM     68  C46 UNL A   1      20.214  21.139   2.278  1.00  0.00    +0.000 C 
ATOM     69  C47 UNL A   1      20.849  20.349   3.159  1.00  0.00    +0.000 C 
ATOM     70  C48 UNL A   1      19.915  19.963   4.216  1.00  0.00    +0.000 C 
ATOM     71  N6  UNL A   1      18.738  20.574   3.860  1.00  0.00    +0.000 N 
ATOM     72  C49 UNL A   1      15.507  22.841   1.806  1.00  0.00    +0.000 C 
ATOM     73  C50 UNL A   1      14.429  22.752   2.570  1.00  0.00    +0.000 C 
ATOM     74  C51 UNL A   1      18.393  17.763   8.006  1.00  0.00    +0.000 C 
ATOM     75  C52 UNL A   1      19.547  17.954   7.384  1.00  0.00    +0.000 C 
ATOM    112  H21 UNL A   1      13.316  19.198   8.581  1.00  0.00    +0.000 H 
ATOM    113  H22 UNL A   1      12.067  20.694   6.849  1.00  0.00    +0.000 H 
ATOM    114  H23 UNL A   1      15.972  20.194   5.563  1.00  0.00    +0.000 H 
ATOM    115  H24 UNL A   1      20.642  21.571   1.444  1.00  0.00    +0.000 H 
ATOM    116  H25 UNL A   1      21.838  20.060   3.099  1.00  0.00    +0.000 H 
ATOM    117  H26 UNL A   1      17.912  20.506   4.392  1.00  0.00    +0.000 H 
ATOM    118  H27 UNL A   1      15.631  23.335   0.908  1.00  0.00    +0.000 H 
ATOM    119  H28 UNL A   1      13.533  23.223   2.371  1.00  0.00    +0.000 H 
ATOM    120  H29 UNL A   1      18.266  17.146   8.824  1.00  0.00    +0.000 H 
ATOM    121  H30 UNL A   1      20.483  17.591   7.622  1.00  0.00    +0.000 H 
ENDROOT
BRANCH   19   18
ATOM     76  C53 UNL A   1      22.474  19.139   6.336  1.00  0.00    +0.000 C 
ATOM     77  C54 UNL A   1      23.758  18.608   6.471  1.00  0.00    +0.000 C 
ATOM    110  H19 UNL A   1      23.554  16.168   4.181  1.00  0.00    +0.000 H 
ATOM     15  C11 UNL A   1      24.132  17.485   5.729  1.00  0.00    +0.000 C 
ATOM     16  C12 UNL A   1      23.262  16.968   4.763  1.00  0.00    +0.000 C 
ATOM     17  C13 UNL A   1      21.998  17.538   4.585  1.00  0.00    +0.000 C 
ATOM    111  H20 UNL A   1      21.368  17.169   3.856  1.00  0.00    +0.000 H 
ATOM     18  C14 UNL A   1      21.581  18.608   5.393  1.00  0.00    +0.000 C 
ATOM    122  H31 UNL A   1      22.180  19.927   6.934  1.00  0.00    +0.000 H 
ATOM    123  H32 UNL A   1      24.431  19.046   7.121  1.00  0.00    +0.000 H 
BRANCH   15   13
ATOM     13  C10 UNL A   1      25.463  16.854   5.897  1.00  0.00    +0.000 C 
ATOM     14  O2  UNL A   1      25.575  15.639   5.782  1.00  0.00    +0.000 O 
BRANCH   13   12
ATOM     12  N2  UNL A   1      26.569  17.619   6.183  1.00  0.00    +0.000 N 
ATOM    109  H18 UNL A   1      27.028  17.999   5.400  1.00  0.00    +0.000 H 
BRANCH   12   11
ATOM     11  C9  UNL A   1      27.159  17.949   7.469  1.00  0.00    +0.000 C 
ATOM    108  H17 UNL A   1      27.215  19.015   7.540  1.00  0.00    +0.000 H 
ATOM    107  H16 UNL A   1      28.129  17.502   7.529  1.00  0.00    +0.000 H 
BRANCH   11   10
ATOM    105  H14 UNL A   1      25.354  17.164   8.257  1.00  0.00    +0.000 H 
ATOM     10  C8  UNL A   1      26.313  17.446   8.639  1.00  0.00    +0.000 C 
ATOM    106  H15 UNL A   1      26.860  16.633   9.071  1.00  0.00    +0.000 H 
BRANCH   10    9
ATOM      9  C7  UNL A   1      26.092  18.456   9.774  1.00  0.00    +0.000 C 
ATOM    103  H12 UNL A   1      25.371  19.172   9.439  1.00  0.00    +0.000 H 
ATOM    104  H13 UNL A   1      25.775  17.880  10.618  1.00  0.00    +0.000 H 
BRANCH    9    8
ATOM    101  H10 UNL A   1      27.756  18.704  11.074  1.00  0.00    +0.000 H 
ATOM    102  H11 UNL A   1      27.997  19.268   9.399  1.00  0.00    +0.000 H 
ATOM      8  C6  UNL A   1      27.336  19.223  10.239  1.00  0.00    +0.000 C 
BRANCH    8    7
ATOM     99  H8  UNL A   1      28.009  21.169  10.776  1.00  0.00    +0.000 H 
ATOM    100  H9  UNL A   1      26.467  21.115   9.895  1.00  0.00    +0.000 H 
ATOM      7  C5  UNL A   1      27.069  20.672  10.659  1.00  0.00    +0.000 C 
BRANCH    7    6
ATOM     97  H6  UNL A   1      26.357  19.867  12.504  1.00  0.00    +0.000 H 
ATOM     98  H7  UNL A   1      26.719  21.588  12.549  1.00  0.00    +0.000 H 
ATOM      6  C4  UNL A   1      26.291  20.793  11.973  1.00  0.00    +0.000 C 
BRANCH    6    5
ATOM      5  N1  UNL A   1      24.895  21.102  11.727  1.00  0.00    +0.000 N 
ATOM     96  H5  UNL A   1      24.713  21.594  10.895  1.00  0.00    +0.000 H 
BRANCH    5    3
ATOM      3  C3  UNL A   1      23.793  20.808  12.487  1.00  0.00    +0.000 C 
ATOM      4  O1  UNL A   1      22.990  21.720  12.694  1.00  0.00    +0.000 O 
BRANCH    3    2
ATOM      2  C2  UNL A   1      23.601  19.396  13.074  1.00  0.00    +0.000 C 
ATOM     95  H4  UNL A   1      24.547  19.031  13.414  1.00  0.00    +0.000 H 
BRANCH    2    1
ATOM      1  C1  UNL A   1      22.652  19.468  14.278  1.00  0.00    +0.000 C 
ATOM     92  H1  UNL A   1      21.858  20.155  14.067  1.00  0.00    +0.000 H 
ATOM     93  H2  UNL A   1      23.192  19.801  15.140  1.00  0.00    +0.000 H 
ATOM     94  H3  UNL A   1      22.242  18.498  14.468  1.00  0.00    +0.000 H 
ENDBRANCH    2    1
BRANCH    2   78
ATOM    129  H38 UNL A   1      23.496  12.346   6.980  1.00  0.00    +0.000 H 
ATOM    130  H39 UNL A   1      21.454  16.017   7.255  1.00  0.00    +0.000 H 
ATOM     78  C55 UNL A   1      23.132  18.398  12.019  1.00  0.00    +0.000 C 
ATOM     79  C56 UNL A   1      22.334  18.787  10.933  1.00  0.00    +0.000 C 
ATOM     80  C57 UNL A   1      22.037  17.900   9.886  1.00  0.00    +0.000 C 
ATOM     81  C58 UNL A   1      22.615  16.615   9.883  1.00  0.00    +0.000 C 
ATOM     82  C59 UNL A   1      23.372  16.233  10.987  1.00  0.00    +0.000 C 
ATOM     83  C60 UNL A   1      23.583  17.068  12.089  1.00  0.00    +0.000 C 
ATOM     84  N7  UNL A   1      23.854  14.972  10.733  1.00  0.00    +0.000 N 
ATOM     85  C61 UNL A   1      23.485  14.547   9.479  1.00  0.00    +0.000 C 
ATOM     86  C62 UNL A   1      23.824  13.377   8.789  1.00  0.00    +0.000 C 
ATOM     87  C63 UNL A   1      23.266  13.194   7.521  1.00  0.00    +0.000 C 
ATOM     88  C64 UNL A   1      22.403  14.144   6.980  1.00  0.00    +0.000 C 
ATOM     89 Cl1  UNL A   1      21.719  13.871   5.422  1.00  0.00    +0.000 Cl
ATOM     90  C65 UNL A   1      22.088  15.317   7.670  1.00  0.00    +0.000 C 
ATOM     91  C66 UNL A   1      22.651  15.531   8.946  1.00  0.00    +0.000 C 
ATOM    124  H33 UNL A   1      21.957  19.747  10.903  1.00  0.00    +0.000 H 
ATOM    125  H34 UNL A   1      21.402  18.186   9.125  1.00  0.00    +0.000 H 
ATOM    126  H35 UNL A   1      24.060  16.716  12.934  1.00  0.00    +0.000 H 
ATOM    127  H36 UNL A   1      24.393  14.442  11.365  1.00  0.00    +0.000 H 
ATOM    128  H37 UNL A   1      24.460  12.677   9.202  1.00  0.00    +0.000 H 
ENDBRANCH    2   78
ENDBRANCH    3    2
ENDBRANCH    5    3
ENDBRANCH    6    5
ENDBRANCH    7    6
ENDBRANCH    8    7
ENDBRANCH    9    8
ENDBRANCH   10    9
ENDBRANCH   11   10
ENDBRANCH   12   11
ENDBRANCH   13   12
ENDBRANCH   15   13
ENDBRANCH   19   18
BRANCH   23   24
ATOM     33  C24 UNL A   1      15.688  18.457  10.355  1.00  0.00    +0.000 C 
ATOM     34  F5  UNL A   1      15.892  19.779  10.455  1.00  0.00    +0.000 F 
ATOM     24  C19 UNL A   1      15.740  17.825   9.103  1.00  0.00    +0.000 C 
ATOM     25  C20 UNL A   1      15.526  16.440   9.058  1.00  0.00    +0.000 C 
ATOM     26  F1  UNL A   1      15.556  15.790   7.884  1.00  0.00    +0.000 F 
ATOM     27  C21 UNL A   1      15.248  15.719  10.217  1.00  0.00    +0.000 C 
ATOM     28  F2  UNL A   1      15.005  14.403  10.143  1.00  0.00    +0.000 F 
ATOM     29  C22 UNL A   1      15.209  16.363  11.444  1.00  0.00    +0.000 C 
ATOM     30  F3  UNL A   1      14.949  15.666  12.560  1.00  0.00    +0.000 F 
ATOM     31  C23 UNL A   1      15.435  17.729  11.515  1.00  0.00    +0.000 C 
ATOM     32  F4  UNL A   1      15.412  18.351  12.703  1.00  0.00    +0.000 F 
ENDBRANCH   23   24
BRANCH   40   41
ATOM     41  C30 UNL A   1      12.368  22.205   4.477  1.00  0.00    +0.000 C 
ATOM     42  C31 UNL A   1      12.062  23.480   4.976  1.00  0.00    +0.000 C 
ATOM     43  F6  UNL A   1      12.979  24.170   5.671  1.00  0.00    +0.000 F 
ATOM     44  C32 UNL A   1      10.798  24.033   4.797  1.00  0.00    +0.000 C 
ATOM     45  F7  UNL A   1      10.513  25.233   5.321  1.00  0.00    +0.000 F 
ATOM     46  C33 UNL A   1       9.827  23.338   4.091  1.00  0.00    +0.000 C 
ATOM     47  F8  UNL A   1       8.611  23.874   3.916  1.00  0.00    +0.000 F 
ATOM     48  C34 UNL A   1      10.113  22.084   3.574  1.00  0.00    +0.000 C 
ATOM     49  F9  UNL A   1       9.180  21.415   2.883  1.00  0.00    +0.000 F 
ATOM     50  C35 UNL A   1      11.368  21.516   3.774  1.00  0.00    +0.000 C 
ATOM     51  F10 UNL A   1      11.613  20.296   3.273  1.00  0.00    +0.000 F 
ENDBRANCH   40   41
BRANCH   55   56
ATOM     65  C44 UNL A   1      18.634  24.024   0.757  1.00  0.00    +0.000 C 
ATOM     66  F15 UNL A   1      18.695  24.708   1.909  1.00  0.00    +0.000 F 
ATOM     56  C39 UNL A   1      18.234  22.681   0.758  1.00  0.00    +0.000 C 
ATOM     57  C40 UNL A   1      18.182  22.014  -0.474  1.00  0.00    +0.000 C 
ATOM     58  F11 UNL A   1      17.826  20.721  -0.519  1.00  0.00    +0.000 F 
ATOM     59  C41 UNL A   1      18.534  22.659  -1.657  1.00  0.00    +0.000 C 
ATOM     60  F12 UNL A   1      18.516  21.985  -2.815  1.00  0.00    +0.000 F 
ATOM     61  C42 UNL A   1      18.918  23.991  -1.635  1.00  0.00    +0.000 C 
ATOM     62  F13 UNL A   1      19.252  24.613  -2.773  1.00  0.00    +0.000 F 
ATOM     63  C43 UNL A   1      18.960  24.676  -0.430  1.00  0.00    +0.000 C 
ATOM     64  F14 UNL A   1      19.317  25.968  -0.406  1.00  0.00    +0.000 F 
ENDBRANCH   55   56
TORSDOF 17
ENDMDL
