MODEL 1
REMARK VINA RESULT:      -7.2      0.000      0.000
ROOT
ATOM    140  H46 UNL A   1      17.540  15.249   9.160  1.00  0.00    +0.000 H 
ATOM    141  H47 UNL A   1      19.735  15.024   7.772  1.00  0.00    +0.000 H 
ATOM    142  H48 UNL A   1      17.889  18.578   6.722  1.00  0.00    +0.000 H 
ATOM    143  H49 UNL A   1      17.679  23.814   3.076  1.00  0.00    +0.000 H 
ATOM    144  H50 UNL A   1      15.583  24.064   4.488  1.00  0.00    +0.000 H 
ATOM    145  H51 UNL A   1      17.463  20.535   5.622  1.00  0.00    +0.000 H 
ATOM    146  H52 UNL A   1      21.621  20.212   2.829  1.00  0.00    +0.000 H 
ATOM    147  H53 UNL A   1      21.973  17.896   3.858  1.00  0.00    +0.000 H 
ATOM    148  H54 UNL A   1      13.858  19.128   9.648  1.00  0.00    +0.000 H 
ATOM    149  H55 UNL A   1      13.191  21.178   8.269  1.00  0.00    +0.000 H 
ATOM     36  C31 UNL A   1      15.112  21.903   6.286  1.00  0.00    +0.000 C 
ATOM     37  C32 UNL A   1      15.134  20.709   7.197  1.00  0.00    +0.000 C 
ATOM     38  N3  UNL A   1      16.022  19.750   7.282  1.00  0.00    +0.000 N 
ATOM     39  C33 UNL A   1      15.576  18.906   8.289  1.00  0.00    +0.000 C 
ATOM     40  C34 UNL A   1      16.100  17.726   8.698  1.00  0.00    +0.000 C 
ATOM     52  C41 UNL A   1      17.295  17.138   8.149  1.00  0.00    +0.000 C 
ATOM     53  C42 UNL A   1      17.895  15.933   8.475  1.00  0.00    +0.000 C 
ATOM     54  C43 UNL A   1      19.062  15.804   7.715  1.00  0.00    +0.000 C 
ATOM     55  C44 UNL A   1      19.160  16.900   6.874  1.00  0.00    +0.000 C 
ATOM     56  N4  UNL A   1      18.077  17.716   7.159  1.00  0.00    +0.000 N 
ATOM     57  C45 UNL A   1      20.167  17.181   5.881  1.00  0.00    +0.000 C 
ATOM     69  C52 UNL A   1      20.189  18.281   5.088  1.00  0.00    +0.000 C 
ATOM     70  N5  UNL A   1      19.305  19.352   5.051  1.00  0.00    +0.000 N 
ATOM     71  C53 UNL A   1      19.778  20.177   4.147  1.00  0.00    +0.000 C 
ATOM     72  C54 UNL A   1      19.214  21.487   3.667  1.00  0.00    +0.000 C 
ATOM     84  C61 UNL A   1      18.052  21.925   4.188  1.00  0.00    +0.000 C 
ATOM     85  C62 UNL A   1      17.362  23.151   3.800  1.00  0.00    +0.000 C 
ATOM     86  C63 UNL A   1      16.249  23.277   4.539  1.00  0.00    +0.000 C 
ATOM     87  C64 UNL A   1      16.128  22.121   5.429  1.00  0.00    +0.000 C 
ATOM     88  N6  UNL A   1      17.252  21.379   5.161  1.00  0.00    +0.000 N 
ATOM     89  C65 UNL A   1      21.032  19.730   3.525  1.00  0.00    +0.000 C 
ATOM     90  C66 UNL A   1      21.207  18.546   4.094  1.00  0.00    +0.000 C 
ATOM     91  C67 UNL A   1      14.374  19.498   8.836  1.00  0.00    +0.000 C 
ATOM     92  C68 UNL A   1      14.025  20.581   8.156  1.00  0.00    +0.000 C 
ENDROOT
BRANCH   36   35
ATOM     33  C28 UNL A   1      12.845  24.722   7.412  1.00  0.00    +0.000 C 
ATOM     34  C29 UNL A   1      13.942  23.866   7.316  1.00  0.00    +0.000 C 
ATOM     35  C30 UNL A   1      13.984  22.869   6.327  1.00  0.00    +0.000 C 
ATOM    138  H44 UNL A   1      12.804  25.430   8.162  1.00  0.00    +0.000 H 
ATOM    139  H45 UNL A   1      14.730  23.966   7.977  1.00  0.00    +0.000 H 
ATOM    150  H56 UNL A   1      12.959  22.058   4.666  1.00  0.00    +0.000 H 
ATOM    151  H57 UNL A   1      11.158  23.682   4.709  1.00  0.00    +0.000 H 
ATOM     93  C69 UNL A   1      12.942  22.789   5.393  1.00  0.00    +0.000 C 
ATOM     94  C70 UNL A   1      11.882  23.693   5.444  1.00  0.00    +0.000 C 
ATOM     32  C27 UNL A   1      11.801  24.616   6.491  1.00  0.00    +0.000 C 
BRANCH   32   30
ATOM     30  C26 UNL A   1      10.639  25.520   6.649  1.00  0.00    +0.000 C 
ATOM     31  O2  UNL A   1      10.296  25.880   7.765  1.00  0.00    +0.000 O 
BRANCH   30   29
ATOM    137  H43 UNL A   1       9.184  25.326   5.293  1.00  0.00    +0.000 H 
ATOM     29  N2  UNL A   1       9.923  25.923   5.548  1.00  0.00    +0.000 N 
BRANCH   29   28
ATOM     28  C25 UNL A   1      10.088  27.093   4.704  1.00  0.00    +0.000 C 
ATOM    135  H41 UNL A   1       9.341  27.813   4.967  1.00  0.00    +0.000 H 
ATOM    136  H42 UNL A   1      11.077  27.469   4.865  1.00  0.00    +0.000 H 
BRANCH   28   27
ATOM     27  C24 UNL A   1       9.955  26.774   3.218  1.00  0.00    +0.000 C 
ATOM    133  H39 UNL A   1       9.361  25.889   3.123  1.00  0.00    +0.000 H 
ATOM    134  H40 UNL A   1       9.513  27.639   2.769  1.00  0.00    +0.000 H 
BRANCH   27   26
ATOM     26  C23 UNL A   1      11.273  26.540   2.476  1.00  0.00    +0.000 C 
ATOM    131  H37 UNL A   1      12.029  27.126   2.957  1.00  0.00    +0.000 H 
ATOM    132  H38 UNL A   1      11.448  25.485   2.520  1.00  0.00    +0.000 H 
BRANCH   26   25
ATOM     25  C22 UNL A   1      11.273  26.902   0.987  1.00  0.00    +0.000 C 
ATOM    130  H36 UNL A   1      11.163  27.965   0.941  1.00  0.00    +0.000 H 
ATOM    129  H35 UNL A   1      10.474  26.367   0.517  1.00  0.00    +0.000 H 
BRANCH   25   24
ATOM    128  H34 UNL A   1      12.870  25.587   0.500  1.00  0.00    +0.000 H 
ATOM    127  H33 UNL A   1      13.317  27.293   0.507  1.00  0.00    +0.000 H 
ATOM     24  C21 UNL A   1      12.568  26.578   0.233  1.00  0.00    +0.000 C 
BRANCH   24   23
ATOM    125  H31 UNL A   1      11.345  26.409  -1.496  1.00  0.00    +0.000 H 
ATOM    126  H32 UNL A   1      12.645  27.603  -1.612  1.00  0.00    +0.000 H 
ATOM     23  C20 UNL A   1      12.370  26.624  -1.278  1.00  0.00    +0.000 C 
BRANCH   23   22
ATOM    124  H30 UNL A   1      13.008  24.719  -1.802  1.00  0.00    +0.000 H 
ATOM     22  N1  UNL A   1      13.208  25.667  -1.978  1.00  0.00    +0.000 N 
BRANCH   22   20
ATOM     20  C19 UNL A   1      14.230  25.899  -2.843  1.00  0.00    +0.000 C 
ATOM     21  O1  UNL A   1      14.036  25.575  -4.020  1.00  0.00    +0.000 O 
BRANCH   20   19
ATOM    122  H28 UNL A   1      15.572  27.507  -2.752  1.00  0.00    +0.000 H 
ATOM     19  C18 UNL A   1      15.575  26.482  -2.445  1.00  0.00    +0.000 C 
ATOM    123  H29 UNL A   1      15.629  26.287  -1.395  1.00  0.00    +0.000 H 
BRANCH   19   18
ATOM    121  H27 UNL A   1      17.338  26.693  -3.456  1.00  0.00    +0.000 H 
ATOM     18  C17 UNL A   1      16.848  25.867  -2.983  1.00  0.00    +0.000 C 
ATOM    120  H26 UNL A   1      16.556  25.046  -3.601  1.00  0.00    +0.000 H 
BRANCH   18   17
ATOM     17  C16 UNL A   1      17.909  25.338  -2.022  1.00  0.00    +0.000 C 
ATOM    118  H24 UNL A   1      17.363  25.048  -1.149  1.00  0.00    +0.000 H 
ATOM    119  H25 UNL A   1      18.401  24.659  -2.687  1.00  0.00    +0.000 H 
BRANCH   17   16
ATOM     16  S1  UNL A   1      19.400  26.216  -1.371  1.00  0.00    +0.000 S 
BRANCH   16   15
ATOM    116  H22 UNL A   1      18.507  28.171  -2.425  1.00  0.00    +0.000 H 
ATOM    117  H23 UNL A   1      19.327  28.511  -0.848  1.00  0.00    +0.000 H 
ATOM     15  C15 UNL A   1      19.356  28.011  -1.795  1.00  0.00    +0.000 C 
BRANCH   15   14
ATOM    114  H20 UNL A   1      21.460  28.364  -1.946  1.00  0.00    +0.000 H 
ATOM    115  H21 UNL A   1      20.580  28.196  -3.504  1.00  0.00    +0.000 H 
ATOM     14  C14 UNL A   1      20.592  28.615  -2.518  1.00  0.00    +0.000 C 
BRANCH   14   13
ATOM    113  H19 UNL A   1      20.002  30.461  -3.490  1.00  0.00    +0.000 H 
ATOM     13  C13 UNL A   1      20.582  30.108  -2.712  1.00  0.00    +0.000 C 
BRANCH   13   12
ATOM     12  C12 UNL A   1      21.240  31.036  -1.994  1.00  0.00    +0.000 C 
ATOM    112  H18 UNL A   1      22.270  31.058  -2.042  1.00  0.00    +0.000 H 
BRANCH   12   11
ATOM     11  C11 UNL A   1      20.533  32.053  -1.115  1.00  0.00    +0.000 C 
ATOM    110  H16 UNL A   1      21.279  32.640  -0.622  1.00  0.00    +0.000 H 
ATOM    111  H17 UNL A   1      19.903  32.622  -1.767  1.00  0.00    +0.000 H 
BRANCH   11   10
ATOM     10  C10 UNL A   1      19.631  31.472  -0.066  1.00  0.00    +0.000 C 
ATOM    109  H15 UNL A   1      20.061  31.009   0.749  1.00  0.00    +0.000 H 
BRANCH   10    9
ATOM      9  C9  UNL A   1      18.290  31.528  -0.136  1.00  0.00    +0.000 C 
ATOM    108  H14 UNL A   1      17.853  32.434  -0.367  1.00  0.00    +0.000 H 
BRANCH    9    8
ATOM    106  H12 UNL A   1      17.972  29.457   0.193  1.00  0.00    +0.000 H 
ATOM    107  H13 UNL A   1      16.831  30.488   1.006  1.00  0.00    +0.000 H 
ATOM      8  C8  UNL A   1      17.387  30.349   0.103  1.00  0.00    +0.000 C 
BRANCH    8    7
ATOM    105  H11 UNL A   1      16.864  30.258  -2.011  1.00  0.00    +0.000 H 
ATOM      7  C7  UNL A   1      16.454  30.227  -1.064  1.00  0.00    +0.000 C 
BRANCH    7    6
ATOM      6  C6  UNL A   1      15.125  30.082  -0.965  1.00  0.00    +0.000 C 
ATOM    104  H10 UNL A   1      14.676  29.307  -1.477  1.00  0.00    +0.000 H 
BRANCH    6    5
ATOM      5  C5  UNL A   1      14.258  30.991  -0.142  1.00  0.00    +0.000 C 
ATOM    102  H8  UNL A   1      13.418  30.445   0.230  1.00  0.00    +0.000 H 
ATOM    103  H9  UNL A   1      14.820  31.377   0.683  1.00  0.00    +0.000 H 
BRANCH    5    4
ATOM      4  C4  UNL A   1      13.782  32.123  -1.008  1.00  0.00    +0.000 C 
ATOM    101  H7  UNL A   1      13.894  33.084  -0.651  1.00  0.00    +0.000 H 
BRANCH    4    3
ATOM      3  C3  UNL A   1      13.218  31.964  -2.215  1.00  0.00    +0.000 C 
ATOM    100  H6  UNL A   1      12.479  31.252  -2.318  1.00  0.00    +0.000 H 
BRANCH    3    2
ATOM      2  C2  UNL A   1      13.606  32.765  -3.423  1.00  0.00    +0.000 C 
ATOM     99  H5  UNL A   1      14.497  33.314  -3.201  1.00  0.00    +0.000 H 
ATOM     98  H4  UNL A   1      12.810  33.435  -3.671  1.00  0.00    +0.000 H 
BRANCH    2    1
ATOM      1  C1  UNL A   1      13.875  31.847  -4.607  1.00  0.00    +0.000 C 
ATOM     97  H3  UNL A   1      13.082  31.134  -4.692  1.00  0.00    +0.000 H 
ATOM     95  H1  UNL A   1      14.802  31.335  -4.457  1.00  0.00    +0.000 H 
ATOM     96  H2  UNL A   1      13.930  32.428  -5.503  1.00  0.00    +0.000 H 
ENDBRANCH    2    1
ENDBRANCH    3    2
ENDBRANCH    4    3
ENDBRANCH    5    4
ENDBRANCH    6    5
ENDBRANCH    7    6
ENDBRANCH    8    7
ENDBRANCH    9    8
ENDBRANCH   10    9
ENDBRANCH   11   10
ENDBRANCH   12   11
ENDBRANCH   13   12
ENDBRANCH   14   13
ENDBRANCH   15   14
ENDBRANCH   16   15
ENDBRANCH   17   16
ENDBRANCH   18   17
ENDBRANCH   19   18
ENDBRANCH   20   19
ENDBRANCH   22   20
ENDBRANCH   23   22
ENDBRANCH   24   23
ENDBRANCH   25   24
ENDBRANCH   26   25
ENDBRANCH   27   26
ENDBRANCH   28   27
ENDBRANCH   29   28
ENDBRANCH   30   29
ENDBRANCH   32   30
ENDBRANCH   36   35
BRANCH   40   41
ATOM     41  C35 UNL A   1      15.376  16.979   9.781  1.00  0.00    +0.000 C 
ATOM     42  C36 UNL A   1      15.519  17.331  11.132  1.00  0.00    +0.000 C 
ATOM     43  F1  UNL A   1      16.368  18.307  11.489  1.00  0.00    +0.000 F 
ATOM     44  C37 UNL A   1      14.815  16.659  12.129  1.00  0.00    +0.000 C 
ATOM     45  F2  UNL A   1      15.001  16.985  13.415  1.00  0.00    +0.000 F 
ATOM     46  C38 UNL A   1      13.928  15.648  11.792  1.00  0.00    +0.000 C 
ATOM     47  F3  UNL A   1      13.239  15.012  12.750  1.00  0.00    +0.000 F 
ATOM     48  C39 UNL A   1      13.758  15.293  10.463  1.00  0.00    +0.000 C 
ATOM     49  F4  UNL A   1      12.890  14.326  10.134  1.00  0.00    +0.000 F 
ATOM     50  C40 UNL A   1      14.483  15.942   9.466  1.00  0.00    +0.000 C 
ATOM     51  F5  UNL A   1      14.304  15.568   8.191  1.00  0.00    +0.000 F 
ENDBRANCH   40   41
BRANCH   57   58
ATOM     65  C50 UNL A   1      22.149  14.231   4.518  1.00  0.00    +0.000 C 
ATOM     66  F9  UNL A   1      21.999  13.268   3.597  1.00  0.00    +0.000 F 
ATOM     67  C51 UNL A   1      21.140  15.169   4.711  1.00  0.00    +0.000 C 
ATOM     68  F10 UNL A   1      20.035  15.092   3.953  1.00  0.00    +0.000 F 
ATOM     58  C46 UNL A   1      21.264  16.175   5.682  1.00  0.00    +0.000 C 
ATOM     59  C47 UNL A   1      22.436  16.201   6.453  1.00  0.00    +0.000 C 
ATOM     60  F6  UNL A   1      22.612  17.150   7.384  1.00  0.00    +0.000 F 
ATOM     61  C48 UNL A   1      23.460  15.283   6.230  1.00  0.00    +0.000 C 
ATOM     62  F7  UNL A   1      24.598  15.370   6.933  1.00  0.00    +0.000 F 
ATOM     63  C49 UNL A   1      23.314  14.297   5.267  1.00  0.00    +0.000 C 
ATOM     64  F8  UNL A   1      24.300  13.416   5.055  1.00  0.00    +0.000 F 
ENDBRANCH   57   58
BRANCH   72   73
ATOM     73  C55 UNL A   1      19.917  22.286   2.628  1.00  0.00    +0.000 C 
ATOM     74  C56 UNL A   1      19.739  22.024   1.263  1.00  0.00    +0.000 C 
ATOM     75  F11 UNL A   1      18.913  21.041   0.872  1.00  0.00    +0.000 F 
ATOM     76  C57 UNL A   1      20.449  22.729   0.294  1.00  0.00    +0.000 C 
ATOM     77  F12 UNL A   1      20.308  22.412  -1.001  1.00  0.00    +0.000 F 
ATOM     78  C58 UNL A   1      21.322  23.740   0.669  1.00  0.00    +0.000 C 
ATOM     79  F13 UNL A   1      22.006  24.417  -0.263  1.00  0.00    +0.000 F 
ATOM     80  C59 UNL A   1      21.490  24.041   2.011  1.00  0.00    +0.000 C 
ATOM     81  F14 UNL A   1      22.317  25.029   2.377  1.00  0.00    +0.000 F 
ATOM     82  C60 UNL A   1      20.807  23.311   2.982  1.00  0.00    +0.000 C 
ATOM     83  F15 UNL A   1      21.010  23.610   4.273  1.00  0.00    +0.000 F 
ENDBRANCH   72   73
TORSDOF 33
ENDMDL
MODEL 2
REMARK VINA RESULT:      -6.9     51.802     57.837
ROOT
ATOM    140  H46 UNL A   1      47.490   9.173  48.054  1.00  0.00    +0.000 H 
ATOM    141  H47 UNL A   1      48.116   7.308  49.765  1.00  0.00    +0.000 H 
ATOM    142  H48 UNL A   1      45.245   9.744  51.487  1.00  0.00    +0.000 H 
ATOM    143  H49 UNL A   1      41.674  11.338  56.533  1.00  0.00    +0.000 H 
ATOM    144  H50 UNL A   1      41.013  13.105  54.834  1.00  0.00    +0.000 H 
ATOM    145  H51 UNL A   1      43.829  10.622  53.051  1.00  0.00    +0.000 H 
ATOM    146  H52 UNL A   1      44.976   7.134  56.474  1.00  0.00    +0.000 H 
ATOM    147  H53 UNL A   1      46.755   6.301  54.835  1.00  0.00    +0.000 H 
ATOM    148  H54 UNL A   1      43.834  13.107  48.050  1.00  0.00    +0.000 H 
ATOM    149  H55 UNL A   1      42.440  14.289  49.842  1.00  0.00    +0.000 H 
ATOM     36  C31 UNL A   1      42.402  12.927  52.350  1.00  0.00    +0.000 C 
ATOM     37  C32 UNL A   1      43.190  12.572  51.121  1.00  0.00    +0.000 C 
ATOM     38  N3  UNL A   1      44.020  11.578  50.930  1.00  0.00    +0.000 N 
ATOM     39  C33 UNL A   1      44.464  11.699  49.621  1.00  0.00    +0.000 C 
ATOM     40  C34 UNL A   1      45.399  10.963  48.973  1.00  0.00    +0.000 C 
ATOM     52  C41 UNL A   1      46.099   9.848  49.558  1.00  0.00    +0.000 C 
ATOM     53  C42 UNL A   1      47.084   9.054  48.995  1.00  0.00    +0.000 C 
ATOM     54  C43 UNL A   1      47.433   8.066  49.921  1.00  0.00    +0.000 C 
ATOM     55  C44 UNL A   1      46.709   8.278  51.082  1.00  0.00    +0.000 C 
ATOM     56  N4  UNL A   1      45.885   9.367  50.842  1.00  0.00    +0.000 N 
ATOM     57  C45 UNL A   1      46.764   7.543  52.321  1.00  0.00    +0.000 C 
ATOM     69  C52 UNL A   1      46.021   7.819  53.421  1.00  0.00    +0.000 C 
ATOM     70  N5  UNL A   1      45.069   8.813  53.608  1.00  0.00    +0.000 N 
ATOM     71  C53 UNL A   1      44.605   8.642  54.823  1.00  0.00    +0.000 C 
ATOM     72  C54 UNL A   1      43.575   9.446  55.571  1.00  0.00    +0.000 C 
ATOM     84  C61 UNL A   1      43.024  10.517  54.968  1.00  0.00    +0.000 C 
ATOM     85  C62 UNL A   1      42.044  11.414  55.573  1.00  0.00    +0.000 C 
ATOM     86  C63 UNL A   1      41.704  12.355  54.678  1.00  0.00    +0.000 C 
ATOM     87  C64 UNL A   1      42.469  12.147  53.447  1.00  0.00    +0.000 C 
ATOM     88  N6  UNL A   1      43.215  11.024  53.707  1.00  0.00    +0.000 N 
ATOM     89  C65 UNL A   1      45.198   7.502  55.536  1.00  0.00    +0.000 C 
ATOM     90  C66 UNL A   1      46.092   7.072  54.658  1.00  0.00    +0.000 C 
ATOM     91  C67 UNL A   1      43.761  12.821  49.038  1.00  0.00    +0.000 C 
ATOM     92  C68 UNL A   1      43.007  13.432  49.941  1.00  0.00    +0.000 C 
ENDROOT
BRANCH   36   35
ATOM     33  C28 UNL A   1      39.319  15.120  52.177  1.00  0.00    +0.000 C 
ATOM     34  C29 UNL A   1      40.136  13.993  52.243  1.00  0.00    +0.000 C 
ATOM     35  C30 UNL A   1      41.529  14.129  52.372  1.00  0.00    +0.000 C 
ATOM    138  H44 UNL A   1      38.300  15.016  52.048  1.00  0.00    +0.000 H 
ATOM    139  H45 UNL A   1      39.715  13.051  52.196  1.00  0.00    +0.000 H 
ATOM    150  H56 UNL A   1      43.102  15.523  52.596  1.00  0.00    +0.000 H 
ATOM    151  H57 UNL A   1      41.656  17.468  52.694  1.00  0.00    +0.000 H 
ATOM     93  C69 UNL A   1      42.081  15.410  52.506  1.00  0.00    +0.000 C 
ATOM     94  C70 UNL A   1      41.255  16.533  52.516  1.00  0.00    +0.000 C 
ATOM     32  C27 UNL A   1      39.883  16.393  52.287  1.00  0.00    +0.000 C 
BRANCH   32   30
ATOM     30  C26 UNL A   1      38.985  17.565  52.177  1.00  0.00    +0.000 C 
ATOM     31  O2  UNL A   1      37.794  17.443  52.419  1.00  0.00    +0.000 O 
BRANCH   30   29
ATOM    137  H43 UNL A   1      39.607  19.439  52.487  1.00  0.00    +0.000 H 
ATOM     29  N2  UNL A   1      39.481  18.779  51.768  1.00  0.00    +0.000 N 
BRANCH   29   28
ATOM     28  C25 UNL A   1      39.848  19.240  50.441  1.00  0.00    +0.000 C 
ATOM    135  H41 UNL A   1      40.566  18.561  50.030  1.00  0.00    +0.000 H 
ATOM    136  H42 UNL A   1      38.954  19.276  49.854  1.00  0.00    +0.000 H 
BRANCH   28   27
ATOM     27  C24 UNL A   1      40.450  20.642  50.446  1.00  0.00    +0.000 C 
ATOM    133  H39 UNL A   1      39.986  21.203  49.662  1.00  0.00    +0.000 H 
ATOM    134  H40 UNL A   1      40.268  21.036  51.423  1.00  0.00    +0.000 H 
BRANCH   27   26
ATOM     26  C23 UNL A   1      41.966  20.706  50.240  1.00  0.00    +0.000 C 
ATOM    131  H37 UNL A   1      42.146  21.023  49.234  1.00  0.00    +0.000 H 
ATOM    132  H38 UNL A   1      42.331  21.385  50.981  1.00  0.00    +0.000 H 
BRANCH   26   25
ATOM     25  C22 UNL A   1      42.725  19.394  50.464  1.00  0.00    +0.000 C 
ATOM    130  H36 UNL A   1      42.011  18.611  50.317  1.00  0.00    +0.000 H 
ATOM    129  H35 UNL A   1      43.140  19.417  51.450  1.00  0.00    +0.000 H 
BRANCH   25   24
ATOM    128  H34 UNL A   1      44.778  19.054  50.030  1.00  0.00    +0.000 H 
ATOM    127  H33 UNL A   1      43.905  19.916  48.763  1.00  0.00    +0.000 H 
ATOM     24  C21 UNL A   1      43.865  19.119  49.476  1.00  0.00    +0.000 C 
BRANCH   24   23
ATOM    125  H31 UNL A   1      42.625  17.691  48.506  1.00  0.00    +0.000 H 
ATOM    126  H32 UNL A   1      44.259  17.837  47.844  1.00  0.00    +0.000 H 
ATOM     23  C20 UNL A   1      43.665  17.802  48.734  1.00  0.00    +0.000 C 
BRANCH   23   22
ATOM    124  H30 UNL A   1      43.408  15.972  49.681  1.00  0.00    +0.000 H 
ATOM     22  N1  UNL A   1      44.098  16.655  49.511  1.00  0.00    +0.000 N 
BRANCH   22   20
ATOM     20  C19 UNL A   1      45.324  16.392  50.035  1.00  0.00    +0.000 C 
ATOM     21  O1  UNL A   1      46.229  16.161  49.226  1.00  0.00    +0.000 O 
BRANCH   20   19
ATOM    122  H28 UNL A   1      45.567  17.333  51.893  1.00  0.00    +0.000 H 
ATOM     19  C18 UNL A   1      45.624  16.331  51.523  1.00  0.00    +0.000 C 
ATOM    123  H29 UNL A   1      44.905  15.631  51.893  1.00  0.00    +0.000 H 
BRANCH   19   18
ATOM    121  H27 UNL A   1      47.167  16.356  52.862  1.00  0.00    +0.000 H 
ATOM     18  C17 UNL A   1      46.943  15.763  51.999  1.00  0.00    +0.000 C 
ATOM    120  H26 UNL A   1      47.619  15.818  51.172  1.00  0.00    +0.000 H 
BRANCH   18   17
ATOM     17  C16 UNL A   1      47.016  14.335  52.531  1.00  0.00    +0.000 C 
ATOM    118  H24 UNL A   1      47.720  14.382  53.336  1.00  0.00    +0.000 H 
ATOM    119  H25 UNL A   1      45.968  14.154  52.648  1.00  0.00    +0.000 H 
BRANCH   17   16
ATOM     16  S1  UNL A   1      47.461  12.794  51.611  1.00  0.00    +0.000 S 
BRANCH   16   15
ATOM    116  H22 UNL A   1      48.994  13.908  50.148  1.00  0.00    +0.000 H 
ATOM    117  H23 UNL A   1      49.805  12.971  51.467  1.00  0.00    +0.000 H 
ATOM     15  C15 UNL A   1      49.054  12.995  50.703  1.00  0.00    +0.000 C 
BRANCH   15   14
ATOM    114  H20 UNL A   1      48.602  11.277  49.513  1.00  0.00    +0.000 H 
ATOM    115  H21 UNL A   1      49.858  12.380  48.851  1.00  0.00    +0.000 H 
ATOM     14  C14 UNL A   1      49.468  11.874  49.710  1.00  0.00    +0.000 C 
BRANCH   14   13
ATOM    113  H19 UNL A   1      51.518  11.178  49.836  1.00  0.00    +0.000 H 
ATOM     13  C13 UNL A   1      50.567  10.954  50.171  1.00  0.00    +0.000 C 
BRANCH   13   12
ATOM     12  C12 UNL A   1      50.458   9.874  50.967  1.00  0.00    +0.000 C 
ATOM    112  H18 UNL A   1      49.810   9.916  51.768  1.00  0.00    +0.000 H 
BRANCH   12   11
ATOM     11  C11 UNL A   1      51.246   8.597  50.737  1.00  0.00    +0.000 C 
ATOM    110  H16 UNL A   1      50.552   7.785  50.682  1.00  0.00    +0.000 H 
ATOM    111  H17 UNL A   1      51.800   8.747  49.833  1.00  0.00    +0.000 H 
BRANCH   11   10
ATOM     10  C10 UNL A   1      52.259   8.272  51.795  1.00  0.00    +0.000 C 
ATOM    109  H15 UNL A   1      52.786   7.389  51.715  1.00  0.00    +0.000 H 
BRANCH   10    9
ATOM      9  C9  UNL A   1      52.513   9.076  52.842  1.00  0.00    +0.000 C 
ATOM    108  H14 UNL A   1      52.595  10.090  52.667  1.00  0.00    +0.000 H 
BRANCH    9    8
ATOM    106  H12 UNL A   1      51.951   7.841  54.472  1.00  0.00    +0.000 H 
ATOM    107  H13 UNL A   1      53.659   8.157  54.377  1.00  0.00    +0.000 H 
ATOM      8  C8  UNL A   1      52.687   8.586  54.254  1.00  0.00    +0.000 C 
BRANCH    8    7
ATOM    105  H11 UNL A   1      53.360  10.120  55.649  1.00  0.00    +0.000 H 
ATOM      7  C7  UNL A   1      52.517   9.753  55.180  1.00  0.00    +0.000 C 
BRANCH    7    6
ATOM      6  C6  UNL A   1      51.346  10.352  55.443  1.00  0.00    +0.000 C 
ATOM    104  H10 UNL A   1      50.535   9.761  55.684  1.00  0.00    +0.000 H 
BRANCH    6    5
ATOM      5  C5  UNL A   1      51.158  11.841  55.404  1.00  0.00    +0.000 C 
ATOM    102  H8  UNL A   1      50.363  12.120  56.062  1.00  0.00    +0.000 H 
ATOM    103  H9  UNL A   1      52.059  12.328  55.715  1.00  0.00    +0.000 H 
BRANCH    5    4
ATOM      4  C4  UNL A   1      50.818  12.252  53.999  1.00  0.00    +0.000 C 
ATOM    101  H7  UNL A   1      49.872  12.037  53.649  1.00  0.00    +0.000 H 
BRANCH    4    3
ATOM      3  C3  UNL A   1      51.665  12.879  53.170  1.00  0.00    +0.000 C 
ATOM    100  H6  UNL A   1      51.273  13.520  52.463  1.00  0.00    +0.000 H 
BRANCH    3    2
ATOM      2  C2  UNL A   1      53.154  12.697  53.214  1.00  0.00    +0.000 C 
ATOM     99  H5  UNL A   1      53.381  11.845  53.820  1.00  0.00    +0.000 H 
ATOM     98  H4  UNL A   1      53.604  13.575  53.628  1.00  0.00    +0.000 H 
BRANCH    2    1
ATOM      1  C1  UNL A   1      53.704  12.465  51.814  1.00  0.00    +0.000 C 
ATOM     97  H3  UNL A   1      54.600  11.883  51.875  1.00  0.00    +0.000 H 
ATOM     95  H1  UNL A   1      53.920  13.407  51.355  1.00  0.00    +0.000 H 
ATOM     96  H2  UNL A   1      52.978  11.941  51.228  1.00  0.00    +0.000 H 
ENDBRANCH    2    1
ENDBRANCH    3    2
ENDBRANCH    4    3
ENDBRANCH    5    4
ENDBRANCH    6    5
ENDBRANCH    7    6
ENDBRANCH    8    7
ENDBRANCH    9    8
ENDBRANCH   10    9
ENDBRANCH   11   10
ENDBRANCH   12   11
ENDBRANCH   13   12
ENDBRANCH   14   13
ENDBRANCH   15   14
ENDBRANCH   16   15
ENDBRANCH   17   16
ENDBRANCH   18   17
ENDBRANCH   19   18
ENDBRANCH   20   19
ENDBRANCH   22   20
ENDBRANCH   23   22
ENDBRANCH   24   23
ENDBRANCH   25   24
ENDBRANCH   26   25
ENDBRANCH   27   26
ENDBRANCH   28   27
ENDBRANCH   29   28
ENDBRANCH   30   29
ENDBRANCH   32   30
ENDBRANCH   36   35
BRANCH   40   41
ATOM     41  C35 UNL A   1      45.735  11.350  47.561  1.00  0.00    +0.000 C 
ATOM     42  C36 UNL A   1      45.265  10.605  46.468  1.00  0.00    +0.000 C 
ATOM     43  F1  UNL A   1      44.558   9.482  46.671  1.00  0.00    +0.000 F 
ATOM     44  C37 UNL A   1      45.549  10.990  45.160  1.00  0.00    +0.000 C 
ATOM     45  F2  UNL A   1      45.126  10.238  44.135  1.00  0.00    +0.000 F 
ATOM     46  C38 UNL A   1      46.274  12.147  44.918  1.00  0.00    +0.000 C 
ATOM     47  F3  UNL A   1      46.533  12.525  43.659  1.00  0.00    +0.000 F 
ATOM     48  C39 UNL A   1      46.735  12.908  45.981  1.00  0.00    +0.000 C 
ATOM     49  F4  UNL A   1      47.424  14.034  45.748  1.00  0.00    +0.000 F 
ATOM     50  C40 UNL A   1      46.480  12.508  47.291  1.00  0.00    +0.000 C 
ATOM     51  F5  UNL A   1      46.949  13.261  48.297  1.00  0.00    +0.000 F 
ENDBRANCH   40   41
BRANCH   57   58
ATOM     65  C50 UNL A   1      49.929   5.553  53.035  1.00  0.00    +0.000 C 
ATOM     66  F9  UNL A   1      51.162   5.776  53.513  1.00  0.00    +0.000 F 
ATOM     67  C51 UNL A   1      49.023   6.604  52.937  1.00  0.00    +0.000 C 
ATOM     68  F10 UNL A   1      49.406   7.825  53.340  1.00  0.00    +0.000 F 
ATOM     58  C46 UNL A   1      47.733   6.400  52.422  1.00  0.00    +0.000 C 
ATOM     59  C47 UNL A   1      47.390   5.105  52.005  1.00  0.00    +0.000 C 
ATOM     60  F6  UNL A   1      46.166   4.853  51.519  1.00  0.00    +0.000 F 
ATOM     61  C48 UNL A   1      48.288   4.049  52.141  1.00  0.00    +0.000 C 
ATOM     62  F7  UNL A   1      47.913   2.807  51.799  1.00  0.00    +0.000 F 
ATOM     63  C49 UNL A   1      49.558   4.273  52.650  1.00  0.00    +0.000 C 
ATOM     64  F8  UNL A   1      50.418   3.256  52.780  1.00  0.00    +0.000 F 
ENDBRANCH   57   58
BRANCH   72   73
ATOM     73  C55 UNL A   1      43.176   9.077  56.955  1.00  0.00    +0.000 C 
ATOM     74  C56 UNL A   1      42.222   8.078  57.195  1.00  0.00    +0.000 C 
ATOM     75  F11 UNL A   1      41.658   7.429  56.165  1.00  0.00    +0.000 F 
ATOM     76  C57 UNL A   1      41.800   7.780  58.490  1.00  0.00    +0.000 C 
ATOM     77  F12 UNL A   1      40.839   6.867  58.685  1.00  0.00    +0.000 F 
ATOM     78  C58 UNL A   1      42.355   8.446  59.573  1.00  0.00    +0.000 C 
ATOM     79  F13 UNL A   1      41.948   8.160  60.817  1.00  0.00    +0.000 F 
ATOM     80  C59 UNL A   1      43.325   9.414  59.363  1.00  0.00    +0.000 C 
ATOM     81  F14 UNL A   1      43.877  10.046  60.407  1.00  0.00    +0.000 F 
ATOM     82  C60 UNL A   1      43.719   9.738  58.066  1.00  0.00    +0.000 C 
ATOM     83  F15 UNL A   1      44.641  10.696  57.895  1.00  0.00    +0.000 F 
ENDBRANCH   72   73
TORSDOF 33
ENDMDL
MODEL 3
REMARK VINA RESULT:      -6.9      3.782      5.889
ROOT
ATOM    140  H46 UNL A   1      16.850  17.552   8.625  1.00  0.00    +0.000 H 
ATOM    141  H47 UNL A   1      19.268  16.976   9.410  1.00  0.00    +0.000 H 
ATOM    142  H48 UNL A   1      19.523  19.121   5.878  1.00  0.00    +0.000 H 
ATOM    143  H49 UNL A   1      23.055  21.572   1.159  1.00  0.00    +0.000 H 
ATOM    144  H50 UNL A   1      20.701  22.196   0.440  1.00  0.00    +0.000 H 
ATOM    145  H51 UNL A   1      20.424  20.121   4.031  1.00  0.00    +0.000 H 
ATOM    146  H52 UNL A   1      25.135  19.032   5.378  1.00  0.00    +0.000 H 
ATOM    147  H53 UNL A   1      24.131  17.683   7.306  1.00  0.00    +0.000 H 
ATOM    148  H54 UNL A   1      14.879  20.489   4.584  1.00  0.00    +0.000 H 
ATOM    149  H55 UNL A   1      15.806  21.384   2.372  1.00  0.00    +0.000 H 
ATOM     36  C31 UNL A   1      18.651  21.252   2.182  1.00  0.00    +0.000 C 
ATOM     37  C32 UNL A   1      17.776  20.730   3.287  1.00  0.00    +0.000 C 
ATOM     38  N3  UNL A   1      18.117  20.109   4.388  1.00  0.00    +0.000 N 
ATOM     39  C33 UNL A   1      16.932  19.858   5.065  1.00  0.00    +0.000 C 
ATOM     40  C34 UNL A   1      16.745  19.164   6.214  1.00  0.00    +0.000 C 
ATOM     52  C41 UNL A   1      17.809  18.569   6.982  1.00  0.00    +0.000 C 
ATOM     53  C42 UNL A   1      17.722  17.822   8.145  1.00  0.00    +0.000 C 
ATOM     54  C43 UNL A   1      19.019  17.497   8.554  1.00  0.00    +0.000 C 
ATOM     55  C44 UNL A   1      19.912  17.990   7.618  1.00  0.00    +0.000 C 
ATOM     56  N4  UNL A   1      19.157  18.656   6.664  1.00  0.00    +0.000 N 
ATOM     57  C45 UNL A   1      21.347  17.863   7.591  1.00  0.00    +0.000 C 
ATOM     69  C52 UNL A   1      22.154  18.374   6.629  1.00  0.00    +0.000 C 
ATOM     70  N5  UNL A   1      21.816  19.115   5.504  1.00  0.00    +0.000 N 
ATOM     71  C53 UNL A   1      22.949  19.408   4.912  1.00  0.00    +0.000 C 
ATOM     72  C54 UNL A   1      23.187  20.168   3.635  1.00  0.00    +0.000 C 
ATOM     84  C61 UNL A   1      22.126  20.627   2.945  1.00  0.00    +0.000 C 
ATOM     85  C62 UNL A   1      22.191  21.346   1.676  1.00  0.00    +0.000 C 
ATOM     86  C63 UNL A   1      20.946  21.666   1.291  1.00  0.00    +0.000 C 
ATOM     87  C64 UNL A   1      19.991  21.143   2.270  1.00  0.00    +0.000 C 
ATOM     88  N6  UNL A   1      20.783  20.554   3.224  1.00  0.00    +0.000 N 
ATOM     89  C65 UNL A   1      24.139  18.901   5.611  1.00  0.00    +0.000 C 
ATOM     90  C66 UNL A   1      23.595  18.234   6.617  1.00  0.00    +0.000 C 
ATOM     91  C67 UNL A   1      15.867  20.455   4.290  1.00  0.00    +0.000 C 
ATOM     92  C68 UNL A   1      16.328  20.953   3.151  1.00  0.00    +0.000 C 
ENDROOT
BRANCH   36   35
ATOM     33  C28 UNL A   1      17.211  23.908  -0.103  1.00  0.00    +0.000 C 
ATOM     34  C29 UNL A   1      17.844  23.298   0.979  1.00  0.00    +0.000 C 
ATOM     35  C30 UNL A   1      18.057  21.909   0.989  1.00  0.00    +0.000 C 
ATOM    138  H44 UNL A   1      17.026  24.923  -0.090  1.00  0.00    +0.000 H 
ATOM    139  H45 UNL A   1      18.160  23.870   1.779  1.00  0.00    +0.000 H 
ATOM    150  H56 UNL A   1      17.835  20.132  -0.134  1.00  0.00    +0.000 H 
ATOM    151  H57 UNL A   1      16.927  21.229  -2.098  1.00  0.00    +0.000 H 
ATOM     93  C69 UNL A   1      17.689  21.153  -0.132  1.00  0.00    +0.000 C 
ATOM     94  C70 UNL A   1      17.124  21.775  -1.245  1.00  0.00    +0.000 C 
ATOM     32  C27 UNL A   1      16.826  23.140  -1.204  1.00  0.00    +0.000 C 
BRANCH   32   30
ATOM     30  C26 UNL A   1      16.124  23.821  -2.316  1.00  0.00    +0.000 C 
ATOM     31  O2  UNL A   1      16.768  24.389  -3.185  1.00  0.00    +0.000 O 
BRANCH   30   29
ATOM    137  H43 UNL A   1      14.335  24.559  -1.819  1.00  0.00    +0.000 H 
ATOM     29  N2  UNL A   1      14.751  23.846  -2.354  1.00  0.00    +0.000 N 
BRANCH   29   28
ATOM     28  C25 UNL A   1      13.820  22.983  -3.059  1.00  0.00    +0.000 C 
ATOM    135  H41 UNL A   1      14.121  21.966  -2.917  1.00  0.00    +0.000 H 
ATOM    136  H42 UNL A   1      12.844  23.169  -2.661  1.00  0.00    +0.000 H 
BRANCH   28   27
ATOM     27  C24 UNL A   1      13.766  23.270  -4.557  1.00  0.00    +0.000 C 
ATOM    133  H39 UNL A   1      14.363  24.137  -4.748  1.00  0.00    +0.000 H 
ATOM    134  H40 UNL A   1      14.126  22.386  -5.040  1.00  0.00    +0.000 H 
BRANCH   27   26
ATOM     26  C23 UNL A   1      12.369  23.524  -5.127  1.00  0.00    +0.000 C 
ATOM    131  H37 UNL A   1      12.255  22.917  -6.001  1.00  0.00    +0.000 H 
ATOM    132  H38 UNL A   1      11.686  23.283  -4.339  1.00  0.00    +0.000 H 
BRANCH   26   25
ATOM     25  C22 UNL A   1      12.061  24.974  -5.517  1.00  0.00    +0.000 C 
ATOM    130  H36 UNL A   1      11.337  24.921  -6.302  1.00  0.00    +0.000 H 
ATOM    129  H35 UNL A   1      12.980  25.439  -5.809  1.00  0.00    +0.000 H 
BRANCH   25   24
ATOM    128  H34 UNL A   1      11.438  25.264  -3.505  1.00  0.00    +0.000 H 
ATOM    127  H33 UNL A   1      10.426  26.078  -4.699  1.00  0.00    +0.000 H 
ATOM     24  C21 UNL A   1      11.428  25.830  -4.413  1.00  0.00    +0.000 C 
BRANCH   24   23
ATOM    125  H31 UNL A   1      12.347  27.611  -5.119  1.00  0.00    +0.000 H 
ATOM    126  H32 UNL A   1      11.641  27.722  -3.500  1.00  0.00    +0.000 H 
ATOM     23  C20 UNL A   1      12.207  27.119  -4.179  1.00  0.00    +0.000 C 
BRANCH   23   22
ATOM    124  H30 UNL A   1      13.848  25.959  -3.654  1.00  0.00    +0.000 H 
ATOM     22  N1  UNL A   1      13.508  26.880  -3.579  1.00  0.00    +0.000 N 
BRANCH   22   20
ATOM     20  C19 UNL A   1      14.322  27.753  -2.930  1.00  0.00    +0.000 C 
ATOM     21  O1  UNL A   1      15.311  27.269  -2.369  1.00  0.00    +0.000 O 
BRANCH   20   19
ATOM    122  H28 UNL A   1      13.773  29.581  -3.799  1.00  0.00    +0.000 H 
ATOM     19  C18 UNL A   1      14.068  29.247  -2.826  1.00  0.00    +0.000 C 
ATOM    123  H29 UNL A   1      13.343  29.323  -2.043  1.00  0.00    +0.000 H 
BRANCH   19   18
ATOM    121  H27 UNL A   1      14.916  31.106  -2.808  1.00  0.00    +0.000 H 
ATOM     18  C17 UNL A   1      15.177  30.167  -2.366  1.00  0.00    +0.000 C 
ATOM    120  H26 UNL A   1      16.097  29.716  -2.672  1.00  0.00    +0.000 H 
BRANCH   18   17
ATOM     17  C16 UNL A   1      15.326  30.510  -0.886  1.00  0.00    +0.000 C 
ATOM    118  H24 UNL A   1      15.413  29.562  -0.398  1.00  0.00    +0.000 H 
ATOM    119  H25 UNL A   1      16.114  31.228  -0.968  1.00  0.00    +0.000 H 
BRANCH   17   16
ATOM     16  S1  UNL A   1      14.174  31.483   0.182  1.00  0.00    +0.000 S 
BRANCH   16   15
ATOM    116  H22 UNL A   1      14.559  33.088   1.916  1.00  0.00    +0.000 H 
ATOM    117  H23 UNL A   1      14.997  31.396   2.386  1.00  0.00    +0.000 H 
ATOM     15  C15 UNL A   1      15.049  32.174   1.652  1.00  0.00    +0.000 C 
BRANCH   15   14
ATOM    114  H20 UNL A   1      16.903  32.054   0.592  1.00  0.00    +0.000 H 
ATOM    115  H21 UNL A   1      16.646  33.549   1.556  1.00  0.00    +0.000 H 
ATOM     14  C14 UNL A   1      16.565  32.483   1.513  1.00  0.00    +0.000 C 
BRANCH   14   13
ATOM    113  H19 UNL A   1      17.243  32.311   3.565  1.00  0.00    +0.000 H 
ATOM     13  C13 UNL A   1      17.451  31.965   2.615  1.00  0.00    +0.000 C 
BRANCH   13   12
ATOM     12  C12 UNL A   1      18.480  31.105   2.508  1.00  0.00    +0.000 C 
ATOM    112  H18 UNL A   1      19.115  30.994   3.314  1.00  0.00    +0.000 H 
BRANCH   12   11
ATOM     11  C11 UNL A   1      18.749  30.289   1.256  1.00  0.00    +0.000 C 
ATOM    110  H16 UNL A   1      18.668  29.254   1.511  1.00  0.00    +0.000 H 
ATOM    111  H17 UNL A   1      18.027  30.609   0.533  1.00  0.00    +0.000 H 
BRANCH   11   10
ATOM     10  C10 UNL A   1      20.093  30.509   0.627  1.00  0.00    +0.000 C 
ATOM    109  H15 UNL A   1      20.160  31.160  -0.170  1.00  0.00    +0.000 H 
BRANCH   10    9
ATOM      9  C9  UNL A   1      21.213  29.899   1.051  1.00  0.00    +0.000 C 
ATOM    108  H14 UNL A   1      22.116  30.224   0.671  1.00  0.00    +0.000 H 
BRANCH    9    8
ATOM    106  H12 UNL A   1      21.749  29.078   2.931  1.00  0.00    +0.000 H 
ATOM    107  H13 UNL A   1      20.230  28.500   2.311  1.00  0.00    +0.000 H 
ATOM      8  C8  UNL A   1      21.230  28.772   2.047  1.00  0.00    +0.000 C 
BRANCH    8    7
ATOM    105  H11 UNL A   1      22.744  27.803   0.814  1.00  0.00    +0.000 H 
ATOM      7  C7  UNL A   1      21.935  27.605   1.423  1.00  0.00    +0.000 C 
BRANCH    7    6
ATOM      6  C6  UNL A   1      21.587  26.322   1.601  1.00  0.00    +0.000 C 
ATOM    104  H10 UNL A   1      21.708  25.905   2.537  1.00  0.00    +0.000 H 
BRANCH    6    5
ATOM      5  C5  UNL A   1      21.028  25.463   0.504  1.00  0.00    +0.000 C 
ATOM    102  H8  UNL A   1      21.775  24.772   0.173  1.00  0.00    +0.000 H 
ATOM    103  H9  UNL A   1      20.182  24.917   0.867  1.00  0.00    +0.000 H 
BRANCH    5    4
ATOM      4  C4  UNL A   1      20.613  26.343  -0.641  1.00  0.00    +0.000 C 
ATOM    101  H7  UNL A   1      21.347  26.679  -1.283  1.00  0.00    +0.000 H 
BRANCH    4    3
ATOM      3  C3  UNL A   1      19.349  26.722  -0.880  1.00  0.00    +0.000 C 
ATOM    100  H6  UNL A   1      18.585  26.135  -0.511  1.00  0.00    +0.000 H 
BRANCH    3    2
ATOM      2  C2  UNL A   1      18.986  27.953  -1.659  1.00  0.00    +0.000 C 
ATOM     99  H5  UNL A   1      19.774  28.668  -1.561  1.00  0.00    +0.000 H 
ATOM     98  H4  UNL A   1      18.072  28.355  -1.275  1.00  0.00    +0.000 H 
BRANCH    2    1
ATOM      1  C1  UNL A   1      18.805  27.617  -3.132  1.00  0.00    +0.000 C 
ATOM     97  H3  UNL A   1      17.762  27.626  -3.374  1.00  0.00    +0.000 H 
ATOM     95  H1  UNL A   1      19.209  26.646  -3.329  1.00  0.00    +0.000 H 
ATOM     96  H2  UNL A   1      19.315  28.344  -3.729  1.00  0.00    +0.000 H 
ENDBRANCH    2    1
ENDBRANCH    3    2
ENDBRANCH    4    3
ENDBRANCH    5    4
ENDBRANCH    6    5
ENDBRANCH    7    6
ENDBRANCH    8    7
ENDBRANCH    9    8
ENDBRANCH   10    9
ENDBRANCH   11   10
ENDBRANCH   12   11
ENDBRANCH   13   12
ENDBRANCH   14   13
ENDBRANCH   15   14
ENDBRANCH   16   15
ENDBRANCH   17   16
ENDBRANCH   18   17
ENDBRANCH   19   18
ENDBRANCH   20   19
ENDBRANCH   22   20
ENDBRANCH   23   22
ENDBRANCH   24   23
ENDBRANCH   25   24
ENDBRANCH   26   25
ENDBRANCH   27   26
ENDBRANCH   28   27
ENDBRANCH   29   28
ENDBRANCH   30   29
ENDBRANCH   32   30
ENDBRANCH   36   35
BRANCH   40   41
ATOM     41  C35 UNL A   1      15.335  18.992   6.703  1.00  0.00    +0.000 C 
ATOM     42  C36 UNL A   1      14.565  17.878   6.336  1.00  0.00    +0.000 C 
ATOM     43  F1  UNL A   1      15.057  16.971   5.478  1.00  0.00    +0.000 F 
ATOM     44  C37 UNL A   1      13.272  17.705   6.824  1.00  0.00    +0.000 C 
ATOM     45  F2  UNL A   1      12.541  16.655   6.424  1.00  0.00    +0.000 F 
ATOM     46  C38 UNL A   1      12.737  18.624   7.714  1.00  0.00    +0.000 C 
ATOM     47  F3  UNL A   1      11.498  18.449   8.194  1.00  0.00    +0.000 F 
ATOM     48  C39 UNL A   1      13.484  19.724   8.103  1.00  0.00    +0.000 C 
ATOM     49  F4  UNL A   1      12.974  20.605   8.976  1.00  0.00    +0.000 F 
ATOM     50  C40 UNL A   1      14.767  19.915   7.594  1.00  0.00    +0.000 C 
ATOM     51  F5  UNL A   1      15.459  20.996   7.982  1.00  0.00    +0.000 F 
ENDBRANCH   40   41
BRANCH   57   58
ATOM     65  C50 UNL A   1      23.007  15.020   9.503  1.00  0.00    +0.000 C 
ATOM     66  F9  UNL A   1      23.351  13.741   9.291  1.00  0.00    +0.000 F 
ATOM     67  C51 UNL A   1      22.394  15.751   8.489  1.00  0.00    +0.000 C 
ATOM     68  F10 UNL A   1      22.173  15.155   7.308  1.00  0.00    +0.000 F 
ATOM     58  C46 UNL A   1      22.008  17.085   8.693  1.00  0.00    +0.000 C 
ATOM     59  C47 UNL A   1      22.254  17.654   9.951  1.00  0.00    +0.000 C 
ATOM     60  F6  UNL A   1      21.917  18.929  10.194  1.00  0.00    +0.000 F 
ATOM     61  C48 UNL A   1      22.902  16.931  10.950  1.00  0.00    +0.000 C 
ATOM     62  F7  UNL A   1      23.187  17.518  12.121  1.00  0.00    +0.000 F 
ATOM     63  C49 UNL A   1      23.273  15.613  10.727  1.00  0.00    +0.000 C 
ATOM     64  F8  UNL A   1      23.895  14.920  11.689  1.00  0.00    +0.000 F 
ENDBRANCH   57   58
BRANCH   72   73
ATOM     73  C55 UNL A   1      24.567  20.403   3.132  1.00  0.00    +0.000 C 
ATOM     74  C56 UNL A   1      25.252  19.423   2.400  1.00  0.00    +0.000 C 
ATOM     75  F11 UNL A   1      24.659  18.249   2.134  1.00  0.00    +0.000 F 
ATOM     76  C57 UNL A   1      26.568  19.620   1.988  1.00  0.00    +0.000 C 
ATOM     77  F12 UNL A   1      27.221  18.640   1.347  1.00  0.00    +0.000 F 
ATOM     78  C58 UNL A   1      27.212  20.818   2.262  1.00  0.00    +0.000 C 
ATOM     79  F13 UNL A   1      28.478  21.006   1.867  1.00  0.00    +0.000 F 
ATOM     80  C59 UNL A   1      26.543  21.815   2.955  1.00  0.00    +0.000 C 
ATOM     81  F14 UNL A   1      27.155  22.980   3.206  1.00  0.00    +0.000 F 
ATOM     82  C60 UNL A   1      25.240  21.604   3.400  1.00  0.00    +0.000 C 
ATOM     83  F15 UNL A   1      24.629  22.579   4.089  1.00  0.00    +0.000 F 
ENDBRANCH   72   73
TORSDOF 33
ENDMDL
MODEL 4
REMARK VINA RESULT:      -6.9      3.854      7.089
ROOT
ATOM    140  H46 UNL A   1      16.569  18.993   7.403  1.00  0.00    +0.000 H 
ATOM    141  H47 UNL A   1      18.430  17.185   7.656  1.00  0.00    +0.000 H 
ATOM    142  H48 UNL A   1      19.690  19.966   4.859  1.00  0.00    +0.000 H 
ATOM    143  H49 UNL A   1      23.998  21.906   0.568  1.00  0.00    +0.000 H 
ATOM    144  H50 UNL A   1      22.217  23.705   0.383  1.00  0.00    +0.000 H 
ATOM    145  H51 UNL A   1      20.969  20.975   3.258  1.00  0.00    +0.000 H 
ATOM    146  H52 UNL A   1      24.612  17.536   3.586  1.00  0.00    +0.000 H 
ATOM    147  H53 UNL A   1      23.076  16.256   5.182  1.00  0.00    +0.000 H 
ATOM    148  H54 UNL A   1      16.237  23.592   4.650  1.00  0.00    +0.000 H 
ATOM    149  H55 UNL A   1      17.494  24.614   2.668  1.00  0.00    +0.000 H 
ATOM     36  C31 UNL A   1      19.948  23.290   2.059  1.00  0.00    +0.000 C 
ATOM     37  C32 UNL A   1      18.921  22.901   3.084  1.00  0.00    +0.000 C 
ATOM     38  N3  UNL A   1      18.922  21.886   3.911  1.00  0.00    +0.000 N 
ATOM     39  C33 UNL A   1      17.752  21.995   4.649  1.00  0.00    +0.000 C 
ATOM     40  C34 UNL A   1      17.252  21.140   5.573  1.00  0.00    +0.000 C 
ATOM     52  C41 UNL A   1      17.907  19.927   5.992  1.00  0.00    +0.000 C 
ATOM     53  C42 UNL A   1      17.470  18.978   6.901  1.00  0.00    +0.000 C 
ATOM     54  C43 UNL A   1      18.461  17.998   7.022  1.00  0.00    +0.000 C 
ATOM     55  C44 UNL A   1      19.489  18.304   6.145  1.00  0.00    +0.000 C 
ATOM     56  N4  UNL A   1      19.141  19.496   5.528  1.00  0.00    +0.000 N 
ATOM     57  C45 UNL A   1      20.698  17.563   5.887  1.00  0.00    +0.000 C 
ATOM     69  C52 UNL A   1      21.659  17.929   5.003  1.00  0.00    +0.000 C 
ATOM     70  N5  UNL A   1      21.716  19.051   4.187  1.00  0.00    +0.000 N 
ATOM     71  C53 UNL A   1      22.860  18.973   3.549  1.00  0.00    +0.000 C 
ATOM     72  C54 UNL A   1      23.436  19.901   2.513  1.00  0.00    +0.000 C 
ATOM     84  C61 UNL A   1      22.720  20.975   2.131  1.00  0.00    +0.000 C 
ATOM     85  C62 UNL A   1      23.125  21.942   1.116  1.00  0.00    +0.000 C 
ATOM     86  C63 UNL A   1      22.177  22.887   1.011  1.00  0.00    +0.000 C 
ATOM     87  C64 UNL A   1      21.080  22.572   1.927  1.00  0.00    +0.000 C 
ATOM     88  N6  UNL A   1      21.497  21.428   2.561  1.00  0.00    +0.000 N 
ATOM     89  C65 UNL A   1      23.668  17.800   3.908  1.00  0.00    +0.000 C 
ATOM     90  C66 UNL A   1      22.866  17.171   4.754  1.00  0.00    +0.000 C 
ATOM     91  C67 UNL A   1      17.096  23.213   4.225  1.00  0.00    +0.000 C 
ATOM     92  C68 UNL A   1      17.747  23.778   3.217  1.00  0.00    +0.000 C 
ENDROOT
BRANCH   36   35
ATOM     33  C28 UNL A   1      18.937  25.438  -0.893  1.00  0.00    +0.000 C 
ATOM     34  C29 UNL A   1      19.060  24.347  -0.033  1.00  0.00    +0.000 C 
ATOM     35  C30 UNL A   1      19.741  24.476   1.189  1.00  0.00    +0.000 C 
ATOM    138  H44 UNL A   1      18.466  25.329  -1.804  1.00  0.00    +0.000 H 
ATOM    139  H45 UNL A   1      18.647  23.438  -0.296  1.00  0.00    +0.000 H 
ATOM    150  H56 UNL A   1      20.741  25.839   2.459  1.00  0.00    +0.000 H 
ATOM    151  H57 UNL A   1      20.340  27.777   1.057  1.00  0.00    +0.000 H 
ATOM     93  C69 UNL A   1      20.235  25.732   1.567  1.00  0.00    +0.000 C 
ATOM     94  C70 UNL A   1      20.045  26.840   0.741  1.00  0.00    +0.000 C 
ATOM     32  C27 UNL A   1      19.455  26.680  -0.516  1.00  0.00    +0.000 C 
BRANCH   32   30
ATOM     30  C26 UNL A   1      19.335  27.803  -1.473  1.00  0.00    +0.000 C 
ATOM     31  O2  UNL A   1      19.966  27.782  -2.519  1.00  0.00    +0.000 O 
BRANCH   30   29
ATOM    137  H43 UNL A   1      18.889  29.463  -0.453  1.00  0.00    +0.000 H 
ATOM     29  N2  UNL A   1      18.544  28.886  -1.171  1.00  0.00    +0.000 N 
BRANCH   29   28
ATOM     28  C25 UNL A   1      17.280  29.309  -1.746  1.00  0.00    +0.000 C 
ATOM    135  H41 UNL A   1      17.479  29.848  -2.649  1.00  0.00    +0.000 H 
ATOM    136  H42 UNL A   1      16.699  28.429  -1.929  1.00  0.00    +0.000 H 
BRANCH   28   27
ATOM     27  C24 UNL A   1      16.475  30.205  -0.810  1.00  0.00    +0.000 C 
ATOM    133  H39 UNL A   1      16.646  29.873   0.192  1.00  0.00    +0.000 H 
ATOM    134  H40 UNL A   1      16.811  31.203  -0.997  1.00  0.00    +0.000 H 
BRANCH   27   26
ATOM     26  C23 UNL A   1      14.963  30.217  -1.052  1.00  0.00    +0.000 C 
ATOM    131  H37 UNL A   1      14.482  30.384  -0.111  1.00  0.00    +0.000 H 
ATOM    132  H38 UNL A   1      14.790  30.989  -1.772  1.00  0.00    +0.000 H 
BRANCH   26   25
ATOM     25  C22 UNL A   1      14.377  28.939  -1.661  1.00  0.00    +0.000 C 
ATOM    130  H36 UNL A   1      14.784  28.127  -1.096  1.00  0.00    +0.000 H 
ATOM    129  H35 UNL A   1      14.640  28.916  -2.698  1.00  0.00    +0.000 H 
BRANCH   25   24
ATOM    128  H34 UNL A   1      12.534  28.071  -2.270  1.00  0.00    +0.000 H 
ATOM    127  H33 UNL A   1      12.405  29.755  -1.760  1.00  0.00    +0.000 H 
ATOM     24  C21 UNL A   1      12.852  28.803  -1.557  1.00  0.00    +0.000 C 
BRANCH   24   23
ATOM    125  H31 UNL A   1      13.274  28.332   0.471  1.00  0.00    +0.000 H 
ATOM    126  H32 UNL A   1      11.670  29.017   0.179  1.00  0.00    +0.000 H 
ATOM     23  C20 UNL A   1      12.419  28.338  -0.172  1.00  0.00    +0.000 C 
BRANCH   23   22
ATOM    124  H30 UNL A   1      11.967  26.498  -1.021  1.00  0.00    +0.000 H 
ATOM     22  N1  UNL A   1      11.838  27.008  -0.188  1.00  0.00    +0.000 N 
BRANCH   22   20
ATOM     20  C19 UNL A   1      11.140  26.369   0.787  1.00  0.00    +0.000 C 
ATOM     21  O1  UNL A   1      11.802  25.900   1.719  1.00  0.00    +0.000 O 
BRANCH   20   19
ATOM    122  H28 UNL A   1       9.378  25.792  -0.193  1.00  0.00    +0.000 H 
ATOM     19  C18 UNL A   1       9.634  26.171   0.774  1.00  0.00    +0.000 C 
ATOM    123  H29 UNL A   1       9.460  25.530   1.613  1.00  0.00    +0.000 H 
BRANCH   19   18
ATOM    121  H27 UNL A   1       7.835  27.098   0.489  1.00  0.00    +0.000 H 
ATOM     18  C17 UNL A   1       8.720  27.348   1.038  1.00  0.00    +0.000 C 
ATOM    120  H26 UNL A   1       9.254  28.225   0.740  1.00  0.00    +0.000 H 
BRANCH   18   17
ATOM     17  C16 UNL A   1       8.193  27.610   2.446  1.00  0.00    +0.000 C 
ATOM    118  H24 UNL A   1       7.644  28.524   2.362  1.00  0.00    +0.000 H 
ATOM    119  H25 UNL A   1       7.757  26.652   2.634  1.00  0.00    +0.000 H 
BRANCH   17   16
ATOM     16  S1  UNL A   1       9.160  27.786   4.012  1.00  0.00    +0.000 S 
BRANCH   16   15
ATOM    116  H22 UNL A   1      11.014  29.145   4.677  1.00  0.00    +0.000 H 
ATOM    117  H23 UNL A   1      11.393  28.028   3.305  1.00  0.00    +0.000 H 
ATOM     15  C15 UNL A   1      10.715  28.737   3.734  1.00  0.00    +0.000 C 
BRANCH   15   14
ATOM    114  H20 UNL A   1      10.458  29.495   1.750  1.00  0.00    +0.000 H 
ATOM    115  H21 UNL A   1       9.929  30.583   3.080  1.00  0.00    +0.000 H 
ATOM     14  C14 UNL A   1      10.675  29.908   2.713  1.00  0.00    +0.000 C 
BRANCH   14   13
ATOM    113  H19 UNL A   1      12.666  30.538   3.294  1.00  0.00    +0.000 H 
ATOM     13  C13 UNL A   1      11.934  30.724   2.591  1.00  0.00    +0.000 C 
BRANCH   13   12
ATOM     12  C12 UNL A   1      12.218  31.668   1.675  1.00  0.00    +0.000 C 
ATOM    112  H18 UNL A   1      12.979  32.335   1.874  1.00  0.00    +0.000 H 
BRANCH   12   11
ATOM     11  C11 UNL A   1      11.468  31.795   0.360  1.00  0.00    +0.000 C 
ATOM    110  H16 UNL A   1      11.485  30.841  -0.124  1.00  0.00    +0.000 H 
ATOM    111  H17 UNL A   1      10.483  32.129   0.612  1.00  0.00    +0.000 H 
BRANCH   11   10
ATOM     10  C10 UNL A   1      12.021  32.811  -0.595  1.00  0.00    +0.000 C 
ATOM    109  H15 UNL A   1      12.357  33.709  -0.215  1.00  0.00    +0.000 H 
BRANCH   10    9
ATOM      9  C9  UNL A   1      12.102  32.608  -1.921  1.00  0.00    +0.000 C 
ATOM    108  H14 UNL A   1      13.026  32.388  -2.323  1.00  0.00    +0.000 H 
BRANCH    9    8
ATOM    106  H12 UNL A   1      11.219  33.143  -3.773  1.00  0.00    +0.000 H 
ATOM    107  H13 UNL A   1      10.562  31.696  -3.066  1.00  0.00    +0.000 H 
ATOM      8  C8  UNL A   1      10.924  32.680  -2.854  1.00  0.00    +0.000 C 
BRANCH    8    7
ATOM    105  H11 UNL A   1      10.011  34.511  -2.102  1.00  0.00    +0.000 H 
ATOM      7  C7  UNL A   1       9.852  33.495  -2.197  1.00  0.00    +0.000 C 
BRANCH    7    6
ATOM      6  C6  UNL A   1       8.701  32.998  -1.722  1.00  0.00    +0.000 C 
ATOM    104  H10 UNL A   1       8.180  32.323  -2.304  1.00  0.00    +0.000 H 
BRANCH    6    5
ATOM      5  C5  UNL A   1       8.132  33.374  -0.384  1.00  0.00    +0.000 C 
ATOM    102  H8  UNL A   1       8.835  33.982   0.146  1.00  0.00    +0.000 H 
ATOM    103  H9  UNL A   1       7.224  33.924  -0.519  1.00  0.00    +0.000 H 
BRANCH    5    4
ATOM      4  C4  UNL A   1       7.857  32.121   0.397  1.00  0.00    +0.000 C 
ATOM    101  H7  UNL A   1       8.640  31.692   0.913  1.00  0.00    +0.000 H 
BRANCH    4    3
ATOM      3  C3  UNL A   1       6.658  31.524   0.467  1.00  0.00    +0.000 C 
ATOM    100  H6  UNL A   1       6.330  30.990  -0.353  1.00  0.00    +0.000 H 
BRANCH    3    2
ATOM      2  C2  UNL A   1       5.767  31.591   1.672  1.00  0.00    +0.000 C 
ATOM     99  H5  UNL A   1       6.341  31.345   2.540  1.00  0.00    +0.000 H 
ATOM     98  H4  UNL A   1       4.961  30.898   1.554  1.00  0.00    +0.000 H 
BRANCH    2    1
ATOM      1  C1  UNL A   1       5.200  32.994   1.838  1.00  0.00    +0.000 C 
ATOM     97  H3  UNL A   1       4.395  33.137   1.147  1.00  0.00    +0.000 H 
ATOM     95  H1  UNL A   1       5.968  33.713   1.646  1.00  0.00    +0.000 H 
ATOM     96  H2  UNL A   1       4.838  33.116   2.837  1.00  0.00    +0.000 H 
ENDBRANCH    2    1
ENDBRANCH    3    2
ENDBRANCH    4    3
ENDBRANCH    5    4
ENDBRANCH    6    5
ENDBRANCH    7    6
ENDBRANCH    8    7
ENDBRANCH    9    8
ENDBRANCH   10    9
ENDBRANCH   11   10
ENDBRANCH   12   11
ENDBRANCH   13   12
ENDBRANCH   14   13
ENDBRANCH   15   14
ENDBRANCH   16   15
ENDBRANCH   17   16
ENDBRANCH   18   17
ENDBRANCH   19   18
ENDBRANCH   20   19
ENDBRANCH   22   20
ENDBRANCH   23   22
ENDBRANCH   24   23
ENDBRANCH   25   24
ENDBRANCH   26   25
ENDBRANCH   27   26
ENDBRANCH   28   27
ENDBRANCH   29   28
ENDBRANCH   30   29
ENDBRANCH   32   30
ENDBRANCH   36   35
BRANCH   40   41
ATOM     41  C35 UNL A   1      15.921  21.475   6.185  1.00  0.00    +0.000 C 
ATOM     42  C36 UNL A   1      15.829  22.212   7.375  1.00  0.00    +0.000 C 
ATOM     43  F1  UNL A   1      16.942  22.576   8.032  1.00  0.00    +0.000 F 
ATOM     44  C37 UNL A   1      14.592  22.552   7.917  1.00  0.00    +0.000 C 
ATOM     45  F2  UNL A   1      14.530  23.220   9.078  1.00  0.00    +0.000 F 
ATOM     46  C38 UNL A   1      13.424  22.194   7.261  1.00  0.00    +0.000 C 
ATOM     47  F3  UNL A   1      12.234  22.535   7.775  1.00  0.00    +0.000 F 
ATOM     48  C39 UNL A   1      13.490  21.479   6.075  1.00  0.00    +0.000 C 
ATOM     49  F4  UNL A   1      12.362  21.145   5.432  1.00  0.00    +0.000 F 
ATOM     50  C40 UNL A   1      14.725  21.111   5.547  1.00  0.00    +0.000 C 
ATOM     51  F5  UNL A   1      14.754  20.410   4.404  1.00  0.00    +0.000 F 
ENDBRANCH   40   41
BRANCH   57   58
ATOM     65  C50 UNL A   1      21.888  15.051   8.488  1.00  0.00    +0.000 C 
ATOM     66  F9  UNL A   1      22.651  15.041   9.590  1.00  0.00    +0.000 F 
ATOM     67  C51 UNL A   1      21.686  16.240   7.794  1.00  0.00    +0.000 C 
ATOM     68  F10 UNL A   1      22.255  17.363   8.261  1.00  0.00    +0.000 F 
ATOM     58  C46 UNL A   1      20.908  16.273   6.627  1.00  0.00    +0.000 C 
ATOM     59  C47 UNL A   1      20.347  15.068   6.179  1.00  0.00    +0.000 C 
ATOM     60  F6  UNL A   1      19.583  15.046   5.077  1.00  0.00    +0.000 F 
ATOM     61  C48 UNL A   1      20.521  13.887   6.897  1.00  0.00    +0.000 C 
ATOM     62  F7  UNL A   1      19.918  12.762   6.487  1.00  0.00    +0.000 F 
ATOM     63  C49 UNL A   1      21.295  13.878   8.047  1.00  0.00    +0.000 C 
ATOM     64  F8  UNL A   1      21.461  12.741   8.735  1.00  0.00    +0.000 F 
ENDBRANCH   57   58
BRANCH   72   73
ATOM     73  C55 UNL A   1      24.770  19.637   1.910  1.00  0.00    +0.000 C 
ATOM     74  C56 UNL A   1      25.951  19.830   2.642  1.00  0.00    +0.000 C 
ATOM     75  F11 UNL A   1      25.889  20.252   3.914  1.00  0.00    +0.000 F 
ATOM     76  C57 UNL A   1      27.201  19.646   2.054  1.00  0.00    +0.000 C 
ATOM     77  F12 UNL A   1      28.313  19.901   2.758  1.00  0.00    +0.000 F 
ATOM     78  C58 UNL A   1      27.296  19.225   0.736  1.00  0.00    +0.000 C 
ATOM     79  F13 UNL A   1      28.498  19.050   0.172  1.00  0.00    +0.000 F 
ATOM     80  C59 UNL A   1      26.142  18.995   0.003  1.00  0.00    +0.000 C 
ATOM     81  F14 UNL A   1      26.229  18.571  -1.265  1.00  0.00    +0.000 F 
ATOM     82  C60 UNL A   1      24.893  19.215   0.578  1.00  0.00    +0.000 C 
ATOM     83  F15 UNL A   1      23.796  19.007  -0.165  1.00  0.00    +0.000 F 
ENDBRANCH   72   73
TORSDOF 33
ENDMDL
MODEL 5
REMARK VINA RESULT:      -6.9      2.586      8.345
ROOT
ATOM    140  H46 UNL A   1      20.037  19.387   1.865  1.00  0.00    +0.000 H 
ATOM    141  H47 UNL A   1      20.736  17.434   3.444  1.00  0.00    +0.000 H 
ATOM    142  H48 UNL A   1      17.319  19.193   4.983  1.00  0.00    +0.000 H 
ATOM    143  H49 UNL A   1      12.936  19.608   9.606  1.00  0.00    +0.000 H 
ATOM    144  H50 UNL A   1      12.217  21.459   8.024  1.00  0.00    +0.000 H 
ATOM    145  H51 UNL A   1      15.596  19.653   6.412  1.00  0.00    +0.000 H 
ATOM    146  H52 UNL A   1      16.852  15.969   9.582  1.00  0.00    +0.000 H 
ATOM    147  H53 UNL A   1      18.933  15.615   8.136  1.00  0.00    +0.000 H 
ATOM    148  H54 UNL A   1      15.825  22.717   1.749  1.00  0.00    +0.000 H 
ATOM    149  H55 UNL A   1      14.047  23.451   3.437  1.00  0.00    +0.000 H 
ATOM     36  C31 UNL A   1      13.916  21.796   5.759  1.00  0.00    +0.000 C 
ATOM     37  C32 UNL A   1      14.897  21.715   4.624  1.00  0.00    +0.000 C 
ATOM     38  N3  UNL A   1      15.894  20.884   4.451  1.00  0.00    +0.000 N 
ATOM     39  C33 UNL A   1      16.472  21.231   3.239  1.00  0.00    +0.000 C 
ATOM     40  C34 UNL A   1      17.587  20.725   2.658  1.00  0.00    +0.000 C 
ATOM     52  C41 UNL A   1      18.379  19.660   3.217  1.00  0.00    +0.000 C 
ATOM     53  C42 UNL A   1      19.541  19.094   2.721  1.00  0.00    +0.000 C 
ATOM     54  C43 UNL A   1      19.926  18.059   3.579  1.00  0.00    +0.000 C 
ATOM     55  C44 UNL A   1      19.038  18.017   4.641  1.00  0.00    +0.000 C 
ATOM     56  N4  UNL A   1      18.087  18.996   4.400  1.00  0.00    +0.000 N 
ATOM     57  C45 UNL A   1      19.056  17.149   5.791  1.00  0.00    +0.000 C 
ATOM     69  C52 UNL A   1      18.146  17.175   6.797  1.00  0.00    +0.000 C 
ATOM     70  N5  UNL A   1      17.031  17.988   6.949  1.00  0.00    +0.000 N 
ATOM     71  C53 UNL A   1      16.453  17.601   8.061  1.00  0.00    +0.000 C 
ATOM     72  C54 UNL A   1      15.222  18.148   8.734  1.00  0.00    +0.000 C 
ATOM     84  C61 UNL A   1      14.585  19.194   8.174  1.00  0.00    +0.000 C 
ATOM     85  C62 UNL A   1      13.407  19.857   8.722  1.00  0.00    +0.000 C 
ATOM     86  C63 UNL A   1      13.034  20.842   7.891  1.00  0.00    +0.000 C 
ATOM     87  C64 UNL A   1      13.969  20.903   6.767  1.00  0.00    +0.000 C 
ATOM     88  N6  UNL A   1      14.848  19.877   7.012  1.00  0.00    +0.000 N 
ATOM     89  C65 UNL A   1      17.128  16.480   8.729  1.00  0.00    +0.000 C 
ATOM     90  C66 UNL A   1      18.182  16.297   7.948  1.00  0.00    +0.000 C 
ATOM     91  C67 UNL A   1      15.676  22.302   2.681  1.00  0.00    +0.000 C 
ATOM     92  C68 UNL A   1      14.727  22.680   3.526  1.00  0.00    +0.000 C 
ENDROOT
BRANCH   36   35
ATOM     33  C28 UNL A   1      12.095  25.031   6.515  1.00  0.00    +0.000 C 
ATOM     34  C29 UNL A   1      13.105  24.075   6.417  1.00  0.00    +0.000 C 
ATOM     35  C30 UNL A   1      12.864  22.845   5.781  1.00  0.00    +0.000 C 
ATOM    138  H44 UNL A   1      12.267  25.918   7.013  1.00  0.00    +0.000 H 
ATOM    139  H45 UNL A   1      14.038  24.272   6.815  1.00  0.00    +0.000 H 
ATOM    150  H56 UNL A   1      11.426  21.717   4.718  1.00  0.00    +0.000 H 
ATOM    151  H57 UNL A   1       9.745  23.465   4.708  1.00  0.00    +0.000 H 
ATOM     93  C69 UNL A   1      11.617  22.618   5.183  1.00  0.00    +0.000 C 
ATOM     94  C70 UNL A   1      10.632  23.604   5.216  1.00  0.00    +0.000 C 
ATOM     32  C27 UNL A   1      10.847  24.783   5.937  1.00  0.00    +0.000 C 
BRANCH   32   30
ATOM     30  C26 UNL A   1       9.791  25.808   6.094  1.00  0.00    +0.000 C 
ATOM     31  O2  UNL A   1       9.244  25.956   7.176  1.00  0.00    +0.000 O 
BRANCH   30   29
ATOM    137  H43 UNL A   1       8.528  26.320   4.632  1.00  0.00    +0.000 H 
ATOM     29  N2  UNL A   1       9.400  26.567   5.018  1.00  0.00    +0.000 N 
BRANCH   29   28
ATOM     28  C25 UNL A   1      10.071  27.674   4.362  1.00  0.00    +0.000 C 
ATOM    135  H41 UNL A   1       9.349  28.435   4.150  1.00  0.00    +0.000 H 
ATOM    136  H42 UNL A   1      10.835  28.025   5.024  1.00  0.00    +0.000 H 
BRANCH   28   27
ATOM     27  C24 UNL A   1      10.747  27.267   3.056  1.00  0.00    +0.000 C 
ATOM    133  H39 UNL A   1      11.563  26.618   3.296  1.00  0.00    +0.000 H 
ATOM    134  H40 UNL A   1       9.988  26.803   2.464  1.00  0.00    +0.000 H 
BRANCH   27   26
ATOM     26  C23 UNL A   1      11.295  28.421   2.213  1.00  0.00    +0.000 C 
ATOM    131  H37 UNL A   1      12.011  28.951   2.807  1.00  0.00    +0.000 H 
ATOM    132  H38 UNL A   1      11.708  27.969   1.336  1.00  0.00    +0.000 H 
BRANCH   26   25
ATOM     25  C22 UNL A   1      10.257  29.432   1.713  1.00  0.00    +0.000 C 
ATOM    130  H36 UNL A   1       9.478  29.442   2.446  1.00  0.00    +0.000 H 
ATOM    129  H35 UNL A   1       9.930  29.118   0.743  1.00  0.00    +0.000 H 
BRANCH   25   24
ATOM    128  H34 UNL A   1      10.268  31.457   2.360  1.00  0.00    +0.000 H 
ATOM    127  H33 UNL A   1      10.512  31.252   0.625  1.00  0.00    +0.000 H 
ATOM     24  C21 UNL A   1      10.751  30.879   1.600  1.00  0.00    +0.000 C 
BRANCH   24   23
ATOM    125  H31 UNL A   1      12.450  31.118   2.855  1.00  0.00    +0.000 H 
ATOM    126  H32 UNL A   1      12.699  30.076   1.448  1.00  0.00    +0.000 H 
ATOM     23  C20 UNL A   1      12.258  30.980   1.811  1.00  0.00    +0.000 C 
BRANCH   23   22
ATOM    124  H30 UNL A   1      12.298  32.901   1.022  1.00  0.00    +0.000 H 
ATOM     22  N1  UNL A   1      12.848  32.086   1.078  1.00  0.00    +0.000 N 
BRANCH   22   20
ATOM     20  C19 UNL A   1      14.056  32.152   0.458  1.00  0.00    +0.000 C 
ATOM     21  O1  UNL A   1      14.651  33.232   0.530  1.00  0.00    +0.000 O 
BRANCH   20   19
ATOM    122  H28 UNL A   1      15.729  31.034  -0.130  1.00  0.00    +0.000 H 
ATOM     19  C18 UNL A   1      14.679  31.012  -0.329  1.00  0.00    +0.000 C 
ATOM    123  H29 UNL A   1      14.136  30.152   0.007  1.00  0.00    +0.000 H 
BRANCH   19   18
ATOM    121  H27 UNL A   1      14.727  29.939  -2.067  1.00  0.00    +0.000 H 
ATOM     18  C17 UNL A   1      14.519  30.962  -1.832  1.00  0.00    +0.000 C 
ATOM    120  H26 UNL A   1      15.173  31.705  -2.236  1.00  0.00    +0.000 H 
BRANCH   18   17
ATOM     17  C16 UNL A   1      13.150  31.191  -2.466  1.00  0.00    +0.000 C 
ATOM    118  H24 UNL A   1      12.958  32.234  -2.325  1.00  0.00    +0.000 H 
ATOM    119  H25 UNL A   1      13.333  30.728  -3.413  1.00  0.00    +0.000 H 
BRANCH   17   16
ATOM     16  S1  UNL A   1      11.549  30.362  -2.058  1.00  0.00    +0.000 S 
BRANCH   16   15
ATOM    116  H22 UNL A   1      10.722  28.116  -2.077  1.00  0.00    +0.000 H 
ATOM    117  H23 UNL A   1      11.642  28.560  -3.571  1.00  0.00    +0.000 H 
ATOM     15  C15 UNL A   1      11.592  28.572  -2.501  1.00  0.00    +0.000 C 
BRANCH   15   14
ATOM    114  H20 UNL A   1      13.453  28.385  -1.464  1.00  0.00    +0.000 H 
ATOM    115  H21 UNL A   1      12.421  26.914  -1.493  1.00  0.00    +0.000 H 
ATOM     14  C14 UNL A   1      12.822  27.742  -2.041  1.00  0.00    +0.000 C 
BRANCH   14   13
ATOM    113  H19 UNL A   1      14.647  27.431  -3.170  1.00  0.00    +0.000 H 
ATOM     13  C13 UNL A   1      13.659  27.135  -3.135  1.00  0.00    +0.000 C 
BRANCH   13   12
ATOM     12  C12 UNL A   1      13.271  26.252  -4.075  1.00  0.00    +0.000 C 
ATOM    112  H18 UNL A   1      12.627  26.571  -4.814  1.00  0.00    +0.000 H 
BRANCH   12   11
ATOM     11  C11 UNL A   1      13.741  24.809  -4.095  1.00  0.00    +0.000 C 
ATOM    110  H16 UNL A   1      13.269  24.295  -3.284  1.00  0.00    +0.000 H 
ATOM    111  H17 UNL A   1      13.475  24.423  -5.057  1.00  0.00    +0.000 H 
BRANCH   11   10
ATOM     10  C10 UNL A   1      15.223  24.617  -3.965  1.00  0.00    +0.000 C 
ATOM    109  H15 UNL A   1      15.832  24.979  -4.715  1.00  0.00    +0.000 H 
BRANCH   10    9
ATOM      9  C9  UNL A   1      15.797  23.999  -2.920  1.00  0.00    +0.000 C 
ATOM    108  H14 UNL A   1      16.187  23.054  -3.068  1.00  0.00    +0.000 H 
BRANCH    9    8
ATOM    106  H12 UNL A   1      16.830  24.302  -1.092  1.00  0.00    +0.000 H 
ATOM    107  H13 UNL A   1      15.883  25.667  -1.607  1.00  0.00    +0.000 H 
ATOM      8  C8  UNL A   1      15.907  24.599  -1.545  1.00  0.00    +0.000 C 
BRANCH    8    7
ATOM    105  H11 UNL A   1      14.228  24.797  -0.169  1.00  0.00    +0.000 H 
ATOM      7  C7  UNL A   1      14.756  24.104  -0.722  1.00  0.00    +0.000 C 
BRANCH    7    6
ATOM      6  C6  UNL A   1      14.366  22.823  -0.652  1.00  0.00    +0.000 C 
ATOM    104  H10 UNL A   1      15.084  22.097  -0.500  1.00  0.00    +0.000 H 
BRANCH    6    5
ATOM      5  C5  UNL A   1      12.933  22.392  -0.783  1.00  0.00    +0.000 C 
ATOM    102  H8  UNL A   1      12.310  23.252  -0.907  1.00  0.00    +0.000 H 
ATOM    103  H9  UNL A   1      12.824  21.754  -1.635  1.00  0.00    +0.000 H 
BRANCH    5    4
ATOM      4  C4  UNL A   1      12.532  21.652   0.461  1.00  0.00    +0.000 C 
ATOM    101  H7  UNL A   1      12.820  20.666   0.550  1.00  0.00    +0.000 H 
BRANCH    4    3
ATOM      3  C3  UNL A   1      11.821  22.191   1.463  1.00  0.00    +0.000 C 
ATOM    100  H6  UNL A   1      11.398  21.556   2.158  1.00  0.00    +0.000 H 
BRANCH    3    2
ATOM      2  C2  UNL A   1      11.608  23.667   1.628  1.00  0.00    +0.000 C 
ATOM     99  H5  UNL A   1      12.182  24.183   0.888  1.00  0.00    +0.000 H 
ATOM     98  H4  UNL A   1      11.919  23.960   2.608  1.00  0.00    +0.000 H 
BRANCH    2    1
ATOM      1  C1  UNL A   1      10.138  24.016   1.443  1.00  0.00    +0.000 C 
ATOM     97  H3  UNL A   1       9.700  23.349   0.730  1.00  0.00    +0.000 H 
ATOM     95  H1  UNL A   1      10.053  25.023   1.090  1.00  0.00    +0.000 H 
ATOM     96  H2  UNL A   1       9.628  23.922   2.378  1.00  0.00    +0.000 H 
ENDBRANCH    2    1
ENDBRANCH    3    2
ENDBRANCH    4    3
ENDBRANCH    5    4
ENDBRANCH    6    5
ENDBRANCH    7    6
ENDBRANCH    8    7
ENDBRANCH    9    8
ENDBRANCH   10    9
ENDBRANCH   11   10
ENDBRANCH   12   11
ENDBRANCH   13   12
ENDBRANCH   14   13
ENDBRANCH   15   14
ENDBRANCH   16   15
ENDBRANCH   17   16
ENDBRANCH   18   17
ENDBRANCH   19   18
ENDBRANCH   20   19
ENDBRANCH   22   20
ENDBRANCH   23   22
ENDBRANCH   24   23
ENDBRANCH   25   24
ENDBRANCH   26   25
ENDBRANCH   27   26
ENDBRANCH   28   27
ENDBRANCH   29   28
ENDBRANCH   30   29
ENDBRANCH   32   30
ENDBRANCH   36   35
BRANCH   40   41
ATOM     41  C35 UNL A   1      18.030  21.330   1.355  1.00  0.00    +0.000 C 
ATOM     42  C36 UNL A   1      17.476  20.918   0.133  1.00  0.00    +0.000 C 
ATOM     43  F1  UNL A   1      16.582  19.918   0.100  1.00  0.00    +0.000 F 
ATOM     44  C37 UNL A   1      17.864  21.509  -1.067  1.00  0.00    +0.000 C 
ATOM     45  F2  UNL A   1      17.353  21.069  -2.225  1.00  0.00    +0.000 F 
ATOM     46  C38 UNL A   1      18.783  22.547  -1.066  1.00  0.00    +0.000 C 
ATOM     47  F3  UNL A   1      19.144  23.125  -2.219  1.00  0.00    +0.000 F 
ATOM     48  C39 UNL A   1      19.332  22.981   0.131  1.00  0.00    +0.000 C 
ATOM     49  F4  UNL A   1      20.210  23.994   0.135  1.00  0.00    +0.000 F 
ATOM     50  C40 UNL A   1      18.970  22.372   1.330  1.00  0.00    +0.000 C 
ATOM     51  F5  UNL A   1      19.527  22.809   2.469  1.00  0.00    +0.000 F 
ENDBRANCH   40   41
BRANCH   57   58
ATOM     65  C50 UNL A   1      21.072  13.935   5.484  1.00  0.00    +0.000 C 
ATOM     66  F9  UNL A   1      20.912  12.700   4.986  1.00  0.00    +0.000 F 
ATOM     67  C51 UNL A   1      20.041  14.864   5.380  1.00  0.00    +0.000 C 
ATOM     68  F10 UNL A   1      18.906  14.500   4.763  1.00  0.00    +0.000 F 
ATOM     58  C46 UNL A   1      20.176  16.156   5.911  1.00  0.00    +0.000 C 
ATOM     59  C47 UNL A   1      21.380  16.478   6.555  1.00  0.00    +0.000 C 
ATOM     60  F6  UNL A   1      21.566  17.703   7.067  1.00  0.00    +0.000 F 
ATOM     61  C48 UNL A   1      22.423  15.557   6.624  1.00  0.00    +0.000 C 
ATOM     62  F7  UNL A   1      23.589  15.910   7.184  1.00  0.00    +0.000 F 
ATOM     63  C49 UNL A   1      22.267  14.285   6.094  1.00  0.00    +0.000 C 
ATOM     64  F8  UNL A   1      23.271  13.402   6.162  1.00  0.00    +0.000 F 
ENDBRANCH   57   58
BRANCH   72   73
ATOM     73  C55 UNL A   1      14.718  17.555  10.001  1.00  0.00    +0.000 C 
ATOM     74  C56 UNL A   1      15.115  18.056  11.249  1.00  0.00    +0.000 C 
ATOM     75  F11 UNL A   1      15.960  19.097  11.314  1.00  0.00    +0.000 F 
ATOM     76  C57 UNL A   1      14.694  17.457  12.434  1.00  0.00    +0.000 C 
ATOM     77  F12 UNL A   1      15.142  17.917  13.610  1.00  0.00    +0.000 F 
ATOM     78  C58 UNL A   1      13.833  16.371  12.397  1.00  0.00    +0.000 C 
ATOM     79  F13 UNL A   1      13.429  15.794  13.537  1.00  0.00    +0.000 F 
ATOM     80  C59 UNL A   1      13.399  15.878  11.176  1.00  0.00    +0.000 C 
ATOM     81  F14 UNL A   1      12.553  14.840  11.135  1.00  0.00    +0.000 F 
ATOM     82  C60 UNL A   1      13.850  16.454   9.990  1.00  0.00    +0.000 C 
ATOM     83  F15 UNL A   1      13.431  15.938   8.825  1.00  0.00    +0.000 F 
ENDBRANCH   72   73
TORSDOF 33
ENDMDL
MODEL 6
REMARK VINA RESULT:      -6.8     39.945     44.595
ROOT
ATOM    140  H46 UNL A   1      44.091  44.255  22.884  1.00  0.00    +0.000 H 
ATOM    141  H47 UNL A   1      43.399  45.257  20.579  1.00  0.00    +0.000 H 
ATOM    142  H48 UNL A   1      47.449  44.407  20.464  1.00  0.00    +0.000 H 
ATOM    143  H49 UNL A   1      53.034  44.581  17.377  1.00  0.00    +0.000 H 
ATOM    144  H50 UNL A   1      53.686  43.535  19.597  1.00  0.00    +0.000 H 
ATOM    145  H51 UNL A   1      49.601  44.297  19.704  1.00  0.00    +0.000 H 
ATOM    146  H52 UNL A   1      48.435  46.272  15.239  1.00  0.00    +0.000 H 
ATOM    147  H53 UNL A   1      46.080  46.645  16.168  1.00  0.00    +0.000 H 
ATOM    148  H54 UNL A   1      48.665  42.182  24.787  1.00  0.00    +0.000 H 
ATOM    149  H55 UNL A   1      51.127  42.283  24.095  1.00  0.00    +0.000 H 
ATOM     36  C31 UNL A   1      51.538  43.289  21.456  1.00  0.00    +0.000 C 
ATOM     37  C32 UNL A   1      50.244  43.186  22.212  1.00  0.00    +0.000 C 
ATOM     38  N3  UNL A   1      49.038  43.531  21.836  1.00  0.00    +0.000 N 
ATOM     39  C33 UNL A   1      48.204  43.216  22.899  1.00  0.00    +0.000 C 
ATOM     40  C34 UNL A   1      46.878  43.459  23.035  1.00  0.00    +0.000 C 
ATOM     52  C41 UNL A   1      46.063  44.088  22.027  1.00  0.00    +0.000 C 
ATOM     53  C42 UNL A   1      44.716  44.404  22.077  1.00  0.00    +0.000 C 
ATOM     54  C43 UNL A   1      44.350  44.959  20.846  1.00  0.00    +0.000 C 
ATOM     55  C44 UNL A   1      45.479  45.043  20.050  1.00  0.00    +0.000 C 
ATOM     56  N4  UNL A   1      46.521  44.494  20.781  1.00  0.00    +0.000 N 
ATOM     57  C45 UNL A   1      45.602  45.586  18.720  1.00  0.00    +0.000 C 
ATOM     69  C52 UNL A   1      46.752  45.637  18.005  1.00  0.00    +0.000 C 
ATOM     70  N5  UNL A   1      48.021  45.191  18.353  1.00  0.00    +0.000 N 
ATOM     71  C53 UNL A   1      48.784  45.428  17.313  1.00  0.00    +0.000 C 
ATOM     72  C54 UNL A   1      50.257  45.177  17.137  1.00  0.00    +0.000 C 
ATOM     84  C61 UNL A   1      50.954  44.650  18.162  1.00  0.00    +0.000 C 
ATOM     85  C62 UNL A   1      52.389  44.384  18.158  1.00  0.00    +0.000 C 
ATOM     86  C63 UNL A   1      52.735  43.841  19.336  1.00  0.00    +0.000 C 
ATOM     87  C64 UNL A   1      51.551  43.754  20.192  1.00  0.00    +0.000 C 
ATOM     88  N6  UNL A   1      50.537  44.243  19.405  1.00  0.00    +0.000 N 
ATOM     89  C65 UNL A   1      48.076  46.032  16.176  1.00  0.00    +0.000 C 
ATOM     90  C66 UNL A   1      46.857  46.188  16.671  1.00  0.00    +0.000 C 
ATOM     91  C67 UNL A   1      49.026  42.587  23.910  1.00  0.00    +0.000 C 
ATOM     92  C68 UNL A   1      50.304  42.600  23.560  1.00  0.00    +0.000 C 
ENDROOT
BRANCH   36   35
ATOM     33  C28 UNL A   1      54.528  41.171  22.423  1.00  0.00    +0.000 C 
ATOM     34  C29 UNL A   1      53.372  41.610  21.777  1.00  0.00    +0.000 C 
ATOM     35  C30 UNL A   1      52.818  42.865  22.081  1.00  0.00    +0.000 C 
ATOM    138  H44 UNL A   1      54.911  40.235  22.221  1.00  0.00    +0.000 H 
ATOM    139  H45 UNL A   1      52.921  41.008  21.069  1.00  0.00    +0.000 H 
ATOM    150  H56 UNL A   1      53.080  44.623  23.226  1.00  0.00    +0.000 H 
ATOM    151  H57 UNL A   1      55.200  43.941  24.187  1.00  0.00    +0.000 H 
ATOM     93  C69 UNL A   1      53.480  43.701  22.990  1.00  0.00    +0.000 C 
ATOM     94  C70 UNL A   1      54.675  43.293  23.579  1.00  0.00    +0.000 C 
ATOM     32  C27 UNL A   1      55.164  42.004  23.346  1.00  0.00    +0.000 C 
BRANCH   32   30
ATOM     30  C26 UNL A   1      56.368  41.487  24.036  1.00  0.00    +0.000 C 
ATOM     31  O2  UNL A   1      56.259  40.590  24.858  1.00  0.00    +0.000 O 
BRANCH   30   29
ATOM    137  H43 UNL A   1      58.130  42.257  24.581  1.00  0.00    +0.000 H 
ATOM     29  N2  UNL A   1      57.600  42.038  23.781  1.00  0.00    +0.000 N 
BRANCH   29   28
ATOM     28  C25 UNL A   1      58.242  42.346  22.515  1.00  0.00    +0.000 C 
ATOM    135  H41 UNL A   1      59.122  41.745  22.423  1.00  0.00    +0.000 H 
ATOM    136  H42 UNL A   1      57.536  42.140  21.738  1.00  0.00    +0.000 H 
BRANCH   28   27
ATOM     27  C24 UNL A   1      58.639  43.814  22.396  1.00  0.00    +0.000 C 
ATOM    133  H39 UNL A   1      59.635  43.918  22.772  1.00  0.00    +0.000 H 
ATOM    134  H40 UNL A   1      58.543  44.062  21.360  1.00  0.00    +0.000 H 
BRANCH   27   26
ATOM     26  C23 UNL A   1      57.745  44.800  23.151  1.00  0.00    +0.000 C 
ATOM    131  H37 UNL A   1      56.879  44.267  23.486  1.00  0.00    +0.000 H 
ATOM    132  H38 UNL A   1      58.347  45.190  23.945  1.00  0.00    +0.000 H 
BRANCH   26   25
ATOM     25  C22 UNL A   1      57.269  46.017  22.350  1.00  0.00    +0.000 C 
ATOM    130  H36 UNL A   1      58.137  46.405  21.860  1.00  0.00    +0.000 H 
ATOM    129  H35 UNL A   1      56.816  46.705  23.033  1.00  0.00    +0.000 H 
BRANCH   25   24
ATOM    128  H34 UNL A   1      55.290  45.613  21.688  1.00  0.00    +0.000 H 
ATOM    127  H33 UNL A   1      56.545  44.812  20.742  1.00  0.00    +0.000 H 
ATOM     24  C21 UNL A   1      56.256  45.715  21.239  1.00  0.00    +0.000 C 
BRANCH   24   23
ATOM    125  H31 UNL A   1      56.039  47.767  20.731  1.00  0.00    +0.000 H 
ATOM    126  H32 UNL A   1      57.108  46.841  19.669  1.00  0.00    +0.000 H 
ATOM     23  C20 UNL A   1      56.188  46.842  20.215  1.00  0.00    +0.000 C 
BRANCH   23   22
ATOM    124  H30 UNL A   1      55.166  45.853  18.702  1.00  0.00    +0.000 H 
ATOM     22  N1  UNL A   1      55.108  46.661  19.261  1.00  0.00    +0.000 N 
BRANCH   22   20
ATOM     20  C19 UNL A   1      54.028  47.454  19.034  1.00  0.00    +0.000 C 
ATOM     21  O1  UNL A   1      54.075  48.171  18.028  1.00  0.00    +0.000 O 
BRANCH   20   19
ATOM    122  H28 UNL A   1      52.069  46.890  19.525  1.00  0.00    +0.000 H 
ATOM     19  C18 UNL A   1      52.815  47.532  19.945  1.00  0.00    +0.000 C 
ATOM    123  H29 UNL A   1      53.207  47.265  20.904  1.00  0.00    +0.000 H 
BRANCH   19   18
ATOM    121  H27 UNL A   1      51.225  48.597  20.661  1.00  0.00    +0.000 H 
ATOM     18  C17 UNL A   1      52.151  48.867  20.197  1.00  0.00    +0.000 C 
ATOM    120  H26 UNL A   1      52.103  49.371  19.255  1.00  0.00    +0.000 H 
BRANCH   18   17
ATOM     17  C16 UNL A   1      52.761  49.852  21.190  1.00  0.00    +0.000 C 
ATOM    118  H24 UNL A   1      52.681  50.805  20.710  1.00  0.00    +0.000 H 
ATOM    119  H25 UNL A   1      52.213  49.561  22.061  1.00  0.00    +0.000 H 
BRANCH   17   16
ATOM     16  S1  UNL A   1      54.461  49.837  21.916  1.00  0.00    +0.000 S 
BRANCH   16   15
ATOM    116  H22 UNL A   1      55.552  48.677  23.704  1.00  0.00    +0.000 H 
ATOM    117  H23 UNL A   1      53.949  49.378  24.168  1.00  0.00    +0.000 H 
ATOM     15  C15 UNL A   1      54.521  48.821  23.455  1.00  0.00    +0.000 C 
BRANCH   15   14
ATOM    114  H20 UNL A   1      53.446  47.273  22.444  1.00  0.00    +0.000 H 
ATOM    115  H21 UNL A   1      54.624  46.726  23.688  1.00  0.00    +0.000 H 
ATOM     14  C14 UNL A   1      53.851  47.419  23.424  1.00  0.00    +0.000 C 
BRANCH   14   13
ATOM    113  H19 UNL A   1      52.805  47.733  25.296  1.00  0.00    +0.000 H 
ATOM     13  C13 UNL A   1      52.745  47.192  24.419  1.00  0.00    +0.000 C 
BRANCH   13   12
ATOM     12  C12 UNL A   1      51.689  46.366  24.302  1.00  0.00    +0.000 C 
ATOM    112  H18 UNL A   1      51.242  46.266  23.379  1.00  0.00    +0.000 H 
BRANCH   12   11
ATOM     11  C11 UNL A   1      51.127  45.574  25.469  1.00  0.00    +0.000 C 
ATOM    110  H16 UNL A   1      51.370  44.543  25.318  1.00  0.00    +0.000 H 
ATOM    111  H17 UNL A   1      51.568  45.991  26.351  1.00  0.00    +0.000 H 
BRANCH   11   10
ATOM     10  C10 UNL A   1      49.643  45.678  25.657  1.00  0.00    +0.000 C 
ATOM    109  H15 UNL A   1      49.065  44.846  25.466  1.00  0.00    +0.000 H 
BRANCH   10    9
ATOM      9  C9  UNL A   1      49.029  46.803  26.062  1.00  0.00    +0.000 C 
ATOM    108  H14 UNL A   1      48.251  47.165  25.489  1.00  0.00    +0.000 H 
BRANCH    9    8
ATOM    106  H12 UNL A   1      48.637  47.471  28.036  1.00  0.00    +0.000 H 
ATOM    107  H13 UNL A   1      50.321  47.181  27.706  1.00  0.00    +0.000 H 
ATOM      8  C8  UNL A   1      49.408  47.567  27.301  1.00  0.00    +0.000 C 
BRANCH    8    7
ATOM    105  H11 UNL A   1      49.181  49.718  27.568  1.00  0.00    +0.000 H 
ATOM      7  C7  UNL A   1      49.577  49.010  26.931  1.00  0.00    +0.000 C 
BRANCH    7    6
ATOM      6  C6  UNL A   1      50.207  49.445  25.830  1.00  0.00    +0.000 C 
ATOM    104  H10 UNL A   1      51.139  49.059  25.612  1.00  0.00    +0.000 H 
BRANCH    6    5
ATOM      5  C5  UNL A   1      49.621  50.465  24.896  1.00  0.00    +0.000 C 
ATOM    102  H8  UNL A   1      48.570  50.552  25.074  1.00  0.00    +0.000 H 
ATOM    103  H9  UNL A   1      50.084  51.415  25.062  1.00  0.00    +0.000 H 
BRANCH    5    4
ATOM      4  C4  UNL A   1      49.858  50.022  23.480  1.00  0.00    +0.000 C 
ATOM    101  H7  UNL A   1      50.253  50.709  22.820  1.00  0.00    +0.000 H 
BRANCH    4    3
ATOM      3  C3  UNL A   1      49.589  48.792  23.020  1.00  0.00    +0.000 C 
ATOM    100  H6  UNL A   1      49.940  47.983  23.555  1.00  0.00    +0.000 H 
BRANCH    3    2
ATOM      2  C2  UNL A   1      48.806  48.529  21.767  1.00  0.00    +0.000 C 
ATOM     99  H5  UNL A   1      49.178  49.160  20.988  1.00  0.00    +0.000 H 
ATOM     98  H4  UNL A   1      47.772  48.735  21.948  1.00  0.00    +0.000 H 
BRANCH    2    1
ATOM      1  C1  UNL A   1      48.960  47.076  21.338  1.00  0.00    +0.000 C 
ATOM     97  H3  UNL A   1      48.147  46.807  20.696  1.00  0.00    +0.000 H 
ATOM     95  H1  UNL A   1      48.956  46.447  22.203  1.00  0.00    +0.000 H 
ATOM     96  H2  UNL A   1      49.884  46.955  20.813  1.00  0.00    +0.000 H 
ENDBRANCH    2    1
ENDBRANCH    3    2
ENDBRANCH    4    3
ENDBRANCH    5    4
ENDBRANCH    6    5
ENDBRANCH    7    6
ENDBRANCH    8    7
ENDBRANCH    9    8
ENDBRANCH   10    9
ENDBRANCH   11   10
ENDBRANCH   12   11
ENDBRANCH   13   12
ENDBRANCH   14   13
ENDBRANCH   15   14
ENDBRANCH   16   15
ENDBRANCH   17   16
ENDBRANCH   18   17
ENDBRANCH   19   18
ENDBRANCH   20   19
ENDBRANCH   22   20
ENDBRANCH   23   22
ENDBRANCH   24   23
ENDBRANCH   25   24
ENDBRANCH   26   25
ENDBRANCH   27   26
ENDBRANCH   28   27
ENDBRANCH   29   28
ENDBRANCH   30   29
ENDBRANCH   32   30
ENDBRANCH   36   35
BRANCH   40   41
ATOM     41  C35 UNL A   1      46.225  43.061  24.328  1.00  0.00    +0.000 C 
ATOM     42  C36 UNL A   1      45.937  41.719  24.618  1.00  0.00    +0.000 C 
ATOM     43  F1  UNL A   1      46.180  40.764  23.707  1.00  0.00    +0.000 F 
ATOM     44  C37 UNL A   1      45.366  41.352  25.835  1.00  0.00    +0.000 C 
ATOM     45  F2  UNL A   1      45.062  40.069  26.071  1.00  0.00    +0.000 F 
ATOM     46  C38 UNL A   1      45.106  42.315  26.798  1.00  0.00    +0.000 C 
ATOM     47  F3  UNL A   1      44.571  41.960  27.974  1.00  0.00    +0.000 F 
ATOM     48  C39 UNL A   1      45.396  43.646  26.540  1.00  0.00    +0.000 C 
ATOM     49  F4  UNL A   1      45.159  44.575  27.476  1.00  0.00    +0.000 F 
ATOM     50  C40 UNL A   1      45.939  44.019  25.313  1.00  0.00    +0.000 C 
ATOM     51  F5  UNL A   1      46.198  45.317  25.091  1.00  0.00    +0.000 F 
ENDBRANCH   40   41
BRANCH   57   58
ATOM     65  C50 UNL A   1      42.445  45.915  16.618  1.00  0.00    +0.000 C 
ATOM     66  F9  UNL A   1      41.716  45.157  15.786  1.00  0.00    +0.000 F 
ATOM     67  C51 UNL A   1      43.584  45.388  17.219  1.00  0.00    +0.000 C 
ATOM     68  F10 UNL A   1      43.919  44.115  16.958  1.00  0.00    +0.000 F 
ATOM     58  C46 UNL A   1      44.374  46.167  18.078  1.00  0.00    +0.000 C 
ATOM     59  C47 UNL A   1      43.982  47.494  18.306  1.00  0.00    +0.000 C 
ATOM     60  F6  UNL A   1      44.694  48.277  19.130  1.00  0.00    +0.000 F 
ATOM     61  C48 UNL A   1      42.821  48.006  17.733  1.00  0.00    +0.000 C 
ATOM     62  F7  UNL A   1      42.430  49.256  18.020  1.00  0.00    +0.000 F 
ATOM     63  C49 UNL A   1      42.056  47.219  16.885  1.00  0.00    +0.000 C 
ATOM     64  F8  UNL A   1      40.940  47.714  16.335  1.00  0.00    +0.000 F 
ENDBRANCH   57   58
BRANCH   72   73
ATOM     73  C55 UNL A   1      50.941  45.512  15.860  1.00  0.00    +0.000 C 
ATOM     74  C56 UNL A   1      51.106  44.554  14.849  1.00  0.00    +0.000 C 
ATOM     75  F11 UNL A   1      50.634  43.310  15.022  1.00  0.00    +0.000 F 
ATOM     76  C57 UNL A   1      51.806  44.852  13.681  1.00  0.00    +0.000 C 
ATOM     77  F12 UNL A   1      52.005  43.897  12.761  1.00  0.00    +0.000 F 
ATOM     78  C58 UNL A   1      52.318  46.125  13.481  1.00  0.00    +0.000 C 
ATOM     79  F13 UNL A   1      52.991  46.410  12.359  1.00  0.00    +0.000 F 
ATOM     80  C59 UNL A   1      52.138  47.099  14.452  1.00  0.00    +0.000 C 
ATOM     81  F14 UNL A   1      52.615  48.335  14.255  1.00  0.00    +0.000 F 
ATOM     82  C60 UNL A   1      51.471  46.791  15.635  1.00  0.00    +0.000 C 
ATOM     83  F15 UNL A   1      51.336  47.748  16.565  1.00  0.00    +0.000 F 
ENDBRANCH   72   73
TORSDOF 33
ENDMDL
MODEL 7
REMARK VINA RESULT:      -6.5     48.035     53.773
ROOT
ATOM    140  H46 UNL A   1      27.702  24.188  53.434  1.00  0.00    +0.000 H 
ATOM    141  H47 UNL A   1      29.183  25.687  51.899  1.00  0.00    +0.000 H 
ATOM    142  H48 UNL A   1      26.682  28.147  54.097  1.00  0.00    +0.000 H 
ATOM    143  H49 UNL A   1      24.461  33.984  55.420  1.00  0.00    +0.000 H 
ATOM    144  H50 UNL A   1      23.077  32.524  56.970  1.00  0.00    +0.000 H 
ATOM    145  H51 UNL A   1      25.639  30.040  54.838  1.00  0.00    +0.000 H 
ATOM    146  H52 UNL A   1      28.369  33.051  51.893  1.00  0.00    +0.000 H 
ATOM    147  H53 UNL A   1      29.358  30.928  50.864  1.00  0.00    +0.000 H 
ATOM    148  H54 UNL A   1      24.095  25.254  57.268  1.00  0.00    +0.000 H 
ATOM    149  H55 UNL A   1      22.711  27.301  57.936  1.00  0.00    +0.000 H 
ATOM     36  C31 UNL A   1      23.600  29.731  56.733  1.00  0.00    +0.000 C 
ATOM     37  C32 UNL A   1      24.115  28.341  56.490  1.00  0.00    +0.000 C 
ATOM     38  N3  UNL A   1      25.067  27.941  55.685  1.00  0.00    +0.000 N 
ATOM     39  C33 UNL A   1      25.152  26.566  55.850  1.00  0.00    +0.000 C 
ATOM     40  C34 UNL A   1      25.926  25.679  55.178  1.00  0.00    +0.000 C 
ATOM     52  C41 UNL A   1      26.866  26.043  54.150  1.00  0.00    +0.000 C 
ATOM     53  C42 UNL A   1      27.678  25.218  53.390  1.00  0.00    +0.000 C 
ATOM     54  C43 UNL A   1      28.458  26.022  52.552  1.00  0.00    +0.000 C 
ATOM     55  C44 UNL A   1      28.093  27.343  52.748  1.00  0.00    +0.000 C 
ATOM     56  N4  UNL A   1      27.124  27.343  53.739  1.00  0.00    +0.000 N 
ATOM     57  C45 UNL A   1      28.588  28.520  52.078  1.00  0.00    +0.000 C 
ATOM     69  C52 UNL A   1      28.171  29.787  52.325  1.00  0.00    +0.000 C 
ATOM     70  N5  UNL A   1      27.229  30.236  53.240  1.00  0.00    +0.000 N 
ATOM     71  C53 UNL A   1      27.211  31.543  53.126  1.00  0.00    +0.000 C 
ATOM     72  C54 UNL A   1      26.358  32.550  53.850  1.00  0.00    +0.000 C 
ATOM     84  C61 UNL A   1      25.454  32.112  54.746  1.00  0.00    +0.000 C 
ATOM     85  C62 UNL A   1      24.533  32.958  55.499  1.00  0.00    +0.000 C 
ATOM     86  C63 UNL A   1      23.793  32.184  56.309  1.00  0.00    +0.000 C 
ATOM     87  C64 UNL A   1      24.165  30.783  56.107  1.00  0.00    +0.000 C 
ATOM     88  N6  UNL A   1      25.169  30.838  55.172  1.00  0.00    +0.000 N 
ATOM     89  C65 UNL A   1      28.161  32.071  52.137  1.00  0.00    +0.000 C 
ATOM     90  C66 UNL A   1      28.678  30.957  51.640  1.00  0.00    +0.000 C 
ATOM     91  C67 UNL A   1      24.204  26.204  56.881  1.00  0.00    +0.000 C 
ATOM     92  C68 UNL A   1      23.495  27.256  57.267  1.00  0.00    +0.000 C 
ENDROOT
BRANCH   36   35
ATOM     33  C28 UNL A   1      21.679  30.308  59.947  1.00  0.00    +0.000 C 
ATOM     34  C29 UNL A   1      22.733  30.166  59.044  1.00  0.00    +0.000 C 
ATOM     35  C30 UNL A   1      22.478  29.972  57.676  1.00  0.00    +0.000 C 
ATOM    138  H44 UNL A   1      21.871  30.416  60.955  1.00  0.00    +0.000 H 
ATOM    139  H45 UNL A   1      23.708  30.205  59.384  1.00  0.00    +0.000 H 
ATOM    150  H56 UNL A   1      20.953  29.846  56.217  1.00  0.00    +0.000 H 
ATOM    151  H57 UNL A   1      19.138  30.303  57.760  1.00  0.00    +0.000 H 
ATOM     93  C69 UNL A   1      21.153  29.993  57.218  1.00  0.00    +0.000 C 
ATOM     94  C70 UNL A   1      20.105  30.210  58.111  1.00  0.00    +0.000 C 
ATOM     32  C27 UNL A   1      20.362  30.302  59.482  1.00  0.00    +0.000 C 
BRANCH   32   30
ATOM     30  C26 UNL A   1      19.272  30.420  60.476  1.00  0.00    +0.000 C 
ATOM     31  O2  UNL A   1      19.217  31.398  61.206  1.00  0.00    +0.000 O 
BRANCH   30   29
ATOM    137  H43 UNL A   1      17.568  29.488  60.005  1.00  0.00    +0.000 H 
ATOM     29  N2  UNL A   1      18.344  29.415  60.606  1.00  0.00    +0.000 N 
BRANCH   29   28
ATOM     28  C25 UNL A   1      18.332  28.263  61.489  1.00  0.00    +0.000 C 
ATOM    135  H41 UNL A   1      17.918  28.558  62.431  1.00  0.00    +0.000 H 
ATOM    136  H42 UNL A   1      17.745  27.502  61.018  1.00  0.00    +0.000 H 
BRANCH   28   27
ATOM     27  C24 UNL A   1      19.723  27.686  61.729  1.00  0.00    +0.000 C 
ATOM    133  H39 UNL A   1      20.388  28.500  61.931  1.00  0.00    +0.000 H 
ATOM    134  H40 UNL A   1      19.622  27.001  62.545  1.00  0.00    +0.000 H 
BRANCH   27   26
ATOM     26  C23 UNL A   1      20.307  26.876  60.569  1.00  0.00    +0.000 C 
ATOM    131  H37 UNL A   1      19.755  25.962  60.496  1.00  0.00    +0.000 H 
ATOM    132  H38 UNL A   1      20.224  27.504  59.706  1.00  0.00    +0.000 H 
BRANCH   26   25
ATOM     25  C22 UNL A   1      21.793  26.521  60.685  1.00  0.00    +0.000 C 
ATOM    130  H36 UNL A   1      22.311  27.451  60.796  1.00  0.00    +0.000 H 
ATOM    129  H35 UNL A   1      22.072  25.975  59.808  1.00  0.00    +0.000 H 
BRANCH   25   24
ATOM    128  H34 UNL A   1      22.620  24.770  61.562  1.00  0.00    +0.000 H 
ATOM    127  H33 UNL A   1      21.287  25.475  62.477  1.00  0.00    +0.000 H 
ATOM     24  C21 UNL A   1      22.172  25.677  61.909  1.00  0.00    +0.000 C 
BRANCH   24   23
ATOM    125  H31 UNL A   1      22.685  27.209  63.289  1.00  0.00    +0.000 H 
ATOM    126  H32 UNL A   1      23.552  25.683  63.507  1.00  0.00    +0.000 H 
ATOM     23  C20 UNL A   1      23.178  26.395  62.801  1.00  0.00    +0.000 C 
BRANCH   23   22
ATOM    124  H30 UNL A   1      24.337  27.893  61.950  1.00  0.00    +0.000 H 
ATOM     22  N1  UNL A   1      24.311  26.914  62.055  1.00  0.00    +0.000 N 
BRANCH   22   20
ATOM     20  C19 UNL A   1      25.340  26.236  61.482  1.00  0.00    +0.000 C 
ATOM     21  O1  UNL A   1      25.911  25.401  62.193  1.00  0.00    +0.000 O 
BRANCH   20   19
ATOM    122  H28 UNL A   1      25.963  25.505  59.619  1.00  0.00    +0.000 H 
ATOM     19  C18 UNL A   1      25.837  26.469  60.066  1.00  0.00    +0.000 C 
ATOM    123  H29 UNL A   1      25.093  27.111  59.644  1.00  0.00    +0.000 H 
BRANCH   19   18
ATOM    121  H27 UNL A   1      27.820  26.458  59.574  1.00  0.00    +0.000 H 
ATOM     18  C17 UNL A   1      27.126  27.228  59.839  1.00  0.00    +0.000 C 
ATOM    120  H26 UNL A   1      27.319  27.782  60.733  1.00  0.00    +0.000 H 
BRANCH   18   17
ATOM     17  C16 UNL A   1      27.241  28.213  58.679  1.00  0.00    +0.000 C 
ATOM    118  H24 UNL A   1      27.026  27.631  57.808  1.00  0.00    +0.000 H 
ATOM    119  H25 UNL A   1      26.612  28.988  59.065  1.00  0.00    +0.000 H 
BRANCH   17   16
ATOM     16  S1  UNL A   1      28.695  29.250  58.202  1.00  0.00    +0.000 S 
BRANCH   16   15
ATOM    116  H22 UNL A   1      27.952  29.306  55.928  1.00  0.00    +0.000 H 
ATOM    117  H23 UNL A   1      29.539  30.136  56.190  1.00  0.00    +0.000 H 
ATOM     15  C15 UNL A   1      28.925  29.278  56.372  1.00  0.00    +0.000 C 
BRANCH   15   14
ATOM    114  H20 UNL A   1      29.289  27.936  54.746  1.00  0.00    +0.000 H 
ATOM    115  H21 UNL A   1      30.727  28.392  55.723  1.00  0.00    +0.000 H 
ATOM     14  C14 UNL A   1      29.698  28.097  55.722  1.00  0.00    +0.000 C 
BRANCH   14   13
ATOM    113  H19 UNL A   1      29.010  26.744  57.270  1.00  0.00    +0.000 H 
ATOM     13  C13 UNL A   1      29.652  26.787  56.463  1.00  0.00    +0.000 C 
BRANCH   13   12
ATOM     12  C12 UNL A   1      30.350  25.667  56.199  1.00  0.00    +0.000 C 
ATOM    112  H18 UNL A   1      30.354  24.912  56.901  1.00  0.00    +0.000 H 
BRANCH   12   11
ATOM     11  C11 UNL A   1      31.130  25.464  54.912  1.00  0.00    +0.000 C 
ATOM    110  H16 UNL A   1      30.663  26.046  54.146  1.00  0.00    +0.000 H 
ATOM    111  H17 UNL A   1      32.136  25.765  55.124  1.00  0.00    +0.000 H 
BRANCH   11   10
ATOM     10  C10 UNL A   1      31.213  24.045  54.432  1.00  0.00    +0.000 C 
ATOM    109  H15 UNL A   1      31.893  23.818  53.691  1.00  0.00    +0.000 H 
BRANCH   10    9
ATOM      9  C9  UNL A   1      30.446  23.056  54.921  1.00  0.00    +0.000 C 
ATOM    108  H14 UNL A   1      29.511  22.917  54.507  1.00  0.00    +0.000 H 
BRANCH    9    8
ATOM    106  H12 UNL A   1      31.836  22.423  56.393  1.00  0.00    +0.000 H 
ATOM    107  H13 UNL A   1      30.171  22.200  56.846  1.00  0.00    +0.000 H 
ATOM      8  C8  UNL A   1      30.868  22.139  56.036  1.00  0.00    +0.000 C 
BRANCH    8    7
ATOM    105  H11 UNL A   1      31.570  20.544  54.728  1.00  0.00    +0.000 H 
ATOM      7  C7  UNL A   1      30.916  20.739  55.501  1.00  0.00    +0.000 C 
BRANCH    7    6
ATOM      6  C6  UNL A   1      30.167  19.725  55.957  1.00  0.00    +0.000 C 
ATOM    104  H10 UNL A   1      30.458  18.760  55.732  1.00  0.00    +0.000 H 
BRANCH    6    5
ATOM      5  C5  UNL A   1      28.926  19.922  56.779  1.00  0.00    +0.000 C 
ATOM    102  H8  UNL A   1      28.660  20.958  56.783  1.00  0.00    +0.000 H 
ATOM    103  H9  UNL A   1      28.121  19.355  56.360  1.00  0.00    +0.000 H 
BRANCH    5    4
ATOM      4  C4  UNL A   1      29.195  19.465  58.184  1.00  0.00    +0.000 C 
ATOM    101  H7  UNL A   1      28.661  19.908  58.947  1.00  0.00    +0.000 H 
BRANCH    4    3
ATOM      3  C3  UNL A   1      30.087  18.517  58.511  1.00  0.00    +0.000 C 
ATOM    100  H6  UNL A   1      29.934  17.560  58.158  1.00  0.00    +0.000 H 
BRANCH    3    2
ATOM      2  C2  UNL A   1      31.295  18.775  59.363  1.00  0.00    +0.000 C 
ATOM     99  H5  UNL A   1      31.436  17.944  60.022  1.00  0.00    +0.000 H 
ATOM     98  H4  UNL A   1      31.144  19.672  59.926  1.00  0.00    +0.000 H 
BRANCH    2    1
ATOM      1  C1  UNL A   1      32.536  18.931  58.496  1.00  0.00    +0.000 C 
ATOM     97  H3  UNL A   1      32.249  19.269  57.522  1.00  0.00    +0.000 H 
ATOM     95  H1  UNL A   1      33.034  17.988  58.414  1.00  0.00    +0.000 H 
ATOM     96  H2  UNL A   1      33.195  19.646  58.942  1.00  0.00    +0.000 H 
ENDBRANCH    2    1
ENDBRANCH    3    2
ENDBRANCH    4    3
ENDBRANCH    5    4
ENDBRANCH    6    5
ENDBRANCH    7    6
ENDBRANCH    8    7
ENDBRANCH    9    8
ENDBRANCH   10    9
ENDBRANCH   11   10
ENDBRANCH   12   11
ENDBRANCH   13   12
ENDBRANCH   14   13
ENDBRANCH   15   14
ENDBRANCH   16   15
ENDBRANCH   17   16
ENDBRANCH   18   17
ENDBRANCH   19   18
ENDBRANCH   20   19
ENDBRANCH   22   20
ENDBRANCH   23   22
ENDBRANCH   24   23
ENDBRANCH   25   24
ENDBRANCH   26   25
ENDBRANCH   27   26
ENDBRANCH   28   27
ENDBRANCH   29   28
ENDBRANCH   30   29
ENDBRANCH   32   30
ENDBRANCH   36   35
BRANCH   40   41
ATOM     41  C35 UNL A   1      25.776  24.224  55.520  1.00  0.00    +0.000 C 
ATOM     42  C36 UNL A   1      26.341  23.686  56.687  1.00  0.00    +0.000 C 
ATOM     43  F1  UNL A   1      27.091  24.456  57.491  1.00  0.00    +0.000 F 
ATOM     44  C37 UNL A   1      26.166  22.344  57.018  1.00  0.00    +0.000 C 
ATOM     45  F2  UNL A   1      26.752  21.844  58.115  1.00  0.00    +0.000 F 
ATOM     46  C38 UNL A   1      25.394  21.524  56.209  1.00  0.00    +0.000 C 
ATOM     47  F3  UNL A   1      25.214  20.237  56.536  1.00  0.00    +0.000 F 
ATOM     48  C39 UNL A   1      24.813  22.037  55.060  1.00  0.00    +0.000 C 
ATOM     49  F4  UNL A   1      24.055  21.249  54.285  1.00  0.00    +0.000 F 
ATOM     50  C40 UNL A   1      25.011  23.371  54.710  1.00  0.00    +0.000 C 
ATOM     51  F5  UNL A   1      24.444  23.833  53.586  1.00  0.00    +0.000 F 
ENDBRANCH   40   41
BRANCH   57   58
ATOM     65  C50 UNL A   1      31.960  28.187  50.343  1.00  0.00    +0.000 C 
ATOM     66  F9  UNL A   1      33.259  28.221  50.671  1.00  0.00    +0.000 F 
ATOM     67  C51 UNL A   1      30.990  28.352  51.327  1.00  0.00    +0.000 C 
ATOM     68  F10 UNL A   1      31.386  28.529  52.598  1.00  0.00    +0.000 F 
ATOM     58  C46 UNL A   1      29.624  28.340  51.006  1.00  0.00    +0.000 C 
ATOM     59  C47 UNL A   1      29.269  28.162  49.661  1.00  0.00    +0.000 C 
ATOM     60  F6  UNL A   1      27.977  28.128  49.302  1.00  0.00    +0.000 F 
ATOM     61  C48 UNL A   1      30.241  27.959  48.684  1.00  0.00    +0.000 C 
ATOM     62  F7  UNL A   1      29.874  27.723  47.417  1.00  0.00    +0.000 F 
ATOM     63  C49 UNL A   1      31.585  27.977  49.024  1.00  0.00    +0.000 C 
ATOM     64  F8  UNL A   1      32.518  27.782  48.083  1.00  0.00    +0.000 F 
ENDBRANCH   57   58
BRANCH   72   73
ATOM     73  C55 UNL A   1      26.500  34.005  53.580  1.00  0.00    +0.000 C 
ATOM     74  C56 UNL A   1      27.542  34.753  54.147  1.00  0.00    +0.000 C 
ATOM     75  F11 UNL A   1      28.440  34.153  54.943  1.00  0.00    +0.000 F 
ATOM     76  C57 UNL A   1      27.635  36.129  53.946  1.00  0.00    +0.000 C 
ATOM     77  F12 UNL A   1      28.603  36.829  54.553  1.00  0.00    +0.000 F 
ATOM     78  C58 UNL A   1      26.712  36.778  53.139  1.00  0.00    +0.000 C 
ATOM     79  F13 UNL A   1      26.800  38.101  52.947  1.00  0.00    +0.000 F 
ATOM     80  C59 UNL A   1      25.692  36.055  52.540  1.00  0.00    +0.000 C 
ATOM     81  F14 UNL A   1      24.809  36.674  51.746  1.00  0.00    +0.000 F 
ATOM     82  C60 UNL A   1      25.578  34.686  52.771  1.00  0.00    +0.000 C 
ATOM     83  F15 UNL A   1      24.566  34.018  52.198  1.00  0.00    +0.000 F 
ENDBRANCH   72   73
TORSDOF 33
ENDMDL
MODEL 8
REMARK VINA RESULT:      -6.5      7.955     16.251
ROOT
ATOM    140  H46 UNL A   1      12.784  33.831  -1.518  1.00  0.00    +0.000 H 
ATOM    141  H47 UNL A   1      11.138  34.292  -3.486  1.00  0.00    +0.000 H 
ATOM    142  H48 UNL A   1       9.546  31.276  -1.138  1.00  0.00    +0.000 H 
ATOM    143  H49 UNL A   1       5.001  26.916  -0.098  1.00  0.00    +0.000 H 
ATOM    144  H50 UNL A   1       6.570  26.526   1.860  1.00  0.00    +0.000 H 
ATOM    145  H51 UNL A   1       8.145  29.616  -0.432  1.00  0.00    +0.000 H 
ATOM    146  H52 UNL A   1       4.910  30.341  -4.202  1.00  0.00    +0.000 H 
ATOM    147  H53 UNL A   1       6.596  32.016  -5.149  1.00  0.00    +0.000 H 
ATOM    148  H54 UNL A   1      12.573  30.655   2.808  1.00  0.00    +0.000 H 
ATOM    149  H55 UNL A   1      11.188  28.614   3.493  1.00  0.00    +0.000 H 
ATOM     36  C31 UNL A   1       8.890  28.184   1.856  1.00  0.00    +0.000 C 
ATOM     37  C32 UNL A   1       9.964  29.219   1.681  1.00  0.00    +0.000 C 
ATOM     38  N3  UNL A   1      10.085  30.137   0.755  1.00  0.00    +0.000 N 
ATOM     39  C33 UNL A   1      11.244  30.836   1.061  1.00  0.00    +0.000 C 
ATOM     40  C34 UNL A   1      11.847  31.825   0.358  1.00  0.00    +0.000 C 
ATOM     52  C41 UNL A   1      11.335  32.368  -0.874  1.00  0.00    +0.000 C 
ATOM     53  C42 UNL A   1      11.884  33.353  -1.679  1.00  0.00    +0.000 C 
ATOM     54  C43 UNL A   1      11.010  33.585  -2.745  1.00  0.00    +0.000 C 
ATOM     55  C44 UNL A   1       9.945  32.707  -2.638  1.00  0.00    +0.000 C 
ATOM     56  N4  UNL A   1      10.151  31.974  -1.480  1.00  0.00    +0.000 N 
ATOM     57  C45 UNL A   1       8.823  32.545  -3.528  1.00  0.00    +0.000 C 
ATOM     69  C52 UNL A   1       7.817  31.651  -3.355  1.00  0.00    +0.000 C 
ATOM     70  N5  UNL A   1       7.626  30.735  -2.329  1.00  0.00    +0.000 N 
ATOM     71  C53 UNL A   1       6.492  30.132  -2.592  1.00  0.00    +0.000 C 
ATOM     72  C54 UNL A   1       5.804  29.027  -1.835  1.00  0.00    +0.000 C 
ATOM     84  C61 UNL A   1       6.392  28.531  -0.731  1.00  0.00    +0.000 C 
ATOM     85  C62 UNL A   1       5.871  27.440   0.086  1.00  0.00    +0.000 C 
ATOM     86  C63 UNL A   1       6.707  27.226   1.114  1.00  0.00    +0.000 C 
ATOM     87  C64 UNL A   1       7.842  28.144   1.009  1.00  0.00    +0.000 C 
ATOM     88  N6  UNL A   1       7.562  28.891  -0.108  1.00  0.00    +0.000 N 
ATOM     89  C65 UNL A   1       5.823  30.617  -3.807  1.00  0.00    +0.000 C 
ATOM     90  C66 UNL A   1       6.699  31.501  -4.261  1.00  0.00    +0.000 C 
ATOM     91  C67 UNL A   1      11.756  30.286   2.298  1.00  0.00    +0.000 C 
ATOM     92  C68 UNL A   1      11.036  29.244   2.690  1.00  0.00    +0.000 C 
ENDROOT
BRANCH   36   35
ATOM     33  C28 UNL A   1       8.727  26.696   5.336  1.00  0.00    +0.000 C 
ATOM     34  C29 UNL A   1       8.590  27.587   4.272  1.00  0.00    +0.000 C 
ATOM     35  C30 UNL A   1       8.953  27.203   2.970  1.00  0.00    +0.000 C 
ATOM    138  H44 UNL A   1       8.491  26.994   6.295  1.00  0.00    +0.000 H 
ATOM    139  H45 UNL A   1       8.217  28.535   4.442  1.00  0.00    +0.000 H 
ATOM    150  H56 UNL A   1       9.666  25.600   1.791  1.00  0.00    +0.000 H 
ATOM    151  H57 UNL A   1       9.703  23.994   3.609  1.00  0.00    +0.000 H 
ATOM     93  C69 UNL A   1       9.391  25.892   2.742  1.00  0.00    +0.000 C 
ATOM     94  C70 UNL A   1       9.457  24.979   3.794  1.00  0.00    +0.000 C 
ATOM     32  C27 UNL A   1       9.188  25.399   5.100  1.00  0.00    +0.000 C 
BRANCH   32   30
ATOM     30  C26 UNL A   1       9.354  24.496   6.261  1.00  0.00    +0.000 C 
ATOM     31  O2  UNL A   1       8.680  24.668   7.266  1.00  0.00    +0.000 O 
BRANCH   30   29
ATOM    137  H43 UNL A   1       9.918  22.579   6.228  1.00  0.00    +0.000 H 
ATOM     29  N2  UNL A   1      10.289  23.491   6.226  1.00  0.00    +0.000 N 
BRANCH   29   28
ATOM     28  C25 UNL A   1      11.739  23.563   6.186  1.00  0.00    +0.000 C 
ATOM    135  H41 UNL A   1      12.132  22.568   6.208  1.00  0.00    +0.000 H 
ATOM    136  H42 UNL A   1      12.011  24.078   5.288  1.00  0.00    +0.000 H 
BRANCH   28   27
ATOM     27  C24 UNL A   1      12.325  24.345   7.358  1.00  0.00    +0.000 C 
ATOM    133  H39 UNL A   1      12.188  25.387   7.160  1.00  0.00    +0.000 H 
ATOM    134  H40 UNL A   1      11.807  24.001   8.229  1.00  0.00    +0.000 H 
BRANCH   27   26
ATOM     26  C23 UNL A   1      13.812  24.106   7.629  1.00  0.00    +0.000 C 
ATOM    131  H37 UNL A   1      14.290  25.061   7.700  1.00  0.00    +0.000 H 
ATOM    132  H38 UNL A   1      13.855  23.531   8.530  1.00  0.00    +0.000 H 
BRANCH   26   25
ATOM     25  C22 UNL A   1      14.557  23.284   6.572  1.00  0.00    +0.000 C 
ATOM    130  H36 UNL A   1      14.998  23.993   5.903  1.00  0.00    +0.000 H 
ATOM    129  H35 UNL A   1      13.851  22.630   6.103  1.00  0.00    +0.000 H 
BRANCH   25   24
ATOM    128  H34 UNL A   1      15.731  22.513   8.169  1.00  0.00    +0.000 H 
ATOM    127  H33 UNL A   1      16.631  22.781   6.675  1.00  0.00    +0.000 H 
ATOM     24  C21 UNL A   1      15.714  22.428   7.103  1.00  0.00    +0.000 C 
BRANCH   24   23
ATOM    125  H31 UNL A   1      16.082  20.753   5.847  1.00  0.00    +0.000 H 
ATOM    126  H32 UNL A   1      15.908  20.377   7.567  1.00  0.00    +0.000 H 
ATOM     23  C20 UNL A   1      15.539  20.956   6.746  1.00  0.00    +0.000 C 
BRANCH   23   22
ATOM    124  H30 UNL A   1      13.496  21.324   6.673  1.00  0.00    +0.000 H 
ATOM     22  N1  UNL A   1      14.147  20.596   6.542  1.00  0.00    +0.000 N 
BRANCH   22   20
ATOM     20  C19 UNL A   1      13.618  19.394   6.195  1.00  0.00    +0.000 C 
ATOM     21  O1  UNL A   1      12.484  19.148   6.622  1.00  0.00    +0.000 O 
BRANCH   20   19
ATOM    122  H28 UNL A   1      15.379  18.418   5.610  1.00  0.00    +0.000 H 
ATOM     19  C18 UNL A   1      14.340  18.347   5.364  1.00  0.00    +0.000 C 
ATOM    123  H29 UNL A   1      13.838  17.437   5.619  1.00  0.00    +0.000 H 
BRANCH   19   18
ATOM    121  H27 UNL A   1      13.637  17.539   3.625  1.00  0.00    +0.000 H 
ATOM     18  C17 UNL A   1      14.244  18.389   3.855  1.00  0.00    +0.000 C 
ATOM    120  H26 UNL A   1      15.247  18.395   3.483  1.00  0.00    +0.000 H 
BRANCH   18   17
ATOM     17  C16 UNL A   1      13.512  19.536   3.164  1.00  0.00    +0.000 C 
ATOM    118  H24 UNL A   1      13.283  19.161   2.189  1.00  0.00    +0.000 H 
ATOM    119  H25 UNL A   1      12.788  19.743   3.924  1.00  0.00    +0.000 H 
BRANCH   17   16
ATOM     16  S1  UNL A   1      14.110  21.261   2.874  1.00  0.00    +0.000 S 
BRANCH   16   15
ATOM    116  H22 UNL A   1      13.594  22.124   0.701  1.00  0.00    +0.000 H 
ATOM    117  H23 UNL A   1      12.136  21.592   1.632  1.00  0.00    +0.000 H 
ATOM     15  C15 UNL A   1      13.062  22.130   1.629  1.00  0.00    +0.000 C 
BRANCH   15   14
ATOM    114  H20 UNL A   1      11.834  23.586   2.603  1.00  0.00    +0.000 H 
ATOM    115  H21 UNL A   1      13.541  24.068   2.313  1.00  0.00    +0.000 H 
ATOM     14  C14 UNL A   1      12.659  23.602   1.922  1.00  0.00    +0.000 C 
BRANCH   14   13
ATOM    113  H19 UNL A   1      11.302  24.817   0.747  1.00  0.00    +0.000 H 
ATOM     13  C13 UNL A   1      12.258  24.430   0.730  1.00  0.00    +0.000 C 
BRANCH   13   12
ATOM     12  C12 UNL A   1      12.999  24.724  -0.354  1.00  0.00    +0.000 C 
ATOM    112  H18 UNL A   1      13.242  23.963  -1.006  1.00  0.00    +0.000 H 
BRANCH   12   11
ATOM     11  C11 UNL A   1      13.490  26.127  -0.662  1.00  0.00    +0.000 C 
ATOM    110  H16 UNL A   1      14.415  26.275  -0.145  1.00  0.00    +0.000 H 
ATOM    111  H17 UNL A   1      13.583  26.182  -1.727  1.00  0.00    +0.000 H 
BRANCH   11   10
ATOM     10  C10 UNL A   1      12.556  27.232  -0.268  1.00  0.00    +0.000 C 
ATOM    109  H15 UNL A   1      12.474  27.471   0.732  1.00  0.00    +0.000 H 
BRANCH   10    9
ATOM      9  C9  UNL A   1      11.821  27.926  -1.153  1.00  0.00    +0.000 C 
ATOM    108  H14 UNL A   1      10.819  27.693  -1.241  1.00  0.00    +0.000 H 
BRANCH    9    8
ATOM    106  H12 UNL A   1      11.995  29.969  -1.695  1.00  0.00    +0.000 H 
ATOM    107  H13 UNL A   1      13.438  29.037  -1.968  1.00  0.00    +0.000 H 
ATOM      8  C8  UNL A   1      12.370  29.023  -2.025  1.00  0.00    +0.000 C 
BRANCH    8    7
ATOM    105  H11 UNL A   1      11.152  29.335  -3.805  1.00  0.00    +0.000 H 
ATOM      7  C7  UNL A   1      11.931  28.767  -3.435  1.00  0.00    +0.000 C 
BRANCH    7    6
ATOM      6  C6  UNL A   1      12.478  27.853  -4.249  1.00  0.00    +0.000 C 
ATOM    104  H10 UNL A   1      12.897  27.009  -3.829  1.00  0.00    +0.000 H 
BRANCH    6    5
ATOM      5  C5  UNL A   1      12.509  27.997  -5.744  1.00  0.00    +0.000 C 
ATOM    102  H8  UNL A   1      13.174  28.790  -6.013  1.00  0.00    +0.000 H 
ATOM    103  H9  UNL A   1      12.852  27.086  -6.187  1.00  0.00    +0.000 H 
BRANCH    5    4
ATOM      4  C4  UNL A   1      11.124  28.311  -6.232  1.00  0.00    +0.000 C 
ATOM    101  H7  UNL A   1      10.919  29.283  -6.511  1.00  0.00    +0.000 H 
BRANCH    4    3
ATOM      3  C3  UNL A   1      10.135  27.410  -6.326  1.00  0.00    +0.000 C 
ATOM    100  H6  UNL A   1      10.155  26.745  -7.115  1.00  0.00    +0.000 H 
BRANCH    3    2
ATOM      2  C2  UNL A   1       9.001  27.318  -5.348  1.00  0.00    +0.000 C 
ATOM     99  H5  UNL A   1       8.189  27.916  -5.703  1.00  0.00    +0.000 H 
ATOM     98  H4  UNL A   1       9.330  27.670  -4.393  1.00  0.00    +0.000 H 
BRANCH    2    1
ATOM      1  C1  UNL A   1       8.529  25.877  -5.215  1.00  0.00    +0.000 C 
ATOM     97  H3  UNL A   1       9.201  25.231  -5.741  1.00  0.00    +0.000 H 
ATOM     95  H1  UNL A   1       7.546  25.784  -5.629  1.00  0.00    +0.000 H 
ATOM     96  H2  UNL A   1       8.508  25.602  -4.181  1.00  0.00    +0.000 H 
ENDBRANCH    2    1
ENDBRANCH    3    2
ENDBRANCH    4    3
ENDBRANCH    5    4
ENDBRANCH    6    5
ENDBRANCH    7    6
ENDBRANCH    8    7
ENDBRANCH    9    8
ENDBRANCH   10    9
ENDBRANCH   11   10
ENDBRANCH   12   11
ENDBRANCH   13   12
ENDBRANCH   14   13
ENDBRANCH   15   14
ENDBRANCH   16   15
ENDBRANCH   17   16
ENDBRANCH   18   17
ENDBRANCH   19   18
ENDBRANCH   20   19
ENDBRANCH   22   20
ENDBRANCH   23   22
ENDBRANCH   24   23
ENDBRANCH   25   24
ENDBRANCH   26   25
ENDBRANCH   27   26
ENDBRANCH   28   27
ENDBRANCH   29   28
ENDBRANCH   30   29
ENDBRANCH   32   30
ENDBRANCH   36   35
BRANCH   40   41
ATOM     41  C35 UNL A   1      13.139  32.374   0.893  1.00  0.00    +0.000 C 
ATOM     42  C36 UNL A   1      13.167  33.525   1.694  1.00  0.00    +0.000 C 
ATOM     43  F1  UNL A   1      12.035  34.203   1.942  1.00  0.00    +0.000 F 
ATOM     44  C37 UNL A   1      14.364  34.007   2.219  1.00  0.00    +0.000 C 
ATOM     45  F2  UNL A   1      14.370  35.134   2.946  1.00  0.00    +0.000 F 
ATOM     46  C38 UNL A   1      15.549  33.328   1.984  1.00  0.00    +0.000 C 
ATOM     47  F3  UNL A   1      16.698  33.784   2.501  1.00  0.00    +0.000 F 
ATOM     48  C39 UNL A   1      15.544  32.179   1.208  1.00  0.00    +0.000 C 
ATOM     49  F4  UNL A   1      16.687  31.513   0.992  1.00  0.00    +0.000 F 
ATOM     50  C40 UNL A   1      14.353  31.712   0.657  1.00  0.00    +0.000 C 
ATOM     51  F5  UNL A   1      14.384  30.603  -0.098  1.00  0.00    +0.000 F 
ENDBRANCH   40   41
BRANCH   57   58
ATOM     65  C50 UNL A   1       8.029  35.442  -5.867  1.00  0.00    +0.000 C 
ATOM     66  F9  UNL A   1       7.362  36.604  -5.826  1.00  0.00    +0.000 F 
ATOM     67  C51 UNL A   1       8.089  34.636  -4.734  1.00  0.00    +0.000 C 
ATOM     68  F10 UNL A   1       7.483  35.054  -3.613  1.00  0.00    +0.000 F 
ATOM     58  C46 UNL A   1       8.765  33.406  -4.758  1.00  0.00    +0.000 C 
ATOM     59  C47 UNL A   1       9.372  33.013  -5.960  1.00  0.00    +0.000 C 
ATOM     60  F6  UNL A   1      10.042  31.854  -6.033  1.00  0.00    +0.000 F 
ATOM     61  C48 UNL A   1       9.341  33.841  -7.081  1.00  0.00    +0.000 C 
ATOM     62  F7  UNL A   1       9.986  33.475  -8.198  1.00  0.00    +0.000 F 
ATOM     63  C49 UNL A   1       8.666  35.051  -7.036  1.00  0.00    +0.000 C 
ATOM     64  F8  UNL A   1       8.638  35.844  -8.114  1.00  0.00    +0.000 F 
ENDBRANCH   57   58
BRANCH   72   73
ATOM     73  C55 UNL A   1       4.501  28.481  -2.300  1.00  0.00    +0.000 C 
ATOM     74  C56 UNL A   1       4.440  27.436  -3.233  1.00  0.00    +0.000 C 
ATOM     75  F11 UNL A   1       5.573  26.904  -3.717  1.00  0.00    +0.000 F 
ATOM     76  C57 UNL A   1       3.219  26.971  -3.716  1.00  0.00    +0.000 C 
ATOM     77  F12 UNL A   1       3.193  26.017  -4.657  1.00  0.00    +0.000 F 
ATOM     78  C58 UNL A   1       2.032  27.512  -3.245  1.00  0.00    +0.000 C 
ATOM     79  F13 UNL A   1       0.858  27.066  -3.711  1.00  0.00    +0.000 F 
ATOM     80  C59 UNL A   1       2.066  28.523  -2.297  1.00  0.00    +0.000 C 
ATOM     81  F14 UNL A   1       0.922  29.036  -1.825  1.00  0.00    +0.000 F 
ATOM     82  C60 UNL A   1       3.287  29.013  -1.841  1.00  0.00    +0.000 C 
ATOM     83  F15 UNL A   1       3.286  30.009  -0.942  1.00  0.00    +0.000 F 
ENDBRANCH   72   73
TORSDOF 33
ENDMDL
MODEL 9
REMARK VINA RESULT:      -6.4      4.643      8.819
ROOT
ATOM    140  H46 UNL A   1      24.575  14.320   9.189  1.00  0.00    +0.000 H 
ATOM    141  H47 UNL A   1      24.386  11.889   8.267  1.00  0.00    +0.000 H 
ATOM    142  H48 UNL A   1      20.913  13.922   7.297  1.00  0.00    +0.000 H 
ATOM    143  H49 UNL A   1      15.049  13.928   4.773  1.00  0.00    +0.000 H 
ATOM    144  H50 UNL A   1      15.272  16.316   5.606  1.00  0.00    +0.000 H 
ATOM    145  H51 UNL A   1      18.804  14.321   6.513  1.00  0.00    +0.000 H 
ATOM    146  H52 UNL A   1      18.265   9.657   4.737  1.00  0.00    +0.000 H 
ATOM    147  H53 UNL A   1      20.510   9.121   5.840  1.00  0.00    +0.000 H 
ATOM    148  H54 UNL A   1      21.457  18.674   8.794  1.00  0.00    +0.000 H 
ATOM    149  H55 UNL A   1      19.009  19.101   8.181  1.00  0.00    +0.000 H 
ATOM     36  C31 UNL A   1      17.730  16.872   6.939  1.00  0.00    +0.000 C 
ATOM     37  C32 UNL A   1      19.118  16.938   7.510  1.00  0.00    +0.000 C 
ATOM     38  N3  UNL A   1      20.034  16.003   7.566  1.00  0.00    +0.000 N 
ATOM     39  C33 UNL A   1      21.134  16.585   8.178  1.00  0.00    +0.000 C 
ATOM     40  C34 UNL A   1      22.304  16.007   8.542  1.00  0.00    +0.000 C 
ATOM     52  C41 UNL A   1      22.630  14.623   8.308  1.00  0.00    +0.000 C 
ATOM     53  C42 UNL A   1      23.777  13.933   8.663  1.00  0.00    +0.000 C 
ATOM     54  C43 UNL A   1      23.666  12.623   8.184  1.00  0.00    +0.000 C 
ATOM     55  C44 UNL A   1      22.427  12.480   7.583  1.00  0.00    +0.000 C 
ATOM     56  N4  UNL A   1      21.806  13.717   7.655  1.00  0.00    +0.000 N 
ATOM     57  C45 UNL A   1      21.850  11.301   6.988  1.00  0.00    +0.000 C 
ATOM     69  C52 UNL A   1      20.619  11.240   6.421  1.00  0.00    +0.000 C 
ATOM     70  N5  UNL A   1      19.674  12.246   6.271  1.00  0.00    +0.000 N 
ATOM     71  C53 UNL A   1      18.669  11.702   5.627  1.00  0.00    +0.000 C 
ATOM     72  C54 UNL A   1      17.357  12.316   5.218  1.00  0.00    +0.000 C 
ATOM     84  C61 UNL A   1      17.110  13.599   5.542  1.00  0.00    +0.000 C 
ATOM     85  C62 UNL A   1      15.876  14.321   5.249  1.00  0.00    +0.000 C 
ATOM     86  C63 UNL A   1      15.990  15.580   5.700  1.00  0.00    +0.000 C 
ATOM     87  C64 UNL A   1      17.293  15.744   6.345  1.00  0.00    +0.000 C 
ATOM     88  N6  UNL A   1      17.896  14.520   6.190  1.00  0.00    +0.000 N 
ATOM     89  C65 UNL A   1      18.876  10.291   5.275  1.00  0.00    +0.000 C 
ATOM     90  C66 UNL A   1      20.054  10.046   5.831  1.00  0.00    +0.000 C 
ATOM     91  C67 UNL A   1      20.803  17.973   8.414  1.00  0.00    +0.000 C 
ATOM     92  C68 UNL A   1      19.546  18.227   8.075  1.00  0.00    +0.000 C 
ENDROOT
BRANCH   36   35
ATOM     33  C28 UNL A   1      16.118  20.202   6.123  1.00  0.00    +0.000 C 
ATOM     34  C29 UNL A   1      16.904  19.054   6.023  1.00  0.00    +0.000 C 
ATOM     35  C30 UNL A   1      16.827  18.050   7.002  1.00  0.00    +0.000 C 
ATOM    138  H44 UNL A   1      16.204  20.952   5.420  1.00  0.00    +0.000 H 
ATOM    139  H45 UNL A   1      17.548  18.942   5.223  1.00  0.00    +0.000 H 
ATOM    150  H56 UNL A   1      15.836  17.453   8.772  1.00  0.00    +0.000 H 
ATOM    151  H57 UNL A   1      14.325  19.350   8.825  1.00  0.00    +0.000 H 
ATOM     93  C69 UNL A   1      15.898  18.181   8.044  1.00  0.00    +0.000 C 
ATOM     94  C70 UNL A   1      15.060  19.294   8.102  1.00  0.00    +0.000 C 
ATOM     32  C27 UNL A   1      15.215  20.333   7.180  1.00  0.00    +0.000 C 
BRANCH   32   30
ATOM     30  C26 UNL A   1      14.425  21.582   7.270  1.00  0.00    +0.000 C 
ATOM     31  O2  UNL A   1      14.028  21.974   8.357  1.00  0.00    +0.000 O 
BRANCH   30   29
ATOM    137  H43 UNL A   1      14.701  23.041   5.932  1.00  0.00    +0.000 H 
ATOM     29  N2  UNL A   1      14.107  22.282   6.132  1.00  0.00    +0.000 N 
BRANCH   29   28
ATOM     28  C25 UNL A   1      13.033  22.075   5.178  1.00  0.00    +0.000 C 
ATOM    135  H41 UNL A   1      13.110  21.083   4.785  1.00  0.00    +0.000 H 
ATOM    136  H42 UNL A   1      12.109  22.227   5.695  1.00  0.00    +0.000 H 
BRANCH   28   27
ATOM     27  C24 UNL A   1      13.075  23.063   4.016  1.00  0.00    +0.000 C 
ATOM    133  H39 UNL A   1      13.362  24.018   4.405  1.00  0.00    +0.000 H 
ATOM    134  H40 UNL A   1      13.771  22.659   3.311  1.00  0.00    +0.000 H 
BRANCH   27   26
ATOM     26  C23 UNL A   1      11.758  23.240   3.256  1.00  0.00    +0.000 C 
ATOM    131  H37 UNL A   1      11.736  22.518   2.465  1.00  0.00    +0.000 H 
ATOM    132  H38 UNL A   1      10.984  23.111   3.983  1.00  0.00    +0.000 H 
BRANCH   26   25
ATOM     25  C22 UNL A   1      11.525  24.623   2.638  1.00  0.00    +0.000 C 
ATOM    130  H36 UNL A   1      10.743  24.498   1.920  1.00  0.00    +0.000 H 
ATOM    129  H35 UNL A   1      12.450  24.955   2.213  1.00  0.00    +0.000 H 
BRANCH   25   24
ATOM    128  H34 UNL A   1      11.750  25.783   4.406  1.00  0.00    +0.000 H 
ATOM    127  H33 UNL A   1      10.075  25.420   3.988  1.00  0.00    +0.000 H 
ATOM     24  C21 UNL A   1      11.037  25.702   3.612  1.00  0.00    +0.000 C 
BRANCH   24   23
ATOM    125  H31 UNL A   1      10.630  27.787   3.669  1.00  0.00    +0.000 H 
ATOM    126  H32 UNL A   1      11.877  27.298   2.513  1.00  0.00    +0.000 H 
ATOM     23  C20 UNL A   1      10.922  27.064   2.936  1.00  0.00    +0.000 C 
BRANCH   23   22
ATOM    124  H30 UNL A   1      10.318  27.164   0.952  1.00  0.00    +0.000 H 
ATOM     22  N1  UNL A   1       9.948  27.069   1.860  1.00  0.00    +0.000 N 
BRANCH   22   20
ATOM     20  C19 UNL A   1       8.595  26.962   1.932  1.00  0.00    +0.000 C 
ATOM     21  O1  UNL A   1       8.089  25.997   1.348  1.00  0.00    +0.000 O 
BRANCH   20   19
ATOM    122  H28 UNL A   1       7.500  27.564   3.616  1.00  0.00    +0.000 H 
ATOM     19  C18 UNL A   1       7.692  27.957   2.640  1.00  0.00    +0.000 C 
ATOM    123  H29 UNL A   1       8.240  28.875   2.582  1.00  0.00    +0.000 H 
BRANCH   19   18
ATOM    121  H27 UNL A   1       5.658  27.767   2.648  1.00  0.00    +0.000 H 
ATOM     18  C17 UNL A   1       6.350  28.312   2.040  1.00  0.00    +0.000 C 
ATOM    120  H26 UNL A   1       6.400  28.060   1.002  1.00  0.00    +0.000 H 
BRANCH   18   17
ATOM     17  C16 UNL A   1       5.828  29.744   2.118  1.00  0.00    +0.000 C 
ATOM    118  H24 UNL A   1       4.779  29.660   1.928  1.00  0.00    +0.000 H 
ATOM    119  H25 UNL A   1       6.257  30.018   3.059  1.00  0.00    +0.000 H 
BRANCH   17   16
ATOM     16  S1  UNL A   1       6.367  31.211   1.131  1.00  0.00    +0.000 S 
BRANCH   16   15
ATOM    116  H22 UNL A   1       8.659  31.445   1.779  1.00  0.00    +0.000 H 
ATOM    117  H23 UNL A   1       8.397  30.212   0.480  1.00  0.00    +0.000 H 
ATOM     15  C15 UNL A   1       8.190  31.195   0.850  1.00  0.00    +0.000 C 
BRANCH   15   14
ATOM    114  H20 UNL A   1       8.810  31.610  -1.154  1.00  0.00    +0.000 H 
ATOM    115  H21 UNL A   1       8.105  32.994  -0.250  1.00  0.00    +0.000 H 
ATOM     14  C14 UNL A   1       8.765  32.151  -0.232  1.00  0.00    +0.000 C 
BRANCH   14   13
ATOM    113  H19 UNL A   1      10.540  33.302  -0.704  1.00  0.00    +0.000 H 
ATOM     13  C13 UNL A   1      10.134  32.714   0.041  1.00  0.00    +0.000 C 
BRANCH   13   12
ATOM     12  C12 UNL A   1      10.891  32.542   1.140  1.00  0.00    +0.000 C 
ATOM    112  H18 UNL A   1      10.752  33.179   1.939  1.00  0.00    +0.000 H 
BRANCH   12   11
ATOM     11  C11 UNL A   1      11.940  31.451   1.257  1.00  0.00    +0.000 C 
ATOM    110  H16 UNL A   1      11.500  30.622   1.771  1.00  0.00    +0.000 H 
ATOM    111  H17 UNL A   1      12.243  31.221   0.256  1.00  0.00    +0.000 H 
BRANCH   11   10
ATOM     10  C10 UNL A   1      13.189  31.842   1.990  1.00  0.00    +0.000 C 
ATOM    109  H15 UNL A   1      13.688  31.118   2.530  1.00  0.00    +0.000 H 
BRANCH   10    9
ATOM      9  C9  UNL A   1      13.691  33.088   1.977  1.00  0.00    +0.000 C 
ATOM    108  H14 UNL A   1      13.029  33.877   1.909  1.00  0.00    +0.000 H 
BRANCH    9    8
ATOM    106  H12 UNL A   1      15.326  34.424   1.783  1.00  0.00    +0.000 H 
ATOM    107  H13 UNL A   1      15.515  33.252   3.054  1.00  0.00    +0.000 H 
ATOM      8  C8  UNL A   1      15.160  33.404   2.056  1.00  0.00    +0.000 C 
BRANCH    8    7
ATOM    105  H11 UNL A   1      15.321  31.881   0.505  1.00  0.00    +0.000 H 
ATOM      7  C7  UNL A   1      15.887  32.499   1.107  1.00  0.00    +0.000 C 
BRANCH    7    6
ATOM      6  C6  UNL A   1      17.221  32.437   0.986  1.00  0.00    +0.000 C 
ATOM    104  H10 UNL A   1      17.768  33.301   1.125  1.00  0.00    +0.000 H 
BRANCH    6    5
ATOM      5  C5  UNL A   1      17.958  31.170   0.658  1.00  0.00    +0.000 C 
ATOM    102  H8  UNL A   1      17.834  30.467   1.455  1.00  0.00    +0.000 H 
ATOM    103  H9  UNL A   1      17.569  30.749  -0.245  1.00  0.00    +0.000 H 
BRANCH    5    4
ATOM      4  C4  UNL A   1      19.416  31.487   0.486  1.00  0.00    +0.000 C 
ATOM    101  H7  UNL A   1      20.085  31.057   1.143  1.00  0.00    +0.000 H 
BRANCH    4    3
ATOM      3  C3  UNL A   1      19.905  32.294  -0.467  1.00  0.00    +0.000 C 
ATOM    100  H6  UNL A   1      19.566  33.268  -0.503  1.00  0.00    +0.000 H 
BRANCH    3    2
ATOM      2  C2  UNL A   1      20.918  31.858  -1.484  1.00  0.00    +0.000 C 
ATOM     99  H5  UNL A   1      21.792  31.510  -0.974  1.00  0.00    +0.000 H 
ATOM     98  H4  UNL A   1      21.164  32.686  -2.115  1.00  0.00    +0.000 H 
BRANCH    2    1
ATOM      1  C1  UNL A   1      20.363  30.726  -2.337  1.00  0.00    +0.000 C 
ATOM     97  H3  UNL A   1      19.386  30.463  -1.988  1.00  0.00    +0.000 H 
ATOM     95  H1  UNL A   1      21.009  29.877  -2.267  1.00  0.00    +0.000 H 
ATOM     96  H2  UNL A   1      20.302  31.045  -3.357  1.00  0.00    +0.000 H 
ENDBRANCH    2    1
ENDBRANCH    3    2
ENDBRANCH    4    3
ENDBRANCH    5    4
ENDBRANCH    6    5
ENDBRANCH    7    6
ENDBRANCH    8    7
ENDBRANCH    9    8
ENDBRANCH   10    9
ENDBRANCH   11   10
ENDBRANCH   12   11
ENDBRANCH   13   12
ENDBRANCH   14   13
ENDBRANCH   15   14
ENDBRANCH   16   15
ENDBRANCH   17   16
ENDBRANCH   18   17
ENDBRANCH   19   18
ENDBRANCH   20   19
ENDBRANCH   22   20
ENDBRANCH   23   22
ENDBRANCH   24   23
ENDBRANCH   25   24
ENDBRANCH   26   25
ENDBRANCH   27   26
ENDBRANCH   28   27
ENDBRANCH   29   28
ENDBRANCH   30   29
ENDBRANCH   32   30
ENDBRANCH   36   35
BRANCH   40   41
ATOM     41  C35 UNL A   1      23.315  16.864   9.250  1.00  0.00    +0.000 C 
ATOM     42  C36 UNL A   1      23.265  17.056  10.639  1.00  0.00    +0.000 C 
ATOM     43  F1  UNL A   1      22.263  16.527  11.358  1.00  0.00    +0.000 F 
ATOM     44  C37 UNL A   1      24.228  17.820  11.295  1.00  0.00    +0.000 C 
ATOM     45  F2  UNL A   1      24.134  18.024  12.616  1.00  0.00    +0.000 F 
ATOM     46  C38 UNL A   1      25.278  18.377  10.580  1.00  0.00    +0.000 C 
ATOM     47  F3  UNL A   1      26.211  19.100  11.214  1.00  0.00    +0.000 F 
ATOM     48  C39 UNL A   1      25.357  18.188   9.209  1.00  0.00    +0.000 C 
ATOM     49  F4  UNL A   1      26.379  18.713   8.519  1.00  0.00    +0.000 F 
ATOM     50  C40 UNL A   1      24.379  17.449   8.546  1.00  0.00    +0.000 C 
ATOM     51  F5  UNL A   1      24.479  17.294   7.218  1.00  0.00    +0.000 F 
ENDBRANCH   40   41
BRANCH   57   58
ATOM     65  C50 UNL A   1      24.194   8.492   5.934  1.00  0.00    +0.000 C 
ATOM     66  F9  UNL A   1      24.934   8.157   4.868  1.00  0.00    +0.000 F 
ATOM     67  C51 UNL A   1      23.448   9.667   5.920  1.00  0.00    +0.000 C 
ATOM     68  F10 UNL A   1      23.501  10.451   4.832  1.00  0.00    +0.000 F 
ATOM     58  C46 UNL A   1      22.650  10.030   7.016  1.00  0.00    +0.000 C 
ATOM     59  C47 UNL A   1      22.624   9.168   8.123  1.00  0.00    +0.000 C 
ATOM     60  F6  UNL A   1      21.890   9.475   9.202  1.00  0.00    +0.000 F 
ATOM     61  C48 UNL A   1      23.402   8.013   8.148  1.00  0.00    +0.000 C 
ATOM     62  F7  UNL A   1      23.413   7.240   9.244  1.00  0.00    +0.000 F 
ATOM     63  C49 UNL A   1      24.181   7.672   7.053  1.00  0.00    +0.000 C 
ATOM     64  F8  UNL A   1      24.927   6.561   7.080  1.00  0.00    +0.000 F 
ENDBRANCH   57   58
BRANCH   72   73
ATOM     73  C55 UNL A   1      16.342  11.522   4.475  1.00  0.00    +0.000 C 
ATOM     74  C56 UNL A   1      15.335  10.815   5.149  1.00  0.00    +0.000 C 
ATOM     75  F11 UNL A   1      15.270  10.856   6.489  1.00  0.00    +0.000 F 
ATOM     76  C57 UNL A   1      14.426  10.019   4.455  1.00  0.00    +0.000 C 
ATOM     77  F12 UNL A   1      13.516   9.303   5.130  1.00  0.00    +0.000 F 
ATOM     78  C58 UNL A   1      14.478   9.946   3.071  1.00  0.00    +0.000 C 
ATOM     79  F13 UNL A   1      13.604   9.179   2.405  1.00  0.00    +0.000 F 
ATOM     80  C59 UNL A   1      15.443  10.663   2.381  1.00  0.00    +0.000 C 
ATOM     81  F14 UNL A   1      15.486  10.610   1.043  1.00  0.00    +0.000 F 
ATOM     82  C60 UNL A   1      16.375  11.430   3.076  1.00  0.00    +0.000 C 
ATOM     83  F15 UNL A   1      17.312  12.091   2.381  1.00  0.00    +0.000 F 
ENDBRANCH   72   73
TORSDOF 33
ENDMDL
MODEL 10
REMARK VINA RESULT:      -6.4     30.951     37.126
ROOT
ATOM    140  H46 UNL A   1      15.799  54.700  -0.375  1.00  0.00    +0.000 H 
ATOM    141  H47 UNL A   1      16.356  53.153  -2.397  1.00  0.00    +0.000 H 
ATOM    142  H48 UNL A   1      19.468  55.842  -1.921  1.00  0.00    +0.000 H 
ATOM    143  H49 UNL A   1      25.019  58.265  -3.939  1.00  0.00    +0.000 H 
ATOM    144  H50 UNL A   1      24.507  59.718  -1.921  1.00  0.00    +0.000 H 
ATOM    145  H51 UNL A   1      21.413  56.971  -2.324  1.00  0.00    +0.000 H 
ATOM    146  H52 UNL A   1      22.594  54.115  -6.280  1.00  0.00    +0.000 H 
ATOM    147  H53 UNL A   1      20.299  53.017  -6.004  1.00  0.00    +0.000 H 
ATOM    148  H54 UNL A   1      18.513  58.573   2.171  1.00  0.00    +0.000 H 
ATOM    149  H55 UNL A   1      20.534  60.040   1.610  1.00  0.00    +0.000 H 
ATOM     36  C31 UNL A   1      22.029  59.123  -0.642  1.00  0.00    +0.000 C 
ATOM     37  C32 UNL A   1      20.743  58.565  -0.101  1.00  0.00    +0.000 C 
ATOM     38  N3  UNL A   1      20.033  57.554  -0.535  1.00  0.00    +0.000 N 
ATOM     39  C33 UNL A   1      18.950  57.452   0.327  1.00  0.00    +0.000 C 
ATOM     40  C34 UNL A   1      17.885  56.618   0.252  1.00  0.00    +0.000 C 
ATOM     52  C41 UNL A   1      17.710  55.619  -0.771  1.00  0.00    +0.000 C 
ATOM     53  C42 UNL A   1      16.653  54.742  -0.951  1.00  0.00    +0.000 C 
ATOM     54  C43 UNL A   1      16.945  53.925  -2.049  1.00  0.00    +0.000 C 
ATOM     55  C44 UNL A   1      18.154  54.330  -2.588  1.00  0.00    +0.000 C 
ATOM     56  N4  UNL A   1      18.619  55.362  -1.787  1.00  0.00    +0.000 N 
ATOM     57  C45 UNL A   1      18.836  53.816  -3.749  1.00  0.00    +0.000 C 
ATOM     69  C52 UNL A   1      20.023  54.274  -4.219  1.00  0.00    +0.000 C 
ATOM     70  N5  UNL A   1      20.833  55.283  -3.716  1.00  0.00    +0.000 N 
ATOM     71  C53 UNL A   1      21.887  55.320  -4.496  1.00  0.00    +0.000 C 
ATOM     72  C54 UNL A   1      23.078  56.239  -4.442  1.00  0.00    +0.000 C 
ATOM     84  C61 UNL A   1      23.123  57.192  -3.492  1.00  0.00    +0.000 C 
ATOM     85  C62 UNL A   1      24.188  58.177  -3.334  1.00  0.00    +0.000 C 
ATOM     86  C63 UNL A   1      23.910  58.952  -2.274  1.00  0.00    +0.000 C 
ATOM     87  C64 UNL A   1      22.629  58.540  -1.698  1.00  0.00    +0.000 C 
ATOM     88  N6  UNL A   1      22.243  57.478  -2.477  1.00  0.00    +0.000 N 
ATOM     89  C65 UNL A   1      21.873  54.319  -5.571  1.00  0.00    +0.000 C 
ATOM     90  C66 UNL A   1      20.692  53.747  -5.389  1.00  0.00    +0.000 C 
ATOM     91  C67 UNL A   1      19.128  58.458   1.351  1.00  0.00    +0.000 C 
ATOM     92  C68 UNL A   1      20.188  59.213   1.099  1.00  0.00    +0.000 C 
ENDROOT
BRANCH   36   35
ATOM     33  C28 UNL A   1      23.062  62.707   0.018  1.00  0.00    +0.000 C 
ATOM     34  C29 UNL A   1      22.403  61.598  -0.511  1.00  0.00    +0.000 C 
ATOM     35  C30 UNL A   1      22.666  60.310  -0.015  1.00  0.00    +0.000 C 
ATOM    138  H44 UNL A   1      22.891  63.647  -0.373  1.00  0.00    +0.000 H 
ATOM    139  H45 UNL A   1      21.716  61.724  -1.272  1.00  0.00    +0.000 H 
ATOM    150  H56 UNL A   1      23.751  59.219   1.434  1.00  0.00    +0.000 H 
ATOM    151  H57 UNL A   1      24.732  61.172   2.485  1.00  0.00    +0.000 H 
ATOM     93  C69 UNL A   1      23.546  60.160   1.065  1.00  0.00    +0.000 C 
ATOM     94  C70 UNL A   1      24.147  61.277   1.642  1.00  0.00    +0.000 C 
ATOM     32  C27 UNL A   1      23.956  62.542   1.078  1.00  0.00    +0.000 C 
BRANCH   32   30
ATOM     30  C26 UNL A   1      24.662  63.740   1.586  1.00  0.00    +0.000 C 
ATOM     31  O2  UNL A   1      24.035  64.762   1.822  1.00  0.00    +0.000 O 
BRANCH   30   29
ATOM    137  H43 UNL A   1      26.350  64.202   2.552  1.00  0.00    +0.000 H 
ATOM     29  N2  UNL A   1      26.025  63.717   1.759  1.00  0.00    +0.000 N 
BRANCH   29   28
ATOM     28  C25 UNL A   1      27.058  63.090   0.955  1.00  0.00    +0.000 C 
ATOM    135  H41 UNL A   1      28.001  63.528   1.208  1.00  0.00    +0.000 H 
ATOM    136  H42 UNL A   1      27.038  62.041   1.166  1.00  0.00    +0.000 H 
BRANCH   28   27
ATOM     27  C24 UNL A   1      26.828  63.262  -0.543  1.00  0.00    +0.000 C 
ATOM    133  H39 UNL A   1      25.935  63.835  -0.676  1.00  0.00    +0.000 H 
ATOM    134  H40 UNL A   1      27.706  63.739  -0.924  1.00  0.00    +0.000 H 
BRANCH   27   26
ATOM     26  C23 UNL A   1      26.676  61.962  -1.337  1.00  0.00    +0.000 C 
ATOM    131  H37 UNL A   1      26.035  61.310  -0.780  1.00  0.00    +0.000 H 
ATOM    132  H38 UNL A   1      26.282  62.248  -2.290  1.00  0.00    +0.000 H 
BRANCH   26   25
ATOM     25  C22 UNL A   1      27.976  61.206  -1.633  1.00  0.00    +0.000 C 
ATOM    130  H36 UNL A   1      27.748  60.525  -2.426  1.00  0.00    +0.000 H 
ATOM    129  H35 UNL A   1      28.291  60.725  -0.730  1.00  0.00    +0.000 H 
BRANCH   25   24
ATOM    128  H34 UNL A   1      29.698  62.404  -1.291  1.00  0.00    +0.000 H 
ATOM    127  H33 UNL A   1      28.738  62.901  -2.685  1.00  0.00    +0.000 H 
ATOM     24  C21 UNL A   1      29.137  62.071  -2.138  1.00  0.00    +0.000 C 
BRANCH   24   23
ATOM    125  H31 UNL A   1      31.069  61.362  -2.667  1.00  0.00    +0.000 H 
ATOM    126  H32 UNL A   1      29.736  60.269  -3.064  1.00  0.00    +0.000 H 
ATOM     23  C20 UNL A   1      30.073  61.285  -3.049  1.00  0.00    +0.000 C 
BRANCH   23   22
ATOM    124  H30 UNL A   1      30.154  62.749  -4.519  1.00  0.00    +0.000 H 
ATOM     22  N1  UNL A   1      30.059  61.775  -4.416  1.00  0.00    +0.000 N 
BRANCH   22   20
ATOM     20  C19 UNL A   1      29.932  61.073  -5.573  1.00  0.00    +0.000 C 
ATOM     21  O1  UNL A   1      30.432  59.943  -5.588  1.00  0.00    +0.000 O 
BRANCH   20   19
ATOM    122  H28 UNL A   1      28.823  62.546  -6.572  1.00  0.00    +0.000 H 
ATOM     19  C18 UNL A   1      29.262  61.604  -6.829  1.00  0.00    +0.000 C 
ATOM    123  H29 UNL A   1      30.053  61.614  -7.548  1.00  0.00    +0.000 H 
BRANCH   19   18
ATOM    121  H27 UNL A   1      27.561  60.481  -6.690  1.00  0.00    +0.000 H 
ATOM     18  C17 UNL A   1      28.182  60.789  -7.505  1.00  0.00    +0.000 C 
ATOM    120  H26 UNL A   1      28.679  60.025  -8.065  1.00  0.00    +0.000 H 
BRANCH   18   17
ATOM     17  C16 UNL A   1      27.197  61.460  -8.458  1.00  0.00    +0.000 C 
ATOM    118  H24 UNL A   1      27.768  62.225  -8.941  1.00  0.00    +0.000 H 
ATOM    119  H25 UNL A   1      26.821  60.583  -8.942  1.00  0.00    +0.000 H 
BRANCH   17   16
ATOM     16  S1  UNL A   1      25.583  62.265  -8.051  1.00  0.00    +0.000 S 
BRANCH   16   15
ATOM    116  H22 UNL A   1      25.834  61.541  -5.783  1.00  0.00    +0.000 H 
ATOM    117  H23 UNL A   1      24.358  62.552  -6.061  1.00  0.00    +0.000 H 
ATOM     15  C15 UNL A   1      24.976  61.741  -6.390  1.00  0.00    +0.000 C 
BRANCH   15   14
ATOM    114  H20 UNL A   1      24.072  60.017  -7.276  1.00  0.00    +0.000 H 
ATOM    115  H21 UNL A   1      24.448  59.891  -5.523  1.00  0.00    +0.000 H 
ATOM     14  C14 UNL A   1      24.055  60.492  -6.317  1.00  0.00    +0.000 C 
BRANCH   14   13
ATOM    113  H19 UNL A   1      22.300  61.730  -6.020  1.00  0.00    +0.000 H 
ATOM     13  C13 UNL A   1      22.616  60.749  -5.955  1.00  0.00    +0.000 C 
BRANCH   13   12
ATOM     12  C12 UNL A   1      21.694  59.853  -5.558  1.00  0.00    +0.000 C 
ATOM    112  H18 UNL A   1      21.599  58.975  -6.089  1.00  0.00    +0.000 H 
BRANCH   12   11
ATOM     11  C11 UNL A   1      20.788  60.078  -4.360  1.00  0.00    +0.000 C 
ATOM    110  H16 UNL A   1      20.275  59.162  -4.156  1.00  0.00    +0.000 H 
ATOM    111  H17 UNL A   1      21.425  60.397  -3.561  1.00  0.00    +0.000 H 
BRANCH   11   10
ATOM     10  C10 UNL A   1      19.761  61.158  -4.530  1.00  0.00    +0.000 C 
ATOM    109  H15 UNL A   1      20.032  62.130  -4.318  1.00  0.00    +0.000 H 
BRANCH   10    9
ATOM      9  C9  UNL A   1      18.505  60.921  -4.946  1.00  0.00    +0.000 C 
ATOM    108  H14 UNL A   1      18.359  60.690  -5.941  1.00  0.00    +0.000 H 
BRANCH    9    8
ATOM    106  H12 UNL A   1      17.102  61.985  -3.765  1.00  0.00    +0.000 H 
ATOM    107  H13 UNL A   1      16.443  60.585  -4.561  1.00  0.00    +0.000 H 
ATOM      8  C8  UNL A   1      17.299  60.972  -4.049  1.00  0.00    +0.000 C 
BRANCH    8    7
ATOM    105  H11 UNL A   1      17.890  60.647  -1.976  1.00  0.00    +0.000 H 
ATOM      7  C7  UNL A   1      17.586  60.150  -2.828  1.00  0.00    +0.000 C 
BRANCH    7    6
ATOM      6  C6  UNL A   1      17.476  58.816  -2.766  1.00  0.00    +0.000 C 
ATOM    104  H10 UNL A   1      18.181  58.289  -2.227  1.00  0.00    +0.000 H 
BRANCH    6    5
ATOM      5  C5  UNL A   1      16.376  58.049  -3.442  1.00  0.00    +0.000 C 
ATOM    102  H8  UNL A   1      15.805  57.519  -2.709  1.00  0.00    +0.000 H 
ATOM    103  H9  UNL A   1      15.733  58.725  -3.966  1.00  0.00    +0.000 H 
BRANCH    5    4
ATOM      4  C4  UNL A   1      16.985  57.074  -4.408  1.00  0.00    +0.000 C 
ATOM    101  H7  UNL A   1      17.056  56.087  -4.118  1.00  0.00    +0.000 H 
BRANCH    4    3
ATOM      3  C3  UNL A   1      17.444  57.404  -5.625  1.00  0.00    +0.000 C 
ATOM    100  H6  UNL A   1      16.766  57.735  -6.329  1.00  0.00    +0.000 H 
BRANCH    3    2
ATOM      2  C2  UNL A   1      18.890  57.317  -6.017  1.00  0.00    +0.000 C 
ATOM     99  H5  UNL A   1      19.160  56.287  -6.115  1.00  0.00    +0.000 H 
ATOM     98  H4  UNL A   1      19.488  57.786  -5.264  1.00  0.00    +0.000 H 
BRANCH    2    1
ATOM      1  C1  UNL A   1      19.123  58.016  -7.349  1.00  0.00    +0.000 C 
ATOM     97  H3  UNL A   1      18.403  58.797  -7.473  1.00  0.00    +0.000 H 
ATOM     95  H1  UNL A   1      19.024  57.308  -8.145  1.00  0.00    +0.000 H 
ATOM     96  H2  UNL A   1      20.108  58.434  -7.365  1.00  0.00    +0.000 H 
ENDBRANCH    2    1
ENDBRANCH    3    2
ENDBRANCH    4    3
ENDBRANCH    5    4
ENDBRANCH    6    5
ENDBRANCH    7    6
ENDBRANCH    8    7
ENDBRANCH    9    8
ENDBRANCH   10    9
ENDBRANCH   11   10
ENDBRANCH   12   11
ENDBRANCH   13   12
ENDBRANCH   14   13
ENDBRANCH   15   14
ENDBRANCH   16   15
ENDBRANCH   17   16
ENDBRANCH   18   17
ENDBRANCH   19   18
ENDBRANCH   20   19
ENDBRANCH   22   20
ENDBRANCH   23   22
ENDBRANCH   24   23
ENDBRANCH   25   24
ENDBRANCH   26   25
ENDBRANCH   27   26
ENDBRANCH   28   27
ENDBRANCH   29   28
ENDBRANCH   30   29
ENDBRANCH   32   30
ENDBRANCH   36   35
BRANCH   40   41
ATOM     41  C35 UNL A   1      16.814  56.760   1.296  1.00  0.00    +0.000 C 
ATOM     42  C36 UNL A   1      15.699  57.587   1.090  1.00  0.00    +0.000 C 
ATOM     43  F1  UNL A   1      15.604  58.327  -0.026  1.00  0.00    +0.000 F 
ATOM     44  C37 UNL A   1      14.690  57.685   2.046  1.00  0.00    +0.000 C 
ATOM     45  F2  UNL A   1      13.657  58.515   1.845  1.00  0.00    +0.000 F 
ATOM     46  C38 UNL A   1      14.758  56.931   3.208  1.00  0.00    +0.000 C 
ATOM     47  F3  UNL A   1      13.779  57.015   4.119  1.00  0.00    +0.000 F 
ATOM     48  C39 UNL A   1      15.842  56.095   3.425  1.00  0.00    +0.000 C 
ATOM     49  F4  UNL A   1      15.901  55.355   4.542  1.00  0.00    +0.000 F 
ATOM     50  C40 UNL A   1      16.867  56.018   2.486  1.00  0.00    +0.000 C 
ATOM     51  F5  UNL A   1      17.907  55.208   2.732  1.00  0.00    +0.000 F 
ENDBRANCH   40   41
BRANCH   57   58
ATOM     65  C50 UNL A   1      17.727  50.337  -4.826  1.00  0.00    +0.000 C 
ATOM     66  F9  UNL A   1      17.901  49.067  -4.431  1.00  0.00    +0.000 F 
ATOM     67  C51 UNL A   1      18.330  51.372  -4.118  1.00  0.00    +0.000 C 
ATOM     68  F10 UNL A   1      19.067  51.070  -3.038  1.00  0.00    +0.000 F 
ATOM     58  C46 UNL A   1      18.179  52.708  -4.521  1.00  0.00    +0.000 C 
ATOM     59  C47 UNL A   1      17.406  52.964  -5.664  1.00  0.00    +0.000 C 
ATOM     60  F6  UNL A   1      17.219  54.224  -6.085  1.00  0.00    +0.000 F 
ATOM     61  C48 UNL A   1      16.774  51.928  -6.347  1.00  0.00    +0.000 C 
ATOM     62  F7  UNL A   1      15.985  52.205  -7.396  1.00  0.00    +0.000 F 
ATOM     63  C49 UNL A   1      16.938  50.616  -5.932  1.00  0.00    +0.000 C 
ATOM     64  F8  UNL A   1      16.329  49.622  -6.590  1.00  0.00    +0.000 F 
ENDBRANCH   57   58
BRANCH   72   73
ATOM     73  C55 UNL A   1      24.187  56.109  -5.426  1.00  0.00    +0.000 C 
ATOM     74  C56 UNL A   1      24.067  56.613  -6.729  1.00  0.00    +0.000 C 
ATOM     75  F11 UNL A   1      22.939  57.233  -7.106  1.00  0.00    +0.000 F 
ATOM     76  C57 UNL A   1      25.081  56.431  -7.668  1.00  0.00    +0.000 C 
ATOM     77  F12 UNL A   1      24.911  56.865  -8.924  1.00  0.00    +0.000 F 
ATOM     78  C58 UNL A   1      26.252  55.780  -7.311  1.00  0.00    +0.000 C 
ATOM     79  F13 UNL A   1      27.225  55.604  -8.214  1.00  0.00    +0.000 F 
ATOM     80  C59 UNL A   1      26.407  55.303  -6.018  1.00  0.00    +0.000 C 
ATOM     81  F14 UNL A   1      27.544  54.690  -5.664  1.00  0.00    +0.000 F 
ATOM     82  C60 UNL A   1      25.379  55.452  -5.090  1.00  0.00    +0.000 C 
ATOM     83  F15 UNL A   1      25.551  54.958  -3.855  1.00  0.00    +0.000 F 
ENDBRANCH   72   73
TORSDOF 33
ENDMDL
