MODEL 1
REMARK VINA RESULT:     -11.5      0.000      0.000
ROOT
ATOM     34  C25 UNL A   1      41.489  26.198  27.671  1.00  0.00    +0.000 C 
ATOM     35  C26 UNL A   1      42.893  26.479  27.217  1.00  0.00    +0.000 C 
ATOM     36  N5  UNL A   1      43.632  27.540  27.436  1.00  0.00    +0.000 N 
ATOM     37  C27 UNL A   1      44.848  27.293  26.813  1.00  0.00    +0.000 C 
ATOM     38  C28 UNL A   1      45.932  28.103  26.725  1.00  0.00    +0.000 C 
ATOM     50  C35 UNL A   1      46.012  29.422  27.302  1.00  0.00    +0.000 C 
ATOM     51  C36 UNL A   1      47.065  30.320  27.263  1.00  0.00    +0.000 C 
ATOM     52  C37 UNL A   1      46.697  31.462  27.983  1.00  0.00    +0.000 C 
ATOM     53  C38 UNL A   1      45.399  31.292  28.437  1.00  0.00    +0.000 C 
ATOM     54  N6  UNL A   1      44.995  30.033  28.021  1.00  0.00    +0.000 N 
ATOM     55  C39 UNL A   1      44.586  32.211  29.190  1.00  0.00    +0.000 C 
ATOM     67  C46 UNL A   1      43.315  31.974  29.597  1.00  0.00    +0.000 C 
ATOM     68  N7  UNL A   1      42.538  30.841  29.413  1.00  0.00    +0.000 N 
ATOM     69  C47 UNL A   1      41.405  31.078  30.027  1.00  0.00    +0.000 C 
ATOM     70  C48 UNL A   1      40.194  30.201  30.148  1.00  0.00    +0.000 C 
ATOM     82  C55 UNL A   1      40.209  28.982  29.579  1.00  0.00    +0.000 C 
ATOM     83  C56 UNL A   1      39.103  28.033  29.599  1.00  0.00    +0.000 C 
ATOM     84  C57 UNL A   1      39.476  26.917  28.956  1.00  0.00    +0.000 C 
ATOM     85  C58 UNL A   1      40.833  27.095  28.433  1.00  0.00    +0.000 C 
ATOM     86  N8  UNL A   1      41.200  28.338  28.878  1.00  0.00    +0.000 N 
ATOM     87  C59 UNL A   1      41.335  32.395  30.674  1.00  0.00    +0.000 C 
ATOM     88  C60 UNL A   1      42.510  32.914  30.349  1.00  0.00    +0.000 C 
ATOM     89  C61 UNL A   1      44.763  25.969  26.232  1.00  0.00    +0.000 C 
ATOM     90  C62 UNL A   1      43.561  25.439  26.420  1.00  0.00    +0.000 C 
ATOM    117  H25 UNL A   1      47.968  30.172  26.785  1.00  0.00    +0.000 H 
ATOM    118  H26 UNL A   1      47.292  32.288  28.150  1.00  0.00    +0.000 H 
ATOM    119  H27 UNL A   1      44.115  29.631  28.207  1.00  0.00    +0.000 H 
ATOM    120  H28 UNL A   1      38.182  28.194  30.037  1.00  0.00    +0.000 H 
ATOM    121  H29 UNL A   1      38.899  26.069  28.847  1.00  0.00    +0.000 H 
ATOM    122  H30 UNL A   1      42.087  28.731  28.712  1.00  0.00    +0.000 H 
ATOM    123  H31 UNL A   1      40.573  32.806  31.234  1.00  0.00    +0.000 H 
ATOM    124  H32 UNL A   1      42.814  33.868  30.601  1.00  0.00    +0.000 H 
ATOM    125  H33 UNL A   1      45.536  25.499  25.737  1.00  0.00    +0.000 H 
ATOM    126  H34 UNL A   1      43.191  24.534  26.092  1.00  0.00    +0.000 H 
ENDROOT
BRANCH   34   33
ATOM     33  C24 UNL A   1      40.768  24.969  27.252  1.00  0.00    +0.000 C 
ATOM    127  H35 UNL A   1      41.825  23.616  28.488  1.00  0.00    +0.000 H 
ATOM    115  H23 UNL A   1      38.113  24.078  25.395  1.00  0.00    +0.000 H 
ATOM    116  H24 UNL A   1      39.481  26.003  25.929  1.00  0.00    +0.000 H 
ATOM     91  C63 UNL A   1      41.077  23.708  27.783  1.00  0.00    +0.000 C 
ATOM     92  C64 UNL A   1      40.374  22.574  27.361  1.00  0.00    +0.000 C 
ATOM     32  C23 UNL A   1      39.704  25.083  26.340  1.00  0.00    +0.000 C 
ATOM     30  C21 UNL A   1      39.329  22.704  26.440  1.00  0.00    +0.000 C 
ATOM     31  C22 UNL A   1      38.951  23.970  25.989  1.00  0.00    +0.000 C 
ATOM    128  H36 UNL A   1      40.626  21.644  27.728  1.00  0.00    +0.000 H 
BRANCH   30    2
ATOM      1  O1  UNL A   1      39.258  20.435  25.844  1.00  0.00    +0.000 O 
ATOM      2  C1  UNL A   1      38.635  21.488  25.959  1.00  0.00    +0.000 C 
BRANCH    2    3
ATOM      3  N1  UNL A   1      37.306  21.548  25.613  1.00  0.00    +0.000 N 
ATOM     93  H1  UNL A   1      36.670  21.466  26.360  1.00  0.00    +0.000 H 
BRANCH    3    4
ATOM      4  C2  UNL A   1      36.709  21.717  24.300  1.00  0.00    +0.000 C 
ATOM     94  H2  UNL A   1      36.504  20.749  23.891  1.00  0.00    +0.000 H 
ATOM     95  H3  UNL A   1      37.407  22.264  23.699  1.00  0.00    +0.000 H 
BRANCH    4    5
ATOM     97  H5  UNL A   1      35.211  22.793  23.319  1.00  0.00    +0.000 H 
ATOM      5  C3  UNL A   1      35.414  22.515  24.332  1.00  0.00    +0.000 C 
ATOM     96  H4  UNL A   1      34.656  21.898  24.767  1.00  0.00    +0.000 H 
BRANCH    5    6
ATOM     98  H6  UNL A   1      35.236  24.622  24.451  1.00  0.00    +0.000 H 
ATOM     99  H7  UNL A   1      36.457  23.872  25.532  1.00  0.00    +0.000 H 
ATOM      6  C4  UNL A   1      35.470  23.821  25.123  1.00  0.00    +0.000 C 
BRANCH    6    7
ATOM    100  H8  UNL A   1      33.525  24.033  25.939  1.00  0.00    +0.000 H 
ATOM    101  H9  UNL A   1      34.865  24.750  26.896  1.00  0.00    +0.000 H 
ATOM      7  C5  UNL A   1      34.519  23.919  26.319  1.00  0.00    +0.000 C 
BRANCH    7    8
ATOM    102  H10 UNL A   1      35.233  22.920  28.051  1.00  0.00    +0.000 H 
ATOM    103  H11 UNL A   1      34.752  21.867  26.684  1.00  0.00    +0.000 H 
ATOM      8  C6  UNL A   1      34.518  22.723  27.280  1.00  0.00    +0.000 C 
BRANCH    8    9
ATOM      9  C7  UNL A   1      33.178  22.419  27.946  1.00  0.00    +0.000 C 
ATOM    105  H13 UNL A   1      32.964  21.380  27.798  1.00  0.00    +0.000 H 
ATOM    104  H12 UNL A   1      33.248  22.655  28.988  1.00  0.00    +0.000 H 
BRANCH    9   10
ATOM     10  N2  UNL A   1      32.092  23.186  27.364  1.00  0.00    +0.000 N 
ATOM    106  H14 UNL A   1      32.032  24.130  27.642  1.00  0.00    +0.000 H 
BRANCH   10   11
ATOM     11  C8  UNL A   1      31.140  22.759  26.473  1.00  0.00    +0.000 C 
ATOM     12  O2  UNL A   1      29.955  22.728  26.797  1.00  0.00    +0.000 O 
BRANCH   11   13
ATOM    107  H15 UNL A   1      32.140  20.384  25.712  1.00  0.00    +0.000 H 
ATOM    108  H16 UNL A   1      32.766  19.691  23.457  1.00  0.00    +0.000 H 
ATOM     13  C9  UNL A   1      31.528  22.323  25.120  1.00  0.00    +0.000 C 
ATOM     14  C10 UNL A   1      32.031  21.031  24.917  1.00  0.00    +0.000 C 
ATOM     15  C11 UNL A   1      32.380  20.631  23.635  1.00  0.00    +0.000 C 
ATOM     16  C12 UNL A   1      32.193  21.533  22.605  1.00  0.00    +0.000 C 
ATOM     17  N3  UNL A   1      31.676  22.769  22.773  1.00  0.00    +0.000 N 
ATOM     18  C13 UNL A   1      31.312  23.164  24.021  1.00  0.00    +0.000 C 
ATOM    109  H17 UNL A   1      32.463  21.244  21.651  1.00  0.00    +0.000 H 
BRANCH   18   19
ATOM     19  N4  UNL A   1      30.829  24.488  24.212  1.00  0.00    +0.000 N 
ATOM    110  H18 UNL A   1      29.858  24.638  24.148  1.00  0.00    +0.000 H 
BRANCH   19   20
ATOM    111  H19 UNL A   1      32.993  25.181  22.914  1.00  0.00    +0.000 H 
ATOM    112  H20 UNL A   1      34.487  27.031  23.381  1.00  0.00    +0.000 H 
ATOM    113  H21 UNL A   1      34.068  28.484  25.275  1.00  0.00    +0.000 H 
ATOM    114  H22 UNL A   1      30.643  26.237  26.226  1.00  0.00    +0.000 H 
ATOM     20  C14 UNL A   1      31.655  25.605  24.488  1.00  0.00    +0.000 C 
ATOM     21  C15 UNL A   1      32.795  25.813  23.705  1.00  0.00    +0.000 C 
ATOM     22  C16 UNL A   1      33.667  26.868  23.984  1.00  0.00    +0.000 C 
ATOM     23  C17 UNL A   1      33.428  27.700  25.078  1.00  0.00    +0.000 C 
ATOM     24  C18 UNL A   1      32.323  27.476  25.910  1.00  0.00    +0.000 C 
ATOM     25  C19 UNL A   1      32.075  28.364  27.102  1.00  0.00    +0.000 C 
ATOM     26  F1  UNL A   1      33.166  28.466  27.912  1.00  0.00    +0.000 F 
ATOM     27  F2  UNL A   1      31.760  29.641  26.745  1.00  0.00    +0.000 F 
ATOM     28  F3  UNL A   1      31.059  27.941  27.905  1.00  0.00    +0.000 F 
ATOM     29  C20 UNL A   1      31.450  26.419  25.609  1.00  0.00    +0.000 C 
ENDBRANCH   19   20
ENDBRANCH   18   19
ENDBRANCH   11   13
ENDBRANCH   10   11
ENDBRANCH    9   10
ENDBRANCH    8    9
ENDBRANCH    7    8
ENDBRANCH    6    7
ENDBRANCH    5    6
ENDBRANCH    4    5
ENDBRANCH    3    4
ENDBRANCH    2    3
ENDBRANCH   30    2
ENDBRANCH   34   33
BRANCH   38   39
ATOM     39  C29 UNL A   1      47.129  27.589  25.979  1.00  0.00    +0.000 C 
ATOM     40  C30 UNL A   1      47.234  27.721  24.586  1.00  0.00    +0.000 C 
ATOM     41  F4  UNL A   1      46.224  28.252  23.881  1.00  0.00    +0.000 F 
ATOM     42  C31 UNL A   1      48.370  27.284  23.908  1.00  0.00    +0.000 C 
ATOM     43  F5  UNL A   1      48.433  27.391  22.575  1.00  0.00    +0.000 F 
ATOM     44  C32 UNL A   1      49.430  26.731  24.610  1.00  0.00    +0.000 C 
ATOM     45  F6  UNL A   1      50.527  26.322  23.958  1.00  0.00    +0.000 F 
ATOM     46  C33 UNL A   1      49.352  26.601  25.989  1.00  0.00    +0.000 C 
ATOM     47  F7  UNL A   1      50.382  26.077  26.670  1.00  0.00    +0.000 F 
ATOM     48  C34 UNL A   1      48.208  27.014  26.667  1.00  0.00    +0.000 C 
ATOM     49  F8  UNL A   1      48.162  26.871  28.000  1.00  0.00    +0.000 F 
ENDBRANCH   38   39
BRANCH   55   56
ATOM     65  C45 UNL A   1      45.016  34.645  28.694  1.00  0.00    +0.000 C 
ATOM     66  F13 UNL A   1      44.336  34.517  27.545  1.00  0.00    +0.000 F 
ATOM     56  C40 UNL A   1      45.172  33.544  29.548  1.00  0.00    +0.000 C 
ATOM     57  C41 UNL A   1      45.896  33.729  30.736  1.00  0.00    +0.000 C 
ATOM     58  F9  UNL A   1      46.056  32.709  31.594  1.00  0.00    +0.000 F 
ATOM     59  C42 UNL A   1      46.415  34.977  31.070  1.00  0.00    +0.000 C 
ATOM     60  F10 UNL A   1      47.056  35.142  32.235  1.00  0.00    +0.000 F 
ATOM     61  C43 UNL A   1      46.249  36.052  30.210  1.00  0.00    +0.000 C 
ATOM     62  F11 UNL A   1      46.746  37.253  30.535  1.00  0.00    +0.000 F 
ATOM     63  C44 UNL A   1      45.559  35.884  29.019  1.00  0.00    +0.000 C 
ATOM     64  F12 UNL A   1      45.405  36.921  28.184  1.00  0.00    +0.000 F 
ENDBRANCH   55   56
BRANCH   70   71
ATOM     71  C49 UNL A   1      38.987  30.652  30.885  1.00  0.00    +0.000 C 
ATOM     72  C50 UNL A   1      38.885  30.500  32.274  1.00  0.00    +0.000 C 
ATOM     73  F14 UNL A   1      39.875  29.908  32.957  1.00  0.00    +0.000 F 
ATOM     74  C51 UNL A   1      37.749  30.923  32.961  1.00  0.00    +0.000 C 
ATOM     75  F15 UNL A   1      37.658  30.729  34.284  1.00  0.00    +0.000 F 
ATOM     76  C52 UNL A   1      36.709  31.535  32.277  1.00  0.00    +0.000 C 
ATOM     77  F16 UNL A   1      35.621  31.951  32.941  1.00  0.00    +0.000 F 
ATOM     78  C53 UNL A   1      36.795  31.712  30.905  1.00  0.00    +0.000 C 
ATOM     79  F17 UNL A   1      35.800  32.318  30.242  1.00  0.00    +0.000 F 
ATOM     80  C54 UNL A   1      37.915  31.260  30.213  1.00  0.00    +0.000 C 
ATOM     81  F18 UNL A   1      37.969  31.435  28.884  1.00  0.00    +0.000 F 
ENDBRANCH   70   71
TORSDOF 17
ENDMDL
MODEL 2
REMARK VINA RESULT:     -11.2     18.017     22.949
ROOT
ATOM     34  C25 UNL A   1      52.820  20.138  11.588  1.00  0.00    +0.000 C 
ATOM     35  C26 UNL A   1      54.146  19.483  11.322  1.00  0.00    +0.000 C 
ATOM     36  N5  UNL A   1      55.191  19.390  12.109  1.00  0.00    +0.000 N 
ATOM     37  C27 UNL A   1      56.145  18.679  11.394  1.00  0.00    +0.000 C 
ATOM     38  C28 UNL A   1      57.408  18.354  11.763  1.00  0.00    +0.000 C 
ATOM     50  C35 UNL A   1      58.001  18.701  13.030  1.00  0.00    +0.000 C 
ATOM     51  C36 UNL A   1      59.275  18.419  13.495  1.00  0.00    +0.000 C 
ATOM     52  C37 UNL A   1      59.394  18.930  14.792  1.00  0.00    +0.000 C 
ATOM     53  C38 UNL A   1      58.208  19.566  15.120  1.00  0.00    +0.000 C 
ATOM     54  N6  UNL A   1      57.359  19.409  14.036  1.00  0.00    +0.000 N 
ATOM     55  C39 UNL A   1      57.873  20.269  16.332  1.00  0.00    +0.000 C 
ATOM     67  C46 UNL A   1      56.686  20.873  16.581  1.00  0.00    +0.000 C 
ATOM     68  N7  UNL A   1      55.558  20.940  15.778  1.00  0.00    +0.000 N 
ATOM     69  C47 UNL A   1      54.659  21.590  16.476  1.00  0.00    +0.000 C 
ATOM     70  C48 UNL A   1      53.254  21.957  16.099  1.00  0.00    +0.000 C 
ATOM     82  C55 UNL A   1      52.782  21.589  14.893  1.00  0.00    +0.000 C 
ATOM     83  C56 UNL A   1      51.450  21.892  14.386  1.00  0.00    +0.000 C 
ATOM     84  C57 UNL A   1      51.318  21.354  13.165  1.00  0.00    +0.000 C 
ATOM     85  C58 UNL A   1      52.578  20.712  12.783  1.00  0.00    +0.000 C 
ATOM     86  N8  UNL A   1      53.380  20.875  13.883  1.00  0.00    +0.000 N 
ATOM     87  C59 UNL A   1      55.117  22.010  17.806  1.00  0.00    +0.000 C 
ATOM     88  C60 UNL A   1      56.371  21.581  17.804  1.00  0.00    +0.000 C 
ATOM     89  C61 UNL A   1      55.547  18.336  10.120  1.00  0.00    +0.000 C 
ATOM     90  C62 UNL A   1      54.326  18.844  10.010  1.00  0.00    +0.000 C 
ATOM    117  H25 UNL A   1      60.011  17.917  12.974  1.00  0.00    +0.000 H 
ATOM    118  H26 UNL A   1      60.223  18.847  15.400  1.00  0.00    +0.000 H 
ATOM    119  H27 UNL A   1      56.437  19.750  13.985  1.00  0.00    +0.000 H 
ATOM    120  H28 UNL A   1      50.726  22.432  14.884  1.00  0.00    +0.000 H 
ATOM    121  H29 UNL A   1      50.464  21.387  12.586  1.00  0.00    +0.000 H 
ATOM    122  H30 UNL A   1      54.294  20.514  13.944  1.00  0.00    +0.000 H 
ATOM    123  H31 UNL A   1      54.599  22.507  18.547  1.00  0.00    +0.000 H 
ATOM    124  H32 UNL A   1      57.038  21.733  18.577  1.00  0.00    +0.000 H 
ATOM    125  H33 UNL A   1      56.011  17.770   9.392  1.00  0.00    +0.000 H 
ATOM    126  H34 UNL A   1      53.673  18.801   9.213  1.00  0.00    +0.000 H 
ENDROOT
BRANCH   34   33
ATOM     33  C24 UNL A   1      51.773  20.225  10.540  1.00  0.00    +0.000 C 
ATOM    127  H35 UNL A   1      50.717  18.474  11.083  1.00  0.00    +0.000 H 
ATOM    115  H23 UNL A   1      50.705  22.358   8.172  1.00  0.00    +0.000 H 
ATOM    116  H24 UNL A   1      52.524  22.034   9.738  1.00  0.00    +0.000 H 
ATOM     91  C63 UNL A   1      50.754  19.268  10.425  1.00  0.00    +0.000 C 
ATOM     92  C64 UNL A   1      49.785  19.387   9.422  1.00  0.00    +0.000 C 
ATOM     32  C23 UNL A   1      51.768  21.333   9.675  1.00  0.00    +0.000 C 
ATOM     30  C21 UNL A   1      49.805  20.487   8.559  1.00  0.00    +0.000 C 
ATOM     31  C22 UNL A   1      50.755  21.495   8.737  1.00  0.00    +0.000 C 
ATOM    128  H36 UNL A   1      49.057  18.663   9.319  1.00  0.00    +0.000 H 
BRANCH   30    2
ATOM      1  O1  UNL A   1      48.333  21.656   7.155  1.00  0.00    +0.000 O 
ATOM      2  C1  UNL A   1      48.810  20.568   7.466  1.00  0.00    +0.000 C 
BRANCH    2    3
ATOM      3  N1  UNL A   1      48.401  19.422   6.825  1.00  0.00    +0.000 N 
ATOM     93  H1  UNL A   1      48.976  18.634   6.958  1.00  0.00    +0.000 H 
BRANCH    3    4
ATOM      4  C2  UNL A   1      47.239  19.212   5.980  1.00  0.00    +0.000 C 
ATOM     94  H2  UNL A   1      46.648  20.105   5.985  1.00  0.00    +0.000 H 
ATOM     95  H3  UNL A   1      46.702  18.375   6.375  1.00  0.00    +0.000 H 
BRANCH    4    5
ATOM     97  H5  UNL A   1      48.189  19.701   4.184  1.00  0.00    +0.000 H 
ATOM      5  C3  UNL A   1      47.602  18.880   4.539  1.00  0.00    +0.000 C 
ATOM     96  H4  UNL A   1      48.125  17.946   4.537  1.00  0.00    +0.000 H 
BRANCH    5    6
ATOM     98  H6  UNL A   1      46.259  17.720   3.385  1.00  0.00    +0.000 H 
ATOM     99  H7  UNL A   1      46.691  19.328   2.712  1.00  0.00    +0.000 H 
ATOM      6  C4  UNL A   1      46.421  18.761   3.579  1.00  0.00    +0.000 C 
BRANCH    6    7
ATOM    100  H8  UNL A   1      45.150  19.436   5.135  1.00  0.00    +0.000 H 
ATOM    101  H9  UNL A   1      44.335  18.698   3.715  1.00  0.00    +0.000 H 
ATOM      7  C5  UNL A   1      45.098  19.358   4.069  1.00  0.00    +0.000 C 
BRANCH    7    8
ATOM    102  H10 UNL A   1      45.501  21.427   3.813  1.00  0.00    +0.000 H 
ATOM    103  H11 UNL A   1      43.770  20.974   3.912  1.00  0.00    +0.000 H 
ATOM      8  C6  UNL A   1      44.736  20.741   3.515  1.00  0.00    +0.000 C 
BRANCH    8    9
ATOM      9  C7  UNL A   1      44.597  20.823   1.995  1.00  0.00    +0.000 C 
ATOM    105  H13 UNL A   1      45.210  21.629   1.651  1.00  0.00    +0.000 H 
ATOM    104  H12 UNL A   1      44.907  19.891   1.570  1.00  0.00    +0.000 H 
BRANCH    9   10
ATOM     10  N2  UNL A   1      43.230  21.093   1.587  1.00  0.00    +0.000 N 
ATOM    106  H14 UNL A   1      42.923  22.023   1.694  1.00  0.00    +0.000 H 
BRANCH   10   11
ATOM     11  C8  UNL A   1      42.315  20.212   1.068  1.00  0.00    +0.000 C 
ATOM     12  O2  UNL A   1      42.447  19.780  -0.075  1.00  0.00    +0.000 O 
BRANCH   11   13
ATOM    107  H15 UNL A   1      42.126  18.098   2.716  1.00  0.00    +0.000 H 
ATOM    108  H16 UNL A   1      40.192  17.418   4.040  1.00  0.00    +0.000 H 
ATOM     13  C9  UNL A   1      41.158  19.782   1.872  1.00  0.00    +0.000 C 
ATOM     14  C10 UNL A   1      41.252  18.644   2.684  1.00  0.00    +0.000 C 
ATOM     15  C11 UNL A   1      40.156  18.259   3.444  1.00  0.00    +0.000 C 
ATOM     16  C12 UNL A   1      39.019  19.040   3.378  1.00  0.00    +0.000 C 
ATOM     17  N3  UNL A   1      38.919  20.160   2.630  1.00  0.00    +0.000 N 
ATOM     18  C13 UNL A   1      39.991  20.557   1.897  1.00  0.00    +0.000 C 
ATOM    109  H17 UNL A   1      38.198  18.750   3.932  1.00  0.00    +0.000 H 
BRANCH   18   19
ATOM     19  N4  UNL A   1      39.869  21.699   1.058  1.00  0.00    +0.000 N 
ATOM    110  H18 UNL A   1      40.387  22.502   1.294  1.00  0.00    +0.000 H 
BRANCH   19   20
ATOM    111  H19 UNL A   1      40.582  21.119  -1.392  1.00  0.00    +0.000 H 
ATOM    112  H20 UNL A   1      39.251  21.268  -3.411  1.00  0.00    +0.000 H 
ATOM    113  H21 UNL A   1      36.967  22.071  -3.304  1.00  0.00    +0.000 H 
ATOM    114  H22 UNL A   1      37.346  22.562   0.856  1.00  0.00    +0.000 H 
ATOM     20  C14 UNL A   1      39.047  21.757  -0.094  1.00  0.00    +0.000 C 
ATOM     21  C15 UNL A   1      39.601  21.435  -1.337  1.00  0.00    +0.000 C 
ATOM     22  C16 UNL A   1      38.841  21.538  -2.503  1.00  0.00    +0.000 C 
ATOM     23  C17 UNL A   1      37.529  22.006  -2.442  1.00  0.00    +0.000 C 
ATOM     24  C18 UNL A   1      36.970  22.389  -1.214  1.00  0.00    +0.000 C 
ATOM     25  C19 UNL A   1      35.558  22.912  -1.150  1.00  0.00    +0.000 C 
ATOM     26  F1  UNL A   1      35.343  23.938  -2.021  1.00  0.00    +0.000 F 
ATOM     27  F2  UNL A   1      34.635  21.960  -1.466  1.00  0.00    +0.000 F 
ATOM     28  F3  UNL A   1      35.200  23.387   0.075  1.00  0.00    +0.000 F 
ATOM     29  C20 UNL A   1      37.744  22.268  -0.050  1.00  0.00    +0.000 C 
ENDBRANCH   19   20
ENDBRANCH   18   19
ENDBRANCH   11   13
ENDBRANCH   10   11
ENDBRANCH    9   10
ENDBRANCH    8    9
ENDBRANCH    7    8
ENDBRANCH    6    7
ENDBRANCH    5    6
ENDBRANCH    4    5
ENDBRANCH    3    4
ENDBRANCH    2    3
ENDBRANCH   30    2
ENDBRANCH   34   33
BRANCH   38   39
ATOM     39  C29 UNL A   1      58.243  17.578  10.785  1.00  0.00    +0.000 C 
ATOM     40  C30 UNL A   1      59.043  18.226   9.832  1.00  0.00    +0.000 C 
ATOM     41  F4  UNL A   1      59.021  19.563   9.730  1.00  0.00    +0.000 F 
ATOM     42  C31 UNL A   1      59.851  17.499   8.961  1.00  0.00    +0.000 C 
ATOM     43  F5  UNL A   1      60.581  18.137   8.037  1.00  0.00    +0.000 F 
ATOM     44  C32 UNL A   1      59.895  16.115   9.043  1.00  0.00    +0.000 C 
ATOM     45  F6  UNL A   1      60.682  15.418   8.212  1.00  0.00    +0.000 F 
ATOM     46  C33 UNL A   1      59.121  15.454   9.985  1.00  0.00    +0.000 C 
ATOM     47  F7  UNL A   1      59.171  14.118  10.073  1.00  0.00    +0.000 F 
ATOM     48  C34 UNL A   1      58.293  16.177  10.841  1.00  0.00    +0.000 C 
ATOM     49  F8  UNL A   1      57.554  15.509  11.739  1.00  0.00    +0.000 F 
ENDBRANCH   38   39
BRANCH   55   56
ATOM     65  C45 UNL A   1      59.659  21.537  17.582  1.00  0.00    +0.000 C 
ATOM     66  F13 UNL A   1      59.442  22.596  16.789  1.00  0.00    +0.000 F 
ATOM     56  C40 UNL A   1      58.916  20.360  17.406  1.00  0.00    +0.000 C 
ATOM     57  C41 UNL A   1      59.183  19.278  18.259  1.00  0.00    +0.000 C 
ATOM     58  F9  UNL A   1      58.485  18.138  18.141  1.00  0.00    +0.000 F 
ATOM     59  C42 UNL A   1      60.136  19.382  19.269  1.00  0.00    +0.000 C 
ATOM     60  F10 UNL A   1      60.337  18.355  20.105  1.00  0.00    +0.000 F 
ATOM     61  C43 UNL A   1      60.860  20.555  19.424  1.00  0.00    +0.000 C 
ATOM     62  F11 UNL A   1      61.773  20.654  20.399  1.00  0.00    +0.000 F 
ATOM     63  C44 UNL A   1      60.629  21.628  18.576  1.00  0.00    +0.000 C 
ATOM     64  F12 UNL A   1      61.333  22.758  18.720  1.00  0.00    +0.000 F 
ENDBRANCH   55   56
BRANCH   70   71
ATOM     71  C49 UNL A   1      52.379  22.712  17.030  1.00  0.00    +0.000 C 
ATOM     72  C50 UNL A   1      51.599  22.053  17.989  1.00  0.00    +0.000 C 
ATOM     73  F14 UNL A   1      51.612  20.714  18.057  1.00  0.00    +0.000 F 
ATOM     74  C51 UNL A   1      50.778  22.766  18.860  1.00  0.00    +0.000 C 
ATOM     75  F15 UNL A   1      50.011  22.110  19.742  1.00  0.00    +0.000 F 
ATOM     76  C52 UNL A   1      50.744  24.152  18.809  1.00  0.00    +0.000 C 
ATOM     77  F16 UNL A   1      49.962  24.837  19.653  1.00  0.00    +0.000 F 
ATOM     78  C53 UNL A   1      51.520  24.827  17.879  1.00  0.00    +0.000 C 
ATOM     79  F17 UNL A   1      51.504  26.166  17.836  1.00  0.00    +0.000 F 
ATOM     80  C54 UNL A   1      52.316  24.113  16.987  1.00  0.00    +0.000 C 
ATOM     81  F18 UNL A   1      53.050  24.790  16.091  1.00  0.00    +0.000 F 
ENDBRANCH   70   71
TORSDOF 17
ENDMDL
MODEL 3
REMARK VINA RESULT:     -11.2     25.758     32.412
ROOT
ATOM     34  C25 UNL A   1      22.347  19.843   4.959  1.00  0.00    +0.000 C 
ATOM     35  C26 UNL A   1      22.048  20.846   3.882  1.00  0.00    +0.000 C 
ATOM     36  N5  UNL A   1      20.884  21.281   3.462  1.00  0.00    +0.000 N 
ATOM     37  C27 UNL A   1      21.158  22.206   2.464  1.00  0.00    +0.000 C 
ATOM     38  C28 UNL A   1      20.286  22.907   1.699  1.00  0.00    +0.000 C 
ATOM     50  C35 UNL A   1      18.852  22.811   1.804  1.00  0.00    +0.000 C 
ATOM     51  C36 UNL A   1      17.885  23.478   1.069  1.00  0.00    +0.000 C 
ATOM     52  C37 UNL A   1      16.627  23.088   1.542  1.00  0.00    +0.000 C 
ATOM     53  C38 UNL A   1      16.809  22.147   2.542  1.00  0.00    +0.000 C 
ATOM     54  N6  UNL A   1      18.177  21.995   2.700  1.00  0.00    +0.000 N 
ATOM     55  C39 UNL A   1      15.809  21.436   3.297  1.00  0.00    +0.000 C 
ATOM     67  C46 UNL A   1      16.066  20.522   4.263  1.00  0.00    +0.000 C 
ATOM     68  N7  UNL A   1      17.289  20.088   4.749  1.00  0.00    +0.000 N 
ATOM     69  C47 UNL A   1      17.014  19.236   5.706  1.00  0.00    +0.000 C 
ATOM     70  C48 UNL A   1      17.955  18.454   6.574  1.00  0.00    +0.000 C 
ATOM     82  C55 UNL A   1      19.281  18.607   6.407  1.00  0.00    +0.000 C 
ATOM     83  C56 UNL A   1      20.309  17.901   7.162  1.00  0.00    +0.000 C 
ATOM     84  C57 UNL A   1      21.514  18.317   6.747  1.00  0.00    +0.000 C 
ATOM     85  C58 UNL A   1      21.341  19.282   5.659  1.00  0.00    +0.000 C 
ATOM     86  N8  UNL A   1      19.982  19.416   5.546  1.00  0.00    +0.000 N 
ATOM     87  C59 UNL A   1      15.578  19.034   5.937  1.00  0.00    +0.000 C 
ATOM     88  C60 UNL A   1      15.045  19.812   5.007  1.00  0.00    +0.000 C 
ATOM     89  C61 UNL A   1      22.600  22.296   2.359  1.00  0.00    +0.000 C 
ATOM     90  C62 UNL A   1      23.196  21.447   3.186  1.00  0.00    +0.000 C 
ATOM    117  H25 UNL A   1      18.062  24.148   0.305  1.00  0.00    +0.000 H 
ATOM    118  H26 UNL A   1      15.719  23.441   1.203  1.00  0.00    +0.000 H 
ATOM    119  H27 UNL A   1      18.608  21.395   3.351  1.00  0.00    +0.000 H 
ATOM    120  H28 UNL A   1      20.137  17.196   7.895  1.00  0.00    +0.000 H 
ATOM    121  H29 UNL A   1      22.419  18.006   7.133  1.00  0.00    +0.000 H 
ATOM    122  H30 UNL A   1      19.551  20.032   4.911  1.00  0.00    +0.000 H 
ATOM    123  H31 UNL A   1      15.108  18.443   6.641  1.00  0.00    +0.000 H 
ATOM    124  H32 UNL A   1      14.032  19.902   4.834  1.00  0.00    +0.000 H 
ATOM    125  H33 UNL A   1      23.099  22.937   1.723  1.00  0.00    +0.000 H 
ATOM    126  H34 UNL A   1      24.202  21.257   3.309  1.00  0.00    +0.000 H 
ENDROOT
BRANCH   34   33
ATOM     33  C24 UNL A   1      23.736  19.401   5.244  1.00  0.00    +0.000 C 
ATOM    127  H35 UNL A   1      24.114  20.744   6.835  1.00  0.00    +0.000 H 
ATOM    115  H23 UNL A   1      25.877  16.977   4.333  1.00  0.00    +0.000 H 
ATOM    116  H24 UNL A   1      23.716  17.902   3.751  1.00  0.00    +0.000 H 
ATOM     91  C63 UNL A   1      24.509  19.984   6.260  1.00  0.00    +0.000 C 
ATOM     92  C64 UNL A   1      25.814  19.537   6.495  1.00  0.00    +0.000 C 
ATOM     32  C23 UNL A   1      24.269  18.325   4.514  1.00  0.00    +0.000 C 
ATOM     30  C21 UNL A   1      26.335  18.477   5.747  1.00  0.00    +0.000 C 
ATOM     31  C22 UNL A   1      25.532  17.826   4.808  1.00  0.00    +0.000 C 
ATOM    128  H36 UNL A   1      26.392  19.991   7.220  1.00  0.00    +0.000 H 
BRANCH   30    2
ATOM      1  O1  UNL A   1      28.239  17.202   5.242  1.00  0.00    +0.000 O 
ATOM      2  C1  UNL A   1      27.737  18.056   5.968  1.00  0.00    +0.000 C 
BRANCH    2    3
ATOM      3  N1  UNL A   1      28.461  18.600   7.002  1.00  0.00    +0.000 N 
ATOM     93  H1  UNL A   1      28.627  19.568   6.940  1.00  0.00    +0.000 H 
BRANCH    3    4
ATOM      4  C2  UNL A   1      29.016  17.945   8.173  1.00  0.00    +0.000 C 
ATOM     94  H2  UNL A   1      29.999  18.333   8.349  1.00  0.00    +0.000 H 
ATOM     95  H3  UNL A   1      29.033  16.893   7.974  1.00  0.00    +0.000 H 
BRANCH    4    5
ATOM     97  H5  UNL A   1      27.320  17.529   9.319  1.00  0.00    +0.000 H 
ATOM      5  C3  UNL A   1      28.180  18.156   9.427  1.00  0.00    +0.000 C 
ATOM     96  H4  UNL A   1      28.787  17.912  10.274  1.00  0.00    +0.000 H 
BRANCH    5    6
ATOM     98  H6  UNL A   1      27.161  19.871   8.717  1.00  0.00    +0.000 H 
ATOM     99  H7  UNL A   1      28.495  20.173   9.881  1.00  0.00    +0.000 H 
ATOM      6  C4  UNL A   1      27.646  19.574   9.624  1.00  0.00    +0.000 C 
BRANCH    6    7
ATOM    100  H8  UNL A   1      27.190  20.105  11.625  1.00  0.00    +0.000 H 
ATOM    101  H9  UNL A   1      26.184  18.803  10.906  1.00  0.00    +0.000 H 
ATOM      7  C5  UNL A   1      26.647  19.757  10.771  1.00  0.00    +0.000 C 
BRANCH    7    8
ATOM    102  H10 UNL A   1      24.724  20.214   9.996  1.00  0.00    +0.000 H 
ATOM    103  H11 UNL A   1      25.921  21.547   9.954  1.00  0.00    +0.000 H 
ATOM      8  C6  UNL A   1      25.498  20.740  10.515  1.00  0.00    +0.000 C 
BRANCH    8    9
ATOM      9  C7  UNL A   1      24.883  21.370  11.763  1.00  0.00    +0.000 C 
ATOM    105  H13 UNL A   1      25.657  21.898  12.281  1.00  0.00    +0.000 H 
ATOM    104  H12 UNL A   1      24.096  22.031  11.465  1.00  0.00    +0.000 H 
BRANCH    9   10
ATOM     10  N2  UNL A   1      24.340  20.373  12.667  1.00  0.00    +0.000 N 
ATOM    106  H14 UNL A   1      24.873  20.185  13.475  1.00  0.00    +0.000 H 
BRANCH   10   11
ATOM     11  C8  UNL A   1      23.176  19.660  12.535  1.00  0.00    +0.000 C 
ATOM     12  O2  UNL A   1      22.181  20.181  12.036  1.00  0.00    +0.000 O 
BRANCH   11   13
ATOM    107  H15 UNL A   1      22.360  18.743  14.926  1.00  0.00    +0.000 H 
ATOM    108  H16 UNL A   1      22.240  16.418  15.661  1.00  0.00    +0.000 H 
ATOM     13  C9  UNL A   1      23.100  18.264  13.001  1.00  0.00    +0.000 C 
ATOM     14  C10 UNL A   1      22.639  17.979  14.292  1.00  0.00    +0.000 C 
ATOM     15  C11 UNL A   1      22.562  16.658  14.711  1.00  0.00    +0.000 C 
ATOM     16  C12 UNL A   1      22.929  15.675  13.812  1.00  0.00    +0.000 C 
ATOM     17  N3  UNL A   1      23.341  15.925  12.551  1.00  0.00    +0.000 N 
ATOM     18  C13 UNL A   1      23.401  17.213  12.124  1.00  0.00    +0.000 C 
ATOM    109  H17 UNL A   1      22.885  14.691  14.124  1.00  0.00    +0.000 H 
BRANCH   18   19
ATOM     19  N4  UNL A   1      23.897  17.485  10.819  1.00  0.00    +0.000 N 
ATOM    110  H18 UNL A   1      24.360  18.341  10.671  1.00  0.00    +0.000 H 
BRANCH   19   20
ATOM    111  H19 UNL A   1      25.674  17.065   8.944  1.00  0.00    +0.000 H 
ATOM    112  H20 UNL A   1      25.484  15.633   6.999  1.00  0.00    +0.000 H 
ATOM    113  H21 UNL A   1      23.437  14.400   6.593  1.00  0.00    +0.000 H 
ATOM    114  H22 UNL A   1      21.774  16.028  10.096  1.00  0.00    +0.000 H 
ATOM     20  C14 UNL A   1      23.767  16.604   9.718  1.00  0.00    +0.000 C 
ATOM     21  C15 UNL A   1      24.811  16.521   8.791  1.00  0.00    +0.000 C 
ATOM     22  C16 UNL A   1      24.696  15.710   7.660  1.00  0.00    +0.000 C 
ATOM     23  C17 UNL A   1      23.515  15.006   7.424  1.00  0.00    +0.000 C 
ATOM     24  C18 UNL A   1      22.434  15.118   8.309  1.00  0.00    +0.000 C 
ATOM     25  C19 UNL A   1      21.152  14.371   8.045  1.00  0.00    +0.000 C 
ATOM     26  F1  UNL A   1      20.664  14.601   6.793  1.00  0.00    +0.000 F 
ATOM     27  F2  UNL A   1      21.307  13.020   8.138  1.00  0.00    +0.000 F 
ATOM     28  F3  UNL A   1      20.140  14.690   8.899  1.00  0.00    +0.000 F 
ATOM     29  C20 UNL A   1      22.571  15.928   9.447  1.00  0.00    +0.000 C 
ENDBRANCH   19   20
ENDBRANCH   18   19
ENDBRANCH   11   13
ENDBRANCH   10   11
ENDBRANCH    9   10
ENDBRANCH    8    9
ENDBRANCH    7    8
ENDBRANCH    6    7
ENDBRANCH    5    6
ENDBRANCH    4    5
ENDBRANCH    3    4
ENDBRANCH    2    3
ENDBRANCH   30    2
ENDBRANCH   34   33
BRANCH   38   39
ATOM     39  C29 UNL A   1      20.855  23.846   0.674  1.00  0.00    +0.000 C 
ATOM     40  C30 UNL A   1      21.009  23.460  -0.666  1.00  0.00    +0.000 C 
ATOM     41  F4  UNL A   1      20.713  22.208  -1.045  1.00  0.00    +0.000 F 
ATOM     42  C31 UNL A   1      21.493  24.354  -1.618  1.00  0.00    +0.000 C 
ATOM     43  F5  UNL A   1      21.662  23.952  -2.885  1.00  0.00    +0.000 F 
ATOM     44  C32 UNL A   1      21.806  25.655  -1.256  1.00  0.00    +0.000 C 
ATOM     45  F6  UNL A   1      22.260  26.517  -2.176  1.00  0.00    +0.000 F 
ATOM     46  C33 UNL A   1      21.652  26.062   0.061  1.00  0.00    +0.000 C 
ATOM     47  F7  UNL A   1      21.944  27.322   0.410  1.00  0.00    +0.000 F 
ATOM     48  C34 UNL A   1      21.192  25.163   1.021  1.00  0.00    +0.000 C 
ATOM     49  F8  UNL A   1      21.056  25.585   2.286  1.00  0.00    +0.000 F 
ENDBRANCH   38   39
BRANCH   55   56
ATOM     65  C45 UNL A   1      13.644  22.653   3.734  1.00  0.00    +0.000 C 
ATOM     66  F13 UNL A   1      14.239  23.325   4.730  1.00  0.00    +0.000 F 
ATOM     56  C40 UNL A   1      14.367  21.708   2.989  1.00  0.00    +0.000 C 
ATOM     57  C41 UNL A   1      13.698  21.028   1.960  1.00  0.00    +0.000 C 
ATOM     58  F9  UNL A   1      14.353  20.129   1.209  1.00  0.00    +0.000 F 
ATOM     59  C42 UNL A   1      12.365  21.307   1.667  1.00  0.00    +0.000 C 
ATOM     60  F10 UNL A   1      11.763  20.684   0.646  1.00  0.00    +0.000 F 
ATOM     61  C43 UNL A   1      11.670  22.244   2.417  1.00  0.00    +0.000 C 
ATOM     62  F11 UNL A   1      10.388  22.513   2.131  1.00  0.00    +0.000 F 
ATOM     63  C44 UNL A   1      12.305  22.909   3.455  1.00  0.00    +0.000 C 
ATOM     64  F12 UNL A   1      11.631  23.809   4.184  1.00  0.00    +0.000 F 
ENDBRANCH   55   56
BRANCH   70   71
ATOM     71  C49 UNL A   1      17.449  17.519   7.611  1.00  0.00    +0.000 C 
ATOM     72  C50 UNL A   1      16.937  17.992   8.826  1.00  0.00    +0.000 C 
ATOM     73  F14 UNL A   1      16.926  19.309   9.082  1.00  0.00    +0.000 F 
ATOM     74  C51 UNL A   1      16.464  17.113   9.798  1.00  0.00    +0.000 C 
ATOM     75  F15 UNL A   1      16.017  17.587  10.969  1.00  0.00    +0.000 F 
ATOM     76  C52 UNL A   1      16.467  15.746   9.560  1.00  0.00    +0.000 C 
ATOM     77  F16 UNL A   1      16.004  14.901  10.491  1.00  0.00    +0.000 F 
ATOM     78  C53 UNL A   1      16.954  15.256   8.358  1.00  0.00    +0.000 C 
ATOM     79  F17 UNL A   1      16.942  13.938   8.117  1.00  0.00    +0.000 F 
ATOM     80  C54 UNL A   1      17.455  16.132   7.400  1.00  0.00    +0.000 C 
ATOM     81  F18 UNL A   1      17.929  15.631   6.249  1.00  0.00    +0.000 F 
ENDBRANCH   70   71
TORSDOF 17
ENDMDL
MODEL 4
REMARK VINA RESULT:     -11.2     17.980     23.005
ROOT
ATOM     34  C25 UNL A   1      53.042  19.886  11.587  1.00  0.00    +0.000 C 
ATOM     35  C26 UNL A   1      54.387  19.259  11.351  1.00  0.00    +0.000 C 
ATOM     36  N5  UNL A   1      55.426  19.214  12.149  1.00  0.00    +0.000 N 
ATOM     37  C27 UNL A   1      56.405  18.510  11.463  1.00  0.00    +0.000 C 
ATOM     38  C28 UNL A   1      57.673  18.227  11.853  1.00  0.00    +0.000 C 
ATOM     50  C35 UNL A   1      58.243  18.623  13.116  1.00  0.00    +0.000 C 
ATOM     51  C36 UNL A   1      59.520  18.387  13.600  1.00  0.00    +0.000 C 
ATOM     52  C37 UNL A   1      59.611  18.936  14.884  1.00  0.00    +0.000 C 
ATOM     53  C38 UNL A   1      58.406  19.549  15.184  1.00  0.00    +0.000 C 
ATOM     54  N6  UNL A   1      57.573  19.341  14.096  1.00  0.00    +0.000 N 
ATOM     55  C39 UNL A   1      58.041  20.275  16.373  1.00  0.00    +0.000 C 
ATOM     67  C46 UNL A   1      56.836  20.854  16.594  1.00  0.00    +0.000 C 
ATOM     68  N7  UNL A   1      55.715  20.870  15.779  1.00  0.00    +0.000 N 
ATOM     69  C47 UNL A   1      54.792  21.515  16.450  1.00  0.00    +0.000 C 
ATOM     70  C48 UNL A   1      53.382  21.835  16.050  1.00  0.00    +0.000 C 
ATOM     82  C55 UNL A   1      52.933  21.423  14.851  1.00  0.00    +0.000 C 
ATOM     83  C56 UNL A   1      51.598  21.677  14.322  1.00  0.00    +0.000 C 
ATOM     84  C57 UNL A   1      51.493  21.104  13.115  1.00  0.00    +0.000 C 
ATOM     85  C58 UNL A   1      52.773  20.485  12.763  1.00  0.00    +0.000 C 
ATOM     86  N8  UNL A   1      53.559  20.698  13.866  1.00  0.00    +0.000 N 
ATOM     87  C59 UNL A   1      55.226  21.982  17.773  1.00  0.00    +0.000 C 
ATOM     88  C60 UNL A   1      56.491  21.586  17.795  1.00  0.00    +0.000 C 
ATOM     89  C61 UNL A   1      55.830  18.117  10.193  1.00  0.00    +0.000 C 
ATOM     90  C62 UNL A   1      54.597  18.590  10.058  1.00  0.00    +0.000 C 
ATOM    117  H25 UNL A   1      60.273  17.891  13.099  1.00  0.00    +0.000 H 
ATOM    118  H26 UNL A   1      60.436  18.890  15.502  1.00  0.00    +0.000 H 
ATOM    119  H27 UNL A   1      56.643  19.656  14.027  1.00  0.00    +0.000 H 
ATOM    120  H28 UNL A   1      50.856  22.212  14.800  1.00  0.00    +0.000 H 
ATOM    121  H29 UNL A   1      50.644  21.099  12.528  1.00  0.00    +0.000 H 
ATOM    122  H30 UNL A   1      54.481  20.363  13.945  1.00  0.00    +0.000 H 
ATOM    123  H31 UNL A   1      54.688  22.485  18.496  1.00  0.00    +0.000 H 
ATOM    124  H32 UNL A   1      57.146  21.776  18.569  1.00  0.00    +0.000 H 
ATOM    125  H33 UNL A   1      56.315  17.545   9.485  1.00  0.00    +0.000 H 
ATOM    126  H34 UNL A   1      53.954  18.508   9.256  1.00  0.00    +0.000 H 
ENDROOT
BRANCH   34   33
ATOM     33  C24 UNL A   1      52.003  19.917  10.526  1.00  0.00    +0.000 C 
ATOM    127  H35 UNL A   1      52.392  21.881   9.841  1.00  0.00    +0.000 H 
ATOM    115  H23 UNL A   1      49.827  17.841   9.027  1.00  0.00    +0.000 H 
ATOM    116  H24 UNL A   1      51.362  17.935  10.898  1.00  0.00    +0.000 H 
ATOM     91  C63 UNL A   1      51.805  21.042   9.711  1.00  0.00    +0.000 C 
ATOM     92  C64 UNL A   1      50.815  21.030   8.723  1.00  0.00    +0.000 C 
ATOM     32  C23 UNL A   1      51.237  18.762  10.292  1.00  0.00    +0.000 C 
ATOM     30  C21 UNL A   1      50.050  19.878   8.515  1.00  0.00    +0.000 C 
ATOM     31  C22 UNL A   1      50.315  18.722   9.253  1.00  0.00    +0.000 C 
ATOM    128  H36 UNL A   1      50.649  21.871   8.148  1.00  0.00    +0.000 H 
BRANCH   30    2
ATOM      1  O1  UNL A   1      48.437  20.968   7.205  1.00  0.00    +0.000 O 
ATOM      2  C1  UNL A   1      48.966  19.901   7.506  1.00  0.00    +0.000 C 
BRANCH    2    3
ATOM      3  N1  UNL A   1      48.536  18.728   6.935  1.00  0.00    +0.000 N 
ATOM     93  H1  UNL A   1      48.435  17.968   7.552  1.00  0.00    +0.000 H 
BRANCH    3    4
ATOM      4  C2  UNL A   1      48.210  18.453   5.546  1.00  0.00    +0.000 C 
ATOM     94  H2  UNL A   1      48.524  17.456   5.313  1.00  0.00    +0.000 H 
ATOM     95  H3  UNL A   1      48.717  19.181   4.948  1.00  0.00    +0.000 H 
BRANCH    4    5
ATOM     97  H5  UNL A   1      46.496  17.798   4.549  1.00  0.00    +0.000 H 
ATOM      5  C3  UNL A   1      46.723  18.575   5.247  1.00  0.00    +0.000 C 
ATOM     96  H4  UNL A   1      46.192  18.489   6.172  1.00  0.00    +0.000 H 
BRANCH    5    6
ATOM     98  H6  UNL A   1      47.144  20.273   4.055  1.00  0.00    +0.000 H 
ATOM     99  H7  UNL A   1      45.942  20.510   5.367  1.00  0.00    +0.000 H 
ATOM      6  C4  UNL A   1      46.296  19.880   4.578  1.00  0.00    +0.000 C 
BRANCH    6    7
ATOM    100  H8  UNL A   1      44.399  19.126   4.008  1.00  0.00    +0.000 H 
ATOM    101  H9  UNL A   1      45.571  19.404   2.675  1.00  0.00    +0.000 H 
ATOM      7  C5  UNL A   1      45.138  19.772   3.581  1.00  0.00    +0.000 C 
BRANCH    7    8
ATOM    102  H10 UNL A   1      45.027  21.892   3.607  1.00  0.00    +0.000 H 
ATOM    103  H11 UNL A   1      43.458  21.027   3.604  1.00  0.00    +0.000 H 
ATOM      8  C6  UNL A   1      44.448  21.088   3.203  1.00  0.00    +0.000 C 
BRANCH    8    9
ATOM      9  C7  UNL A   1      44.281  21.334   1.704  1.00  0.00    +0.000 C 
ATOM    105  H13 UNL A   1      44.648  22.316   1.488  1.00  0.00    +0.000 H 
ATOM    104  H12 UNL A   1      44.831  20.588   1.169  1.00  0.00    +0.000 H 
BRANCH    9   10
ATOM     10  N2  UNL A   1      42.890  21.275   1.293  1.00  0.00    +0.000 N 
ATOM    106  H14 UNL A   1      42.404  22.132   1.289  1.00  0.00    +0.000 H 
BRANCH   10   11
ATOM     11  C8  UNL A   1      42.170  20.173   0.909  1.00  0.00    +0.000 C 
ATOM     12  O2  UNL A   1      42.333  19.683  -0.207  1.00  0.00    +0.000 O 
BRANCH   11   13
ATOM    107  H15 UNL A   1      42.598  18.388   2.872  1.00  0.00    +0.000 H 
ATOM    108  H16 UNL A   1      40.942  17.413   4.377  1.00  0.00    +0.000 H 
ATOM     13  C9  UNL A   1      41.186  19.569   1.824  1.00  0.00    +0.000 C 
ATOM     14  C10 UNL A   1      41.604  18.652   2.797  1.00  0.00    +0.000 C 
ATOM     15  C11 UNL A   1      40.666  18.101   3.660  1.00  0.00    +0.000 C 
ATOM     16  C12 UNL A   1      39.352  18.508   3.528  1.00  0.00    +0.000 C 
ATOM     17  N3  UNL A   1      38.934  19.417   2.621  1.00  0.00    +0.000 N 
ATOM     18  C13 UNL A   1      39.847  19.977   1.785  1.00  0.00    +0.000 C 
ATOM    109  H17 UNL A   1      38.650  18.092   4.159  1.00  0.00    +0.000 H 
BRANCH   18   19
ATOM     19  N4  UNL A   1      39.400  20.886   0.786  1.00  0.00    +0.000 N 
ATOM    110  H18 UNL A   1      40.060  21.212   0.132  1.00  0.00    +0.000 H 
BRANCH   19   20
ATOM    111  H19 UNL A   1      37.558  20.800   2.642  1.00  0.00    +0.000 H 
ATOM    112  H20 UNL A   1      35.246  21.511   2.487  1.00  0.00    +0.000 H 
ATOM    113  H21 UNL A   1      34.386  22.401   0.403  1.00  0.00    +0.000 H 
ATOM    114  H22 UNL A   1      38.165  21.879  -1.367  1.00  0.00    +0.000 H 
ATOM     20  C14 UNL A   1      38.068  21.353   0.672  1.00  0.00    +0.000 C 
ATOM     21  C15 UNL A   1      37.204  21.204   1.761  1.00  0.00    +0.000 C 
ATOM     22  C16 UNL A   1      35.867  21.596   1.667  1.00  0.00    +0.000 C 
ATOM     23  C17 UNL A   1      35.371  22.102   0.466  1.00  0.00    +0.000 C 
ATOM     24  C18 UNL A   1      36.205  22.207  -0.657  1.00  0.00    +0.000 C 
ATOM     25  C19 UNL A   1      35.664  22.738  -1.959  1.00  0.00    +0.000 C 
ATOM     26  F1  UNL A   1      34.539  22.082  -2.362  1.00  0.00    +0.000 F 
ATOM     27  F2  UNL A   1      35.318  24.054  -1.884  1.00  0.00    +0.000 F 
ATOM     28  F3  UNL A   1      36.538  22.642  -3.000  1.00  0.00    +0.000 F 
ATOM     29  C20 UNL A   1      37.548  21.820  -0.542  1.00  0.00    +0.000 C 
ENDBRANCH   19   20
ENDBRANCH   18   19
ENDBRANCH   11   13
ENDBRANCH   10   11
ENDBRANCH    9   10
ENDBRANCH    8    9
ENDBRANCH    7    8
ENDBRANCH    6    7
ENDBRANCH    5    6
ENDBRANCH    4    5
ENDBRANCH    3    4
ENDBRANCH    2    3
ENDBRANCH   30    2
ENDBRANCH   34   33
BRANCH   38   39
ATOM     39  C29 UNL A   1      58.537  17.448  10.904  1.00  0.00    +0.000 C 
ATOM     40  C30 UNL A   1      58.548  16.045  10.910  1.00  0.00    +0.000 C 
ATOM     41  F4  UNL A   1      57.832  15.369  11.820  1.00  0.00    +0.000 F 
ATOM     42  C31 UNL A   1      59.317  15.330   9.994  1.00  0.00    +0.000 C 
ATOM     43  F5  UNL A   1      59.337  13.992  10.040  1.00  0.00    +0.000 F 
ATOM     44  C32 UNL A   1      60.067  16.002   9.041  1.00  0.00    +0.000 C 
ATOM     45  F6  UNL A   1      60.797  15.313   8.153  1.00  0.00    +0.000 F 
ATOM     46  C33 UNL A   1      60.063  17.389   9.010  1.00  0.00    +0.000 C 
ATOM     47  F7  UNL A   1      60.779  18.038   8.081  1.00  0.00    +0.000 F 
ATOM     48  C34 UNL A   1      59.314  18.106   9.939  1.00  0.00    +0.000 C 
ATOM     49  F8  UNL A   1      59.334  19.446   9.886  1.00  0.00    +0.000 F 
ENDBRANCH   38   39
BRANCH   55   56
ATOM     65  C45 UNL A   1      59.289  19.388  18.376  1.00  0.00    +0.000 C 
ATOM     66  F13 UNL A   1      58.578  18.253  18.300  1.00  0.00    +0.000 F 
ATOM     56  C40 UNL A   1      59.070  20.422  17.454  1.00  0.00    +0.000 C 
ATOM     57  C41 UNL A   1      59.836  21.591  17.580  1.00  0.00    +0.000 C 
ATOM     58  F9  UNL A   1      59.675  22.599  16.709  1.00  0.00    +0.000 F 
ATOM     59  C42 UNL A   1      60.806  21.706  18.572  1.00  0.00    +0.000 C 
ATOM     60  F10 UNL A   1      61.562  22.810  18.640  1.00  0.00    +0.000 F 
ATOM     61  C43 UNL A   1      61.005  20.672  19.475  1.00  0.00    +0.000 C 
ATOM     62  F11 UNL A   1      61.941  20.784  20.426  1.00  0.00    +0.000 F 
ATOM     63  C44 UNL A   1      60.241  19.518  19.383  1.00  0.00    +0.000 C 
ATOM     64  F12 UNL A   1      60.427  18.522  20.259  1.00  0.00    +0.000 F 
ENDBRANCH   55   56
BRANCH   70   71
ATOM     71  C49 UNL A   1      52.478  22.592  16.953  1.00  0.00    +0.000 C 
ATOM     72  C50 UNL A   1      52.333  23.980  16.836  1.00  0.00    +0.000 C 
ATOM     73  F14 UNL A   1      53.041  24.653  15.917  1.00  0.00    +0.000 F 
ATOM     74  C51 UNL A   1      51.485  24.687  17.686  1.00  0.00    +0.000 C 
ATOM     75  F15 UNL A   1      51.394  26.020  17.581  1.00  0.00    +0.000 F 
ATOM     76  C52 UNL A   1      50.744  24.016  18.647  1.00  0.00    +0.000 C 
ATOM     77  F16 UNL A   1      49.922  24.696  19.458  1.00  0.00    +0.000 F 
ATOM     78  C53 UNL A   1      50.859  22.640  18.770  1.00  0.00    +0.000 C 
ATOM     79  F17 UNL A   1      50.133  21.984  19.685  1.00  0.00    +0.000 F 
ATOM     80  C54 UNL A   1      51.730  21.937  17.942  1.00  0.00    +0.000 C 
ATOM     81  F18 UNL A   1      51.829  20.607  18.088  1.00  0.00    +0.000 F 
ENDBRANCH   70   71
TORSDOF 17
ENDMDL
MODEL 5
REMARK VINA RESULT:     -11.1      1.504      2.939
ROOT
ATOM     34  C25 UNL A   1      41.634  26.250  27.665  1.00  0.00    +0.000 C 
ATOM     35  C26 UNL A   1      43.008  26.536  27.128  1.00  0.00    +0.000 C 
ATOM     36  N5  UNL A   1      43.759  27.596  27.309  1.00  0.00    +0.000 N 
ATOM     37  C27 UNL A   1      44.935  27.355  26.612  1.00  0.00    +0.000 C 
ATOM     38  C28 UNL A   1      46.010  28.167  26.464  1.00  0.00    +0.000 C 
ATOM     50  C35 UNL A   1      46.124  29.482  27.042  1.00  0.00    +0.000 C 
ATOM     51  C36 UNL A   1      47.172  30.382  26.945  1.00  0.00    +0.000 C 
ATOM     52  C37 UNL A   1      46.847  31.518  27.694  1.00  0.00    +0.000 C 
ATOM     53  C38 UNL A   1      45.579  31.344  28.224  1.00  0.00    +0.000 C 
ATOM     54  N6  UNL A   1      45.152  30.088  27.825  1.00  0.00    +0.000 N 
ATOM     55  C39 UNL A   1      44.812  32.257  29.031  1.00  0.00    +0.000 C 
ATOM     67  C46 UNL A   1      43.569  32.016  29.512  1.00  0.00    +0.000 C 
ATOM     68  N7  UNL A   1      42.783  30.883  29.369  1.00  0.00    +0.000 N 
ATOM     69  C47 UNL A   1      41.689  31.115  30.051  1.00  0.00    +0.000 C 
ATOM     70  C48 UNL A   1      40.489  30.236  30.241  1.00  0.00    +0.000 C 
ATOM     82  C55 UNL A   1      40.470  29.020  29.664  1.00  0.00    +0.000 C 
ATOM     83  C56 UNL A   1      39.368  28.070  29.746  1.00  0.00    +0.000 C 
ATOM     84  C57 UNL A   1      39.703  26.959  29.074  1.00  0.00    +0.000 C 
ATOM     85  C58 UNL A   1      41.025  27.141  28.471  1.00  0.00    +0.000 C 
ATOM     86  N8  UNL A   1      41.417  28.382  28.901  1.00  0.00    +0.000 N 
ATOM     87  C59 UNL A   1      41.657  32.428  30.710  1.00  0.00    +0.000 C 
ATOM     88  C60 UNL A   1      42.810  32.951  30.318  1.00  0.00    +0.000 C 
ATOM     89  C61 UNL A   1      44.816  26.034  26.029  1.00  0.00    +0.000 C 
ATOM     90  C62 UNL A   1      43.628  25.502  26.286  1.00  0.00    +0.000 C 
ATOM    117  H25 UNL A   1      48.044  30.238  26.412  1.00  0.00    +0.000 H 
ATOM    118  H26 UNL A   1      47.450  32.345  27.829  1.00  0.00    +0.000 H 
ATOM    119  H27 UNL A   1      44.286  29.683  28.062  1.00  0.00    +0.000 H 
ATOM    120  H28 UNL A   1      38.476  28.226  30.239  1.00  0.00    +0.000 H 
ATOM    121  H29 UNL A   1      39.121  26.110  28.995  1.00  0.00    +0.000 H 
ATOM    122  H30 UNL A   1      42.292  28.778  28.684  1.00  0.00    +0.000 H 
ATOM    123  H31 UNL A   1      40.930  32.835  31.318  1.00  0.00    +0.000 H 
ATOM    124  H32 UNL A   1      43.127  33.904  30.556  1.00  0.00    +0.000 H 
ATOM    125  H33 UNL A   1      45.558  25.568  25.485  1.00  0.00    +0.000 H 
ATOM    126  H34 UNL A   1      43.239  24.598  25.975  1.00  0.00    +0.000 H 
ENDROOT
BRANCH   34   33
ATOM     33  C24 UNL A   1      40.891  25.022  27.283  1.00  0.00    +0.000 C 
ATOM    127  H35 UNL A   1      42.005  23.667  28.465  1.00  0.00    +0.000 H 
ATOM    115  H23 UNL A   1      38.144  24.137  25.561  1.00  0.00    +0.000 H 
ATOM    116  H24 UNL A   1      39.542  26.059  26.025  1.00  0.00    +0.000 H 
ATOM     91  C63 UNL A   1      41.224  23.761  27.799  1.00  0.00    +0.000 C 
ATOM     92  C64 UNL A   1      40.497  22.629  27.412  1.00  0.00    +0.000 C 
ATOM     32  C23 UNL A   1      39.783  25.139  26.425  1.00  0.00    +0.000 C 
ATOM     30  C21 UNL A   1      39.408  22.760  26.544  1.00  0.00    +0.000 C 
ATOM     31  C22 UNL A   1      39.010  24.027  26.112  1.00  0.00    +0.000 C 
ATOM    128  H36 UNL A   1      40.765  21.697  27.767  1.00  0.00    +0.000 H 
BRANCH   30    2
ATOM      1  O1  UNL A   1      39.309  20.503  25.911  1.00  0.00    +0.000 O 
ATOM      2  C1  UNL A   1      38.688  21.546  26.099  1.00  0.00    +0.000 C 
BRANCH    2    3
ATOM      3  N1  UNL A   1      37.334  21.598  25.867  1.00  0.00    +0.000 N 
ATOM     93  H1  UNL A   1      36.788  21.923  26.619  1.00  0.00    +0.000 H 
BRANCH    3    4
ATOM      4  C2  UNL A   1      36.597  21.239  24.669  1.00  0.00    +0.000 C 
ATOM     94  H2  UNL A   1      36.175  20.265  24.805  1.00  0.00    +0.000 H 
ATOM     95  H3  UNL A   1      37.285  21.265  23.849  1.00  0.00    +0.000 H 
BRANCH    4    5
ATOM     97  H5  UNL A   1      35.228  22.054  23.317  1.00  0.00    +0.000 H 
ATOM      5  C3  UNL A   1      35.472  22.213  24.347  1.00  0.00    +0.000 C 
ATOM     96  H4  UNL A   1      34.661  22.013  25.016  1.00  0.00    +0.000 H 
BRANCH    5    6
ATOM     98  H6  UNL A   1      35.795  24.122  23.492  1.00  0.00    +0.000 H 
ATOM     99  H7  UNL A   1      36.803  23.719  24.922  1.00  0.00    +0.000 H 
ATOM      6  C4  UNL A   1      35.832  23.692  24.471  1.00  0.00    +0.000 C 
BRANCH    6    7
ATOM    100  H8  UNL A   1      34.338  25.167  24.764  1.00  0.00    +0.000 H 
ATOM    101  H9  UNL A   1      35.587  25.043  26.049  1.00  0.00    +0.000 H 
ATOM      7  C5  UNL A   1      34.928  24.525  25.385  1.00  0.00    +0.000 C 
BRANCH    7    8
ATOM    102  H10 UNL A   1      34.143  24.042  27.298  1.00  0.00    +0.000 H 
ATOM    103  H11 UNL A   1      34.181  22.703  26.108  1.00  0.00    +0.000 H 
ATOM      8  C6  UNL A   1      33.970  23.737  26.287  1.00  0.00    +0.000 C 
BRANCH    8    9
ATOM      9  C7  UNL A   1      32.484  23.922  25.986  1.00  0.00    +0.000 C 
ATOM    105  H13 UNL A   1      32.338  23.770  24.937  1.00  0.00    +0.000 H 
ATOM    104  H12 UNL A   1      31.924  23.215  26.562  1.00  0.00    +0.000 H 
BRANCH    9   10
ATOM     10  N2  UNL A   1      32.024  25.260  26.312  1.00  0.00    +0.000 N 
ATOM    106  H14 UNL A   1      32.130  25.537  27.252  1.00  0.00    +0.000 H 
BRANCH   10   11
ATOM     11  C8  UNL A   1      31.461  26.187  25.471  1.00  0.00    +0.000 C 
ATOM     12  O2  UNL A   1      30.251  26.399  25.502  1.00  0.00    +0.000 O 
BRANCH   11   13
ATOM    107  H15 UNL A   1      32.097  25.522  22.946  1.00  0.00    +0.000 H 
ATOM    108  H16 UNL A   1      33.485  26.785  21.385  1.00  0.00    +0.000 H 
ATOM     13  C9  UNL A   1      32.299  26.931  24.515  1.00  0.00    +0.000 C 
ATOM     14  C10 UNL A   1      32.515  26.422  23.228  1.00  0.00    +0.000 C 
ATOM     15  C11 UNL A   1      33.297  27.141  22.334  1.00  0.00    +0.000 C 
ATOM     16  C12 UNL A   1      33.813  28.351  22.758  1.00  0.00    +0.000 C 
ATOM     17  N3  UNL A   1      33.587  28.877  23.982  1.00  0.00    +0.000 N 
ATOM     18  C13 UNL A   1      32.807  28.191  24.857  1.00  0.00    +0.000 C 
ATOM    109  H17 UNL A   1      34.405  28.883  22.101  1.00  0.00    +0.000 H 
BRANCH   18   19
ATOM     19  N4  UNL A   1      32.621  28.710  26.168  1.00  0.00    +0.000 N 
ATOM    110  H18 UNL A   1      31.803  28.455  26.653  1.00  0.00    +0.000 H 
BRANCH   19   20
ATOM    111  H19 UNL A   1      34.924  28.030  27.208  1.00  0.00    +0.000 H 
ATOM    112  H20 UNL A   1      36.498  29.435  28.401  1.00  0.00    +0.000 H 
ATOM    113  H21 UNL A   1      35.990  31.774  28.785  1.00  0.00    +0.000 H 
ATOM    114  H22 UNL A   1      32.334  31.301  26.761  1.00  0.00    +0.000 H 
ATOM     20  C14 UNL A   1      33.537  29.570  26.822  1.00  0.00    +0.000 C 
ATOM     21  C15 UNL A   1      34.717  29.032  27.344  1.00  0.00    +0.000 C 
ATOM     22  C16 UNL A   1      35.615  29.835  28.048  1.00  0.00    +0.000 C 
ATOM     23  C17 UNL A   1      35.320  31.180  28.273  1.00  0.00    +0.000 C 
ATOM     24  C18 UNL A   1      34.116  31.728  27.809  1.00  0.00    +0.000 C 
ATOM     25  C19 UNL A   1      33.789  33.176  28.067  1.00  0.00    +0.000 C 
ATOM     26  F1  UNL A   1      33.891  33.505  29.386  1.00  0.00    +0.000 F 
ATOM     27  F2  UNL A   1      34.626  34.026  27.409  1.00  0.00    +0.000 F 
ATOM     28  F3  UNL A   1      32.528  33.534  27.696  1.00  0.00    +0.000 F 
ATOM     29  C20 UNL A   1      33.230  30.909  27.093  1.00  0.00    +0.000 C 
ENDBRANCH   19   20
ENDBRANCH   18   19
ENDBRANCH   11   13
ENDBRANCH   10   11
ENDBRANCH    9   10
ENDBRANCH    8    9
ENDBRANCH    7    8
ENDBRANCH    6    7
ENDBRANCH    5    6
ENDBRANCH    4    5
ENDBRANCH    3    4
ENDBRANCH    2    3
ENDBRANCH   30    2
ENDBRANCH   34   33
BRANCH   38   39
ATOM     39  C29 UNL A   1      47.160  27.658  25.643  1.00  0.00    +0.000 C 
ATOM     40  C30 UNL A   1      47.207  27.849  24.254  1.00  0.00    +0.000 C 
ATOM     41  F4  UNL A   1      46.181  28.433  23.618  1.00  0.00    +0.000 F 
ATOM     42  C31 UNL A   1      48.301  27.416  23.507  1.00  0.00    +0.000 C 
ATOM     43  F5  UNL A   1      48.309  27.580  22.178  1.00  0.00    +0.000 F 
ATOM     44  C32 UNL A   1      49.378  26.810  24.137  1.00  0.00    +0.000 C 
ATOM     45  F6  UNL A   1      50.434  26.405  23.419  1.00  0.00    +0.000 F 
ATOM     46  C33 UNL A   1      49.357  26.621  25.511  1.00  0.00    +0.000 C 
ATOM     47  F7  UNL A   1      50.402  26.045  26.122  1.00  0.00    +0.000 F 
ATOM     48  C34 UNL A   1      48.255  27.030  26.257  1.00  0.00    +0.000 C 
ATOM     49  F8  UNL A   1      48.263  26.830  27.583  1.00  0.00    +0.000 F 
ENDBRANCH   38   39
BRANCH   55   56
ATOM     65  C45 UNL A   1      46.198  33.752  30.515  1.00  0.00    +0.000 C 
ATOM     66  F13 UNL A   1      46.411  32.715  31.338  1.00  0.00    +0.000 F 
ATOM     56  C40 UNL A   1      45.418  33.589  29.361  1.00  0.00    +0.000 C 
ATOM     57  C41 UNL A   1      45.221  34.706  28.535  1.00  0.00    +0.000 C 
ATOM     58  F9  UNL A   1      44.498  34.594  27.410  1.00  0.00    +0.000 F 
ATOM     59  C42 UNL A   1      45.809  35.931  28.837  1.00  0.00    +0.000 C 
ATOM     60  F10 UNL A   1      45.651  36.970  28.006  1.00  0.00    +0.000 F 
ATOM     61  C43 UNL A   1      46.576  36.070  29.985  1.00  0.00    +0.000 C 
ATOM     62  F11 UNL A   1      47.144  37.249  30.272  1.00  0.00    +0.000 F 
ATOM     63  C44 UNL A   1      46.762  34.985  30.828  1.00  0.00    +0.000 C 
ATOM     64  F12 UNL A   1      47.496  35.121  31.941  1.00  0.00    +0.000 F 
ENDBRANCH   55   56
BRANCH   70   71
ATOM     71  C49 UNL A   1      39.328  30.681  31.052  1.00  0.00    +0.000 C 
ATOM     72  C50 UNL A   1      38.345  31.520  30.513  1.00  0.00    +0.000 C 
ATOM     73  F14 UNL A   1      38.459  31.961  29.251  1.00  0.00    +0.000 F 
ATOM     74  C51 UNL A   1      37.258  31.937  31.277  1.00  0.00    +0.000 C 
ATOM     75  F15 UNL A   1      36.352  32.774  30.751  1.00  0.00    +0.000 F 
ATOM     76  C52 UNL A   1      37.117  31.499  32.586  1.00  0.00    +0.000 C 
ATOM     77  F16 UNL A   1      36.066  31.893  33.318  1.00  0.00    +0.000 F 
ATOM     78  C53 UNL A   1      38.069  30.655  33.136  1.00  0.00    +0.000 C 
ATOM     79  F17 UNL A   1      37.929  30.214  34.394  1.00  0.00    +0.000 F 
ATOM     80  C54 UNL A   1      39.172  30.263  32.382  1.00  0.00    +0.000 C 
ATOM     81  F18 UNL A   1      40.083  29.453  32.942  1.00  0.00    +0.000 F 
ENDBRANCH   70   71
TORSDOF 17
ENDMDL
MODEL 6
REMARK VINA RESULT:     -10.9      4.577      9.664
ROOT
ATOM     34  C25 UNL A   1      38.004  30.138  29.827  1.00  0.00    +0.000 C 
ATOM     35  C26 UNL A   1      38.234  30.647  31.222  1.00  0.00    +0.000 C 
ATOM     36  N5  UNL A   1      39.249  30.426  32.022  1.00  0.00    +0.000 N 
ATOM     37  C27 UNL A   1      38.980  31.135  33.185  1.00  0.00    +0.000 C 
ATOM     38  C28 UNL A   1      39.712  31.197  34.324  1.00  0.00    +0.000 C 
ATOM     50  C35 UNL A   1      40.963  30.510  34.527  1.00  0.00    +0.000 C 
ATOM     51  C36 UNL A   1      41.777  30.508  35.649  1.00  0.00    +0.000 C 
ATOM     52  C37 UNL A   1      42.900  29.721  35.375  1.00  0.00    +0.000 C 
ATOM     53  C38 UNL A   1      42.767  29.198  34.099  1.00  0.00    +0.000 C 
ATOM     54  N6  UNL A   1      41.581  29.698  33.587  1.00  0.00    +0.000 N 
ATOM     55  C39 UNL A   1      43.655  28.306  33.399  1.00  0.00    +0.000 C 
ATOM     67  C46 UNL A   1      43.454  27.831  32.146  1.00  0.00    +0.000 C 
ATOM     68  N7  UNL A   1      42.411  28.093  31.272  1.00  0.00    +0.000 N 
ATOM     69  C47 UNL A   1      42.691  27.439  30.172  1.00  0.00    +0.000 C 
ATOM     70  C48 UNL A   1      41.907  27.357  28.895  1.00  0.00    +0.000 C 
ATOM     82  C55 UNL A   1      40.749  28.035  28.794  1.00  0.00    +0.000 C 
ATOM     83  C56 UNL A   1      39.876  28.033  27.626  1.00  0.00    +0.000 C 
ATOM     84  C57 UNL A   1      38.827  28.832  27.868  1.00  0.00    +0.000 C 
ATOM     85  C58 UNL A   1      38.929  29.361  29.230  1.00  0.00    +0.000 C 
ATOM     86  N8  UNL A   1      40.118  28.859  29.693  1.00  0.00    +0.000 N 
ATOM     87  C59 UNL A   1      43.950  26.685  30.223  1.00  0.00    +0.000 C 
ATOM     88  C60 UNL A   1      44.356  26.928  31.461  1.00  0.00    +0.000 C 
ATOM     89  C61 UNL A   1      37.722  31.821  32.978  1.00  0.00    +0.000 C 
ATOM     90  C62 UNL A   1      37.200  31.521  31.796  1.00  0.00    +0.000 C 
ATOM    117  H25 UNL A   1      41.587  31.004  36.533  1.00  0.00    +0.000 H 
ATOM    118  H26 UNL A   1      43.693  29.558  36.015  1.00  0.00    +0.000 H 
ATOM    119  H27 UNL A   1      41.227  29.506  32.689  1.00  0.00    +0.000 H 
ATOM    120  H28 UNL A   1      40.038  27.503  26.756  1.00  0.00    +0.000 H 
ATOM    121  H29 UNL A   1      38.068  29.041  27.201  1.00  0.00    +0.000 H 
ATOM    122  H30 UNL A   1      40.483  29.069  30.582  1.00  0.00    +0.000 H 
ATOM    123  H31 UNL A   1      44.401  26.117  29.489  1.00  0.00    +0.000 H 
ATOM    124  H32 UNL A   1      45.207  26.525  31.884  1.00  0.00    +0.000 H 
ATOM    125  H33 UNL A   1      37.287  32.460  33.662  1.00  0.00    +0.000 H 
ATOM    126  H34 UNL A   1      36.302  31.822  31.386  1.00  0.00    +0.000 H 
ENDROOT
BRANCH   34   33
ATOM     33  C24 UNL A   1      36.744  30.422  29.095  1.00  0.00    +0.000 C 
ATOM    127  H35 UNL A   1      37.175  32.435  28.608  1.00  0.00    +0.000 H 
ATOM    115  H23 UNL A   1      34.034  28.793  27.957  1.00  0.00    +0.000 H 
ATOM    116  H24 UNL A   1      35.988  28.462  29.348  1.00  0.00    +0.000 H 
ATOM     91  C63 UNL A   1      36.481  31.677  28.525  1.00  0.00    +0.000 C 
ATOM     92  C64 UNL A   1      35.280  31.902  27.842  1.00  0.00    +0.000 C 
ATOM     32  C23 UNL A   1      35.814  29.383  28.916  1.00  0.00    +0.000 C 
ATOM     30  C21 UNL A   1      34.358  30.862  27.689  1.00  0.00    +0.000 C 
ATOM     31  C22 UNL A   1      34.663  29.585  28.164  1.00  0.00    +0.000 C 
ATOM    128  H36 UNL A   1      35.075  32.836  27.454  1.00  0.00    +0.000 H 
BRANCH   30    2
ATOM      1  O1  UNL A   1      32.614  32.275  27.005  1.00  0.00    +0.000 O 
ATOM      2  C1  UNL A   1      33.067  31.133  27.017  1.00  0.00    +0.000 C 
BRANCH    2    3
ATOM      3  N1  UNL A   1      32.366  30.103  26.437  1.00  0.00    +0.000 N 
ATOM     93  H1  UNL A   1      31.586  29.783  26.944  1.00  0.00    +0.000 H 
BRANCH    3    4
ATOM      4  C2  UNL A   1      32.616  29.421  25.179  1.00  0.00    +0.000 C 
ATOM     94  H2  UNL A   1      32.794  28.385  25.382  1.00  0.00    +0.000 H 
ATOM     95  H3  UNL A   1      33.464  29.890  24.724  1.00  0.00    +0.000 H 
BRANCH    4    5
ATOM     97  H5  UNL A   1      30.842  30.331  24.556  1.00  0.00    +0.000 H 
ATOM      5  C3  UNL A   1      31.456  29.531  24.200  1.00  0.00    +0.000 C 
ATOM     96  H4  UNL A   1      31.862  29.702  23.225  1.00  0.00    +0.000 H 
BRANCH    5    6
ATOM     98  H6  UNL A   1      30.118  28.275  23.144  1.00  0.00    +0.000 H 
ATOM     99  H7  UNL A   1      29.830  28.426  24.910  1.00  0.00    +0.000 H 
ATOM      6  C4  UNL A   1      30.547  28.305  24.125  1.00  0.00    +0.000 C 
BRANCH    6    7
ATOM    100  H8  UNL A   1      30.980  26.653  25.381  1.00  0.00    +0.000 H 
ATOM    101  H9  UNL A   1      32.267  27.119  24.218  1.00  0.00    +0.000 H 
ATOM      7  C5  UNL A   1      31.223  26.955  24.384  1.00  0.00    +0.000 C 
BRANCH    7    8
ATOM    102  H10 UNL A   1      31.473  25.855  22.585  1.00  0.00    +0.000 H 
ATOM    103  H11 UNL A   1      29.797  25.963  23.208  1.00  0.00    +0.000 H 
ATOM      8  C6  UNL A   1      30.831  25.812  23.439  1.00  0.00    +0.000 C 
BRANCH    8    9
ATOM      9  C7  UNL A   1      30.929  24.408  24.033  1.00  0.00    +0.000 C 
ATOM    105  H13 UNL A   1      30.413  24.410  24.971  1.00  0.00    +0.000 H 
ATOM    104  H12 UNL A   1      30.490  23.712  23.349  1.00  0.00    +0.000 H 
BRANCH    9   10
ATOM     10  N2  UNL A   1      32.305  24.016  24.281  1.00  0.00    +0.000 N 
ATOM    106  H14 UNL A   1      32.835  23.773  23.487  1.00  0.00    +0.000 H 
BRANCH   10   11
ATOM     11  C8  UNL A   1      32.958  23.944  25.485  1.00  0.00    +0.000 C 
ATOM     12  O2  UNL A   1      32.401  24.314  26.517  1.00  0.00    +0.000 O 
BRANCH   11   13
ATOM    107  H15 UNL A   1      35.257  25.325  25.308  1.00  0.00    +0.000 H 
ATOM    108  H16 UNL A   1      37.530  24.444  25.436  1.00  0.00    +0.000 H 
ATOM     13  C9  UNL A   1      34.338  23.433  25.555  1.00  0.00    +0.000 C 
ATOM     14  C10 UNL A   1      35.420  24.316  25.447  1.00  0.00    +0.000 C 
ATOM     15  C11 UNL A   1      36.714  23.820  25.527  1.00  0.00    +0.000 C 
ATOM     16  C12 UNL A   1      36.872  22.463  25.734  1.00  0.00    +0.000 C 
ATOM     17  N3  UNL A   1      35.844  21.600  25.877  1.00  0.00    +0.000 N 
ATOM     18  C13 UNL A   1      34.573  22.078  25.821  1.00  0.00    +0.000 C 
ATOM    109  H17 UNL A   1      37.832  22.088  25.782  1.00  0.00    +0.000 H 
BRANCH   18   19
ATOM     19  N4  UNL A   1      33.488  21.162  25.906  1.00  0.00    +0.000 N 
ATOM    110  H18 UNL A   1      32.872  21.247  26.670  1.00  0.00    +0.000 H 
BRANCH   19   20
ATOM    111  H19 UNL A   1      32.069  21.375  23.717  1.00  0.00    +0.000 H 
ATOM    112  H20 UNL A   1      31.538  19.644  22.107  1.00  0.00    +0.000 H 
ATOM    113  H21 UNL A   1      32.324  17.377  22.456  1.00  0.00    +0.000 H 
ATOM    114  H22 UNL A   1      34.187  18.585  26.027  1.00  0.00    +0.000 H 
ATOM     20  C14 UNL A   1      33.235  20.136  24.963  1.00  0.00    +0.000 C 
ATOM     21  C15 UNL A   1      32.429  20.418  23.856  1.00  0.00    +0.000 C 
ATOM     22  C16 UNL A   1      32.107  19.417  22.937  1.00  0.00    +0.000 C 
ATOM     23  C17 UNL A   1      32.554  18.112  23.142  1.00  0.00    +0.000 C 
ATOM     24  C18 UNL A   1      33.316  17.793  24.275  1.00  0.00    +0.000 C 
ATOM     25  C19 UNL A   1      33.784  16.380  24.505  1.00  0.00    +0.000 C 
ATOM     26  F1  UNL A   1      32.764  15.478  24.447  1.00  0.00    +0.000 F 
ATOM     27  F2  UNL A   1      34.691  15.972  23.573  1.00  0.00    +0.000 F 
ATOM     28  F3  UNL A   1      34.380  16.184  25.714  1.00  0.00    +0.000 F 
ATOM     29  C20 UNL A   1      33.640  18.814  25.182  1.00  0.00    +0.000 C 
ENDBRANCH   19   20
ENDBRANCH   18   19
ENDBRANCH   11   13
ENDBRANCH   10   11
ENDBRANCH    9   10
ENDBRANCH    8    9
ENDBRANCH    7    8
ENDBRANCH    6    7
ENDBRANCH    5    6
ENDBRANCH    4    5
ENDBRANCH    3    4
ENDBRANCH    2    3
ENDBRANCH   30    2
ENDBRANCH   34   33
BRANCH   38   39
ATOM     39  C29 UNL A   1      39.184  32.042  35.448  1.00  0.00    +0.000 C 
ATOM     40  C30 UNL A   1      38.396  31.490  36.469  1.00  0.00    +0.000 C 
ATOM     41  F4  UNL A   1      38.038  30.198  36.421  1.00  0.00    +0.000 F 
ATOM     42  C31 UNL A   1      37.950  32.271  37.532  1.00  0.00    +0.000 C 
ATOM     43  F5  UNL A   1      37.172  31.730  38.478  1.00  0.00    +0.000 F 
ATOM     44  C32 UNL A   1      38.305  33.609  37.610  1.00  0.00    +0.000 C 
ATOM     45  F6  UNL A   1      37.885  34.357  38.640  1.00  0.00    +0.000 F 
ATOM     46  C33 UNL A   1      39.092  34.174  36.617  1.00  0.00    +0.000 C 
ATOM     47  F7  UNL A   1      39.444  35.465  36.696  1.00  0.00    +0.000 F 
ATOM     48  C34 UNL A   1      39.519  33.401  35.540  1.00  0.00    +0.000 C 
ATOM     49  F8  UNL A   1      40.276  33.976  34.594  1.00  0.00    +0.000 F 
ENDBRANCH   38   39
BRANCH   55   56
ATOM     65  C45 UNL A   1      46.088  28.575  34.003  1.00  0.00    +0.000 C 
ATOM     66  F13 UNL A   1      46.131  29.698  33.271  1.00  0.00    +0.000 F 
ATOM     56  C40 UNL A   1      44.895  27.845  34.106  1.00  0.00    +0.000 C 
ATOM     57  C41 UNL A   1      44.903  26.675  34.881  1.00  0.00    +0.000 C 
ATOM     58  F9  UNL A   1      43.780  25.953  35.024  1.00  0.00    +0.000 F 
ATOM     59  C42 UNL A   1      46.053  26.270  35.553  1.00  0.00    +0.000 C 
ATOM     60  F10 UNL A   1      46.022  25.179  36.330  1.00  0.00    +0.000 F 
ATOM     61  C43 UNL A   1      47.222  27.007  35.436  1.00  0.00    +0.000 C 
ATOM     62  F11 UNL A   1      48.327  26.618  36.087  1.00  0.00    +0.000 F 
ATOM     63  C44 UNL A   1      47.243  28.153  34.656  1.00  0.00    +0.000 C 
ATOM     64  F12 UNL A   1      48.374  28.861  34.536  1.00  0.00    +0.000 F 
ENDBRANCH   55   56
BRANCH   70   71
ATOM     71  C49 UNL A   1      42.387  26.548  27.747  1.00  0.00    +0.000 C 
ATOM     72  C50 UNL A   1      41.938  25.236  27.545  1.00  0.00    +0.000 C 
ATOM     73  F14 UNL A   1      41.082  24.680  28.415  1.00  0.00    +0.000 F 
ATOM     74  C51 UNL A   1      42.392  24.479  26.468  1.00  0.00    +0.000 C 
ATOM     75  F15 UNL A   1      41.978  23.213  26.319  1.00  0.00    +0.000 F 
ATOM     76  C52 UNL A   1      43.280  25.029  25.555  1.00  0.00    +0.000 C 
ATOM     77  F16 UNL A   1      43.709  24.304  24.513  1.00  0.00    +0.000 F 
ATOM     78  C53 UNL A   1      43.726  26.331  25.725  1.00  0.00    +0.000 C 
ATOM     79  F17 UNL A   1      44.570  26.873  24.837  1.00  0.00    +0.000 F 
ATOM     80  C54 UNL A   1      43.297  27.077  26.819  1.00  0.00    +0.000 C 
ATOM     81  F18 UNL A   1      43.751  28.331  26.965  1.00  0.00    +0.000 F 
ENDBRANCH   70   71
TORSDOF 17
ENDMDL
MODEL 7
REMARK VINA RESULT:     -10.9     20.898     28.672
ROOT
ATOM     34  C25 UNL A   1      26.304  35.564  45.643  1.00  0.00    +0.000 C 
ATOM     35  C26 UNL A   1      24.981  34.865  45.505  1.00  0.00    +0.000 C 
ATOM     36  N5  UNL A   1      23.854  35.106  46.129  1.00  0.00    +0.000 N 
ATOM     37  C27 UNL A   1      22.938  34.190  45.632  1.00  0.00    +0.000 C 
ATOM     38  C28 UNL A   1      21.642  34.013  45.987  1.00  0.00    +0.000 C 
ATOM     50  C35 UNL A   1      20.958  34.793  46.988  1.00  0.00    +0.000 C 
ATOM     51  C36 UNL A   1      19.646  34.686  47.421  1.00  0.00    +0.000 C 
ATOM     52  C37 UNL A   1      19.420  35.673  48.387  1.00  0.00    +0.000 C 
ATOM     53  C38 UNL A   1      20.602  36.368  48.586  1.00  0.00    +0.000 C 
ATOM     54  N6  UNL A   1      21.533  35.825  47.715  1.00  0.00    +0.000 N 
ATOM     55  C39 UNL A   1      20.864  37.445  49.505  1.00  0.00    +0.000 C 
ATOM     67  C46 UNL A   1      22.054  38.077  49.647  1.00  0.00    +0.000 C 
ATOM     68  N7  UNL A   1      23.240  37.864  48.962  1.00  0.00    +0.000 N 
ATOM     69  C47 UNL A   1      24.086  38.751  49.424  1.00  0.00    +0.000 C 
ATOM     70  C48 UNL A   1      25.520  38.977  49.045  1.00  0.00    +0.000 C 
ATOM     82  C55 UNL A   1      26.077  38.201  48.098  1.00  0.00    +0.000 C 
ATOM     83  C56 UNL A   1      27.459  38.292  47.644  1.00  0.00    +0.000 C 
ATOM     84  C57 UNL A   1      27.660  37.383  46.678  1.00  0.00    +0.000 C 
ATOM     85  C58 UNL A   1      26.431  36.610  46.483  1.00  0.00    +0.000 C 
ATOM     86  N8  UNL A   1      25.536  37.185  47.347  1.00  0.00    +0.000 N 
ATOM     87  C59 UNL A   1      23.529  39.633  50.458  1.00  0.00    +0.000 C 
ATOM     88  C60 UNL A   1      22.300  39.154  50.583  1.00  0.00    +0.000 C 
ATOM     89  C61 UNL A   1      23.629  33.405  44.630  1.00  0.00    +0.000 C 
ATOM     90  C62 UNL A   1      24.906  33.757  44.542  1.00  0.00    +0.000 C 
ATOM    117  H25 UNL A   1      18.954  33.997  47.087  1.00  0.00    +0.000 H 
ATOM    118  H26 UNL A   1      18.525  35.852  48.868  1.00  0.00    +0.000 H 
ATOM    119  H27 UNL A   1      22.466  36.127  47.625  1.00  0.00    +0.000 H 
ATOM    120  H28 UNL A   1      28.168  38.949  48.006  1.00  0.00    +0.000 H 
ATOM    121  H29 UNL A   1      28.540  37.250  46.157  1.00  0.00    +0.000 H 
ATOM    122  H30 UNL A   1      24.597  36.900  47.421  1.00  0.00    +0.000 H 
ATOM    123  H31 UNL A   1      23.977  40.419  50.955  1.00  0.00    +0.000 H 
ATOM    124  H32 UNL A   1      21.605  39.505  51.261  1.00  0.00    +0.000 H 
ATOM    125  H33 UNL A   1      23.187  32.669  44.059  1.00  0.00    +0.000 H 
ATOM    126  H34 UNL A   1      25.651  33.357  43.951  1.00  0.00    +0.000 H 
ENDROOT
BRANCH   34   33
ATOM     33  C24 UNL A   1      27.510  35.096  44.913  1.00  0.00    +0.000 C 
ATOM    127  H35 UNL A   1      27.269  36.320  43.204  1.00  0.00    +0.000 H 
ATOM    115  H23 UNL A   1      30.205  33.155  45.423  1.00  0.00    +0.000 H 
ATOM    116  H24 UNL A   1      28.102  33.771  46.453  1.00  0.00    +0.000 H 
ATOM     91  C63 UNL A   1      27.858  35.600  43.651  1.00  0.00    +0.000 C 
ATOM     92  C64 UNL A   1      29.003  35.132  42.998  1.00  0.00    +0.000 C 
ATOM     32  C23 UNL A   1      28.359  34.163  45.533  1.00  0.00    +0.000 C 
ATOM     30  C21 UNL A   1      29.828  34.190  43.622  1.00  0.00    +0.000 C 
ATOM     31  C22 UNL A   1      29.541  33.764  44.921  1.00  0.00    +0.000 C 
ATOM    128  H36 UNL A   1      29.239  35.480  42.055  1.00  0.00    +0.000 H 
BRANCH   30    2
ATOM      1  O1  UNL A   1      31.924  33.142  43.516  1.00  0.00    +0.000 O 
ATOM      2  C1  UNL A   1      31.002  33.661  42.893  1.00  0.00    +0.000 C 
BRANCH    2    3
ATOM      3  N1  UNL A   1      31.070  33.779  41.525  1.00  0.00    +0.000 N 
ATOM     93  H1  UNL A   1      30.250  33.536  41.037  1.00  0.00    +0.000 H 
BRANCH    3    4
ATOM      4  C2  UNL A   1      32.183  34.212  40.699  1.00  0.00    +0.000 C 
ATOM     94  H2  UNL A   1      32.374  33.460  39.961  1.00  0.00    +0.000 H 
ATOM     95  H3  UNL A   1      33.024  34.360  41.345  1.00  0.00    +0.000 H 
BRANCH    4    5
ATOM     97  H5  UNL A   1      32.868  35.865  39.621  1.00  0.00    +0.000 H 
ATOM      5  C3  UNL A   1      31.920  35.532  39.988  1.00  0.00    +0.000 C 
ATOM     96  H4  UNL A   1      31.199  35.354  39.216  1.00  0.00    +0.000 H 
BRANCH    5    6
ATOM     98  H6  UNL A   1      31.708  36.461  41.879  1.00  0.00    +0.000 H 
ATOM     99  H7  UNL A   1      30.329  36.658  40.745  1.00  0.00    +0.000 H 
ATOM      6  C4  UNL A   1      31.392  36.658  40.875  1.00  0.00    +0.000 C 
BRANCH    6    7
ATOM    100  H8  UNL A   1      31.231  38.422  39.710  1.00  0.00    +0.000 H 
ATOM    101  H9  UNL A   1      32.887  37.977  40.245  1.00  0.00    +0.000 H 
ATOM      7  C5  UNL A   1      31.854  38.071  40.506  1.00  0.00    +0.000 C 
BRANCH    7    8
ATOM    102  H10 UNL A   1      31.187  39.921  41.307  1.00  0.00    +0.000 H 
ATOM    103  H11 UNL A   1      32.823  39.393  41.814  1.00  0.00    +0.000 H 
ATOM      8  C6  UNL A   1      31.807  39.112  41.632  1.00  0.00    +0.000 C 
BRANCH    8    9
ATOM      9  C7  UNL A   1      31.264  38.608  42.968  1.00  0.00    +0.000 C 
ATOM    105  H13 UNL A   1      30.202  38.505  42.875  1.00  0.00    +0.000 H 
ATOM    104  H12 UNL A   1      31.725  37.670  43.197  1.00  0.00    +0.000 H 
BRANCH    9   10
ATOM     10  N2  UNL A   1      31.530  39.537  44.051  1.00  0.00    +0.000 N 
ATOM    106  H14 UNL A   1      32.261  40.180  43.899  1.00  0.00    +0.000 H 
BRANCH   10   11
ATOM     11  C8  UNL A   1      30.887  39.632  45.259  1.00  0.00    +0.000 C 
ATOM     12  O2  UNL A   1      31.088  38.795  46.137  1.00  0.00    +0.000 O 
BRANCH   11   13
ATOM    107  H15 UNL A   1      28.306  39.809  44.533  1.00  0.00    +0.000 H 
ATOM    108  H16 UNL A   1      26.762  41.646  44.982  1.00  0.00    +0.000 H 
ATOM     13  C9  UNL A   1      29.940  40.731  45.515  1.00  0.00    +0.000 C 
ATOM     14  C10 UNL A   1      28.620  40.640  45.058  1.00  0.00    +0.000 C 
ATOM     15  C11 UNL A   1      27.736  41.679  45.319  1.00  0.00    +0.000 C 
ATOM     16  C12 UNL A   1      28.205  42.757  46.045  1.00  0.00    +0.000 C 
ATOM     17  N3  UNL A   1      29.464  42.848  46.526  1.00  0.00    +0.000 N 
ATOM     18  C13 UNL A   1      30.331  41.828  46.294  1.00  0.00    +0.000 C 
ATOM    109  H17 UNL A   1      27.556  43.537  46.230  1.00  0.00    +0.000 H 
BRANCH   18   19
ATOM     19  N4  UNL A   1      31.675  41.950  46.743  1.00  0.00    +0.000 N 
ATOM    110  H18 UNL A   1      31.952  41.414  47.521  1.00  0.00    +0.000 H 
BRANCH   19   20
ATOM    111  H19 UNL A   1      33.705  41.191  45.276  1.00  0.00    +0.000 H 
ATOM    112  H20 UNL A   1      35.433  42.572  44.286  1.00  0.00    +0.000 H 
ATOM    113  H21 UNL A   1      35.425  44.969  44.643  1.00  0.00    +0.000 H 
ATOM    114  H22 UNL A   1      31.944  44.600  46.974  1.00  0.00    +0.000 H 
ATOM     20  C14 UNL A   1      32.642  42.793  46.142  1.00  0.00    +0.000 C 
ATOM     21  C15 UNL A   1      33.682  42.214  45.408  1.00  0.00    +0.000 C 
ATOM     22  C16 UNL A   1      34.688  43.006  44.853  1.00  0.00    +0.000 C 
ATOM     23  C17 UNL A   1      34.686  44.385  45.063  1.00  0.00    +0.000 C 
ATOM     24  C18 UNL A   1      33.686  44.981  45.844  1.00  0.00    +0.000 C 
ATOM     25  C19 UNL A   1      33.694  46.469  46.086  1.00  0.00    +0.000 C 
ATOM     26  F1  UNL A   1      34.889  46.911  46.569  1.00  0.00    +0.000 F 
ATOM     27  F2  UNL A   1      33.468  47.184  44.948  1.00  0.00    +0.000 F 
ATOM     28  F3  UNL A   1      32.757  46.888  46.982  1.00  0.00    +0.000 F 
ATOM     29  C20 UNL A   1      32.676  44.171  46.385  1.00  0.00    +0.000 C 
ENDBRANCH   19   20
ENDBRANCH   18   19
ENDBRANCH   11   13
ENDBRANCH   10   11
ENDBRANCH    9   10
ENDBRANCH    8    9
ENDBRANCH    7    8
ENDBRANCH    6    7
ENDBRANCH    5    6
ENDBRANCH    4    5
ENDBRANCH    3    4
ENDBRANCH    2    3
ENDBRANCH   30    2
ENDBRANCH   34   33
BRANCH   38   39
ATOM     39  C29 UNL A   1      20.868  32.932  45.289  1.00  0.00    +0.000 C 
ATOM     40  C30 UNL A   1      20.951  31.593  45.699  1.00  0.00    +0.000 C 
ATOM     41  F4  UNL A   1      21.786  31.240  46.687  1.00  0.00    +0.000 F 
ATOM     42  C31 UNL A   1      20.193  30.604  45.076  1.00  0.00    +0.000 C 
ATOM     43  F5  UNL A   1      20.313  29.327  45.463  1.00  0.00    +0.000 F 
ATOM     44  C32 UNL A   1      19.319  30.938  44.052  1.00  0.00    +0.000 C 
ATOM     45  F6  UNL A   1      18.582  29.987  43.461  1.00  0.00    +0.000 F 
ATOM     46  C33 UNL A   1      19.213  32.257  43.638  1.00  0.00    +0.000 C 
ATOM     47  F7  UNL A   1      18.361  32.583  42.655  1.00  0.00    +0.000 F 
ATOM     48  C34 UNL A   1      19.988  33.244  44.242  1.00  0.00    +0.000 C 
ATOM     49  F8  UNL A   1      19.865  34.511  43.817  1.00  0.00    +0.000 F 
ENDBRANCH   38   39
BRANCH   55   56
ATOM     65  C45 UNL A   1      19.518  37.288  51.632  1.00  0.00    +0.000 C 
ATOM     66  F13 UNL A   1      20.302  36.279  52.038  1.00  0.00    +0.000 F 
ATOM     56  C40 UNL A   1      19.745  37.904  50.392  1.00  0.00    +0.000 C 
ATOM     57  C41 UNL A   1      18.894  38.953  50.011  1.00  0.00    +0.000 C 
ATOM     58  F9  UNL A   1      19.084  39.585  48.843  1.00  0.00    +0.000 F 
ATOM     59  C42 UNL A   1      17.874  39.388  50.853  1.00  0.00    +0.000 C 
ATOM     60  F10 UNL A   1      17.107  40.425  50.492  1.00  0.00    +0.000 F 
ATOM     61  C43 UNL A   1      17.666  38.763  52.074  1.00  0.00    +0.000 C 
ATOM     62  F11 UNL A   1      16.687  39.186  52.885  1.00  0.00    +0.000 F 
ATOM     63  C44 UNL A   1      18.481  37.709  52.459  1.00  0.00    +0.000 C 
ATOM     64  F12 UNL A   1      18.276  37.100  53.635  1.00  0.00    +0.000 F 
ENDBRANCH   55   56
BRANCH   70   71
ATOM     71  C49 UNL A   1      26.330  40.039  49.693  1.00  0.00    +0.000 C 
ATOM     72  C50 UNL A   1      26.402  41.329  49.152  1.00  0.00    +0.000 C 
ATOM     73  F14 UNL A   1      25.757  41.614  48.011  1.00  0.00    +0.000 F 
ATOM     74  C51 UNL A   1      27.164  42.323  49.762  1.00  0.00    +0.000 C 
ATOM     75  F15 UNL A   1      27.250  43.538  49.203  1.00  0.00    +0.000 F 
ATOM     76  C52 UNL A   1      27.844  42.053  50.941  1.00  0.00    +0.000 C 
ATOM     77  F16 UNL A   1      28.569  43.012  51.533  1.00  0.00    +0.000 F 
ATOM     78  C53 UNL A   1      27.774  40.788  51.504  1.00  0.00    +0.000 C 
ATOM     79  F17 UNL A   1      28.415  40.528  52.652  1.00  0.00    +0.000 F 
ATOM     80  C54 UNL A   1      27.038  39.787  50.878  1.00  0.00    +0.000 C 
ATOM     81  F18 UNL A   1      26.995  38.569  51.439  1.00  0.00    +0.000 F 
ENDBRANCH   70   71
TORSDOF 17
ENDMDL
MODEL 8
REMARK VINA RESULT:     -10.9      1.732      2.074
ROOT
ATOM     34  C25 UNL A   1      41.509  26.130  27.638  1.00  0.00    +0.000 C 
ATOM     35  C26 UNL A   1      42.907  26.429  27.177  1.00  0.00    +0.000 C 
ATOM     36  N5  UNL A   1      43.627  27.507  27.375  1.00  0.00    +0.000 N 
ATOM     37  C27 UNL A   1      44.847  27.271  26.756  1.00  0.00    +0.000 C 
ATOM     38  C28 UNL A   1      45.915  28.099  26.651  1.00  0.00    +0.000 C 
ATOM     50  C35 UNL A   1      45.971  29.430  27.203  1.00  0.00    +0.000 C 
ATOM     51  C36 UNL A   1      47.008  30.347  27.146  1.00  0.00    +0.000 C 
ATOM     52  C37 UNL A   1      46.619  31.494  27.846  1.00  0.00    +0.000 C 
ATOM     53  C38 UNL A   1      45.325  31.309  28.304  1.00  0.00    +0.000 C 
ATOM     54  N6  UNL A   1      44.944  30.035  27.912  1.00  0.00    +0.000 N 
ATOM     55  C39 UNL A   1      44.495  32.226  29.042  1.00  0.00    +0.000 C 
ATOM     67  C46 UNL A   1      43.230  31.974  29.454  1.00  0.00    +0.000 C 
ATOM     68  N7  UNL A   1      42.474  30.823  29.292  1.00  0.00    +0.000 N 
ATOM     69  C47 UNL A   1      41.337  31.051  29.903  1.00  0.00    +0.000 C 
ATOM     70  C48 UNL A   1      40.143  30.154  30.043  1.00  0.00    +0.000 C 
ATOM     82  C55 UNL A   1      40.180  28.925  29.496  1.00  0.00    +0.000 C 
ATOM     83  C56 UNL A   1      39.091  27.956  29.535  1.00  0.00    +0.000 C 
ATOM     84  C57 UNL A   1      39.484  26.836  28.913  1.00  0.00    +0.000 C 
ATOM     85  C58 UNL A   1      40.837  27.029  28.384  1.00  0.00    +0.000 C 
ATOM     86  N8  UNL A   1      41.182  28.287  28.806  1.00  0.00    +0.000 N 
ATOM     87  C59 UNL A   1      41.244  32.378  30.525  1.00  0.00    +0.000 C 
ATOM     88  C60 UNL A   1      42.408  32.913  30.190  1.00  0.00    +0.000 C 
ATOM     89  C61 UNL A   1      44.785  25.935  26.200  1.00  0.00    +0.000 C 
ATOM     90  C62 UNL A   1      43.593  25.387  26.398  1.00  0.00    +0.000 C 
ATOM    117  H25 UNL A   1      47.912  30.207  26.669  1.00  0.00    +0.000 H 
ATOM    118  H26 UNL A   1      47.198  32.335  27.996  1.00  0.00    +0.000 H 
ATOM    119  H27 UNL A   1      44.072  29.621  28.107  1.00  0.00    +0.000 H 
ATOM    120  H28 UNL A   1      38.168  28.108  29.971  1.00  0.00    +0.000 H 
ATOM    121  H29 UNL A   1      38.923  25.975  28.820  1.00  0.00    +0.000 H 
ATOM    122  H30 UNL A   1      42.061  28.693  28.631  1.00  0.00    +0.000 H 
ATOM    123  H31 UNL A   1      40.474  32.785  31.080  1.00  0.00    +0.000 H 
ATOM    124  H32 UNL A   1      42.694  33.877  30.423  1.00  0.00    +0.000 H 
ATOM    125  H33 UNL A   1      45.567  25.470  25.712  1.00  0.00    +0.000 H 
ATOM    126  H34 UNL A   1      43.240  24.469  26.088  1.00  0.00    +0.000 H 
ENDROOT
BRANCH   34   33
ATOM     33  C24 UNL A   1      40.811  24.880  27.243  1.00  0.00    +0.000 C 
ATOM    127  H35 UNL A   1      41.963  23.556  28.424  1.00  0.00    +0.000 H 
ATOM    115  H23 UNL A   1      38.108  23.912  25.497  1.00  0.00    +0.000 H 
ATOM    116  H24 UNL A   1      39.435  25.879  25.983  1.00  0.00    +0.000 H 
ATOM     91  C63 UNL A   1      41.183  23.627  27.753  1.00  0.00    +0.000 C 
ATOM     92  C64 UNL A   1      40.499  22.474  27.354  1.00  0.00    +0.000 C 
ATOM     32  C23 UNL A   1      39.705  24.964  26.379  1.00  0.00    +0.000 C 
ATOM     30  C21 UNL A   1      39.412  22.573  26.480  1.00  0.00    +0.000 C 
ATOM     31  C22 UNL A   1      38.973  23.829  26.053  1.00  0.00    +0.000 C 
ATOM    128  H36 UNL A   1      40.797  21.550  27.704  1.00  0.00    +0.000 H 
BRANCH   30    2
ATOM      1  O1  UNL A   1      39.398  20.325  25.810  1.00  0.00    +0.000 O 
ATOM      2  C1  UNL A   1      38.737  21.338  26.021  1.00  0.00    +0.000 C 
BRANCH    2    3
ATOM      3  N1  UNL A   1      37.380  21.338  25.805  1.00  0.00    +0.000 N 
ATOM     93  H1  UNL A   1      36.827  21.603  26.575  1.00  0.00    +0.000 H 
BRANCH    3    4
ATOM      4  C2  UNL A   1      36.646  21.002  24.597  1.00  0.00    +0.000 C 
ATOM     94  H2  UNL A   1      36.248  20.014  24.703  1.00  0.00    +0.000 H 
ATOM     95  H3  UNL A   1      37.331  21.070  23.777  1.00  0.00    +0.000 H 
BRANCH    4    5
ATOM     97  H5  UNL A   1      35.184  21.754  23.309  1.00  0.00    +0.000 H 
ATOM      5  C3  UNL A   1      35.499  21.960  24.310  1.00  0.00    +0.000 C 
ATOM     96  H4  UNL A   1      34.737  21.791  25.043  1.00  0.00    +0.000 H 
BRANCH    5    6
ATOM     98  H6  UNL A   1      35.617  23.860  23.385  1.00  0.00    +0.000 H 
ATOM     99  H7  UNL A   1      36.905  23.483  24.579  1.00  0.00    +0.000 H 
ATOM      6  C4  UNL A   1      35.862  23.443  24.340  1.00  0.00    +0.000 C 
BRANCH    6    7
ATOM    100  H8  UNL A   1      34.366  24.822  24.938  1.00  0.00    +0.000 H 
ATOM    101  H9  UNL A   1      35.919  24.902  25.837  1.00  0.00    +0.000 H 
ATOM      7  C5  UNL A   1      35.159  24.281  25.412  1.00  0.00    +0.000 C 
BRANCH    7    8
ATOM    102  H10 UNL A   1      34.746  24.061  27.483  1.00  0.00    +0.000 H 
ATOM    103  H11 UNL A   1      35.023  22.541  26.575  1.00  0.00    +0.000 H 
ATOM      8  C6  UNL A   1      34.557  23.504  26.589  1.00  0.00    +0.000 C 
BRANCH    8    9
ATOM      9  C7  UNL A   1      33.054  23.245  26.504  1.00  0.00    +0.000 C 
ATOM    105  H13 UNL A   1      32.908  22.317  25.991  1.00  0.00    +0.000 H 
ATOM    104  H12 UNL A   1      32.653  23.207  27.495  1.00  0.00    +0.000 H 
BRANCH    9   10
ATOM     10  N2  UNL A   1      32.363  24.281  25.758  1.00  0.00    +0.000 N 
ATOM    106  H14 UNL A   1      32.522  25.207  26.057  1.00  0.00    +0.000 H 
BRANCH   10   11
ATOM     11  C8  UNL A   1      31.519  24.130  24.688  1.00  0.00    +0.000 C 
ATOM     12  O2  UNL A   1      30.452  23.534  24.818  1.00  0.00    +0.000 O 
BRANCH   11   13
ATOM    107  H15 UNL A   1      33.243  23.118  22.892  1.00  0.00    +0.000 H 
ATOM    108  H16 UNL A   1      33.820  24.041  20.707  1.00  0.00    +0.000 H 
ATOM     13  C9  UNL A   1      31.885  24.672  23.367  1.00  0.00    +0.000 C 
ATOM     14  C10 UNL A   1      32.808  23.994  22.562  1.00  0.00    +0.000 C 
ATOM     15  C11 UNL A   1      33.133  24.511  21.316  1.00  0.00    +0.000 C 
ATOM     16  C12 UNL A   1      32.504  25.675  20.917  1.00  0.00    +0.000 C 
ATOM     17  N3  UNL A   1      31.584  26.325  21.662  1.00  0.00    +0.000 N 
ATOM     18  C13 UNL A   1      31.244  25.817  22.875  1.00  0.00    +0.000 C 
ATOM    109  H17 UNL A   1      32.752  26.070  19.996  1.00  0.00    +0.000 H 
BRANCH   18   19
ATOM     19  N4  UNL A   1      30.324  26.533  23.690  1.00  0.00    +0.000 N 
ATOM    110  H18 UNL A   1      29.637  26.019  24.172  1.00  0.00    +0.000 H 
BRANCH   19   20
ATOM    111  H19 UNL A   1      31.859  27.903  25.307  1.00  0.00    +0.000 H 
ATOM    112  H20 UNL A   1      31.871  30.297  25.686  1.00  0.00    +0.000 H 
ATOM    113  H21 UNL A   1      30.296  31.720  24.516  1.00  0.00    +0.000 H 
ATOM    114  H22 UNL A   1      28.707  28.346  22.573  1.00  0.00    +0.000 H 
ATOM     20  C14 UNL A   1      30.333  27.940  23.853  1.00  0.00    +0.000 C 
ATOM     21  C15 UNL A   1      31.206  28.508  24.786  1.00  0.00    +0.000 C 
ATOM     22  C16 UNL A   1      31.201  29.885  25.019  1.00  0.00    +0.000 C 
ATOM     23  C17 UNL A   1      30.290  30.702  24.350  1.00  0.00    +0.000 C 
ATOM     24  C18 UNL A   1      29.367  30.148  23.452  1.00  0.00    +0.000 C 
ATOM     25  C19 UNL A   1      28.372  31.029  22.742  1.00  0.00    +0.000 C 
ATOM     26  F1  UNL A   1      27.665  31.814  23.604  1.00  0.00    +0.000 F 
ATOM     27  F2  UNL A   1      28.966  31.886  21.865  1.00  0.00    +0.000 F 
ATOM     28  F3  UNL A   1      27.442  30.344  22.021  1.00  0.00    +0.000 F 
ATOM     29  C20 UNL A   1      29.393  28.764  23.221  1.00  0.00    +0.000 C 
ENDBRANCH   19   20
ENDBRANCH   18   19
ENDBRANCH   11   13
ENDBRANCH   10   11
ENDBRANCH    9   10
ENDBRANCH    8    9
ENDBRANCH    7    8
ENDBRANCH    6    7
ENDBRANCH    5    6
ENDBRANCH    4    5
ENDBRANCH    3    4
ENDBRANCH    2    3
ENDBRANCH   30    2
ENDBRANCH   34   33
BRANCH   38   39
ATOM     39  C29 UNL A   1      47.120  27.593  25.913  1.00  0.00    +0.000 C 
ATOM     40  C30 UNL A   1      47.241  27.740  24.523  1.00  0.00    +0.000 C 
ATOM     41  F4  UNL A   1      46.238  28.277  23.812  1.00  0.00    +0.000 F 
ATOM     42  C31 UNL A   1      48.384  27.310  23.853  1.00  0.00    +0.000 C 
ATOM     43  F5  UNL A   1      48.463  27.431  22.521  1.00  0.00    +0.000 F 
ATOM     44  C32 UNL A   1      49.437  26.751  24.561  1.00  0.00    +0.000 C 
ATOM     45  F6  UNL A   1      50.542  26.350  23.917  1.00  0.00    +0.000 F 
ATOM     46  C33 UNL A   1      49.345  26.607  25.938  1.00  0.00    +0.000 C 
ATOM     47  F7  UNL A   1      50.367  26.077  26.624  1.00  0.00    +0.000 F 
ATOM     48  C34 UNL A   1      48.193  27.013  26.607  1.00  0.00    +0.000 C 
ATOM     49  F8  UNL A   1      48.132  26.856  27.938  1.00  0.00    +0.000 F 
ENDBRANCH   38   39
BRANCH   55   56
ATOM     65  C45 UNL A   1      44.873  34.660  28.503  1.00  0.00    +0.000 C 
ATOM     66  F13 UNL A   1      44.187  34.500  27.362  1.00  0.00    +0.000 F 
ATOM     56  C40 UNL A   1      45.058  33.576  29.374  1.00  0.00    +0.000 C 
ATOM     57  C41 UNL A   1      45.786  33.795  30.553  1.00  0.00    +0.000 C 
ATOM     58  F9  UNL A   1      45.973  32.792  31.426  1.00  0.00    +0.000 F 
ATOM     59  C42 UNL A   1      46.282  35.058  30.864  1.00  0.00    +0.000 C 
ATOM     60  F10 UNL A   1      46.928  35.255  32.020  1.00  0.00    +0.000 F 
ATOM     61  C43 UNL A   1      46.088  36.116  29.988  1.00  0.00    +0.000 C 
ATOM     62  F11 UNL A   1      46.563  37.332  30.290  1.00  0.00    +0.000 F 
ATOM     63  C44 UNL A   1      45.393  35.916  28.805  1.00  0.00    +0.000 C 
ATOM     64  F12 UNL A   1      45.212  36.935  27.954  1.00  0.00    +0.000 F 
ENDBRANCH   55   56
BRANCH   70   71
ATOM     71  C49 UNL A   1      38.928  30.596  30.773  1.00  0.00    +0.000 C 
ATOM     72  C50 UNL A   1      38.821  30.447  32.161  1.00  0.00    +0.000 C 
ATOM     73  F14 UNL A   1      39.814  29.868  32.851  1.00  0.00    +0.000 F 
ATOM     74  C51 UNL A   1      37.679  30.863  32.842  1.00  0.00    +0.000 C 
ATOM     75  F15 UNL A   1      37.583  30.672  34.165  1.00  0.00    +0.000 F 
ATOM     76  C52 UNL A   1      36.636  31.462  32.152  1.00  0.00    +0.000 C 
ATOM     77  F16 UNL A   1      35.542  31.870  32.809  1.00  0.00    +0.000 F 
ATOM     78  C53 UNL A   1      36.726  31.635  30.779  1.00  0.00    +0.000 C 
ATOM     79  F17 UNL A   1      35.729  32.229  30.110  1.00  0.00    +0.000 F 
ATOM     80  C54 UNL A   1      37.854  31.192  30.094  1.00  0.00    +0.000 C 
ATOM     81  F18 UNL A   1      37.912  31.363  28.765  1.00  0.00    +0.000 F 
ENDBRANCH   70   71
TORSDOF 17
ENDMDL
MODEL 9
REMARK VINA RESULT:     -10.9      3.378      8.161
ROOT
ATOM     34  C25 UNL A   1      40.854  29.951  29.691  1.00  0.00    +0.000 C 
ATOM     35  C26 UNL A   1      40.920  28.555  29.139  1.00  0.00    +0.000 C 
ATOM     36  N5  UNL A   1      41.883  27.983  28.458  1.00  0.00    +0.000 N 
ATOM     37  C27 UNL A   1      41.454  26.689  28.201  1.00  0.00    +0.000 C 
ATOM     38  C28 UNL A   1      42.082  25.714  27.498  1.00  0.00    +0.000 C 
ATOM     50  C35 UNL A   1      43.373  25.863  26.874  1.00  0.00    +0.000 C 
ATOM     51  C36 UNL A   1      44.090  24.934  26.138  1.00  0.00    +0.000 C 
ATOM     52  C37 UNL A   1      45.303  25.517  25.756  1.00  0.00    +0.000 C 
ATOM     53  C38 UNL A   1      45.325  26.823  26.220  1.00  0.00    +0.000 C 
ATOM     54  N6  UNL A   1      44.141  27.018  26.912  1.00  0.00    +0.000 N 
ATOM     55  C39 UNL A   1      46.349  27.820  26.042  1.00  0.00    +0.000 C 
ATOM     67  C46 UNL A   1      46.297  29.085  26.524  1.00  0.00    +0.000 C 
ATOM     68  N7  UNL A   1      45.307  29.687  27.285  1.00  0.00    +0.000 N 
ATOM     69  C47 UNL A   1      45.737  30.898  27.540  1.00  0.00    +0.000 C 
ATOM     70  C48 UNL A   1      45.071  31.993  28.320  1.00  0.00    +0.000 C 
ATOM     82  C55 UNL A   1      43.865  31.764  28.870  1.00  0.00    +0.000 C 
ATOM     83  C56 UNL A   1      43.093  32.736  29.634  1.00  0.00    +0.000 C 
ATOM     84  C57 UNL A   1      41.955  32.160  30.047  1.00  0.00    +0.000 C 
ATOM     85  C58 UNL A   1      41.895  30.791  29.530  1.00  0.00    +0.000 C 
ATOM     86  N8  UNL A   1      43.085  30.633  28.869  1.00  0.00    +0.000 N 
ATOM     87  C59 UNL A   1      47.056  31.202  26.969  1.00  0.00    +0.000 C 
ATOM     88  C60 UNL A   1      47.335  30.076  26.329  1.00  0.00    +0.000 C 
ATOM     89  C61 UNL A   1      40.155  26.544  28.826  1.00  0.00    +0.000 C 
ATOM     90  C62 UNL A   1      39.762  27.681  29.385  1.00  0.00    +0.000 C 
ATOM    117  H25 UNL A   1      43.781  23.976  25.910  1.00  0.00    +0.000 H 
ATOM    118  H26 UNL A   1      46.054  25.054  25.222  1.00  0.00    +0.000 H 
ATOM    119  H27 UNL A   1      43.881  27.853  27.364  1.00  0.00    +0.000 H 
ATOM    120  H28 UNL A   1      43.376  33.710  29.826  1.00  0.00    +0.000 H 
ATOM    121  H29 UNL A   1      41.236  32.609  30.635  1.00  0.00    +0.000 H 
ATOM    122  H30 UNL A   1      43.356  29.791  28.436  1.00  0.00    +0.000 H 
ATOM    123  H31 UNL A   1      47.617  32.064  27.047  1.00  0.00    +0.000 H 
ATOM    124  H32 UNL A   1      48.184  29.924  25.762  1.00  0.00    +0.000 H 
ATOM    125  H33 UNL A   1      39.607  25.670  28.835  1.00  0.00    +0.000 H 
ATOM    126  H34 UNL A   1      38.876  27.897  29.867  1.00  0.00    +0.000 H 
ENDROOT
BRANCH   34   33
ATOM     33  C24 UNL A   1      39.635  30.461  30.369  1.00  0.00    +0.000 C 
ATOM    127  H35 UNL A   1      40.188  29.919  32.337  1.00  0.00    +0.000 H 
ATOM    115  H23 UNL A   1      36.882  32.252  29.656  1.00  0.00    +0.000 H 
ATOM    116  H24 UNL A   1      38.770  31.185  28.578  1.00  0.00    +0.000 H 
ATOM     91  C63 UNL A   1      39.458  30.359  31.756  1.00  0.00    +0.000 C 
ATOM     92  C64 UNL A   1      38.294  30.853  32.356  1.00  0.00    +0.000 C 
ATOM     32  C23 UNL A   1      38.658  31.121  29.603  1.00  0.00    +0.000 C 
ATOM     30  C21 UNL A   1      37.323  31.491  31.576  1.00  0.00    +0.000 C 
ATOM     31  C22 UNL A   1      37.545  31.688  30.211  1.00  0.00    +0.000 C 
ATOM    128  H36 UNL A   1      38.151  30.746  33.372  1.00  0.00    +0.000 H 
BRANCH   30    2
ATOM      1  O1  UNL A   1      36.019  32.073  33.437  1.00  0.00    +0.000 O 
ATOM      2  C1  UNL A   1      36.072  31.955  32.215  1.00  0.00    +0.000 C 
BRANCH    2    3
ATOM      3  N1  UNL A   1      34.965  32.221  31.444  1.00  0.00    +0.000 N 
ATOM     93  H1  UNL A   1      34.537  31.437  31.032  1.00  0.00    +0.000 H 
BRANCH    3    4
ATOM      4  C2  UNL A   1      34.340  33.500  31.153  1.00  0.00    +0.000 C 
ATOM     94  H2  UNL A   1      34.353  34.096  32.042  1.00  0.00    +0.000 H 
ATOM     95  H3  UNL A   1      33.342  33.300  30.821  1.00  0.00    +0.000 H 
BRANCH    4    5
ATOM     97  H5  UNL A   1      34.479  35.166  29.902  1.00  0.00    +0.000 H 
ATOM      5  C3  UNL A   1      35.043  34.268  30.043  1.00  0.00    +0.000 C 
ATOM     96  H4  UNL A   1      36.054  34.440  30.350  1.00  0.00    +0.000 H 
BRANCH    5    6
ATOM     98  H6  UNL A   1      36.029  33.100  28.579  1.00  0.00    +0.000 H 
ATOM     99  H7  UNL A   1      34.884  34.336  27.960  1.00  0.00    +0.000 H 
ATOM      6  C4  UNL A   1      35.074  33.571  28.684  1.00  0.00    +0.000 C 
BRANCH    6    7
ATOM    100  H8  UNL A   1      33.221  32.948  27.864  1.00  0.00    +0.000 H 
ATOM    101  H9  UNL A   1      33.683  32.199  29.430  1.00  0.00    +0.000 H 
ATOM      7  C5  UNL A   1      33.997  32.506  28.455  1.00  0.00    +0.000 C 
BRANCH    7    8
ATOM    102  H10 UNL A   1      34.870  30.572  28.485  1.00  0.00    +0.000 H 
ATOM    103  H11 UNL A   1      35.157  31.536  27.002  1.00  0.00    +0.000 H 
ATOM      8  C6  UNL A   1      34.454  31.225  27.747  1.00  0.00    +0.000 C 
BRANCH    8    9
ATOM      9  C7  UNL A   1      33.361  30.461  27.002  1.00  0.00    +0.000 C 
ATOM    105  H13 UNL A   1      32.416  30.875  27.290  1.00  0.00    +0.000 H 
ATOM    104  H12 UNL A   1      33.524  30.563  25.950  1.00  0.00    +0.000 H 
BRANCH    9   10
ATOM     10  N2  UNL A   1      33.354  29.050  27.342  1.00  0.00    +0.000 N 
ATOM    106  H14 UNL A   1      34.023  28.761  28.005  1.00  0.00    +0.000 H 
BRANCH   10   11
ATOM     11  C8  UNL A   1      32.528  28.069  26.853  1.00  0.00    +0.000 C 
ATOM     12  O2  UNL A   1      31.415  27.893  27.344  1.00  0.00    +0.000 O 
BRANCH   11   13
ATOM    107  H15 UNL A   1      33.814  25.713  26.983  1.00  0.00    +0.000 H 
ATOM    108  H16 UNL A   1      34.525  24.307  25.118  1.00  0.00    +0.000 H 
ATOM     13  C9  UNL A   1      32.970  27.208  25.742  1.00  0.00    +0.000 C 
ATOM     14  C10 UNL A   1      33.627  26.001  26.009  1.00  0.00    +0.000 C 
ATOM     15  C11 UNL A   1      34.026  25.195  24.952  1.00  0.00    +0.000 C 
ATOM     16  C12 UNL A   1      33.732  25.620  23.671  1.00  0.00    +0.000 C 
ATOM     17  N3  UNL A   1      33.067  26.762  23.393  1.00  0.00    +0.000 N 
ATOM     18  C13 UNL A   1      32.654  27.549  24.421  1.00  0.00    +0.000 C 
ATOM    109  H17 UNL A   1      34.037  25.030  22.881  1.00  0.00    +0.000 H 
BRANCH   18   19
ATOM     19  N4  UNL A   1      32.012  28.784  24.130  1.00  0.00    +0.000 N 
ATOM    110  H18 UNL A   1      32.557  29.603  24.151  1.00  0.00    +0.000 H 
BRANCH   19   20
ATOM    111  H19 UNL A   1      30.382  26.847  23.467  1.00  0.00    +0.000 H 
ATOM    112  H20 UNL A   1      28.047  27.008  22.840  1.00  0.00    +0.000 H 
ATOM    113  H21 UNL A   1      26.963  29.174  22.738  1.00  0.00    +0.000 H 
ATOM    114  H22 UNL A   1      30.557  31.016  23.908  1.00  0.00    +0.000 H 
ATOM     20  C14 UNL A   1      30.638  28.912  23.811  1.00  0.00    +0.000 C 
ATOM     21  C15 UNL A   1      29.918  27.769  23.452  1.00  0.00    +0.000 C 
ATOM     22  C16 UNL A   1      28.577  27.862  23.072  1.00  0.00    +0.000 C 
ATOM     23  C17 UNL A   1      27.956  29.109  23.008  1.00  0.00    +0.000 C 
ATOM     24  C18 UNL A   1      28.674  30.275  23.309  1.00  0.00    +0.000 C 
ATOM     25  C19 UNL A   1      28.007  31.623  23.222  1.00  0.00    +0.000 C 
ATOM     26  F1  UNL A   1      27.404  31.829  22.017  1.00  0.00    +0.000 F 
ATOM     27  F2  UNL A   1      27.029  31.783  24.157  1.00  0.00    +0.000 F 
ATOM     28  F3  UNL A   1      28.859  32.673  23.392  1.00  0.00    +0.000 F 
ATOM     29  C20 UNL A   1      30.017  30.162  23.699  1.00  0.00    +0.000 C 
ENDBRANCH   19   20
ENDBRANCH   18   19
ENDBRANCH   11   13
ENDBRANCH   10   11
ENDBRANCH    9   10
ENDBRANCH    8    9
ENDBRANCH    7    8
ENDBRANCH    6    7
ENDBRANCH    5    6
ENDBRANCH    4    5
ENDBRANCH    3    4
ENDBRANCH    2    3
ENDBRANCH   30    2
ENDBRANCH   34   33
BRANCH   38   39
ATOM     39  C29 UNL A   1      41.385  24.391  27.364  1.00  0.00    +0.000 C 
ATOM     40  C30 UNL A   1      40.263  24.237  26.536  1.00  0.00    +0.000 C 
ATOM     41  F4  UNL A   1      39.744  25.297  25.898  1.00  0.00    +0.000 F 
ATOM     42  C31 UNL A   1      39.651  22.995  26.381  1.00  0.00    +0.000 C 
ATOM     43  F5  UNL A   1      38.561  22.879  25.611  1.00  0.00    +0.000 F 
ATOM     44  C32 UNL A   1      40.165  21.880  27.026  1.00  0.00    +0.000 C 
ATOM     45  F6  UNL A   1      39.583  20.684  26.866  1.00  0.00    +0.000 F 
ATOM     46  C33 UNL A   1      41.281  22.007  27.841  1.00  0.00    +0.000 C 
ATOM     47  F7  UNL A   1      41.784  20.929  28.457  1.00  0.00    +0.000 F 
ATOM     48  C34 UNL A   1      41.879  23.252  28.018  1.00  0.00    +0.000 C 
ATOM     49  F8  UNL A   1      42.954  23.344  28.815  1.00  0.00    +0.000 F 
ENDBRANCH   38   39
BRANCH   55   56
ATOM     65  C45 UNL A   1      47.619  27.684  23.868  1.00  0.00    +0.000 C 
ATOM     66  F13 UNL A   1      46.577  28.248  23.239  1.00  0.00    +0.000 F 
ATOM     56  C40 UNL A   1      47.566  27.448  25.249  1.00  0.00    +0.000 C 
ATOM     57  C41 UNL A   1      48.681  26.851  25.859  1.00  0.00    +0.000 C 
ATOM     58  F9  UNL A   1      48.684  26.623  27.181  1.00  0.00    +0.000 F 
ATOM     59  C42 UNL A   1      49.816  26.533  25.118  1.00  0.00    +0.000 C 
ATOM     60  F10 UNL A   1      50.888  26.013  25.730  1.00  0.00    +0.000 F 
ATOM     61  C43 UNL A   1      49.845  26.774  23.752  1.00  0.00    +0.000 C 
ATOM     62  F11 UNL A   1      50.940  26.471  23.042  1.00  0.00    +0.000 F 
ATOM     63  C44 UNL A   1      48.745  27.341  23.126  1.00  0.00    +0.000 C 
ATOM     64  F12 UNL A   1      48.770  27.567  21.806  1.00  0.00    +0.000 F 
ENDBRANCH   55   56
BRANCH   70   71
ATOM     71  C49 UNL A   1      45.719  33.318  28.496  1.00  0.00    +0.000 C 
ATOM     72  C50 UNL A   1      46.613  33.554  29.548  1.00  0.00    +0.000 C 
ATOM     73  F14 UNL A   1      46.873  32.584  30.437  1.00  0.00    +0.000 F 
ATOM     74  C51 UNL A   1      47.217  34.798  29.710  1.00  0.00    +0.000 C 
ATOM     75  F15 UNL A   1      48.038  35.013  30.749  1.00  0.00    +0.000 F 
ATOM     76  C52 UNL A   1      46.963  35.820  28.807  1.00  0.00    +0.000 C 
ATOM     77  F16 UNL A   1      47.552  37.014  28.959  1.00  0.00    +0.000 F 
ATOM     78  C53 UNL A   1      46.094  35.604  27.749  1.00  0.00    +0.000 C 
ATOM     79  F17 UNL A   1      45.858  36.582  26.863  1.00  0.00    +0.000 F 
ATOM     80  C54 UNL A   1      45.465  34.370  27.604  1.00  0.00    +0.000 C 
ATOM     81  F18 UNL A   1      44.622  34.191  26.576  1.00  0.00    +0.000 F 
ENDBRANCH   70   71
TORSDOF 17
ENDMDL
MODEL 10
REMARK VINA RESULT:     -10.8     37.462     42.916
ROOT
ATOM     34  C25 UNL A   1      13.853  54.101   4.888  1.00  0.00    +0.000 C 
ATOM     35  C26 UNL A   1      14.815  54.523   3.814  1.00  0.00    +0.000 C 
ATOM     36  N5  UNL A   1      15.342  53.805   2.852  1.00  0.00    +0.000 N 
ATOM     37  C27 UNL A   1      16.149  54.671   2.127  1.00  0.00    +0.000 C 
ATOM     38  C28 UNL A   1      16.934  54.396   1.056  1.00  0.00    +0.000 C 
ATOM     50  C35 UNL A   1      17.062  53.093   0.453  1.00  0.00    +0.000 C 
ATOM     51  C36 UNL A   1      17.835  52.715  -0.633  1.00  0.00    +0.000 C 
ATOM     52  C37 UNL A   1      17.618  51.354  -0.875  1.00  0.00    +0.000 C 
ATOM     53  C38 UNL A   1      16.741  50.875   0.084  1.00  0.00    +0.000 C 
ATOM     54  N6  UNL A   1      16.400  51.953   0.885  1.00  0.00    +0.000 N 
ATOM     55  C39 UNL A   1      16.252  49.532   0.260  1.00  0.00    +0.000 C 
ATOM     67  C46 UNL A   1      15.393  49.136   1.231  1.00  0.00    +0.000 C 
ATOM     68  N7  UNL A   1      14.793  49.892   2.224  1.00  0.00    +0.000 N 
ATOM     69  C47 UNL A   1      14.015  49.069   2.884  1.00  0.00    +0.000 C 
ATOM     70  C48 UNL A   1      13.131  49.344   4.064  1.00  0.00    +0.000 C 
ATOM     82  C55 UNL A   1      13.072  50.593   4.561  1.00  0.00    +0.000 C 
ATOM     83  C56 UNL A   1      12.275  51.001   5.711  1.00  0.00    +0.000 C 
ATOM     84  C57 UNL A   1      12.441  52.317   5.908  1.00  0.00    +0.000 C 
ATOM     85  C58 UNL A   1      13.399  52.833   4.928  1.00  0.00    +0.000 C 
ATOM     86  N8  UNL A   1      13.696  51.745   4.150  1.00  0.00    +0.000 N 
ATOM     87  C59 UNL A   1      14.034  47.690   2.379  1.00  0.00    +0.000 C 
ATOM     88  C60 UNL A   1      14.918  47.777   1.395  1.00  0.00    +0.000 C 
ATOM     89  C61 UNL A   1      16.021  55.977   2.738  1.00  0.00    +0.000 C 
ATOM     90  C62 UNL A   1      15.238  55.932   3.809  1.00  0.00    +0.000 C 
ATOM    117  H25 UNL A   1      18.464  53.332  -1.171  1.00  0.00    +0.000 H 
ATOM    118  H26 UNL A   1      18.038  50.803  -1.639  1.00  0.00    +0.000 H 
ATOM    119  H27 UNL A   1      15.780  51.917   1.649  1.00  0.00    +0.000 H 
ATOM    120  H28 UNL A   1      11.680  50.379   6.280  1.00  0.00    +0.000 H 
ATOM    121  H29 UNL A   1      11.969  52.876   6.636  1.00  0.00    +0.000 H 
ATOM    122  H30 UNL A   1      14.298  51.786   3.372  1.00  0.00    +0.000 H 
ATOM    123  H31 UNL A   1      13.499  46.869   2.703  1.00  0.00    +0.000 H 
ATOM    124  H32 UNL A   1      15.229  46.979   0.820  1.00  0.00    +0.000 H 
ATOM    125  H33 UNL A   1      16.479  56.832   2.387  1.00  0.00    +0.000 H 
ATOM    126  H34 UNL A   1      14.992  56.687   4.466  1.00  0.00    +0.000 H 
ENDROOT
BRANCH   34   33
ATOM     33  C24 UNL A   1      13.425  55.037   5.958  1.00  0.00    +0.000 C 
ATOM    127  H35 UNL A   1      15.067  54.718   7.254  1.00  0.00    +0.000 H 
ATOM    115  H23 UNL A   1      11.063  57.362   6.517  1.00  0.00    +0.000 H 
ATOM    116  H24 UNL A   1      11.681  55.645   4.925  1.00  0.00    +0.000 H 
ATOM     91  C63 UNL A   1      14.182  55.233   7.123  1.00  0.00    +0.000 C 
ATOM     92  C64 UNL A   1      13.743  56.125   8.107  1.00  0.00    +0.000 C 
ATOM     32  C23 UNL A   1      12.256  55.795   5.770  1.00  0.00    +0.000 C 
ATOM     30  C21 UNL A   1      12.568  56.858   7.911  1.00  0.00    +0.000 C 
ATOM     31  C22 UNL A   1      11.867  56.744   6.708  1.00  0.00    +0.000 C 
ATOM    128  H36 UNL A   1      14.284  56.242   8.978  1.00  0.00    +0.000 H 
BRANCH   30    2
ATOM      1  O1  UNL A   1      12.481  58.914   9.038  1.00  0.00    +0.000 O 
ATOM      2  C1  UNL A   1      12.085  57.753   8.987  1.00  0.00    +0.000 C 
BRANCH    2    3
ATOM      3  N1  UNL A   1      11.221  57.272   9.942  1.00  0.00    +0.000 N 
ATOM     93  H1  UNL A   1      11.638  56.996  10.790  1.00  0.00    +0.000 H 
BRANCH    3    4
ATOM      4  C2  UNL A   1       9.779  57.115   9.875  1.00  0.00    +0.000 C 
ATOM     94  H2  UNL A   1       9.393  57.811   9.159  1.00  0.00    +0.000 H 
ATOM     95  H3  UNL A   1       9.391  57.294  10.857  1.00  0.00    +0.000 H 
BRANCH    4    5
ATOM     97  H5  UNL A   1       8.369  55.574   9.868  1.00  0.00    +0.000 H 
ATOM      5  C3  UNL A   1       9.351  55.712   9.467  1.00  0.00    +0.000 C 
ATOM     96  H4  UNL A   1       9.391  55.652   8.399  1.00  0.00    +0.000 H 
BRANCH    5    6
ATOM     98  H6  UNL A   1       9.550  53.913  10.565  1.00  0.00    +0.000 H 
ATOM     99  H7  UNL A   1      10.939  55.048  10.652  1.00  0.00    +0.000 H 
ATOM      6  C4  UNL A   1      10.201  54.578  10.036  1.00  0.00    +0.000 C 
BRANCH    6    7
ATOM    100  H8  UNL A   1      11.260  54.402   8.207  1.00  0.00    +0.000 H 
ATOM    101  H9  UNL A   1      10.329  52.955   8.723  1.00  0.00    +0.000 H 
ATOM      7  C5  UNL A   1      10.983  53.751   9.010  1.00  0.00    +0.000 C 
BRANCH    7    8
ATOM    102  H10 UNL A   1      13.062  53.343   8.872  1.00  0.00    +0.000 H 
ATOM    103  H11 UNL A   1      12.049  52.022   9.533  1.00  0.00    +0.000 H 
ATOM      8  C6  UNL A   1      12.258  53.071   9.523  1.00  0.00    +0.000 C 
BRANCH    8    9
ATOM      9  C7  UNL A   1      12.665  53.432  10.951  1.00  0.00    +0.000 C 
ATOM    105  H13 UNL A   1      12.443  54.468  11.105  1.00  0.00    +0.000 H 
ATOM    104  H12 UNL A   1      12.120  52.813  11.633  1.00  0.00    +0.000 H 
BRANCH    9   10
ATOM     10  N2  UNL A   1      14.086  53.240  11.178  1.00  0.00    +0.000 N 
ATOM    106  H14 UNL A   1      14.664  54.012  10.975  1.00  0.00    +0.000 H 
BRANCH   10   11
ATOM     11  C8  UNL A   1      14.722  52.117  11.643  1.00  0.00    +0.000 C 
ATOM     12  O2  UNL A   1      15.883  51.881  11.317  1.00  0.00    +0.000 O 
BRANCH   11   13
ATOM    107  H15 UNL A   1      14.656  52.091  14.329  1.00  0.00    +0.000 H 
ATOM    108  H16 UNL A   1      13.469  50.517  15.769  1.00  0.00    +0.000 H 
ATOM     13  C9  UNL A   1      14.017  51.175  12.530  1.00  0.00    +0.000 C 
ATOM     14  C10 UNL A   1      14.097  51.327  13.920  1.00  0.00    +0.000 C 
ATOM     15  C11 UNL A   1      13.417  50.438  14.742  1.00  0.00    +0.000 C 
ATOM     16  C12 UNL A   1      12.667  49.447  14.138  1.00  0.00    +0.000 C 
ATOM     17  N3  UNL A   1      12.547  49.305  12.800  1.00  0.00    +0.000 N 
ATOM     18  C13 UNL A   1      13.192  50.181  11.987  1.00  0.00    +0.000 C 
ATOM    109  H17 UNL A   1      12.170  48.777  14.745  1.00  0.00    +0.000 H 
BRANCH   18   19
ATOM     19  N4  UNL A   1      13.121  49.996  10.578  1.00  0.00    +0.000 N 
ATOM    110  H18 UNL A   1      12.285  50.244  10.122  1.00  0.00    +0.000 H 
BRANCH   19   20
ATOM    111  H19 UNL A   1      14.493  47.819  11.057  1.00  0.00    +0.000 H 
ATOM    112  H20 UNL A   1      16.353  46.917   9.791  1.00  0.00    +0.000 H 
ATOM    113  H21 UNL A   1      17.174  48.089   7.835  1.00  0.00    +0.000 H 
ATOM    114  H22 UNL A   1      14.256  51.063   8.405  1.00  0.00    +0.000 H 
ATOM     20  C14 UNL A   1      14.176  49.475   9.789  1.00  0.00    +0.000 C 
ATOM     21  C15 UNL A   1      14.821  48.307  10.208  1.00  0.00    +0.000 C 
ATOM     22  C16 UNL A   1      15.904  47.796   9.491  1.00  0.00    +0.000 C 
ATOM     23  C17 UNL A   1      16.380  48.474   8.369  1.00  0.00    +0.000 C 
ATOM     24  C18 UNL A   1      15.786  49.677   7.963  1.00  0.00    +0.000 C 
ATOM     25  C19 UNL A   1      16.311  50.419   6.761  1.00  0.00    +0.000 C 
ATOM     26  F1  UNL A   1      17.653  50.646   6.835  1.00  0.00    +0.000 F 
ATOM     27  F2  UNL A   1      16.115  49.734   5.599  1.00  0.00    +0.000 F 
ATOM     28  F3  UNL A   1      15.740  51.642   6.573  1.00  0.00    +0.000 F 
ATOM     29  C20 UNL A   1      14.690  50.170   8.689  1.00  0.00    +0.000 C 
ENDBRANCH   19   20
ENDBRANCH   18   19
ENDBRANCH   11   13
ENDBRANCH   10   11
ENDBRANCH    9   10
ENDBRANCH    8    9
ENDBRANCH    7    8
ENDBRANCH    6    7
ENDBRANCH    5    6
ENDBRANCH    4    5
ENDBRANCH    3    4
ENDBRANCH    2    3
ENDBRANCH   30    2
ENDBRANCH   34   33
BRANCH   38   39
ATOM     39  C29 UNL A   1      17.721  55.527   0.459  1.00  0.00    +0.000 C 
ATOM     40  C30 UNL A   1      18.993  55.868   0.942  1.00  0.00    +0.000 C 
ATOM     41  F4  UNL A   1      19.505  55.227   2.004  1.00  0.00    +0.000 F 
ATOM     42  C31 UNL A   1      19.735  56.888   0.351  1.00  0.00    +0.000 C 
ATOM     43  F5  UNL A   1      20.934  57.217   0.850  1.00  0.00    +0.000 F 
ATOM     44  C32 UNL A   1      19.233  57.567  -0.748  1.00  0.00    +0.000 C 
ATOM     45  F6  UNL A   1      19.953  58.540  -1.323  1.00  0.00    +0.000 F 
ATOM     46  C33 UNL A   1      17.981  57.240  -1.250  1.00  0.00    +0.000 C 
ATOM     47  F7  UNL A   1      17.499  57.889  -2.319  1.00  0.00    +0.000 F 
ATOM     48  C34 UNL A   1      17.226  56.238  -0.645  1.00  0.00    +0.000 C 
ATOM     49  F8  UNL A   1      16.019  55.947  -1.151  1.00  0.00    +0.000 F 
ENDBRANCH   38   39
BRANCH   55   56
ATOM     65  C45 UNL A   1      17.969  47.843  -0.485  1.00  0.00    +0.000 C 
ATOM     66  F13 UNL A   1      18.734  48.178   0.564  1.00  0.00    +0.000 F 
ATOM     56  C40 UNL A   1      16.734  48.475  -0.688  1.00  0.00    +0.000 C 
ATOM     57  C41 UNL A   1      15.973  48.092  -1.804  1.00  0.00    +0.000 C 
ATOM     58  F9  UNL A   1      14.776  48.655  -2.029  1.00  0.00    +0.000 F 
ATOM     59  C42 UNL A   1      16.419  47.092  -2.664  1.00  0.00    +0.000 C 
ATOM     60  F10 UNL A   1      15.651  46.706  -3.692  1.00  0.00    +0.000 F 
ATOM     61  C43 UNL A   1      17.644  46.481  -2.444  1.00  0.00    +0.000 C 
ATOM     62  F11 UNL A   1      18.070  45.516  -3.271  1.00  0.00    +0.000 F 
ATOM     63  C44 UNL A   1      18.423  46.862  -1.362  1.00  0.00    +0.000 C 
ATOM     64  F12 UNL A   1      19.611  46.278  -1.154  1.00  0.00    +0.000 F 
ENDBRANCH   55   56
BRANCH   70   71
ATOM     71  C49 UNL A   1      12.321  48.267   4.687  1.00  0.00    +0.000 C 
ATOM     72  C50 UNL A   1      11.016  47.997   4.256  1.00  0.00    +0.000 C 
ATOM     73  F14 UNL A   1      10.465  48.740   3.283  1.00  0.00    +0.000 F 
ATOM     74  C51 UNL A   1      10.259  46.987   4.844  1.00  0.00    +0.000 C 
ATOM     75  F15 UNL A   1       8.998  46.775   4.442  1.00  0.00    +0.000 F 
ATOM     76  C52 UNL A   1      10.804  46.207   5.854  1.00  0.00    +0.000 C 
ATOM     77  F16 UNL A   1      10.078  45.229   6.413  1.00  0.00    +0.000 F 
ATOM     78  C53 UNL A   1      12.099  46.444   6.286  1.00  0.00    +0.000 C 
ATOM     79  F17 UNL A   1      12.636  45.682   7.249  1.00  0.00    +0.000 F 
ATOM     80  C54 UNL A   1      12.845  47.474   5.720  1.00  0.00    +0.000 C 
ATOM     81  F18 UNL A   1      14.093  47.688   6.163  1.00  0.00    +0.000 F 
ENDBRANCH   70   71
TORSDOF 17
ENDMDL
