MODEL 1
REMARK VINA RESULT:     -10.5      0.000      0.000
ROOT
ATOM     19  C15 UNL A   1      38.360  29.839  30.000  1.00  0.00    +0.000 C 
ATOM     20  C16 UNL A   1      38.627  30.366  31.381  1.00  0.00    +0.000 C 
ATOM     21  N3  UNL A   1      39.663  30.168  32.157  1.00  0.00    +0.000 N 
ATOM     22  C17 UNL A   1      39.427  30.919  33.301  1.00  0.00    +0.000 C 
ATOM     23  C18 UNL A   1      40.182  31.009  34.422  1.00  0.00    +0.000 C 
ATOM     35  C25 UNL A   1      41.414  30.296  34.632  1.00  0.00    +0.000 C 
ATOM     36  C26 UNL A   1      42.215  30.272  35.760  1.00  0.00    +0.000 C 
ATOM     37  C27 UNL A   1      43.326  29.465  35.490  1.00  0.00    +0.000 C 
ATOM     38  C28 UNL A   1      43.198  28.959  34.208  1.00  0.00    +0.000 C 
ATOM     39  N4  UNL A   1      42.022  29.480  33.691  1.00  0.00    +0.000 N 
ATOM     40  C29 UNL A   1      44.081  28.067  33.502  1.00  0.00    +0.000 C 
ATOM     52  C36 UNL A   1      43.877  27.603  32.245  1.00  0.00    +0.000 C 
ATOM     53  N5  UNL A   1      42.822  27.861  31.382  1.00  0.00    +0.000 N 
ATOM     54  C37 UNL A   1      43.082  27.194  30.285  1.00  0.00    +0.000 C 
ATOM     55  C38 UNL A   1      42.271  27.087  29.023  1.00  0.00    +0.000 C 
ATOM     67  C45 UNL A   1      41.086  27.722  28.944  1.00  0.00    +0.000 C 
ATOM     68  C46 UNL A   1      40.191  27.705  27.791  1.00  0.00    +0.000 C 
ATOM     69  C47 UNL A   1      39.125  28.478  28.053  1.00  0.00    +0.000 C 
ATOM     70  C48 UNL A   1      39.248  29.020  29.407  1.00  0.00    +0.000 C 
ATOM     71  N6  UNL A   1      40.439  28.512  29.862  1.00  0.00    +0.000 N 
ATOM     72  C49 UNL A   1      44.353  26.453  30.320  1.00  0.00    +0.000 C 
ATOM     73  C50 UNL A   1      44.780  26.709  31.548  1.00  0.00    +0.000 C 
ATOM     74  C51 UNL A   1      38.170  31.608  33.102  1.00  0.00    +0.000 C 
ATOM     75  C52 UNL A   1      37.605  31.253  31.958  1.00  0.00    +0.000 C 
ATOM    111  H21 UNL A   1      42.026  30.763  36.648  1.00  0.00    +0.000 H 
ATOM    112  H22 UNL A   1      44.108  29.278  36.137  1.00  0.00    +0.000 H 
ATOM    113  H23 UNL A   1      41.671  29.296  32.790  1.00  0.00    +0.000 H 
ATOM    114  H24 UNL A   1      40.352  27.183  26.916  1.00  0.00    +0.000 H 
ATOM    115  H25 UNL A   1      38.344  28.660  27.403  1.00  0.00    +0.000 H 
ATOM    116  H26 UNL A   1      40.794  28.696  30.762  1.00  0.00    +0.000 H 
ATOM    117  H27 UNL A   1      44.795  25.884  29.582  1.00  0.00    +0.000 H 
ATOM    118  H28 UNL A   1      45.644  26.322  31.956  1.00  0.00    +0.000 H 
ATOM    119  H29 UNL A   1      37.766  32.287  33.766  1.00  0.00    +0.000 H 
ATOM    120  H30 UNL A   1      36.688  31.527  31.571  1.00  0.00    +0.000 H 
ENDROOT
BRANCH   19   18
ATOM     76  C53 UNL A   1      36.115  29.362  29.019  1.00  0.00    +0.000 C 
ATOM    109  H19 UNL A   1      35.766  32.973  27.801  1.00  0.00    +0.000 H 
ATOM     77  C54 UNL A   1      34.974  29.754  28.321  1.00  0.00    +0.000 C 
ATOM     15  C11 UNL A   1      34.822  31.087  27.929  1.00  0.00    +0.000 C 
ATOM     16  C12 UNL A   1      35.861  32.000  28.131  1.00  0.00    +0.000 C 
ATOM     17  C13 UNL A   1      37.028  31.592  28.780  1.00  0.00    +0.000 C 
ATOM    110  H20 UNL A   1      37.804  32.260  28.911  1.00  0.00    +0.000 H 
ATOM     18  C14 UNL A   1      37.152  30.276  29.255  1.00  0.00    +0.000 C 
ATOM    121  H31 UNL A   1      36.196  28.393  29.365  1.00  0.00    +0.000 H 
ATOM    122  H32 UNL A   1      34.243  29.061  28.093  1.00  0.00    +0.000 H 
BRANCH   15   13
ATOM     13  C10 UNL A   1      33.579  31.555  27.278  1.00  0.00    +0.000 C 
ATOM     14  O2  UNL A   1      33.143  32.673  27.536  1.00  0.00    +0.000 O 
BRANCH   13   12
ATOM    108  H18 UNL A   1      33.257  30.726  25.483  1.00  0.00    +0.000 H 
ATOM     12  N2  UNL A   1      32.908  30.737  26.405  1.00  0.00    +0.000 N 
BRANCH   12   11
ATOM    106  H16 UNL A   1      31.557  29.862  27.695  1.00  0.00    +0.000 H 
ATOM     11  C9  UNL A   1      31.756  29.883  26.644  1.00  0.00    +0.000 C 
ATOM    107  H17 UNL A   1      30.930  30.290  26.097  1.00  0.00    +0.000 H 
BRANCH   11   10
ATOM    105  H15 UNL A   1      31.179  28.242  25.478  1.00  0.00    +0.000 H 
ATOM     10  C8  UNL A   1      31.978  28.454  26.158  1.00  0.00    +0.000 C 
ATOM    104  H14 UNL A   1      31.992  27.811  27.013  1.00  0.00    +0.000 H 
BRANCH   10    9
ATOM      9  C7  UNL A   1      33.274  28.231  25.375  1.00  0.00    +0.000 C 
ATOM    102  H12 UNL A   1      33.158  28.679  24.410  1.00  0.00    +0.000 H 
ATOM    103  H13 UNL A   1      34.054  28.671  25.960  1.00  0.00    +0.000 H 
BRANCH    9    8
ATOM    100  H10 UNL A   1      33.333  26.464  24.201  1.00  0.00    +0.000 H 
ATOM    101  H11 UNL A   1      34.731  26.728  25.291  1.00  0.00    +0.000 H 
ATOM      8  C6  UNL A   1      33.669  26.766  25.172  1.00  0.00    +0.000 C 
BRANCH    8    7
ATOM     98  H8  UNL A   1      33.226  26.202  27.174  1.00  0.00    +0.000 H 
ATOM     99  H9  UNL A   1      32.065  25.640  25.937  1.00  0.00    +0.000 H 
ATOM      7  C5  UNL A   1      33.093  25.782  26.199  1.00  0.00    +0.000 C 
BRANCH    7    6
ATOM     97  H7  UNL A   1      33.762  24.023  27.193  1.00  0.00    +0.000 H 
ATOM      6  C4  UNL A   1      33.739  24.389  26.188  1.00  0.00    +0.000 C 
ATOM     96  H6  UNL A   1      34.729  24.469  25.788  1.00  0.00    +0.000 H 
BRANCH    6    5
ATOM      5  N1  UNL A   1      32.977  23.451  25.379  1.00  0.00    +0.000 N 
ATOM     95  H5  UNL A   1      33.468  22.819  24.806  1.00  0.00    +0.000 H 
BRANCH    5    3
ATOM      3  C3  UNL A   1      31.601  23.410  25.380  1.00  0.00    +0.000 C 
ATOM      4  O1  UNL A   1      31.038  23.272  26.465  1.00  0.00    +0.000 O 
BRANCH    3    2
ATOM      2  C2  UNL A   1      30.878  23.631  24.048  1.00  0.00    +0.000 C 
ATOM     94  H4  UNL A   1      29.861  23.345  24.219  1.00  0.00    +0.000 H 
BRANCH    2    1
ATOM      1  C1  UNL A   1      31.599  22.771  22.995  1.00  0.00    +0.000 C 
ATOM     91  H1  UNL A   1      32.337  23.364  22.496  1.00  0.00    +0.000 H 
ATOM     92  H2  UNL A   1      30.889  22.412  22.282  1.00  0.00    +0.000 H 
ATOM     93  H3  UNL A   1      32.074  21.942  23.476  1.00  0.00    +0.000 H 
ENDBRANCH    2    1
BRANCH    2   78
ATOM    130  H40 UNL A   1      29.401  28.095  24.177  1.00  0.00    +0.000 H 
ATOM     78  C55 UNL A   1      30.732  25.066  23.546  1.00  0.00    +0.000 C 
ATOM     79  C56 UNL A   1      31.464  25.440  22.401  1.00  0.00    +0.000 C 
ATOM     80  C57 UNL A   1      31.480  26.759  21.938  1.00  0.00    +0.000 C 
ATOM     81  C58 UNL A   1      30.768  27.757  22.607  1.00  0.00    +0.000 C 
ATOM     88  C64 UNL A   1      29.971  27.384  23.693  1.00  0.00    +0.000 C 
ATOM     89  C65 UNL A   1      29.937  26.056  24.133  1.00  0.00    +0.000 C 
ATOM     90  F16 UNL A   1      29.087  25.774  25.126  1.00  0.00    +0.000 F 
ATOM    123  H33 UNL A   1      32.002  24.722  21.891  1.00  0.00    +0.000 H 
ATOM    124  H34 UNL A   1      32.024  26.997  21.094  1.00  0.00    +0.000 H 
BRANCH   81   82
ATOM     82  C59 UNL A   1      30.861  29.203  22.168  1.00  0.00    +0.000 C 
ATOM    125  H35 UNL A   1      31.053  29.226  21.116  1.00  0.00    +0.000 H 
ATOM    126  H36 UNL A   1      31.651  29.654  22.732  1.00  0.00    +0.000 H 
BRANCH   82   83
ATOM    129  H39 UNL A   1      27.330  32.083  24.056  1.00  0.00    +0.000 H 
ATOM     83  C60 UNL A   1      29.607  29.991  22.445  1.00  0.00    +0.000 C 
ATOM     84  C61 UNL A   1      28.438  30.041  21.708  1.00  0.00    +0.000 C 
ATOM     85  C62 UNL A   1      27.455  30.889  22.294  1.00  0.00    +0.000 C 
ATOM     86  C63 UNL A   1      27.896  31.449  23.471  1.00  0.00    +0.000 C 
ATOM     87  S1  UNL A   1      29.493  30.969  23.850  1.00  0.00    +0.000 S 
ATOM    127  H37 UNL A   1      28.294  29.520  20.829  1.00  0.00    +0.000 H 
ATOM    128  H38 UNL A   1      26.524  31.063  21.884  1.00  0.00    +0.000 H 
ENDBRANCH   82   83
ENDBRANCH   81   82
ENDBRANCH    2   78
ENDBRANCH    3    2
ENDBRANCH    5    3
ENDBRANCH    6    5
ENDBRANCH    7    6
ENDBRANCH    8    7
ENDBRANCH    9    8
ENDBRANCH   10    9
ENDBRANCH   11   10
ENDBRANCH   12   11
ENDBRANCH   13   12
ENDBRANCH   15   13
ENDBRANCH   19   18
BRANCH   23   24
ATOM     33  C24 UNL A   1      38.709  31.471  36.415  1.00  0.00    +0.000 C 
ATOM     34  F5  UNL A   1      38.220  30.225  36.325  1.00  0.00    +0.000 F 
ATOM     24  C19 UNL A   1      39.689  31.912  35.514  1.00  0.00    +0.000 C 
ATOM     25  C20 UNL A   1      40.163  33.225  35.649  1.00  0.00    +0.000 C 
ATOM     26  F1  UNL A   1      41.109  33.689  34.819  1.00  0.00    +0.000 F 
ATOM     27  C21 UNL A   1      39.692  34.056  36.663  1.00  0.00    +0.000 C 
ATOM     28  F2  UNL A   1      40.192  35.291  36.800  1.00  0.00    +0.000 F 
ATOM     29  C22 UNL A   1      38.720  33.601  37.539  1.00  0.00    +0.000 C 
ATOM     30  F3  UNL A   1      38.265  34.402  38.512  1.00  0.00    +0.000 F 
ATOM     31  C23 UNL A   1      38.222  32.312  37.412  1.00  0.00    +0.000 C 
ATOM     32  F4  UNL A   1      37.274  31.875  38.252  1.00  0.00    +0.000 F 
ENDBRANCH   23   24
BRANCH   40   41
ATOM     41  C30 UNL A   1      45.313  27.597  34.214  1.00  0.00    +0.000 C 
ATOM     42  C31 UNL A   1      45.313  26.423  34.980  1.00  0.00    +0.000 C 
ATOM     43  F6  UNL A   1      44.183  25.717  35.134  1.00  0.00    +0.000 F 
ATOM     44  C32 UNL A   1      46.471  25.987  35.620  1.00  0.00    +0.000 C 
ATOM     45  F7  UNL A   1      46.439  24.883  36.380  1.00  0.00    +0.000 F 
ATOM     46  C33 UNL A   1      47.652  26.702  35.485  1.00  0.00    +0.000 C 
ATOM     47  F8  UNL A   1      48.766  26.279  36.098  1.00  0.00    +0.000 F 
ATOM     48  C34 UNL A   1      47.677  27.858  34.721  1.00  0.00    +0.000 C 
ATOM     49  F9  UNL A   1      48.820  28.545  34.581  1.00  0.00    +0.000 F 
ATOM     50  C35 UNL A   1      46.517  28.310  34.098  1.00  0.00    +0.000 C 
ATOM     51  F10 UNL A   1      46.567  29.437  33.374  1.00  0.00    +0.000 F 
ENDBRANCH   40   41
BRANCH   55   56
ATOM     65  C44 UNL A   1      43.567  26.816  26.882  1.00  0.00    +0.000 C 
ATOM     66  F15 UNL A   1      43.939  28.103  26.948  1.00  0.00    +0.000 F 
ATOM     56  C39 UNL A   1      42.748  26.270  27.879  1.00  0.00    +0.000 C 
ATOM     57  C40 UNL A   1      42.383  24.922  27.763  1.00  0.00    +0.000 C 
ATOM     58  F11 UNL A   1      41.618  24.352  28.705  1.00  0.00    +0.000 F 
ATOM     59  C41 UNL A   1      42.834  24.145  26.698  1.00  0.00    +0.000 C 
ATOM     60  F12 UNL A   1      42.500  22.849  26.630  1.00  0.00    +0.000 F 
ATOM     61  C42 UNL A   1      43.636  24.708  25.717  1.00  0.00    +0.000 C 
ATOM     62  F13 UNL A   1      44.066  23.962  24.691  1.00  0.00    +0.000 F 
ATOM     63  C43 UNL A   1      43.998  26.044  25.806  1.00  0.00    +0.000 C 
ATOM     64  F14 UNL A   1      44.764  26.594  24.854  1.00  0.00    +0.000 F 
ENDBRANCH   55   56
TORSDOF 19
ENDMDL
MODEL 2
REMARK VINA RESULT:     -10.4      2.639      3.885
ROOT
ATOM     19  C15 UNL A   1      40.007  28.832  29.318  1.00  0.00    +0.000 C 
ATOM     20  C16 UNL A   1      40.886  29.738  30.133  1.00  0.00    +0.000 C 
ATOM     21  N3  UNL A   1      42.140  29.585  30.478  1.00  0.00    +0.000 N 
ATOM     22  C17 UNL A   1      42.480  30.731  31.185  1.00  0.00    +0.000 C 
ATOM     23  C18 UNL A   1      43.651  31.031  31.794  1.00  0.00    +0.000 C 
ATOM     35  C25 UNL A   1      44.798  30.163  31.823  1.00  0.00    +0.000 C 
ATOM     36  C26 UNL A   1      46.007  30.350  32.470  1.00  0.00    +0.000 C 
ATOM     37  C27 UNL A   1      46.829  29.254  32.188  1.00  0.00    +0.000 C 
ATOM     38  C28 UNL A   1      46.120  28.367  31.395  1.00  0.00    +0.000 C 
ATOM     39  N4  UNL A   1      44.876  28.939  31.176  1.00  0.00    +0.000 N 
ATOM     40  C29 UNL A   1      46.541  27.093  30.874  1.00  0.00    +0.000 C 
ATOM     52  C36 UNL A   1      45.778  26.273  30.112  1.00  0.00    +0.000 C 
ATOM     53  N5  UNL A   1      44.473  26.452  29.676  1.00  0.00    +0.000 N 
ATOM     54  C37 UNL A   1      44.182  25.393  28.963  1.00  0.00    +0.000 C 
ATOM     55  C38 UNL A   1      42.897  25.041  28.265  1.00  0.00    +0.000 C 
ATOM     67  C45 UNL A   1      41.844  25.875  28.361  1.00  0.00    +0.000 C 
ATOM     68  C46 UNL A   1      40.538  25.664  27.745  1.00  0.00    +0.000 C 
ATOM     69  C47 UNL A   1      39.749  26.716  28.019  1.00  0.00    +0.000 C 
ATOM     70  C48 UNL A   1      40.488  27.662  28.857  1.00  0.00    +0.000 C 
ATOM     71  N6  UNL A   1      41.719  27.076  29.015  1.00  0.00    +0.000 N 
ATOM     72  C49 UNL A   1      45.285  24.427  28.845  1.00  0.00    +0.000 C 
ATOM     73  C50 UNL A   1      46.221  24.995  29.592  1.00  0.00    +0.000 C 
ATOM     74  C51 UNL A   1      41.313  31.589  31.185  1.00  0.00    +0.000 C 
ATOM     75  C52 UNL A   1      40.283  30.996  30.600  1.00  0.00    +0.000 C 
ATOM    111  H21 UNL A   1      46.258  31.159  33.059  1.00  0.00    +0.000 H 
ATOM    112  H22 UNL A   1      47.800  29.127  32.515  1.00  0.00    +0.000 H 
ATOM    113  H23 UNL A   1      44.156  28.535  30.641  1.00  0.00    +0.000 H 
ATOM    114  H24 UNL A   1      40.264  24.839  27.190  1.00  0.00    +0.000 H 
ATOM    115  H25 UNL A   1      38.779  26.838  27.691  1.00  0.00    +0.000 H 
ATOM    116  H26 UNL A   1      42.443  27.479  29.547  1.00  0.00    +0.000 H 
ATOM    117  H27 UNL A   1      45.320  23.539  28.320  1.00  0.00    +0.000 H 
ATOM    118  H28 UNL A   1      47.148  24.581  29.778  1.00  0.00    +0.000 H 
ATOM    119  H29 UNL A   1      41.288  32.539  31.587  1.00  0.00    +0.000 H 
ATOM    120  H30 UNL A   1      39.311  31.328  30.500  1.00  0.00    +0.000 H 
ENDROOT
BRANCH   19   18
ATOM     76  C53 UNL A   1      37.600  29.136  29.903  1.00  0.00    +0.000 C 
ATOM    109  H19 UNL A   1      36.843  30.609  26.453  1.00  0.00    +0.000 H 
ATOM     77  C54 UNL A   1      36.301  29.525  29.583  1.00  0.00    +0.000 C 
ATOM     15  C11 UNL A   1      36.038  30.118  28.344  1.00  0.00    +0.000 C 
ATOM     16  C12 UNL A   1      37.049  30.213  27.383  1.00  0.00    +0.000 C 
ATOM     17  C13 UNL A   1      38.338  29.769  27.685  1.00  0.00    +0.000 C 
ATOM    110  H20 UNL A   1      39.079  29.819  26.969  1.00  0.00    +0.000 H 
ATOM     18  C14 UNL A   1      38.630  29.253  28.958  1.00  0.00    +0.000 C 
ATOM    121  H31 UNL A   1      37.805  28.759  30.842  1.00  0.00    +0.000 H 
ATOM    122  H32 UNL A   1      35.535  29.377  30.258  1.00  0.00    +0.000 H 
BRANCH   15   13
ATOM     13  C10 UNL A   1      34.691  30.635  28.015  1.00  0.00    +0.000 C 
ATOM     14  O2  UNL A   1      34.253  31.611  28.616  1.00  0.00    +0.000 O 
BRANCH   13   12
ATOM    108  H18 UNL A   1      33.314  30.601  26.561  1.00  0.00    +0.000 H 
ATOM     12  N2  UNL A   1      33.931  30.014  27.056  1.00  0.00    +0.000 N 
BRANCH   12   11
ATOM    106  H16 UNL A   1      34.786  28.137  27.040  1.00  0.00    +0.000 H 
ATOM     11  C9  UNL A   1      33.903  28.614  26.668  1.00  0.00    +0.000 C 
ATOM    107  H17 UNL A   1      33.018  28.178  27.082  1.00  0.00    +0.000 H 
BRANCH   11   10
ATOM    105  H15 UNL A   1      34.738  28.883  24.766  1.00  0.00    +0.000 H 
ATOM     10  C8  UNL A   1      33.849  28.429  25.154  1.00  0.00    +0.000 C 
ATOM    104  H14 UNL A   1      32.949  28.884  24.796  1.00  0.00    +0.000 H 
BRANCH   10    9
ATOM      9  C7  UNL A   1      33.869  26.975  24.678  1.00  0.00    +0.000 C 
ATOM    102  H12 UNL A   1      33.033  26.829  24.027  1.00  0.00    +0.000 H 
ATOM    103  H13 UNL A   1      34.815  26.832  24.199  1.00  0.00    +0.000 H 
BRANCH    9    8
ATOM    100  H10 UNL A   1      34.299  26.315  26.649  1.00  0.00    +0.000 H 
ATOM    101  H11 UNL A   1      32.751  25.742  25.951  1.00  0.00    +0.000 H 
ATOM      8  C6  UNL A   1      33.793  25.925  25.790  1.00  0.00    +0.000 C 
BRANCH    8    7
ATOM     98  H8  UNL A   1      34.226  24.359  24.418  1.00  0.00    +0.000 H 
ATOM     99  H9  UNL A   1      35.456  24.642  25.683  1.00  0.00    +0.000 H 
ATOM      7  C5  UNL A   1      34.415  24.564  25.451  1.00  0.00    +0.000 C 
BRANCH    7    6
ATOM     97  H7  UNL A   1      33.552  23.764  27.224  1.00  0.00    +0.000 H 
ATOM      6  C4  UNL A   1      33.875  23.387  26.277  1.00  0.00    +0.000 C 
ATOM     96  H6  UNL A   1      34.654  22.663  26.400  1.00  0.00    +0.000 H 
BRANCH    6    5
ATOM      5  N1  UNL A   1      32.739  22.753  25.628  1.00  0.00    +0.000 N 
ATOM     95  H5  UNL A   1      32.878  21.888  25.178  1.00  0.00    +0.000 H 
BRANCH    5    3
ATOM      3  C3  UNL A   1      31.479  23.309  25.614  1.00  0.00    +0.000 C 
ATOM      4  O1  UNL A   1      30.988  23.625  26.696  1.00  0.00    +0.000 O 
BRANCH    3    2
ATOM      2  C2  UNL A   1      30.830  23.573  24.253  1.00  0.00    +0.000 C 
ATOM     94  H4  UNL A   1      29.803  23.293  24.363  1.00  0.00    +0.000 H 
BRANCH    2    1
ATOM      1  C1  UNL A   1      31.598  22.736  23.216  1.00  0.00    +0.000 C 
ATOM     91  H1  UNL A   1      32.228  23.378  22.636  1.00  0.00    +0.000 H 
ATOM     92  H2  UNL A   1      30.902  22.242  22.571  1.00  0.00    +0.000 H 
ATOM     93  H3  UNL A   1      32.198  22.008  23.718  1.00  0.00    +0.000 H 
ENDBRANCH    2    1
BRANCH    2   78
ATOM    130  H40 UNL A   1      29.706  28.127  24.608  1.00  0.00    +0.000 H 
ATOM     78  C55 UNL A   1      30.721  25.023  23.785  1.00  0.00    +0.000 C 
ATOM     79  C56 UNL A   1      31.320  25.363  22.555  1.00  0.00    +0.000 C 
ATOM     80  C57 UNL A   1      31.370  26.685  22.104  1.00  0.00    +0.000 C 
ATOM     81  C58 UNL A   1      30.825  27.720  22.868  1.00  0.00    +0.000 C 
ATOM     88  C64 UNL A   1      30.154  27.386  24.047  1.00  0.00    +0.000 C 
ATOM     89  C65 UNL A   1      30.083  26.056  24.478  1.00  0.00    +0.000 C 
ATOM     90  F16 UNL A   1      29.354  25.819  25.574  1.00  0.00    +0.000 F 
ATOM    123  H33 UNL A   1      31.734  24.618  21.973  1.00  0.00    +0.000 H 
ATOM    124  H34 UNL A   1      31.813  26.899  21.197  1.00  0.00    +0.000 H 
BRANCH   81   82
ATOM     82  C59 UNL A   1      30.963  29.162  22.431  1.00  0.00    +0.000 C 
ATOM    125  H35 UNL A   1      31.160  29.181  21.379  1.00  0.00    +0.000 H 
ATOM    126  H36 UNL A   1      31.764  29.590  22.998  1.00  0.00    +0.000 H 
BRANCH   82   83
ATOM    129  H39 UNL A   1      26.643  31.533  22.232  1.00  0.00    +0.000 H 
ATOM     83  C60 UNL A   1      29.732  29.988  22.703  1.00  0.00    +0.000 C 
ATOM     84  C61 UNL A   1      29.435  30.756  23.815  1.00  0.00    +0.000 C 
ATOM     85  C62 UNL A   1      28.177  31.414  23.708  1.00  0.00    +0.000 C 
ATOM     86  C63 UNL A   1      27.557  31.143  22.509  1.00  0.00    +0.000 C 
ATOM     87  S1  UNL A   1      28.480  30.085  21.534  1.00  0.00    +0.000 S 
ATOM    127  H37 UNL A   1      30.059  30.842  24.632  1.00  0.00    +0.000 H 
ATOM    128  H38 UNL A   1      27.778  32.021  24.441  1.00  0.00    +0.000 H 
ENDBRANCH   82   83
ENDBRANCH   81   82
ENDBRANCH    2   78
ENDBRANCH    3    2
ENDBRANCH    5    3
ENDBRANCH    6    5
ENDBRANCH    7    6
ENDBRANCH    8    7
ENDBRANCH    9    8
ENDBRANCH   10    9
ENDBRANCH   11   10
ENDBRANCH   12   11
ENDBRANCH   13   12
ENDBRANCH   15   13
ENDBRANCH   19   18
BRANCH   23   24
ATOM     33  C24 UNL A   1      44.240  33.482  31.804  1.00  0.00    +0.000 C 
ATOM     34  F5  UNL A   1      44.602  33.387  30.516  1.00  0.00    +0.000 F 
ATOM     24  C19 UNL A   1      43.749  32.359  32.486  1.00  0.00    +0.000 C 
ATOM     25  C20 UNL A   1      43.389  32.511  33.832  1.00  0.00    +0.000 C 
ATOM     26  F1  UNL A   1      42.904  31.470  34.523  1.00  0.00    +0.000 F 
ATOM     27  C21 UNL A   1      43.492  33.748  34.465  1.00  0.00    +0.000 C 
ATOM     28  F2  UNL A   1      43.100  33.881  35.739  1.00  0.00    +0.000 F 
ATOM     29  C22 UNL A   1      43.984  34.844  33.774  1.00  0.00    +0.000 C 
ATOM     30  F3  UNL A   1      44.086  36.032  34.385  1.00  0.00    +0.000 F 
ATOM     31  C23 UNL A   1      44.365  34.711  32.446  1.00  0.00    +0.000 C 
ATOM     32  F4  UNL A   1      44.851  35.767  31.781  1.00  0.00    +0.000 F 
ENDBRANCH   23   24
BRANCH   40   41
ATOM     41  C30 UNL A   1      47.924  26.624  31.212  1.00  0.00    +0.000 C 
ATOM     42  C31 UNL A   1      49.030  26.979  30.428  1.00  0.00    +0.000 C 
ATOM     43  F6  UNL A   1      48.862  27.713  29.317  1.00  0.00    +0.000 F 
ATOM     44  C32 UNL A   1      50.312  26.552  30.765  1.00  0.00    +0.000 C 
ATOM     45  F7  UNL A   1      51.351  26.872  29.980  1.00  0.00    +0.000 F 
ATOM     46  C33 UNL A   1      50.513  25.786  31.903  1.00  0.00    +0.000 C 
ATOM     47  F8  UNL A   1      51.749  25.381  32.228  1.00  0.00    +0.000 F 
ATOM     48  C34 UNL A   1      49.435  25.435  32.700  1.00  0.00    +0.000 C 
ATOM     49  F9  UNL A   1      49.630  24.702  33.806  1.00  0.00    +0.000 F 
ATOM     50  C35 UNL A   1      48.149  25.840  32.354  1.00  0.00    +0.000 C 
ATOM     51  F10 UNL A   1      47.124  25.477  33.138  1.00  0.00    +0.000 F 
ENDBRANCH   40   41
BRANCH   55   56
ATOM     65  C44 UNL A   1      42.260  22.612  28.092  1.00  0.00    +0.000 C 
ATOM     66  F15 UNL A   1      41.876  22.625  29.377  1.00  0.00    +0.000 F 
ATOM     56  C39 UNL A   1      42.769  23.776  27.499  1.00  0.00    +0.000 C 
ATOM     57  C40 UNL A   1      43.160  23.711  26.156  1.00  0.00    +0.000 C 
ATOM     58  F11 UNL A   1      43.632  24.806  25.543  1.00  0.00    +0.000 F 
ATOM     59  C41 UNL A   1      43.033  22.530  25.427  1.00  0.00    +0.000 C 
ATOM     60  F12 UNL A   1      43.381  22.504  24.133  1.00  0.00    +0.000 F 
ATOM     61  C42 UNL A   1      42.536  21.388  26.035  1.00  0.00    +0.000 C 
ATOM     62  F13 UNL A   1      42.418  20.251  25.335  1.00  0.00    +0.000 F 
ATOM     63  C43 UNL A   1      42.155  21.427  27.368  1.00  0.00    +0.000 C 
ATOM     64  F14 UNL A   1      41.684  20.321  27.962  1.00  0.00    +0.000 F 
ENDBRANCH   55   56
TORSDOF 19
ENDMDL
MODEL 3
REMARK VINA RESULT:     -10.4     24.676     33.824
ROOT
ATOM     19  C15 UNL A   1      22.428  19.737   5.000  1.00  0.00    +0.000 C 
ATOM     20  C16 UNL A   1      21.259  19.048   5.644  1.00  0.00    +0.000 C 
ATOM     21  N3  UNL A   1      19.978  19.206   5.420  1.00  0.00    +0.000 N 
ATOM     22  C17 UNL A   1      19.335  18.295   6.248  1.00  0.00    +0.000 C 
ATOM     23  C18 UNL A   1      18.006  18.103   6.420  1.00  0.00    +0.000 C 
ATOM     35  C25 UNL A   1      16.982  18.858   5.749  1.00  0.00    +0.000 C 
ATOM     36  C26 UNL A   1      15.609  18.782   5.907  1.00  0.00    +0.000 C 
ATOM     37  C27 UNL A   1      15.016  19.687   5.020  1.00  0.00    +0.000 C 
ATOM     38  C28 UNL A   1      16.020  20.351   4.336  1.00  0.00    +0.000 C 
ATOM     39  N4  UNL A   1      17.221  19.831   4.790  1.00  0.00    +0.000 N 
ATOM     40  C29 UNL A   1      15.897  21.385   3.341  1.00  0.00    +0.000 C 
ATOM     52  C36 UNL A   1      16.935  21.999   2.723  1.00  0.00    +0.000 C 
ATOM     53  N5  UNL A   1      18.296  21.793   2.895  1.00  0.00    +0.000 N 
ATOM     54  C37 UNL A   1      18.892  22.616   2.069  1.00  0.00    +0.000 C 
ATOM     55  C38 UNL A   1      20.362  22.839   1.847  1.00  0.00    +0.000 C 
ATOM     67  C45 UNL A   1      21.254  22.147   2.582  1.00  0.00    +0.000 C 
ATOM     68  C46 UNL A   1      22.706  22.261   2.482  1.00  0.00    +0.000 C 
ATOM     69  C47 UNL A   1      23.273  21.393   3.335  1.00  0.00    +0.000 C 
ATOM     70  C48 UNL A   1      22.222  20.683   4.065  1.00  0.00    +0.000 C 
ATOM     71  N6  UNL A   1      21.057  21.201   3.558  1.00  0.00    +0.000 N 
ATOM     72  C49 UNL A   1      17.970  23.424   1.257  1.00  0.00    +0.000 C 
ATOM     73  C50 UNL A   1      16.791  23.034   1.720  1.00  0.00    +0.000 C 
ATOM     74  C51 UNL A   1      20.367  17.559   6.949  1.00  0.00    +0.000 C 
ATOM     75  C52 UNL A   1      21.571  18.028   6.657  1.00  0.00    +0.000 C 
ATOM    111  H21 UNL A   1      15.109  18.165   6.566  1.00  0.00    +0.000 H 
ATOM    112  H22 UNL A   1      14.002  19.835   4.897  1.00  0.00    +0.000 H 
ATOM    113  H23 UNL A   1      18.112  20.110   4.478  1.00  0.00    +0.000 H 
ATOM    114  H24 UNL A   1      23.214  22.905   1.856  1.00  0.00    +0.000 H 
ATOM    115  H25 UNL A   1      24.288  21.251   3.456  1.00  0.00    +0.000 H 
ATOM    116  H26 UNL A   1      20.164  20.921   3.865  1.00  0.00    +0.000 H 
ATOM    117  H27 UNL A   1      18.185  24.115   0.521  1.00  0.00    +0.000 H 
ATOM    118  H28 UNL A   1      15.886  23.418   1.405  1.00  0.00    +0.000 H 
ATOM    119  H29 UNL A   1      20.187  16.773   7.593  1.00  0.00    +0.000 H 
ATOM    120  H30 UNL A   1      22.489  17.750   7.041  1.00  0.00    +0.000 H 
ENDROOT
BRANCH   19   18
ATOM     76  C53 UNL A   1      24.468  18.371   4.546  1.00  0.00    +0.000 C 
ATOM    109  H19 UNL A   1      26.308  19.951   7.506  1.00  0.00    +0.000 H 
ATOM     77  C54 UNL A   1      25.769  17.974   4.849  1.00  0.00    +0.000 C 
ATOM     15  C11 UNL A   1      26.460  18.595   5.894  1.00  0.00    +0.000 C 
ATOM     16  C12 UNL A   1      25.811  19.527   6.708  1.00  0.00    +0.000 C 
ATOM     17  C13 UNL A   1      24.488  19.882   6.439  1.00  0.00    +0.000 C 
ATOM    110  H20 UNL A   1      24.001  20.554   7.052  1.00  0.00    +0.000 H 
ATOM     18  C14 UNL A   1      23.815  19.328   5.338  1.00  0.00    +0.000 C 
ATOM    121  H31 UNL A   1      23.982  17.959   3.734  1.00  0.00    +0.000 H 
ATOM    122  H32 UNL A   1      26.221  17.224   4.303  1.00  0.00    +0.000 H 
BRANCH   15   13
ATOM     13  C10 UNL A   1      27.876  18.268   6.173  1.00  0.00    +0.000 C 
ATOM     14  O2  UNL A   1      28.766  18.877   5.587  1.00  0.00    +0.000 O 
BRANCH   13   12
ATOM    108  H18 UNL A   1      27.950  16.364   6.790  1.00  0.00    +0.000 H 
ATOM     12  N2  UNL A   1      28.190  17.278   7.069  1.00  0.00    +0.000 N 
BRANCH   12   11
ATOM    106  H16 UNL A   1      29.088  16.402   8.707  1.00  0.00    +0.000 H 
ATOM     11  C9  UNL A   1      28.825  17.384   8.373  1.00  0.00    +0.000 C 
ATOM    107  H17 UNL A   1      29.690  18.005   8.264  1.00  0.00    +0.000 H 
BRANCH   11   10
ATOM    105  H15 UNL A   1      28.110  17.520  10.336  1.00  0.00    +0.000 H 
ATOM     10  C8  UNL A   1      27.915  18.028   9.414  1.00  0.00    +0.000 C 
ATOM    104  H14 UNL A   1      26.904  17.928   9.079  1.00  0.00    +0.000 H 
BRANCH   10    9
ATOM      9  C7  UNL A   1      28.184  19.511   9.679  1.00  0.00    +0.000 C 
ATOM    102  H12 UNL A   1      29.230  19.688   9.537  1.00  0.00    +0.000 H 
ATOM    103  H13 UNL A   1      27.562  20.053   8.997  1.00  0.00    +0.000 H 
BRANCH    9    8
ATOM    100  H10 UNL A   1      27.539  19.149  11.668  1.00  0.00    +0.000 H 
ATOM    101  H11 UNL A   1      28.662  20.528  11.447  1.00  0.00    +0.000 H 
ATOM      8  C6  UNL A   1      27.806  20.002  11.079  1.00  0.00    +0.000 C 
BRANCH    8    7
ATOM     98  H8  UNL A   1      26.973  21.922  10.706  1.00  0.00    +0.000 H 
ATOM     99  H9  UNL A   1      25.834  20.549  10.595  1.00  0.00    +0.000 H 
ATOM      7  C5  UNL A   1      26.642  20.999  11.133  1.00  0.00    +0.000 C 
BRANCH    7    6
ATOM     97  H7  UNL A   1      25.978  22.348  12.640  1.00  0.00    +0.000 H 
ATOM      6  C4  UNL A   1      26.110  21.291  12.545  1.00  0.00    +0.000 C 
ATOM     96  H6  UNL A   1      26.817  20.929  13.263  1.00  0.00    +0.000 H 
BRANCH    6    5
ATOM      5  N1  UNL A   1      24.828  20.648  12.779  1.00  0.00    +0.000 N 
ATOM     95  H5  UNL A   1      24.011  21.196  12.730  1.00  0.00    +0.000 H 
BRANCH    5    3
ATOM      3  C3  UNL A   1      24.705  19.307  13.065  1.00  0.00    +0.000 C 
ATOM      4  O1  UNL A   1      25.571  18.798  13.776  1.00  0.00    +0.000 O 
BRANCH    3    2
ATOM      2  C2  UNL A   1      23.458  18.578  12.557  1.00  0.00    +0.000 C 
ATOM     94  H4  UNL A   1      22.828  19.336  12.143  1.00  0.00    +0.000 H 
BRANCH    2    1
ATOM      1  C1  UNL A   1      22.844  17.842  13.760  1.00  0.00    +0.000 C 
ATOM     91  H1  UNL A   1      22.793  16.794  13.549  1.00  0.00    +0.000 H 
ATOM     92  H2  UNL A   1      21.859  18.217  13.941  1.00  0.00    +0.000 H 
ATOM     93  H3  UNL A   1      23.451  18.002  14.625  1.00  0.00    +0.000 H 
ENDBRANCH    2    1
BRANCH    2   78
ATOM    130  H40 UNL A   1      24.727  17.285   8.215  1.00  0.00    +0.000 H 
ATOM     78  C55 UNL A   1      23.625  17.618  11.380  1.00  0.00    +0.000 C 
ATOM     79  C56 UNL A   1      23.296  16.262  11.586  1.00  0.00    +0.000 C 
ATOM     80  C57 UNL A   1      23.524  15.294  10.604  1.00  0.00    +0.000 C 
ATOM     81  C58 UNL A   1      24.094  15.644   9.378  1.00  0.00    +0.000 C 
ATOM     88  C64 UNL A   1      24.346  16.997   9.129  1.00  0.00    +0.000 C 
ATOM     89  C65 UNL A   1      24.088  17.964  10.107  1.00  0.00    +0.000 C 
ATOM     90  F16 UNL A   1      24.284  19.239   9.755  1.00  0.00    +0.000 F 
ATOM    123  H33 UNL A   1      22.877  15.977  12.486  1.00  0.00    +0.000 H 
ATOM    124  H34 UNL A   1      23.268  14.311  10.787  1.00  0.00    +0.000 H 
BRANCH   81   82
ATOM     82  C59 UNL A   1      24.433  14.586   8.350  1.00  0.00    +0.000 C 
ATOM    125  H35 UNL A   1      24.365  13.625   8.817  1.00  0.00    +0.000 H 
ATOM    126  H36 UNL A   1      25.422  14.793   7.996  1.00  0.00    +0.000 H 
BRANCH   82   83
ATOM    129  H39 UNL A   1      20.671  14.170   5.188  1.00  0.00    +0.000 H 
ATOM     83  C60 UNL A   1      23.518  14.603   7.153  1.00  0.00    +0.000 C 
ATOM     84  C61 UNL A   1      23.803  14.979   5.853  1.00  0.00    +0.000 C 
ATOM     85  C62 UNL A   1      22.683  14.845   4.984  1.00  0.00    +0.000 C 
ATOM     86  C63 UNL A   1      21.579  14.352   5.642  1.00  0.00    +0.000 C 
ATOM     87  S1  UNL A   1      21.891  14.078   7.301  1.00  0.00    +0.000 S 
ATOM    127  H37 UNL A   1      24.727  15.320   5.546  1.00  0.00    +0.000 H 
ATOM    128  H38 UNL A   1      22.698  15.087   3.980  1.00  0.00    +0.000 H 
ENDBRANCH   82   83
ENDBRANCH   81   82
ENDBRANCH    2   78
ENDBRANCH    3    2
ENDBRANCH    5    3
ENDBRANCH    6    5
ENDBRANCH    7    6
ENDBRANCH    8    7
ENDBRANCH    9    8
ENDBRANCH   10    9
ENDBRANCH   11   10
ENDBRANCH   12   11
ENDBRANCH   13   12
ENDBRANCH   15   13
ENDBRANCH   19   18
BRANCH   23   24
ATOM     33  C24 UNL A   1      17.683  15.678   7.028  1.00  0.00    +0.000 C 
ATOM     34  F5  UNL A   1      18.185  15.326   5.836  1.00  0.00    +0.000 F 
ATOM     24  C19 UNL A   1      17.582  17.032   7.382  1.00  0.00    +0.000 C 
ATOM     25  C20 UNL A   1      17.046  17.346   8.639  1.00  0.00    +0.000 C 
ATOM     26  F1  UNL A   1      16.940  18.625   9.027  1.00  0.00    +0.000 F 
ATOM     27  C21 UNL A   1      16.649  16.342   9.518  1.00  0.00    +0.000 C 
ATOM     28  F2  UNL A   1      16.181  16.664  10.732  1.00  0.00    +0.000 F 
ATOM     29  C22 UNL A   1      16.753  15.010   9.147  1.00  0.00    +0.000 C 
ATOM     30  F3  UNL A   1      16.367  14.045   9.993  1.00  0.00    +0.000 F 
ATOM     31  C23 UNL A   1      17.262  14.677   7.900  1.00  0.00    +0.000 C 
ATOM     32  F4  UNL A   1      17.353  13.391   7.536  1.00  0.00    +0.000 F 
ENDBRANCH   23   24
BRANCH   40   41
ATOM     41  C30 UNL A   1      14.515  21.833   2.967  1.00  0.00    +0.000 C 
ATOM     42  C31 UNL A   1      13.838  22.812   3.707  1.00  0.00    +0.000 C 
ATOM     43  F6  UNL A   1      14.400  23.336   4.807  1.00  0.00    +0.000 F 
ATOM     44  C32 UNL A   1      12.563  23.233   3.337  1.00  0.00    +0.000 C 
ATOM     45  F7  UNL A   1      11.918  24.142   4.081  1.00  0.00    +0.000 F 
ATOM     46  C33 UNL A   1      11.956  22.702   2.209  1.00  0.00    +0.000 C 
ATOM     47  F8  UNL A   1      10.731  23.112   1.852  1.00  0.00    +0.000 F 
ATOM     48  C34 UNL A   1      12.613  21.742   1.456  1.00  0.00    +0.000 C 
ATOM     49  F9  UNL A   1      12.030  21.235   0.359  1.00  0.00    +0.000 F 
ATOM     50  C35 UNL A   1      13.878  21.302   1.835  1.00  0.00    +0.000 C 
ATOM     51  F10 UNL A   1      14.487  20.365   1.093  1.00  0.00    +0.000 F 
ENDBRANCH   40   41
BRANCH   55   56
ATOM     65  C44 UNL A   1      20.975  23.500  -0.503  1.00  0.00    +0.000 C 
ATOM     66  F15 UNL A   1      20.668  22.265  -0.927  1.00  0.00    +0.000 F 
ATOM     56  C39 UNL A   1      20.840  23.831   0.852  1.00  0.00    +0.000 C 
ATOM     57  C40 UNL A   1      21.176  25.133   1.245  1.00  0.00    +0.000 C 
ATOM     58  F11 UNL A   1      21.043  25.500   2.528  1.00  0.00    +0.000 F 
ATOM     59  C41 UNL A   1      21.617  26.074   0.316  1.00  0.00    +0.000 C 
ATOM     60  F12 UNL A   1      21.897  27.322   0.712  1.00  0.00    +0.000 F 
ATOM     61  C42 UNL A   1      21.751  25.722  -1.019  1.00  0.00    +0.000 C 
ATOM     62  F13 UNL A   1      22.178  26.625  -1.912  1.00  0.00    +0.000 F 
ATOM     63  C43 UNL A   1      21.436  24.434  -1.428  1.00  0.00    +0.000 C 
ATOM     64  F14 UNL A   1      21.576  24.089  -2.714  1.00  0.00    +0.000 F 
ENDBRANCH   55   56
TORSDOF 19
ENDMDL
MODEL 4
REMARK VINA RESULT:     -10.3      2.483      3.432
ROOT
ATOM     19  C15 UNL A   1      39.840  28.868  29.443  1.00  0.00    +0.000 C 
ATOM     20  C16 UNL A   1      40.649  29.750  30.351  1.00  0.00    +0.000 C 
ATOM     21  N3  UNL A   1      41.882  29.601  30.768  1.00  0.00    +0.000 N 
ATOM     22  C17 UNL A   1      42.155  30.719  31.545  1.00  0.00    +0.000 C 
ATOM     23  C18 UNL A   1      43.280  31.010  32.239  1.00  0.00    +0.000 C 
ATOM     35  C25 UNL A   1      44.439  30.160  32.302  1.00  0.00    +0.000 C 
ATOM     36  C26 UNL A   1      45.601  30.338  33.032  1.00  0.00    +0.000 C 
ATOM     37  C27 UNL A   1      46.461  29.268  32.754  1.00  0.00    +0.000 C 
ATOM     38  C28 UNL A   1      45.819  28.408  31.879  1.00  0.00    +0.000 C 
ATOM     39  N4  UNL A   1      44.581  28.968  31.608  1.00  0.00    +0.000 N 
ATOM     40  C29 UNL A   1      46.296  27.165  31.330  1.00  0.00    +0.000 C 
ATOM     52  C36 UNL A   1      45.598  26.369  30.485  1.00  0.00    +0.000 C 
ATOM     53  N5  UNL A   1      44.319  26.547  29.976  1.00  0.00    +0.000 N 
ATOM     54  C37 UNL A   1      44.093  25.516  29.200  1.00  0.00    +0.000 C 
ATOM     55  C38 UNL A   1      42.861  25.176  28.408  1.00  0.00    +0.000 C 
ATOM     67  C45 UNL A   1      41.789  25.988  28.474  1.00  0.00    +0.000 C 
ATOM     68  C46 UNL A   1      40.527  25.784  27.768  1.00  0.00    +0.000 C 
ATOM     69  C47 UNL A   1      39.704  26.810  28.038  1.00  0.00    +0.000 C 
ATOM     70  C48 UNL A   1      40.370  27.728  28.962  1.00  0.00    +0.000 C 
ATOM     71  N6  UNL A   1      41.600  27.156  29.171  1.00  0.00    +0.000 N 
ATOM     72  C49 UNL A   1      45.219  24.574  29.109  1.00  0.00    +0.000 C 
ATOM     73  C50 UNL A   1      46.096  25.123  29.938  1.00  0.00    +0.000 C 
ATOM     74  C51 UNL A   1      40.975  31.558  31.509  1.00  0.00    +0.000 C 
ATOM     75  C52 UNL A   1      39.994  30.975  30.835  1.00  0.00    +0.000 C 
ATOM    111  H21 UNL A   1      45.801  31.123  33.671  1.00  0.00    +0.000 H 
ATOM    112  H22 UNL A   1      47.411  29.142  33.136  1.00  0.00    +0.000 H 
ATOM    113  H23 UNL A   1      43.903  28.578  31.011  1.00  0.00    +0.000 H 
ATOM    114  H24 UNL A   1      40.304  24.981  27.160  1.00  0.00    +0.000 H 
ATOM    115  H25 UNL A   1      38.753  26.931  27.655  1.00  0.00    +0.000 H 
ATOM    116  H26 UNL A   1      42.282  27.545  29.765  1.00  0.00    +0.000 H 
ATOM    117  H27 UNL A   1      45.304  23.712  28.549  1.00  0.00    +0.000 H 
ATOM    118  H28 UNL A   1      47.017  24.716  30.164  1.00  0.00    +0.000 H 
ATOM    119  H29 UNL A   1      40.907  32.488  31.951  1.00  0.00    +0.000 H 
ATOM    120  H30 UNL A   1      39.024  31.296  30.689  1.00  0.00    +0.000 H 
ENDROOT
BRANCH   19   18
ATOM     76  C53 UNL A   1      37.407  29.167  29.912  1.00  0.00    +0.000 C 
ATOM    109  H19 UNL A   1      36.810  30.621  26.423  1.00  0.00    +0.000 H 
ATOM     77  C54 UNL A   1      36.123  29.550  29.528  1.00  0.00    +0.000 C 
ATOM     15  C11 UNL A   1      35.917  30.136  28.275  1.00  0.00    +0.000 C 
ATOM     16  C12 UNL A   1      36.973  30.229  27.364  1.00  0.00    +0.000 C 
ATOM     17  C13 UNL A   1      38.247  29.791  27.728  1.00  0.00    +0.000 C 
ATOM    110  H20 UNL A   1      39.021  29.840  27.048  1.00  0.00    +0.000 H 
ATOM     18  C14 UNL A   1      38.480  29.283  29.016  1.00  0.00    +0.000 C 
ATOM    121  H31 UNL A   1      37.568  28.795  30.862  1.00  0.00    +0.000 H 
ATOM    122  H32 UNL A   1      35.326  29.402  30.167  1.00  0.00    +0.000 H 
BRANCH   15   13
ATOM     13  C10 UNL A   1      34.586  30.647  27.880  1.00  0.00    +0.000 C 
ATOM     14  O2  UNL A   1      34.155  31.676  28.393  1.00  0.00    +0.000 O 
BRANCH   13   12
ATOM    108  H18 UNL A   1      33.567  30.481  26.164  1.00  0.00    +0.000 H 
ATOM     12  N2  UNL A   1      33.832  29.964  26.960  1.00  0.00    +0.000 N 
BRANCH   12   11
ATOM    106  H16 UNL A   1      34.095  27.967  26.514  1.00  0.00    +0.000 H 
ATOM     11  C9  UNL A   1      33.366  28.587  26.992  1.00  0.00    +0.000 C 
ATOM    107  H17 UNL A   1      33.230  28.313  28.018  1.00  0.00    +0.000 H 
BRANCH   11   10
ATOM    105  H15 UNL A   1      32.254  28.317  25.238  1.00  0.00    +0.000 H 
ATOM     10  C8  UNL A   1      32.028  28.408  26.280  1.00  0.00    +0.000 C 
ATOM    104  H14 UNL A   1      31.414  29.253  26.510  1.00  0.00    +0.000 H 
BRANCH   10    9
ATOM      9  C7  UNL A   1      31.257  27.142  26.662  1.00  0.00    +0.000 C 
ATOM    102  H12 UNL A   1      30.880  27.272  27.656  1.00  0.00    +0.000 H 
ATOM    103  H13 UNL A   1      30.491  27.027  25.925  1.00  0.00    +0.000 H 
BRANCH    9    8
ATOM    100  H10 UNL A   1      32.647  25.839  25.728  1.00  0.00    +0.000 H 
ATOM    101  H11 UNL A   1      32.672  25.856  27.520  1.00  0.00    +0.000 H 
ATOM      8  C6  UNL A   1      32.074  25.848  26.632  1.00  0.00    +0.000 C 
BRANCH    8    7
ATOM     98  H8  UNL A   1      31.149  24.267  27.713  1.00  0.00    +0.000 H 
ATOM     99  H9  UNL A   1      30.321  24.766  26.210  1.00  0.00    +0.000 H 
ATOM      7  C5  UNL A   1      31.254  24.552  26.687  1.00  0.00    +0.000 C 
BRANCH    7    6
ATOM     97  H7  UNL A   1      31.072  22.778  25.526  1.00  0.00    +0.000 H 
ATOM      6  C4  UNL A   1      31.869  23.369  25.924  1.00  0.00    +0.000 C 
ATOM     96  H6  UNL A   1      32.470  22.795  26.600  1.00  0.00    +0.000 H 
BRANCH    6    5
ATOM      5  N1  UNL A   1      32.700  23.818  24.819  1.00  0.00    +0.000 N 
ATOM     95  H5  UNL A   1      33.645  24.032  24.998  1.00  0.00    +0.000 H 
BRANCH    5    3
ATOM      3  C3  UNL A   1      32.225  23.957  23.534  1.00  0.00    +0.000 C 
ATOM      4  O1  UNL A   1      31.648  22.992  23.036  1.00  0.00    +0.000 O 
BRANCH    3    2
ATOM      2  C2  UNL A   1      32.369  25.326  22.863  1.00  0.00    +0.000 C 
ATOM     94  H4  UNL A   1      32.364  25.134  21.810  1.00  0.00    +0.000 H 
BRANCH    2    1
ATOM      1  C1  UNL A   1      33.679  25.946  23.378  1.00  0.00    +0.000 C 
ATOM     91  H1  UNL A   1      34.088  26.589  22.627  1.00  0.00    +0.000 H 
ATOM     92  H2  UNL A   1      34.377  25.167  23.601  1.00  0.00    +0.000 H 
ATOM     93  H3  UNL A   1      33.481  26.513  24.263  1.00  0.00    +0.000 H 
ENDBRANCH    2    1
BRANCH    2   78
ATOM    130  H40 UNL A   1      30.161  29.450  22.368  1.00  0.00    +0.000 H 
ATOM     78  C55 UNL A   1      31.218  26.319  23.016  1.00  0.00    +0.000 C 
ATOM     79  C56 UNL A   1      30.011  25.845  23.569  1.00  0.00    +0.000 C 
ATOM     80  C57 UNL A   1      28.871  26.651  23.642  1.00  0.00    +0.000 C 
ATOM     81  C58 UNL A   1      28.894  27.963  23.161  1.00  0.00    +0.000 C 
ATOM     88  C64 UNL A   1      30.108  28.471  22.689  1.00  0.00    +0.000 C 
ATOM     89  C65 UNL A   1      31.252  27.667  22.646  1.00  0.00    +0.000 C 
ATOM     90  F16 UNL A   1      32.386  28.258  22.255  1.00  0.00    +0.000 F 
ATOM    123  H33 UNL A   1      29.966  24.878  23.928  1.00  0.00    +0.000 H 
ATOM    124  H34 UNL A   1      28.004  26.274  24.055  1.00  0.00    +0.000 H 
BRANCH   81   82
ATOM     82  C59 UNL A   1      27.638  28.806  23.148  1.00  0.00    +0.000 C 
ATOM    125  H35 UNL A   1      27.187  28.759  24.117  1.00  0.00    +0.000 H 
ATOM    126  H36 UNL A   1      26.998  28.410  22.386  1.00  0.00    +0.000 H 
BRANCH   82   83
ATOM    129  H39 UNL A   1      28.518  33.126  20.936  1.00  0.00    +0.000 H 
ATOM     83  C60 UNL A   1      27.894  30.252  22.808  1.00  0.00    +0.000 C 
ATOM     84  C61 UNL A   1      28.053  31.326  23.665  1.00  0.00    +0.000 C 
ATOM     85  C62 UNL A   1      28.300  32.547  22.976  1.00  0.00    +0.000 C 
ATOM     86  C63 UNL A   1      28.340  32.367  21.612  1.00  0.00    +0.000 C 
ATOM     87  S1  UNL A   1      28.058  30.740  21.171  1.00  0.00    +0.000 S 
ATOM    127  H37 UNL A   1      28.000  31.249  24.693  1.00  0.00    +0.000 H 
ATOM    128  H38 UNL A   1      28.434  33.458  23.443  1.00  0.00    +0.000 H 
ENDBRANCH   82   83
ENDBRANCH   81   82
ENDBRANCH    2   78
ENDBRANCH    3    2
ENDBRANCH    5    3
ENDBRANCH    6    5
ENDBRANCH    7    6
ENDBRANCH    8    7
ENDBRANCH    9    8
ENDBRANCH   10    9
ENDBRANCH   11   10
ENDBRANCH   12   11
ENDBRANCH   13   12
ENDBRANCH   15   13
ENDBRANCH   19   18
BRANCH   23   24
ATOM     33  C24 UNL A   1      43.817  33.469  32.394  1.00  0.00    +0.000 C 
ATOM     34  F5  UNL A   1      44.257  33.438  31.128  1.00  0.00    +0.000 F 
ATOM     24  C19 UNL A   1      43.310  32.307  32.994  1.00  0.00    +0.000 C 
ATOM     25  C20 UNL A   1      42.867  32.391  34.322  1.00  0.00    +0.000 C 
ATOM     26  F1  UNL A   1      42.363  31.311  34.936  1.00  0.00    +0.000 F 
ATOM     27  C21 UNL A   1      42.907  33.599  35.014  1.00  0.00    +0.000 C 
ATOM     28  F2  UNL A   1      42.437  33.667  36.267  1.00  0.00    +0.000 F 
ATOM     29  C22 UNL A   1      43.417  34.734  34.403  1.00  0.00    +0.000 C 
ATOM     30  F3  UNL A   1      43.458  35.895  35.072  1.00  0.00    +0.000 F 
ATOM     31  C23 UNL A   1      43.879  34.669  33.097  1.00  0.00    +0.000 C 
ATOM     32  F4  UNL A   1      44.382  35.763  32.510  1.00  0.00    +0.000 F 
ENDBRANCH   23   24
BRANCH   40   41
ATOM     41  C30 UNL A   1      47.664  26.704  31.733  1.00  0.00    +0.000 C 
ATOM     42  C31 UNL A   1      47.848  25.778  32.770  1.00  0.00    +0.000 C 
ATOM     43  F6  UNL A   1      46.793  25.322  33.463  1.00  0.00    +0.000 F 
ATOM     44  C32 UNL A   1      49.123  25.343  33.121  1.00  0.00    +0.000 C 
ATOM     45  F7  UNL A   1      49.280  24.487  34.141  1.00  0.00    +0.000 F 
ATOM     46  C33 UNL A   1      50.232  25.804  32.427  1.00  0.00    +0.000 C 
ATOM     47  F8  UNL A   1      51.458  25.380  32.764  1.00  0.00    +0.000 F 
ATOM     48  C34 UNL A   1      50.071  26.710  31.390  1.00  0.00    +0.000 C 
ATOM     49  F9  UNL A   1      51.141  27.149  30.712  1.00  0.00    +0.000 F 
ATOM     50  C35 UNL A   1      48.800  27.165  31.051  1.00  0.00    +0.000 C 
ATOM     51  F10 UNL A   1      48.675  28.048  30.050  1.00  0.00    +0.000 F 
ENDBRANCH   40   41
BRANCH   55   56
ATOM     65  C44 UNL A   1      43.091  23.973  26.208  1.00  0.00    +0.000 C 
ATOM     66  F15 UNL A   1      43.426  25.128  25.615  1.00  0.00    +0.000 F 
ATOM     56  C39 UNL A   1      42.804  23.945  27.580  1.00  0.00    +0.000 C 
ATOM     57  C40 UNL A   1      42.455  22.715  28.152  1.00  0.00    +0.000 C 
ATOM     58  F11 UNL A   1      42.194  22.637  29.465  1.00  0.00    +0.000 F 
ATOM     59  C41 UNL A   1      42.409  21.553  27.384  1.00  0.00    +0.000 C 
ATOM     60  F12 UNL A   1      42.107  20.383  27.963  1.00  0.00    +0.000 F 
ATOM     61  C42 UNL A   1      42.687  21.605  26.027  1.00  0.00    +0.000 C 
ATOM     62  F13 UNL A   1      42.638  20.488  25.288  1.00  0.00    +0.000 F 
ATOM     63  C43 UNL A   1      43.022  22.815  25.438  1.00  0.00    +0.000 C 
ATOM     64  F14 UNL A   1      43.281  22.870  24.124  1.00  0.00    +0.000 F 
ENDBRANCH   55   56
TORSDOF 19
ENDMDL
MODEL 5
REMARK VINA RESULT:     -10.3     24.939     34.033
ROOT
ATOM     19  C15 UNL A   1      22.035  19.475   5.087  1.00  0.00    +0.000 C 
ATOM     20  C16 UNL A   1      21.746  20.470   4.000  1.00  0.00    +0.000 C 
ATOM     21  N3  UNL A   1      20.601  20.992   3.637  1.00  0.00    +0.000 N 
ATOM     22  C17 UNL A   1      20.900  21.886   2.617  1.00  0.00    +0.000 C 
ATOM     23  C18 UNL A   1      20.051  22.639   1.879  1.00  0.00    +0.000 C 
ATOM     35  C25 UNL A   1      18.620  22.631   2.026  1.00  0.00    +0.000 C 
ATOM     36  C26 UNL A   1      17.672  23.310   1.280  1.00  0.00    +0.000 C 
ATOM     37  C27 UNL A   1      16.409  23.018   1.809  1.00  0.00    +0.000 C 
ATOM     38  C28 UNL A   1      16.569  22.131   2.860  1.00  0.00    +0.000 C 
ATOM     39  N4  UNL A   1      17.930  21.905   2.985  1.00  0.00    +0.000 N 
ATOM     40  C29 UNL A   1      15.558  21.533   3.692  1.00  0.00    +0.000 C 
ATOM     52  C36 UNL A   1      15.795  20.657   4.698  1.00  0.00    +0.000 C 
ATOM     53  N5  UNL A   1      17.007  20.150   5.144  1.00  0.00    +0.000 N 
ATOM     54  C37 UNL A   1      16.719  19.352   6.143  1.00  0.00    +0.000 C 
ATOM     55  C38 UNL A   1      17.641  18.517   6.986  1.00  0.00    +0.000 C 
ATOM     67  C45 UNL A   1      18.962  18.520   6.724  1.00  0.00    +0.000 C 
ATOM     68  C46 UNL A   1      19.973  17.759   7.452  1.00  0.00    +0.000 C 
ATOM     69  C47 UNL A   1      21.183  18.038   6.942  1.00  0.00    +0.000 C 
ATOM     70  C48 UNL A   1      21.028  18.976   5.829  1.00  0.00    +0.000 C 
ATOM     71  N6  UNL A   1      19.676  19.200   5.768  1.00  0.00    +0.000 N 
ATOM     72  C49 UNL A   1      15.285  19.282   6.460  1.00  0.00    +0.000 C 
ATOM     73  C50 UNL A   1      14.764  20.068   5.529  1.00  0.00    +0.000 C 
ATOM     74  C51 UNL A   1      22.338  21.868   2.446  1.00  0.00    +0.000 C 
ATOM     75  C52 UNL A   1      22.902  20.965   3.235  1.00  0.00    +0.000 C 
ATOM    111  H21 UNL A   1      17.862  23.924   0.473  1.00  0.00    +0.000 H 
ATOM    112  H22 UNL A   1      15.511  23.400   1.473  1.00  0.00    +0.000 H 
ATOM    113  H23 UNL A   1      18.346  21.315   3.654  1.00  0.00    +0.000 H 
ATOM    114  H24 UNL A   1      19.787  17.110   8.232  1.00  0.00    +0.000 H 
ATOM    115  H25 UNL A   1      22.078  17.653   7.280  1.00  0.00    +0.000 H 
ATOM    116  H26 UNL A   1      19.257  19.792   5.101  1.00  0.00    +0.000 H 
ATOM    117  H27 UNL A   1      14.809  18.757   7.210  1.00  0.00    +0.000 H 
ATOM    118  H28 UNL A   1      13.754  20.240   5.410  1.00  0.00    +0.000 H 
ATOM    119  H29 UNL A   1      22.856  22.478   1.795  1.00  0.00    +0.000 H 
ATOM    120  H30 UNL A   1      23.893  20.681   3.296  1.00  0.00    +0.000 H 
ENDROOT
BRANCH   19   18
ATOM     76  C53 UNL A   1      23.955  17.893   4.887  1.00  0.00    +0.000 C 
ATOM    109  H19 UNL A   1      26.188  20.176   6.995  1.00  0.00    +0.000 H 
ATOM     77  C54 UNL A   1      25.266  17.516   5.168  1.00  0.00    +0.000 C 
ATOM     15  C11 UNL A   1      26.099  18.379   5.888  1.00  0.00    +0.000 C 
ATOM     16  C12 UNL A   1      25.585  19.562   6.426  1.00  0.00    +0.000 C 
ATOM     17  C13 UNL A   1      24.253  19.911   6.193  1.00  0.00    +0.000 C 
ATOM    110  H20 UNL A   1      23.868  20.773   6.607  1.00  0.00    +0.000 H 
ATOM     18  C14 UNL A   1      23.435  19.092   5.397  1.00  0.00    +0.000 C 
ATOM    121  H31 UNL A   1      23.361  17.285   4.300  1.00  0.00    +0.000 H 
ATOM    122  H32 UNL A   1      25.623  16.603   4.846  1.00  0.00    +0.000 H 
BRANCH   15   13
ATOM     13  C10 UNL A   1      27.525  18.054   6.114  1.00  0.00    +0.000 C 
ATOM     14  O2  UNL A   1      28.393  18.713   5.549  1.00  0.00    +0.000 O 
BRANCH   13   12
ATOM    108  H18 UNL A   1      28.127  16.178   6.473  1.00  0.00    +0.000 H 
ATOM     12  N2  UNL A   1      27.871  17.010   6.934  1.00  0.00    +0.000 N 
BRANCH   12   11
ATOM    106  H16 UNL A   1      26.916  16.850   8.755  1.00  0.00    +0.000 H 
ATOM     11  C9  UNL A   1      27.915  16.956   8.386  1.00  0.00    +0.000 C 
ATOM    107  H17 UNL A   1      28.526  16.122   8.663  1.00  0.00    +0.000 H 
BRANCH   11   10
ATOM    105  H15 UNL A   1      29.004  18.734   8.192  1.00  0.00    +0.000 H 
ATOM     10  C8  UNL A   1      28.533  18.210   8.998  1.00  0.00    +0.000 C 
ATOM    104  H14 UNL A   1      29.215  17.904   9.763  1.00  0.00    +0.000 H 
BRANCH   10    9
ATOM      9  C7  UNL A   1      27.532  19.188   9.616  1.00  0.00    +0.000 C 
ATOM    102  H12 UNL A   1      27.787  20.174   9.287  1.00  0.00    +0.000 H 
ATOM    103  H13 UNL A   1      26.564  18.867   9.293  1.00  0.00    +0.000 H 
BRANCH    9    8
ATOM    100  H10 UNL A   1      26.791  18.449  11.462  1.00  0.00    +0.000 H 
ATOM    101  H11 UNL A   1      28.492  19.012  11.470  1.00  0.00    +0.000 H 
ATOM      8  C6  UNL A   1      27.489  19.196  11.146  1.00  0.00    +0.000 C 
BRANCH    8    7
ATOM     98  H8  UNL A   1      27.490  20.569  12.771  1.00  0.00    +0.000 H 
ATOM     99  H9  UNL A   1      27.445  21.299  11.140  1.00  0.00    +0.000 H 
ATOM      7  C5  UNL A   1      27.076  20.529  11.785  1.00  0.00    +0.000 C 
BRANCH    7    6
ATOM     97  H7  UNL A   1      25.095  20.303  11.041  1.00  0.00    +0.000 H 
ATOM      6  C4  UNL A   1      25.560  20.747  11.895  1.00  0.00    +0.000 C 
ATOM     96  H6  UNL A   1      25.363  21.799  11.934  1.00  0.00    +0.000 H 
BRANCH    6    5
ATOM      5  N1  UNL A   1      25.014  20.120  13.088  1.00  0.00    +0.000 N 
ATOM     95  H5  UNL A   1      24.873  20.676  13.889  1.00  0.00    +0.000 H 
BRANCH    5    3
ATOM      3  C3  UNL A   1      24.685  18.784  13.147  1.00  0.00    +0.000 C 
ATOM      4  O1  UNL A   1      25.382  18.061  13.856  1.00  0.00    +0.000 O 
BRANCH    3    2
ATOM      2  C2  UNL A   1      23.430  18.323  12.401  1.00  0.00    +0.000 C 
ATOM     94  H4  UNL A   1      22.978  19.214  12.017  1.00  0.00    +0.000 H 
BRANCH    2    1
ATOM      1  C1  UNL A   1      22.556  17.565  13.414  1.00  0.00    +0.000 C 
ATOM     91  H1  UNL A   1      22.597  18.061  14.361  1.00  0.00    +0.000 H 
ATOM     92  H2  UNL A   1      22.920  16.565  13.520  1.00  0.00    +0.000 H 
ATOM     93  H3  UNL A   1      21.545  17.542  13.067  1.00  0.00    +0.000 H 
ENDBRANCH    2    1
BRANCH    2   78
ATOM    130  H40 UNL A   1      24.657  17.508   7.933  1.00  0.00    +0.000 H 
ATOM     78  C55 UNL A   1      23.620  17.486  11.137  1.00  0.00    +0.000 C 
ATOM     79  C56 UNL A   1      23.373  16.100  11.224  1.00  0.00    +0.000 C 
ATOM     80  C57 UNL A   1      23.630  15.241  10.152  1.00  0.00    +0.000 C 
ATOM     81  C58 UNL A   1      24.148  15.733   8.952  1.00  0.00    +0.000 C 
ATOM     88  C64 UNL A   1      24.317  17.115   8.824  1.00  0.00    +0.000 C 
ATOM     89  C65 UNL A   1      24.030  17.973   9.892  1.00  0.00    +0.000 C 
ATOM     90  F16 UNL A   1      24.144  19.284   9.656  1.00  0.00    +0.000 F 
ATOM    123  H33 UNL A   1      22.995  15.710  12.102  1.00  0.00    +0.000 H 
ATOM    124  H34 UNL A   1      23.435  14.232  10.248  1.00  0.00    +0.000 H 
BRANCH   81   82
ATOM     82  C59 UNL A   1      24.519  14.795   7.824  1.00  0.00    +0.000 C 
ATOM    125  H35 UNL A   1      25.117  14.003   8.225  1.00  0.00    +0.000 H 
ATOM    126  H36 UNL A   1      25.050  15.371   7.094  1.00  0.00    +0.000 H 
BRANCH   82   83
ATOM    129  H39 UNL A   1      20.891  11.874   6.201  1.00  0.00    +0.000 H 
ATOM     83  C60 UNL A   1      23.323  14.191   7.134  1.00  0.00    +0.000 C 
ATOM     84  C61 UNL A   1      22.521  14.746   6.153  1.00  0.00    +0.000 C 
ATOM     85  C62 UNL A   1      21.488  13.864   5.724  1.00  0.00    +0.000 C 
ATOM     86  C63 UNL A   1      21.544  12.653   6.377  1.00  0.00    +0.000 C 
ATOM     87  S1  UNL A   1      22.819  12.596   7.515  1.00  0.00    +0.000 S 
ATOM    127  H37 UNL A   1      22.656  15.696   5.773  1.00  0.00    +0.000 H 
ATOM    128  H38 UNL A   1      20.784  14.103   5.009  1.00  0.00    +0.000 H 
ENDBRANCH   82   83
ENDBRANCH   81   82
ENDBRANCH    2   78
ENDBRANCH    3    2
ENDBRANCH    5    3
ENDBRANCH    6    5
ENDBRANCH    7    6
ENDBRANCH    8    7
ENDBRANCH    9    8
ENDBRANCH   10    9
ENDBRANCH   11   10
ENDBRANCH   12   11
ENDBRANCH   13   12
ENDBRANCH   15   13
ENDBRANCH   19   18
BRANCH   23   24
ATOM     33  C24 UNL A   1      21.066  24.835   1.169  1.00  0.00    +0.000 C 
ATOM     34  F5  UNL A   1      20.954  25.279   2.430  1.00  0.00    +0.000 F 
ATOM     24  C19 UNL A   1      20.652  23.537   0.837  1.00  0.00    +0.000 C 
ATOM     25  C20 UNL A   1      20.787  23.124  -0.496  1.00  0.00    +0.000 C 
ATOM     26  F1  UNL A   1      20.416  21.888  -0.861  1.00  0.00    +0.000 F 
ATOM     27  C21 UNL A   1      21.339  23.970  -1.455  1.00  0.00    +0.000 C 
ATOM     28  F2  UNL A   1      21.500  23.538  -2.713  1.00  0.00    +0.000 F 
ATOM     29  C22 UNL A   1      21.737  25.251  -1.106  1.00  0.00    +0.000 C 
ATOM     30  F3  UNL A   1      22.266  26.065  -2.030  1.00  0.00    +0.000 F 
ATOM     31  C23 UNL A   1      21.595  25.687   0.203  1.00  0.00    +0.000 C 
ATOM     32  F4  UNL A   1      21.970  26.929   0.539  1.00  0.00    +0.000 F 
ENDBRANCH   23   24
BRANCH   40   41
ATOM     41  C30 UNL A   1      14.127  21.888   3.417  1.00  0.00    +0.000 C 
ATOM     42  C31 UNL A   1      13.391  21.239   2.416  1.00  0.00    +0.000 C 
ATOM     43  F6  UNL A   1      13.976  20.311   1.642  1.00  0.00    +0.000 F 
ATOM     44  C32 UNL A   1      12.058  21.565   2.184  1.00  0.00    +0.000 C 
ATOM     45  F7  UNL A   1      11.383  20.959   1.196  1.00  0.00    +0.000 F 
ATOM     46  C33 UNL A   1      11.431  22.525   2.964  1.00  0.00    +0.000 C 
ATOM     47  F8  UNL A   1      10.146  22.835   2.742  1.00  0.00    +0.000 F 
ATOM     48  C34 UNL A   1      12.137  23.170   3.967  1.00  0.00    +0.000 C 
ATOM     49  F9  UNL A   1      11.529  24.093   4.728  1.00  0.00    +0.000 F 
ATOM     50  C35 UNL A   1      13.476  22.864   4.187  1.00  0.00    +0.000 C 
ATOM     51  F10 UNL A   1      14.137  23.510   5.158  1.00  0.00    +0.000 F 
ENDBRANCH   40   41
BRANCH   55   56
ATOM     65  C44 UNL A   1      16.701  18.224   9.303  1.00  0.00    +0.000 C 
ATOM     66  F15 UNL A   1      16.784  19.548   9.501  1.00  0.00    +0.000 F 
ATOM     56  C39 UNL A   1      17.110  17.669   8.083  1.00  0.00    +0.000 C 
ATOM     57  C40 UNL A   1      17.007  16.281   7.927  1.00  0.00    +0.000 C 
ATOM     58  F11 UNL A   1      17.367  15.709   6.769  1.00  0.00    +0.000 F 
ATOM     59  C41 UNL A   1      16.501  15.478   8.948  1.00  0.00    +0.000 C 
ATOM     60  F12 UNL A   1      16.379  14.157   8.760  1.00  0.00    +0.000 F 
ATOM     61  C42 UNL A   1      16.111  16.047  10.151  1.00  0.00    +0.000 C 
ATOM     62  F13 UNL A   1      15.627  15.276  11.134  1.00  0.00    +0.000 F 
ATOM     63  C43 UNL A   1      16.216  17.419  10.331  1.00  0.00    +0.000 C 
ATOM     64  F14 UNL A   1      15.850  17.970  11.496  1.00  0.00    +0.000 F 
ENDBRANCH   55   56
TORSDOF 19
ENDMDL
MODEL 6
REMARK VINA RESULT:     -10.2     17.552     23.694
ROOT
ATOM     19  C15 UNL A   1      25.833  38.133  48.877  1.00  0.00    +0.000 C 
ATOM     20  C16 UNL A   1      27.125  38.842  48.586  1.00  0.00    +0.000 C 
ATOM     21  N3  UNL A   1      28.055  38.544  47.713  1.00  0.00    +0.000 N 
ATOM     22  C17 UNL A   1      29.010  39.546  47.821  1.00  0.00    +0.000 C 
ATOM     23  C18 UNL A   1      30.188  39.664  47.165  1.00  0.00    +0.000 C 
ATOM     35  C25 UNL A   1      30.682  38.715  46.203  1.00  0.00    +0.000 C 
ATOM     36  C26 UNL A   1      31.893  38.713  45.535  1.00  0.00    +0.000 C 
ATOM     37  C27 UNL A   1      31.918  37.608  44.676  1.00  0.00    +0.000 C 
ATOM     38  C28 UNL A   1      30.737  36.903  44.836  1.00  0.00    +0.000 C 
ATOM     39  N4  UNL A   1      29.986  37.594  45.774  1.00  0.00    +0.000 N 
ATOM     40  C29 UNL A   1      30.320  35.689  44.185  1.00  0.00    +0.000 C 
ATOM     52  C36 UNL A   1      29.147  35.048  44.407  1.00  0.00    +0.000 C 
ATOM     53  N5  UNL A   1      28.120  35.389  45.275  1.00  0.00    +0.000 N 
ATOM     54  C37 UNL A   1      27.200  34.469  45.124  1.00  0.00    +0.000 C 
ATOM     55  C38 UNL A   1      25.879  34.322  45.827  1.00  0.00    +0.000 C 
ATOM     67  C45 UNL A   1      25.534  35.212  46.777  1.00  0.00    +0.000 C 
ATOM     68  C46 UNL A   1      24.292  35.194  47.544  1.00  0.00    +0.000 C 
ATOM     69  C47 UNL A   1      24.272  36.254  48.369  1.00  0.00    +0.000 C 
ATOM     70  C48 UNL A   1      25.515  37.009  48.209  1.00  0.00    +0.000 C 
ATOM     71  N6  UNL A   1      26.206  36.313  47.249  1.00  0.00    +0.000 N 
ATOM     72  C49 UNL A   1      27.532  33.448  44.119  1.00  0.00    +0.000 C 
ATOM     73  C50 UNL A   1      28.743  33.828  43.738  1.00  0.00    +0.000 C 
ATOM     74  C51 UNL A   1      28.529  40.483  48.815  1.00  0.00    +0.000 C 
ATOM     75  C52 UNL A   1      27.398  40.062  49.362  1.00  0.00    +0.000 C 
ATOM    111  H21 UNL A   1      32.649  39.406  45.650  1.00  0.00    +0.000 H 
ATOM    112  H22 UNL A   1      32.686  37.361  44.032  1.00  0.00    +0.000 H 
ATOM    113  H23 UNL A   1      29.092  37.329  46.088  1.00  0.00    +0.000 H 
ATOM    114  H24 UNL A   1      23.551  34.482  47.466  1.00  0.00    +0.000 H 
ATOM    115  H25 UNL A   1      23.502  36.496  49.013  1.00  0.00    +0.000 H 
ATOM    116  H26 UNL A   1      27.100  36.577  46.930  1.00  0.00    +0.000 H 
ATOM    117  H27 UNL A   1      26.969  32.645  43.796  1.00  0.00    +0.000 H 
ATOM    118  H28 UNL A   1      29.324  33.321  43.052  1.00  0.00    +0.000 H 
ATOM    119  H29 UNL A   1      29.005  41.364  49.065  1.00  0.00    +0.000 H 
ATOM    120  H30 UNL A   1      26.851  40.479  50.132  1.00  0.00    +0.000 H 
ENDROOT
BRANCH   19   18
ATOM     76  C53 UNL A   1      23.899  39.619  49.408  1.00  0.00    +0.000 C 
ATOM    109  H19 UNL A   1      23.983  38.582  53.091  1.00  0.00    +0.000 H 
ATOM     77  C54 UNL A   1      22.988  40.169  50.307  1.00  0.00    +0.000 C 
ATOM     15  C11 UNL A   1      22.981  39.745  51.639  1.00  0.00    +0.000 C 
ATOM     16  C12 UNL A   1      23.961  38.860  52.098  1.00  0.00    +0.000 C 
ATOM     17  C13 UNL A   1      24.911  38.354  51.209  1.00  0.00    +0.000 C 
ATOM    110  H20 UNL A   1      25.648  37.717  51.551  1.00  0.00    +0.000 H 
ATOM     18  C14 UNL A   1      24.870  38.707  49.850  1.00  0.00    +0.000 C 
ATOM    121  H31 UNL A   1      23.860  39.885  48.411  1.00  0.00    +0.000 H 
ATOM    122  H32 UNL A   1      22.318  40.888  49.991  1.00  0.00    +0.000 H 
BRANCH   15   13
ATOM     13  C10 UNL A   1      21.960  40.233  52.593  1.00  0.00    +0.000 C 
ATOM     14  O2  UNL A   1      21.441  41.331  52.414  1.00  0.00    +0.000 O 
BRANCH   13   12
ATOM    108  H18 UNL A   1      22.009  39.749  54.535  1.00  0.00    +0.000 H 
ATOM     12  N2  UNL A   1      21.611  39.471  53.678  1.00  0.00    +0.000 N 
BRANCH   12   11
ATOM    106  H16 UNL A   1      21.320  37.432  53.556  1.00  0.00    +0.000 H 
ATOM     11  C9  UNL A   1      20.739  38.310  53.745  1.00  0.00    +0.000 C 
ATOM    107  H17 UNL A   1      20.301  38.287  54.722  1.00  0.00    +0.000 H 
BRANCH   11   10
ATOM    105  H15 UNL A   1      19.790  39.240  52.126  1.00  0.00    +0.000 H 
ATOM     10  C8  UNL A   1      19.604  38.374  52.727  1.00  0.00    +0.000 C 
ATOM    104  H14 UNL A   1      18.679  38.419  53.263  1.00  0.00    +0.000 H 
BRANCH   10    9
ATOM      9  C7  UNL A   1      19.535  37.189  51.761  1.00  0.00    +0.000 C 
ATOM    102  H12 UNL A   1      18.993  36.401  52.241  1.00  0.00    +0.000 H 
ATOM    103  H13 UNL A   1      19.061  37.556  50.874  1.00  0.00    +0.000 H 
BRANCH    9    8
ATOM    100  H10 UNL A   1      21.648  37.082  51.923  1.00  0.00    +0.000 H 
ATOM    101  H11 UNL A   1      20.823  35.569  51.433  1.00  0.00    +0.000 H 
ATOM      8  C6  UNL A   1      20.890  36.631  51.318  1.00  0.00    +0.000 C 
BRANCH    8    7
ATOM     98  H8  UNL A   1      22.208  37.350  49.812  1.00  0.00    +0.000 H 
ATOM     99  H9  UNL A   1      21.239  35.915  49.371  1.00  0.00    +0.000 H 
ATOM      7  C5  UNL A   1      21.251  36.873  49.846  1.00  0.00    +0.000 C 
BRANCH    7    6
ATOM     97  H7  UNL A   1      20.119  38.662  49.619  1.00  0.00    +0.000 H 
ATOM      6  C4  UNL A   1      20.253  37.751  49.075  1.00  0.00    +0.000 C 
ATOM     96  H6  UNL A   1      19.326  37.222  48.981  1.00  0.00    +0.000 H 
BRANCH    6    5
ATOM      5  N1  UNL A   1      20.744  38.081  47.747  1.00  0.00    +0.000 N 
ATOM     95  H5  UNL A   1      21.362  38.842  47.650  1.00  0.00    +0.000 H 
BRANCH    5    3
ATOM      3  C3  UNL A   1      20.383  37.377  46.620  1.00  0.00    +0.000 C 
ATOM      4  O1  UNL A   1      19.343  37.709  46.054  1.00  0.00    +0.000 O 
BRANCH    3    2
ATOM      2  C2  UNL A   1      21.346  36.302  46.109  1.00  0.00    +0.000 C 
ATOM     94  H4  UNL A   1      21.960  36.042  46.946  1.00  0.00    +0.000 H 
BRANCH    2    1
ATOM      1  C1  UNL A   1      22.123  36.916  44.931  1.00  0.00    +0.000 C 
ATOM     91  H1  UNL A   1      22.678  36.149  44.433  1.00  0.00    +0.000 H 
ATOM     92  H2  UNL A   1      22.795  37.662  45.298  1.00  0.00    +0.000 H 
ATOM     93  H3  UNL A   1      21.435  37.361  44.244  1.00  0.00    +0.000 H 
ENDBRANCH    2    1
BRANCH    2   78
ATOM    130  H40 UNL A   1      19.904  31.875  46.779  1.00  0.00    +0.000 H 
ATOM     78  C55 UNL A   1      20.757  34.951  45.706  1.00  0.00    +0.000 C 
ATOM     79  C56 UNL A   1      20.248  34.820  44.398  1.00  0.00    +0.000 C 
ATOM     80  C57 UNL A   1      19.589  33.661  43.980  1.00  0.00    +0.000 C 
ATOM     81  C58 UNL A   1      19.410  32.587  44.856  1.00  0.00    +0.000 C 
ATOM     88  C64 UNL A   1      19.985  32.672  46.128  1.00  0.00    +0.000 C 
ATOM     89  C65 UNL A   1      20.668  33.825  46.530  1.00  0.00    +0.000 C 
ATOM     90  F16 UNL A   1      21.253  33.787  47.732  1.00  0.00    +0.000 F 
ATOM    123  H33 UNL A   1      20.363  35.601  43.732  1.00  0.00    +0.000 H 
ATOM    124  H34 UNL A   1      19.232  33.596  43.014  1.00  0.00    +0.000 H 
BRANCH   81   82
ATOM     82  C59 UNL A   1      18.613  31.371  44.439  1.00  0.00    +0.000 C 
ATOM    125  H35 UNL A   1      18.251  30.884  45.321  1.00  0.00    +0.000 H 
ATOM    126  H36 UNL A   1      19.268  30.742  43.872  1.00  0.00    +0.000 H 
BRANCH   82   83
ATOM    129  H39 UNL A   1      14.223  32.633  42.580  1.00  0.00    +0.000 H 
ATOM     83  C60 UNL A   1      17.437  31.702  43.557  1.00  0.00    +0.000 C 
ATOM     84  C61 UNL A   1      17.344  31.630  42.179  1.00  0.00    +0.000 C 
ATOM     85  C62 UNL A   1      16.059  32.009  41.695  1.00  0.00    +0.000 C 
ATOM     86  C63 UNL A   1      15.203  32.342  42.720  1.00  0.00    +0.000 C 
ATOM     87  S1  UNL A   1      15.955  32.220  44.250  1.00  0.00    +0.000 S 
ATOM    127  H37 UNL A   1      18.121  31.333  41.568  1.00  0.00    +0.000 H 
ATOM    128  H38 UNL A   1      15.801  32.030  40.696  1.00  0.00    +0.000 H 
ENDBRANCH   82   83
ENDBRANCH   81   82
ENDBRANCH    2   78
ENDBRANCH    3    2
ENDBRANCH    5    3
ENDBRANCH    6    5
ENDBRANCH    7    6
ENDBRANCH    8    7
ENDBRANCH    9    8
ENDBRANCH   10    9
ENDBRANCH   11   10
ENDBRANCH   12   11
ENDBRANCH   13   12
ENDBRANCH   15   13
ENDBRANCH   19   18
BRANCH   23   24
ATOM     33  C24 UNL A   1      30.857  42.060  46.755  1.00  0.00    +0.000 C 
ATOM     34  F5  UNL A   1      29.914  42.146  45.806  1.00  0.00    +0.000 F 
ATOM     24  C19 UNL A   1      31.032  40.866  47.472  1.00  0.00    +0.000 C 
ATOM     25  C20 UNL A   1      32.035  40.828  48.450  1.00  0.00    +0.000 C 
ATOM     26  F1  UNL A   1      32.233  39.713  49.170  1.00  0.00    +0.000 F 
ATOM     27  C21 UNL A   1      32.816  41.949  48.720  1.00  0.00    +0.000 C 
ATOM     28  F2  UNL A   1      33.739  41.902  49.690  1.00  0.00    +0.000 F 
ATOM     29  C22 UNL A   1      32.630  43.116  47.996  1.00  0.00    +0.000 C 
ATOM     30  F3  UNL A   1      33.385  44.193  48.254  1.00  0.00    +0.000 F 
ATOM     31  C23 UNL A   1      31.656  43.171  47.010  1.00  0.00    +0.000 C 
ATOM     32  F4  UNL A   1      31.483  44.296  46.303  1.00  0.00    +0.000 F 
ENDBRANCH   23   24
BRANCH   40   41
ATOM     41  C30 UNL A   1      31.261  35.070  43.195  1.00  0.00    +0.000 C 
ATOM     42  C31 UNL A   1      31.359  35.547  41.880  1.00  0.00    +0.000 C 
ATOM     43  F6  UNL A   1      30.565  36.546  41.464  1.00  0.00    +0.000 F 
ATOM     44  C32 UNL A   1      32.251  34.976  40.977  1.00  0.00    +0.000 C 
ATOM     45  F7  UNL A   1      32.301  35.422  39.714  1.00  0.00    +0.000 F 
ATOM     46  C33 UNL A   1      33.078  33.937  41.378  1.00  0.00    +0.000 C 
ATOM     47  F8  UNL A   1      33.940  33.392  40.509  1.00  0.00    +0.000 F 
ATOM     48  C34 UNL A   1      33.007  33.459  42.677  1.00  0.00    +0.000 C 
ATOM     49  F9  UNL A   1      33.812  32.461  43.070  1.00  0.00    +0.000 F 
ATOM     50  C35 UNL A   1      32.100  34.012  43.577  1.00  0.00    +0.000 C 
ATOM     51  F10 UNL A   1      32.046  33.523  44.824  1.00  0.00    +0.000 F 
ENDBRANCH   40   41
BRANCH   55   56
ATOM     65  C44 UNL A   1      24.030  33.285  44.471  1.00  0.00    +0.000 C 
ATOM     66  F15 UNL A   1      23.940  34.406  43.741  1.00  0.00    +0.000 F 
ATOM     56  C39 UNL A   1      24.968  33.195  45.508  1.00  0.00    +0.000 C 
ATOM     57  C40 UNL A   1      25.020  32.004  46.244  1.00  0.00    +0.000 C 
ATOM     58  F11 UNL A   1      25.917  31.866  47.231  1.00  0.00    +0.000 F 
ATOM     59  C41 UNL A   1      24.175  30.936  45.945  1.00  0.00    +0.000 C 
ATOM     60  F12 UNL A   1      24.269  29.796  46.641  1.00  0.00    +0.000 F 
ATOM     61  C42 UNL A   1      23.247  31.050  44.921  1.00  0.00    +0.000 C 
ATOM     62  F13 UNL A   1      22.432  30.026  44.635  1.00  0.00    +0.000 F 
ATOM     63  C43 UNL A   1      23.170  32.226  44.187  1.00  0.00    +0.000 C 
ATOM     64  F14 UNL A   1      22.267  32.342  43.204  1.00  0.00    +0.000 F 
ENDBRANCH   55   56
TORSDOF 19
ENDMDL
MODEL 7
REMARK VINA RESULT:     -10.1     26.156     34.134
ROOT
ATOM     19  C15 UNL A   1      21.862  16.106   8.699  1.00  0.00    +0.000 C 
ATOM     20  C16 UNL A   1      20.568  16.711   8.235  1.00  0.00    +0.000 C 
ATOM     21  N3  UNL A   1      19.581  16.154   7.579  1.00  0.00    +0.000 N 
ATOM     22  C17 UNL A   1      18.612  17.140   7.445  1.00  0.00    +0.000 C 
ATOM     23  C18 UNL A   1      17.424  17.074   6.800  1.00  0.00    +0.000 C 
ATOM     35  C25 UNL A   1      16.945  15.915   6.095  1.00  0.00    +0.000 C 
ATOM     36  C26 UNL A   1      15.784  15.773   5.355  1.00  0.00    +0.000 C 
ATOM     37  C27 UNL A   1      15.725  14.457   4.882  1.00  0.00    +0.000 C 
ATOM     38  C28 UNL A   1      16.866  13.791   5.297  1.00  0.00    +0.000 C 
ATOM     39  N4  UNL A   1      17.604  14.696   6.044  1.00  0.00    +0.000 N 
ATOM     40  C29 UNL A   1      17.257  12.431   5.035  1.00  0.00    +0.000 C 
ATOM     52  C36 UNL A   1      18.404  11.853   5.468  1.00  0.00    +0.000 C 
ATOM     53  N5  UNL A   1      19.426  12.406   6.227  1.00  0.00    +0.000 N 
ATOM     54  C37 UNL A   1      20.307  11.452   6.395  1.00  0.00    +0.000 C 
ATOM     55  C38 UNL A   1      21.625  11.494   7.117  1.00  0.00    +0.000 C 
ATOM     67  C45 UNL A   1      22.035  12.647   7.677  1.00  0.00    +0.000 C 
ATOM     68  C46 UNL A   1      23.287  12.839   8.403  1.00  0.00    +0.000 C 
ATOM     69  C47 UNL A   1      23.343  14.103   8.854  1.00  0.00    +0.000 C 
ATOM     70  C48 UNL A   1      22.142  14.818   8.422  1.00  0.00    +0.000 C 
ATOM     71  N6  UNL A   1      21.427  13.878   7.724  1.00  0.00    +0.000 N 
ATOM     72  C49 UNL A   1      19.930  10.171   5.779  1.00  0.00    +0.000 C 
ATOM     73  C50 UNL A   1      18.779  10.480   5.198  1.00  0.00    +0.000 C 
ATOM     74  C51 UNL A   1      19.111  18.318   8.125  1.00  0.00    +0.000 C 
ATOM     75  C52 UNL A   1      20.341  18.124   8.577  1.00  0.00    +0.000 C 
ATOM    111  H21 UNL A   1      15.083  16.510   5.181  1.00  0.00    +0.000 H 
ATOM    112  H22 UNL A   1      14.961  14.052   4.318  1.00  0.00    +0.000 H 
ATOM    113  H23 UNL A   1      18.468  14.502   6.473  1.00  0.00    +0.000 H 
ATOM    114  H24 UNL A   1      24.013  12.120   8.545  1.00  0.00    +0.000 H 
ATOM    115  H25 UNL A   1      24.110  14.504   9.416  1.00  0.00    +0.000 H 
ATOM    116  H26 UNL A   1      20.561  14.068   7.296  1.00  0.00    +0.000 H 
ATOM    117  H27 UNL A   1      20.431   9.269   5.794  1.00  0.00    +0.000 H 
ATOM    118  H28 UNL A   1      18.221   9.826   4.628  1.00  0.00    +0.000 H 
ATOM    119  H29 UNL A   1      18.578  19.193   8.241  1.00  0.00    +0.000 H 
ATOM    120  H30 UNL A   1      20.975  18.790   9.046  1.00  0.00    +0.000 H 
ENDROOT
BRANCH   19   18
ATOM     76  C53 UNL A   1      22.666  16.910  10.921  1.00  0.00    +0.000 C 
ATOM    109  H19 UNL A   1      25.517  18.876   9.291  1.00  0.00    +0.000 H 
ATOM     77  C54 UNL A   1      23.541  17.651  11.712  1.00  0.00    +0.000 C 
ATOM     15  C11 UNL A   1      24.617  18.321  11.120  1.00  0.00    +0.000 C 
ATOM     16  C12 UNL A   1      24.748  18.344   9.729  1.00  0.00    +0.000 C 
ATOM     17  C13 UNL A   1      23.837  17.648   8.933  1.00  0.00    +0.000 C 
ATOM    110  H20 UNL A   1      23.920  17.682   7.905  1.00  0.00    +0.000 H 
ATOM     18  C14 UNL A   1      22.805  16.901   9.525  1.00  0.00    +0.000 C 
ATOM    121  H31 UNL A   1      21.912  16.363  11.365  1.00  0.00    +0.000 H 
ATOM    122  H32 UNL A   1      23.396  17.707  12.732  1.00  0.00    +0.000 H 
BRANCH   15   13
ATOM     13  C10 UNL A   1      25.621  19.031  11.943  1.00  0.00    +0.000 C 
ATOM     14  O2  UNL A   1      25.831  18.663  13.095  1.00  0.00    +0.000 O 
BRANCH   13   12
ATOM    108  H18 UNL A   1      25.739  20.878  11.177  1.00  0.00    +0.000 H 
ATOM     12  N2  UNL A   1      26.299  20.106  11.426  1.00  0.00    +0.000 N 
BRANCH   12   11
ATOM    106  H16 UNL A   1      28.002  21.271  11.445  1.00  0.00    +0.000 H 
ATOM     11  C9  UNL A   1      27.724  20.269  11.191  1.00  0.00    +0.000 C 
ATOM    107  H17 UNL A   1      28.239  19.554  11.799  1.00  0.00    +0.000 H 
BRANCH   11   10
ATOM    105  H15 UNL A   1      28.986  20.592   9.551  1.00  0.00    +0.000 H 
ATOM     10  C8  UNL A   1      28.109  20.007   9.738  1.00  0.00    +0.000 C 
ATOM    104  H14 UNL A   1      27.279  20.278   9.120  1.00  0.00    +0.000 H 
BRANCH   10    9
ATOM      9  C7  UNL A   1      28.486  18.559   9.419  1.00  0.00    +0.000 C 
ATOM    102  H12 UNL A   1      29.547  18.463   9.525  1.00  0.00    +0.000 H 
ATOM    103  H13 UNL A   1      27.931  17.950  10.102  1.00  0.00    +0.000 H 
BRANCH    9    8
ATOM    100  H10 UNL A   1      28.269  17.023   7.971  1.00  0.00    +0.000 H 
ATOM    101  H11 UNL A   1      27.083  18.363   7.875  1.00  0.00    +0.000 H 
ATOM      8  C6  UNL A   1      28.105  18.080   8.016  1.00  0.00    +0.000 C 
BRANCH    8    7
ATOM     98  H8  UNL A   1      28.955  19.780   7.061  1.00  0.00    +0.000 H 
ATOM     99  H9  UNL A   1      29.838  18.243   6.835  1.00  0.00    +0.000 H 
ATOM      7  C5  UNL A   1      28.886  18.730   6.866  1.00  0.00    +0.000 C 
BRANCH    7    6
ATOM     97  H7  UNL A   1      29.045  18.542   4.752  1.00  0.00    +0.000 H 
ATOM      6  C4  UNL A   1      28.258  18.543   5.476  1.00  0.00    +0.000 C 
ATOM     96  H6  UNL A   1      27.573  19.346   5.295  1.00  0.00    +0.000 H 
BRANCH    6    5
ATOM      5  N1  UNL A   1      27.544  17.281   5.376  1.00  0.00    +0.000 N 
ATOM     95  H5  UNL A   1      28.038  16.447   5.547  1.00  0.00    +0.000 H 
BRANCH    5    3
ATOM      3  C3  UNL A   1      26.208  17.202   5.052  1.00  0.00    +0.000 C 
ATOM      4  O1  UNL A   1      25.861  17.663   3.966  1.00  0.00    +0.000 O 
BRANCH    3    2
ATOM      2  C2  UNL A   1      25.279  16.466   6.022  1.00  0.00    +0.000 C 
ATOM     94  H4  UNL A   1      24.916  17.213   6.697  1.00  0.00    +0.000 H 
BRANCH    2    1
ATOM      1  C1  UNL A   1      26.113  15.365   6.698  1.00  0.00    +0.000 C 
ATOM     91  H1  UNL A   1      26.543  14.733   5.950  1.00  0.00    +0.000 H 
ATOM     92  H2  UNL A   1      25.483  14.783   7.337  1.00  0.00    +0.000 H 
ATOM     93  H3  UNL A   1      26.893  15.813   7.277  1.00  0.00    +0.000 H 
ENDBRANCH    2    1
BRANCH    2   78
ATOM    130  H40 UNL A   1      20.825  16.552   4.510  1.00  0.00    +0.000 H 
ATOM     78  C55 UNL A   1      23.985  15.879   5.461  1.00  0.00    +0.000 C 
ATOM     79  C56 UNL A   1      23.997  14.528   5.060  1.00  0.00    +0.000 C 
ATOM     80  C57 UNL A   1      22.896  13.939   4.432  1.00  0.00    +0.000 C 
ATOM     81  C58 UNL A   1      21.740  14.681   4.177  1.00  0.00    +0.000 C 
ATOM     88  C64 UNL A   1      21.684  15.997   4.647  1.00  0.00    +0.000 C 
ATOM     89  C65 UNL A   1      22.780  16.570   5.301  1.00  0.00    +0.000 C 
ATOM     90  F16 UNL A   1      22.611  17.805   5.786  1.00  0.00    +0.000 F 
ATOM    123  H33 UNL A   1      24.841  13.958   5.232  1.00  0.00    +0.000 H 
ATOM    124  H34 UNL A   1      22.936  12.946   4.153  1.00  0.00    +0.000 H 
BRANCH   81   82
ATOM     82  C59 UNL A   1      20.583  14.077   3.411  1.00  0.00    +0.000 C 
ATOM    125  H35 UNL A   1      20.066  14.864   2.901  1.00  0.00    +0.000 H 
ATOM    126  H36 UNL A   1      19.958  13.579   4.123  1.00  0.00    +0.000 H 
BRANCH   82   83
ATOM    129  H39 UNL A   1      22.235  11.661  -0.558  1.00  0.00    +0.000 H 
ATOM     83  C60 UNL A   1      21.013  13.049   2.397  1.00  0.00    +0.000 C 
ATOM     84  C61 UNL A   1      20.926  11.671   2.474  1.00  0.00    +0.000 C 
ATOM     85  C62 UNL A   1      21.420  11.023   1.306  1.00  0.00    +0.000 C 
ATOM     86  C63 UNL A   1      21.853  11.927   0.362  1.00  0.00    +0.000 C 
ATOM     87  S1  UNL A   1      21.684  13.542   0.897  1.00  0.00    +0.000 S 
ATOM    127  H37 UNL A   1      20.545  11.167   3.289  1.00  0.00    +0.000 H 
ATOM    128  H38 UNL A   1      21.450   9.999   1.181  1.00  0.00    +0.000 H 
ENDBRANCH   82   83
ENDBRANCH   81   82
ENDBRANCH    2   78
ENDBRANCH    3    2
ENDBRANCH    5    3
ENDBRANCH    6    5
ENDBRANCH    7    6
ENDBRANCH    8    7
ENDBRANCH    9    8
ENDBRANCH   10    9
ENDBRANCH   11   10
ENDBRANCH   12   11
ENDBRANCH   13   12
ENDBRANCH   15   13
ENDBRANCH   19   18
BRANCH   23   24
ATOM     33  C24 UNL A   1      16.699  19.289   5.838  1.00  0.00    +0.000 C 
ATOM     34  F5  UNL A   1      17.594  19.137   4.850  1.00  0.00    +0.000 F 
ATOM     24  C19 UNL A   1      16.558  18.299   6.822  1.00  0.00    +0.000 C 
ATOM     25  C20 UNL A   1      15.611  18.509   7.834  1.00  0.00    +0.000 C 
ATOM     26  F1  UNL A   1      15.430  17.586   8.791  1.00  0.00    +0.000 F 
ATOM     27  C21 UNL A   1      14.818  19.654   7.847  1.00  0.00    +0.000 C 
ATOM     28  F2  UNL A   1      13.889  19.812   8.800  1.00  0.00    +0.000 F 
ATOM     29  C22 UNL A   1      14.978  20.621   6.868  1.00  0.00    +0.000 C 
ATOM     30  F3  UNL A   1      14.217  21.724   6.883  1.00  0.00    +0.000 F 
ATOM     31  C23 UNL A   1      15.922  20.444   5.867  1.00  0.00    +0.000 C 
ATOM     32  F4  UNL A   1      16.085  21.384   4.927  1.00  0.00    +0.000 F 
ENDBRANCH   23   24
BRANCH   40   41
ATOM     41  C30 UNL A   1      16.338  11.588   4.203  1.00  0.00    +0.000 C 
ATOM     42  C31 UNL A   1      16.434  11.560   2.805  1.00  0.00    +0.000 C 
ATOM     43  F6  UNL A   1      17.329  12.335   2.174  1.00  0.00    +0.000 F 
ATOM     44  C32 UNL A   1      15.586  10.757   2.047  1.00  0.00    +0.000 C 
ATOM     45  F7  UNL A   1      15.669  10.774   0.709  1.00  0.00    +0.000 F 
ATOM     46  C33 UNL A   1      14.647   9.951   2.672  1.00  0.00    +0.000 C 
ATOM     47  F8  UNL A   1      13.835   9.176   1.940  1.00  0.00    +0.000 F 
ATOM     48  C34 UNL A   1      14.543   9.954   4.055  1.00  0.00    +0.000 C 
ATOM     49  F9  UNL A   1      13.642   9.168   4.661  1.00  0.00    +0.000 F 
ATOM     50  C35 UNL A   1      15.373  10.772   4.815  1.00  0.00    +0.000 C 
ATOM     51  F10 UNL A   1      15.245  10.762   6.150  1.00  0.00    +0.000 F 
ENDBRANCH   40   41
BRANCH   55   56
ATOM     65  C44 UNL A   1      22.438   9.423   8.296  1.00  0.00    +0.000 C 
ATOM     66  F15 UNL A   1      21.597   9.674   9.310  1.00  0.00    +0.000 F 
ATOM     56  C39 UNL A   1      22.489  10.289   7.195  1.00  0.00    +0.000 C 
ATOM     57  C40 UNL A   1      23.387   9.986   6.163  1.00  0.00    +0.000 C 
ATOM     58  F11 UNL A   1      23.454  10.775   5.081  1.00  0.00    +0.000 F 
ATOM     59  C41 UNL A   1      24.195   8.852   6.223  1.00  0.00    +0.000 C 
ATOM     60  F12 UNL A   1      25.019   8.566   5.207  1.00  0.00    +0.000 F 
ATOM     61  C42 UNL A   1      24.135   8.014   7.327  1.00  0.00    +0.000 C 
ATOM     62  F13 UNL A   1      24.915   6.926   7.386  1.00  0.00    +0.000 F 
ATOM     63  C43 UNL A   1      23.262   8.302   8.365  1.00  0.00    +0.000 C 
ATOM     64  F14 UNL A   1      23.211   7.500   9.438  1.00  0.00    +0.000 F 
ENDBRANCH   55   56
TORSDOF 19
ENDMDL
MODEL 8
REMARK VINA RESULT:     -10.1      2.093      3.904
ROOT
ATOM     19  C15 UNL A   1      38.105  30.209  30.102  1.00  0.00    +0.000 C 
ATOM     20  C16 UNL A   1      38.382  30.654  31.510  1.00  0.00    +0.000 C 
ATOM     21  N3  UNL A   1      39.402  30.375  32.282  1.00  0.00    +0.000 N 
ATOM     22  C17 UNL A   1      39.188  31.077  33.460  1.00  0.00    +0.000 C 
ATOM     23  C18 UNL A   1      39.936  31.079  34.589  1.00  0.00    +0.000 C 
ATOM     35  C25 UNL A   1      41.135  30.306  34.772  1.00  0.00    +0.000 C 
ATOM     36  C26 UNL A   1      41.925  30.192  35.902  1.00  0.00    +0.000 C 
ATOM     37  C27 UNL A   1      43.004  29.353  35.599  1.00  0.00    +0.000 C 
ATOM     38  C28 UNL A   1      42.866  28.918  34.292  1.00  0.00    +0.000 C 
ATOM     39  N4  UNL A   1      41.717  29.512  33.795  1.00  0.00    +0.000 N 
ATOM     40  C29 UNL A   1      43.716  28.025  33.548  1.00  0.00    +0.000 C 
ATOM     52  C36 UNL A   1      43.505  27.634  32.268  1.00  0.00    +0.000 C 
ATOM     53  N5  UNL A   1      42.468  27.978  31.412  1.00  0.00    +0.000 N 
ATOM     54  C37 UNL A   1      42.710  27.356  30.285  1.00  0.00    +0.000 C 
ATOM     55  C38 UNL A   1      41.906  27.347  29.014  1.00  0.00    +0.000 C 
ATOM     67  C45 UNL A   1      40.749  28.034  28.960  1.00  0.00    +0.000 C 
ATOM     68  C46 UNL A   1      39.864  28.112  27.801  1.00  0.00    +0.000 C 
ATOM     69  C47 UNL A   1      38.829  28.915  28.095  1.00  0.00    +0.000 C 
ATOM     70  C48 UNL A   1      38.963  29.383  29.475  1.00  0.00    +0.000 C 
ATOM     71  N6  UNL A   1      40.128  28.804  29.912  1.00  0.00    +0.000 N 
ATOM     72  C49 UNL A   1      43.948  26.562  30.291  1.00  0.00    +0.000 C 
ATOM     73  C50 UNL A   1      44.375  26.738  31.534  1.00  0.00    +0.000 C 
ATOM     74  C51 UNL A   1      37.962  31.828  33.289  1.00  0.00    +0.000 C 
ATOM     75  C52 UNL A   1      37.393  31.555  32.124  1.00  0.00    +0.000 C 
ATOM    111  H21 UNL A   1      41.749  30.646  36.812  1.00  0.00    +0.000 H 
ATOM    112  H22 UNL A   1      43.772  29.102  36.241  1.00  0.00    +0.000 H 
ATOM    113  H23 UNL A   1      41.366  29.389  32.884  1.00  0.00    +0.000 H 
ATOM    114  H24 UNL A   1      40.010  27.628  26.902  1.00  0.00    +0.000 H 
ATOM    115  H25 UNL A   1      38.062  29.162  27.450  1.00  0.00    +0.000 H 
ATOM    116  H26 UNL A   1      40.483  28.928  30.822  1.00  0.00    +0.000 H 
ATOM    117  H27 UNL A   1      44.372  26.012  29.528  1.00  0.00    +0.000 H 
ATOM    118  H28 UNL A   1      45.219  26.295  31.927  1.00  0.00    +0.000 H 
ATOM    119  H29 UNL A   1      37.581  32.489  33.983  1.00  0.00    +0.000 H 
ATOM    120  H30 UNL A   1      36.491  31.885  31.746  1.00  0.00    +0.000 H 
ENDROOT
BRANCH   19   18
ATOM     76  C53 UNL A   1      35.782  29.928  29.231  1.00  0.00    +0.000 C 
ATOM    109  H19 UNL A   1      35.782  33.476  27.798  1.00  0.00    +0.000 H 
ATOM     77  C54 UNL A   1      34.664  30.402  28.549  1.00  0.00    +0.000 C 
ATOM     15  C11 UNL A   1      34.643  31.718  28.077  1.00  0.00    +0.000 C 
ATOM     16  C12 UNL A   1      35.783  32.520  28.186  1.00  0.00    +0.000 C 
ATOM     17  C13 UNL A   1      36.924  32.024  28.819  1.00  0.00    +0.000 C 
ATOM    110  H20 UNL A   1      37.773  32.607  28.880  1.00  0.00    +0.000 H 
ATOM     18  C14 UNL A   1      36.923  30.733  29.373  1.00  0.00    +0.000 C 
ATOM    121  H31 UNL A   1      35.772  28.978  29.636  1.00  0.00    +0.000 H 
ATOM    122  H32 UNL A   1      33.853  29.784  28.391  1.00  0.00    +0.000 H 
BRANCH   15   13
ATOM     13  C10 UNL A   1      33.433  32.283  27.440  1.00  0.00    +0.000 C 
ATOM     14  O2  UNL A   1      33.286  33.501  27.390  1.00  0.00    +0.000 O 
BRANCH   13   12
ATOM    108  H18 UNL A   1      31.546  31.771  27.009  1.00  0.00    +0.000 H 
ATOM     12  N2  UNL A   1      32.473  31.449  26.926  1.00  0.00    +0.000 N 
BRANCH   12   11
ATOM    106  H16 UNL A   1      32.334  30.251  25.252  1.00  0.00    +0.000 H 
ATOM     11  C9  UNL A   1      32.628  30.157  26.277  1.00  0.00    +0.000 C 
ATOM    107  H17 UNL A   1      33.655  29.869  26.365  1.00  0.00    +0.000 H 
BRANCH   11   10
ATOM    105  H15 UNL A   1      30.925  28.938  26.302  1.00  0.00    +0.000 H 
ATOM     10  C8  UNL A   1      31.781  29.070  26.932  1.00  0.00    +0.000 C 
ATOM    104  H14 UNL A   1      31.534  29.393  27.922  1.00  0.00    +0.000 H 
BRANCH   10    9
ATOM      9  C7  UNL A   1      32.453  27.699  27.032  1.00  0.00    +0.000 C 
ATOM    102  H12 UNL A   1      32.589  27.473  28.070  1.00  0.00    +0.000 H 
ATOM    103  H13 UNL A   1      31.807  27.013  26.526  1.00  0.00    +0.000 H 
BRANCH    9    8
ATOM    100  H10 UNL A   1      34.118  28.574  26.050  1.00  0.00    +0.000 H 
ATOM    101  H11 UNL A   1      34.470  27.130  27.052  1.00  0.00    +0.000 H 
ATOM      8  C6  UNL A   1      33.815  27.590  26.342  1.00  0.00    +0.000 C 
BRANCH    8    7
ATOM     98  H8  UNL A   1      34.850  26.340  24.967  1.00  0.00    +0.000 H 
ATOM     99  H9  UNL A   1      33.141  25.911  25.268  1.00  0.00    +0.000 H 
ATOM      7  C5  UNL A   1      33.849  26.695  25.096  1.00  0.00    +0.000 C 
BRANCH    7    6
ATOM     97  H7  UNL A   1      33.781  26.808  22.971  1.00  0.00    +0.000 H 
ATOM      6  C4  UNL A   1      33.419  27.388  23.794  1.00  0.00    +0.000 C 
ATOM     96  H6  UNL A   1      33.830  28.377  23.775  1.00  0.00    +0.000 H 
BRANCH    6    5
ATOM      5  N1  UNL A   1      31.972  27.476  23.687  1.00  0.00    +0.000 N 
ATOM     95  H5  UNL A   1      31.501  28.152  24.227  1.00  0.00    +0.000 H 
BRANCH    5    3
ATOM      3  C3  UNL A   1      31.232  26.656  22.865  1.00  0.00    +0.000 C 
ATOM      4  O1  UNL A   1      31.097  27.001  21.692  1.00  0.00    +0.000 O 
BRANCH    3    2
ATOM      2  C2  UNL A   1      30.714  25.338  23.448  1.00  0.00    +0.000 C 
ATOM     94  H4  UNL A   1      30.066  24.926  22.702  1.00  0.00    +0.000 H 
BRANCH    2    1
ATOM      1  C1  UNL A   1      30.006  25.678  24.771  1.00  0.00    +0.000 C 
ATOM     91  H1  UNL A   1      30.324  24.994  25.531  1.00  0.00    +0.000 H 
ATOM     92  H2  UNL A   1      28.948  25.597  24.640  1.00  0.00    +0.000 H 
ATOM     93  H3  UNL A   1      30.255  26.676  25.063  1.00  0.00    +0.000 H 
ENDBRANCH    2    1
BRANCH    2   78
ATOM    130  H40 UNL A   1      34.458  22.675  22.440  1.00  0.00    +0.000 H 
ATOM     78  C55 UNL A   1      31.721  24.210  23.662  1.00  0.00    +0.000 C 
ATOM     79  C56 UNL A   1      31.638  23.475  24.862  1.00  0.00    +0.000 C 
ATOM     80  C57 UNL A   1      32.586  22.502  25.194  1.00  0.00    +0.000 C 
ATOM     81  C58 UNL A   1      33.656  22.230  24.339  1.00  0.00    +0.000 C 
ATOM     88  C64 UNL A   1      33.702  22.891  23.108  1.00  0.00    +0.000 C 
ATOM     89  C65 UNL A   1      32.733  23.842  22.770  1.00  0.00    +0.000 C 
ATOM     90  F16 UNL A   1      32.809  24.366  21.542  1.00  0.00    +0.000 F 
ATOM    123  H33 UNL A   1      30.859  23.660  25.514  1.00  0.00    +0.000 H 
ATOM    124  H34 UNL A   1      32.494  21.980  26.079  1.00  0.00    +0.000 H 
BRANCH   81   82
ATOM     82  C59 UNL A   1      34.738  21.249  24.738  1.00  0.00    +0.000 C 
ATOM    125  H35 UNL A   1      34.959  20.626  23.896  1.00  0.00    +0.000 H 
ATOM    126  H36 UNL A   1      34.364  20.686  25.568  1.00  0.00    +0.000 H 
BRANCH   82   83
ATOM    129  H39 UNL A   1      39.386  22.406  25.913  1.00  0.00    +0.000 H 
ATOM     83  C60 UNL A   1      36.011  21.917  25.189  1.00  0.00    +0.000 C 
ATOM     84  C61 UNL A   1      36.177  23.169  25.754  1.00  0.00    +0.000 C 
ATOM     85  C62 UNL A   1      37.536  23.454  26.069  1.00  0.00    +0.000 C 
ATOM     86  C63 UNL A   1      38.367  22.403  25.752  1.00  0.00    +0.000 C 
ATOM     87  S1  UNL A   1      37.512  21.096  25.058  1.00  0.00    +0.000 S 
ATOM    127  H37 UNL A   1      35.399  23.824  25.928  1.00  0.00    +0.000 H 
ATOM    128  H38 UNL A   1      37.859  24.341  26.486  1.00  0.00    +0.000 H 
ENDBRANCH   82   83
ENDBRANCH   81   82
ENDBRANCH    2   78
ENDBRANCH    3    2
ENDBRANCH    5    3
ENDBRANCH    6    5
ENDBRANCH    7    6
ENDBRANCH    8    7
ENDBRANCH    9    8
ENDBRANCH   10    9
ENDBRANCH   11   10
ENDBRANCH   12   11
ENDBRANCH   13   12
ENDBRANCH   15   13
ENDBRANCH   19   18
BRANCH   23   24
ATOM     33  C24 UNL A   1      40.022  33.224  35.912  1.00  0.00    +0.000 C 
ATOM     34  F5  UNL A   1      40.950  33.693  35.065  1.00  0.00    +0.000 F 
ATOM     24  C19 UNL A   1      39.472  31.947  35.722  1.00  0.00    +0.000 C 
ATOM     25  C20 UNL A   1      38.509  31.503  36.639  1.00  0.00    +0.000 C 
ATOM     26  F1  UNL A   1      37.945  30.294  36.493  1.00  0.00    +0.000 F 
ATOM     27  C21 UNL A   1      38.093  32.315  37.691  1.00  0.00    +0.000 C 
ATOM     28  F2  UNL A   1      37.139  31.887  38.528  1.00  0.00    +0.000 F 
ATOM     29  C22 UNL A   1      38.654  33.571  37.863  1.00  0.00    +0.000 C 
ATOM     30  F3  UNL A   1      38.255  34.351  38.877  1.00  0.00    +0.000 F 
ATOM     31  C23 UNL A   1      39.623  34.024  36.979  1.00  0.00    +0.000 C 
ATOM     32  F4  UNL A   1      40.172  35.233  37.151  1.00  0.00    +0.000 F 
ENDBRANCH   23   24
BRANCH   40   41
ATOM     41  C30 UNL A   1      44.922  27.469  34.244  1.00  0.00    +0.000 C 
ATOM     42  C31 UNL A   1      44.871  26.251  34.936  1.00  0.00    +0.000 C 
ATOM     43  F6  UNL A   1      43.715  25.578  35.033  1.00  0.00    +0.000 F 
ATOM     44  C32 UNL A   1      46.004  25.737  35.561  1.00  0.00    +0.000 C 
ATOM     45  F7  UNL A   1      45.924  24.590  36.251  1.00  0.00    +0.000 F 
ATOM     46  C33 UNL A   1      47.211  26.415  35.483  1.00  0.00    +0.000 C 
ATOM     47  F8  UNL A   1      48.301  25.916  36.081  1.00  0.00    +0.000 F 
ATOM     48  C34 UNL A   1      47.286  27.615  34.792  1.00  0.00    +0.000 C 
ATOM     49  F9  UNL A   1      48.455  28.268  34.708  1.00  0.00    +0.000 F 
ATOM     50  C35 UNL A   1      46.151  28.144  34.186  1.00  0.00    +0.000 C 
ATOM     51  F10 UNL A   1      46.251  29.311  33.532  1.00  0.00    +0.000 F 
ENDBRANCH   40   41
BRANCH   55   56
ATOM     65  C44 UNL A   1      41.903  25.263  27.602  1.00  0.00    +0.000 C 
ATOM     66  F15 UNL A   1      41.040  24.691  28.455  1.00  0.00    +0.000 F 
ATOM     56  C39 UNL A   1      42.358  26.568  27.834  1.00  0.00    +0.000 C 
ATOM     57  C40 UNL A   1      43.261  27.120  26.916  1.00  0.00    +0.000 C 
ATOM     58  F11 UNL A   1      43.706  28.374  27.087  1.00  0.00    +0.000 F 
ATOM     59  C41 UNL A   1      43.683  26.400  25.800  1.00  0.00    +0.000 C 
ATOM     60  F12 UNL A   1      44.519  26.964  24.919  1.00  0.00    +0.000 F 
ATOM     61  C42 UNL A   1      43.227  25.107  25.595  1.00  0.00    +0.000 C 
ATOM     62  F13 UNL A   1      43.635  24.412  24.524  1.00  0.00    +0.000 F 
ATOM     63  C43 UNL A   1      42.342  24.536  26.498  1.00  0.00    +0.000 C 
ATOM     64  F14 UNL A   1      41.909  23.282  26.309  1.00  0.00    +0.000 F 
ENDBRANCH   55   56
TORSDOF 19
ENDMDL
MODEL 9
REMARK VINA RESULT:     -10.1      2.984      4.200
ROOT
ATOM     19  C15 UNL A   1      39.976  28.888  29.185  1.00  0.00    +0.000 C 
ATOM     20  C16 UNL A   1      40.838  29.843  29.960  1.00  0.00    +0.000 C 
ATOM     21  N3  UNL A   1      42.104  29.743  30.281  1.00  0.00    +0.000 N 
ATOM     22  C17 UNL A   1      42.416  30.916  30.956  1.00  0.00    +0.000 C 
ATOM     23  C18 UNL A   1      43.588  31.272  31.532  1.00  0.00    +0.000 C 
ATOM     35  C25 UNL A   1      44.767  30.447  31.555  1.00  0.00    +0.000 C 
ATOM     36  C26 UNL A   1      45.981  30.692  32.171  1.00  0.00    +0.000 C 
ATOM     37  C27 UNL A   1      46.837  29.620  31.895  1.00  0.00    +0.000 C 
ATOM     38  C28 UNL A   1      46.144  28.691  31.137  1.00  0.00    +0.000 C 
ATOM     39  N4  UNL A   1      44.876  29.212  30.933  1.00  0.00    +0.000 N 
ATOM     40  C29 UNL A   1      46.601  27.422  30.634  1.00  0.00    +0.000 C 
ATOM     52  C36 UNL A   1      45.853  26.558  29.906  1.00  0.00    +0.000 C 
ATOM     53  N5  UNL A   1      44.533  26.680  29.495  1.00  0.00    +0.000 N 
ATOM     54  C37 UNL A   1      44.266  25.595  28.812  1.00  0.00    +0.000 C 
ATOM     55  C38 UNL A   1      42.981  25.182  28.150  1.00  0.00    +0.000 C 
ATOM     67  C45 UNL A   1      41.900  25.979  28.251  1.00  0.00    +0.000 C 
ATOM     68  C46 UNL A   1      40.589  25.707  27.669  1.00  0.00    +0.000 C 
ATOM     69  C47 UNL A   1      39.769  26.736  27.937  1.00  0.00    +0.000 C 
ATOM     70  C48 UNL A   1      40.489  27.726  28.738  1.00  0.00    +0.000 C 
ATOM     71  N6  UNL A   1      41.744  27.189  28.882  1.00  0.00    +0.000 N 
ATOM     72  C49 UNL A   1      45.401  24.668  28.691  1.00  0.00    +0.000 C 
ATOM     73  C50 UNL A   1      46.331  25.286  29.404  1.00  0.00    +0.000 C 
ATOM     74  C51 UNL A   1      41.219  31.731  30.963  1.00  0.00    +0.000 C 
ATOM     75  C52 UNL A   1      40.199  31.088  30.414  1.00  0.00    +0.000 C 
ATOM    111  H21 UNL A   1      46.215  31.522  32.738  1.00  0.00    +0.000 H 
ATOM    112  H22 UNL A   1      47.818  29.536  32.204  1.00  0.00    +0.000 H 
ATOM    113  H23 UNL A   1      44.159  28.771  30.422  1.00  0.00    +0.000 H 
ATOM    114  H24 UNL A   1      40.334  24.861  27.137  1.00  0.00    +0.000 H 
ATOM    115  H25 UNL A   1      38.787  26.815  27.628  1.00  0.00    +0.000 H 
ATOM    116  H26 UNL A   1      42.464  27.630  29.389  1.00  0.00    +0.000 H 
ATOM    117  H27 UNL A   1      45.457  23.770  28.184  1.00  0.00    +0.000 H 
ATOM    118  H28 UNL A   1      47.276  24.910  29.580  1.00  0.00    +0.000 H 
ATOM    119  H29 UNL A   1      41.167  32.688  31.346  1.00  0.00    +0.000 H 
ATOM    120  H30 UNL A   1      39.213  31.383  30.328  1.00  0.00    +0.000 H 
ENDROOT
BRANCH   19   18
ATOM     76  C53 UNL A   1      37.566  29.085  29.805  1.00  0.00    +0.000 C 
ATOM    109  H19 UNL A   1      36.698  30.540  26.373  1.00  0.00    +0.000 H 
ATOM     77  C54 UNL A   1      36.248  29.419  29.505  1.00  0.00    +0.000 C 
ATOM     15  C11 UNL A   1      35.941  30.005  28.272  1.00  0.00    +0.000 C 
ATOM     16  C12 UNL A   1      36.934  30.148  27.298  1.00  0.00    +0.000 C 
ATOM     17  C13 UNL A   1      38.245  29.759  27.580  1.00  0.00    +0.000 C 
ATOM    110  H20 UNL A   1      38.973  29.844  26.854  1.00  0.00    +0.000 H 
ATOM     18  C14 UNL A   1      38.577  29.251  28.846  1.00  0.00    +0.000 C 
ATOM    121  H31 UNL A   1      37.801  28.713  30.739  1.00  0.00    +0.000 H 
ATOM    122  H32 UNL A   1      35.498  29.234  30.189  1.00  0.00    +0.000 H 
BRANCH   15   13
ATOM     13  C10 UNL A   1      34.569  30.465  27.965  1.00  0.00    +0.000 C 
ATOM     14  O2  UNL A   1      34.262  31.636  28.169  1.00  0.00    +0.000 O 
BRANCH   13   12
ATOM    108  H18 UNL A   1      32.854  29.434  28.043  1.00  0.00    +0.000 H 
ATOM     12  N2  UNL A   1      33.642  29.583  27.471  1.00  0.00    +0.000 N 
BRANCH   12   11
ATOM    106  H16 UNL A   1      32.880  29.208  25.591  1.00  0.00    +0.000 H 
ATOM     11  C9  UNL A   1      33.656  28.834  26.225  1.00  0.00    +0.000 C 
ATOM    107  H17 UNL A   1      34.621  28.962  25.779  1.00  0.00    +0.000 H 
BRANCH   11   10
ATOM    105  H15 UNL A   1      33.913  27.098  27.367  1.00  0.00    +0.000 H 
ATOM     10  C8  UNL A   1      33.435  27.340  26.440  1.00  0.00    +0.000 C 
ATOM    104  H14 UNL A   1      33.848  26.819  25.601  1.00  0.00    +0.000 H 
BRANCH   10    9
ATOM      9  C7  UNL A   1      31.972  26.917  26.589  1.00  0.00    +0.000 C 
ATOM    102  H12 UNL A   1      31.831  26.563  27.589  1.00  0.00    +0.000 H 
ATOM    103  H13 UNL A   1      31.387  27.782  26.355  1.00  0.00    +0.000 H 
BRANCH    9    8
ATOM    100  H10 UNL A   1      30.718  26.215  25.028  1.00  0.00    +0.000 H 
ATOM    101  H11 UNL A   1      32.376  25.535  25.066  1.00  0.00    +0.000 H 
ATOM      8  C6  UNL A   1      31.511  25.818  25.629  1.00  0.00    +0.000 C 
BRANCH    8    7
ATOM     98  H8  UNL A   1      30.233  24.801  26.991  1.00  0.00    +0.000 H 
ATOM     99  H9  UNL A   1      30.656  23.900  25.506  1.00  0.00    +0.000 H 
ATOM      7  C5  UNL A   1      31.001  24.534  26.296  1.00  0.00    +0.000 C 
BRANCH    7    6
ATOM     97  H7  UNL A   1      31.792  23.696  28.086  1.00  0.00    +0.000 H 
ATOM      6  C4  UNL A   1      32.072  23.735  27.054  1.00  0.00    +0.000 C 
ATOM     96  H6  UNL A   1      33.018  24.221  26.933  1.00  0.00    +0.000 H 
BRANCH    6    5
ATOM      5  N1  UNL A   1      32.176  22.372  26.558  1.00  0.00    +0.000 N 
ATOM     95  H5  UNL A   1      31.347  21.891  26.331  1.00  0.00    +0.000 H 
BRANCH    5    3
ATOM      3  C3  UNL A   1      33.380  21.726  26.394  1.00  0.00    +0.000 C 
ATOM      4  O1  UNL A   1      33.916  21.261  27.399  1.00  0.00    +0.000 O 
BRANCH    3    2
ATOM      2  C2  UNL A   1      33.911  21.556  24.968  1.00  0.00    +0.000 C 
ATOM     94  H4  UNL A   1      33.264  20.844  24.501  1.00  0.00    +0.000 H 
BRANCH    2    1
ATOM      1  C1  UNL A   1      35.373  21.089  25.083  1.00  0.00    +0.000 C 
ATOM     91  H1  UNL A   1      35.718  20.759  24.126  1.00  0.00    +0.000 H 
ATOM     92  H2  UNL A   1      35.435  20.283  25.783  1.00  0.00    +0.000 H 
ATOM     93  H3  UNL A   1      35.981  21.902  25.421  1.00  0.00    +0.000 H 
ENDBRANCH    2    1
BRANCH    2   78
ATOM    130  H40 UNL A   1      32.336  23.978  21.256  1.00  0.00    +0.000 H 
ATOM     78  C55 UNL A   1      33.812  22.753  24.024  1.00  0.00    +0.000 C 
ATOM     79  C56 UNL A   1      34.513  23.925  24.373  1.00  0.00    +0.000 C 
ATOM     80  C57 UNL A   1      34.390  25.103  23.631  1.00  0.00    +0.000 C 
ATOM     81  C58 UNL A   1      33.556  25.155  22.511  1.00  0.00    +0.000 C 
ATOM     88  C64 UNL A   1      32.923  23.976  22.105  1.00  0.00    +0.000 C 
ATOM     89  C65 UNL A   1      33.074  22.794  22.837  1.00  0.00    +0.000 C 
ATOM     90  F16 UNL A   1      32.498  21.698  22.332  1.00  0.00    +0.000 F 
ATOM    123  H33 UNL A   1      35.133  23.914  25.199  1.00  0.00    +0.000 H 
ATOM    124  H34 UNL A   1      34.919  25.942  23.912  1.00  0.00    +0.000 H 
BRANCH   81   82
ATOM     82  C59 UNL A   1      33.343  26.453  21.762  1.00  0.00    +0.000 C 
ATOM    125  H35 UNL A   1      33.163  26.225  20.732  1.00  0.00    +0.000 H 
ATOM    126  H36 UNL A   1      34.225  27.044  21.897  1.00  0.00    +0.000 H 
BRANCH   82   83
ATOM    129  H39 UNL A   1      30.380  29.870  23.730  1.00  0.00    +0.000 H 
ATOM     83  C60 UNL A   1      32.181  27.258  22.285  1.00  0.00    +0.000 C 
ATOM     84  C61 UNL A   1      30.849  26.897  22.370  1.00  0.00    +0.000 C 
ATOM     85  C62 UNL A   1      30.038  27.920  22.940  1.00  0.00    +0.000 C 
ATOM     86  C63 UNL A   1      30.778  29.026  23.291  1.00  0.00    +0.000 C 
ATOM     87  S1  UNL A   1      32.434  28.835  22.911  1.00  0.00    +0.000 S 
ATOM    127  H37 UNL A   1      30.482  25.986  22.055  1.00  0.00    +0.000 H 
ATOM    128  H38 UNL A   1      29.017  27.841  23.074  1.00  0.00    +0.000 H 
ENDBRANCH   82   83
ENDBRANCH   81   82
ENDBRANCH    2   78
ENDBRANCH    3    2
ENDBRANCH    5    3
ENDBRANCH    6    5
ENDBRANCH    7    6
ENDBRANCH    8    7
ENDBRANCH    9    8
ENDBRANCH   10    9
ENDBRANCH   11   10
ENDBRANCH   12   11
ENDBRANCH   13   12
ENDBRANCH   15   13
ENDBRANCH   19   18
BRANCH   23   24
ATOM     33  C24 UNL A   1      44.046  33.750  31.466  1.00  0.00    +0.000 C 
ATOM     34  F5  UNL A   1      44.345  33.646  30.163  1.00  0.00    +0.000 F 
ATOM     24  C19 UNL A   1      43.652  32.617  32.194  1.00  0.00    +0.000 C 
ATOM     25  C20 UNL A   1      43.355  32.780  33.554  1.00  0.00    +0.000 C 
ATOM     26  F1  UNL A   1      42.962  31.729  34.289  1.00  0.00    +0.000 F 
ATOM     27  C21 UNL A   1      43.425  34.033  34.157  1.00  0.00    +0.000 C 
ATOM     28  F2  UNL A   1      43.094  34.173  35.448  1.00  0.00    +0.000 F 
ATOM     29  C22 UNL A   1      43.822  35.138  33.421  1.00  0.00    +0.000 C 
ATOM     30  F3  UNL A   1      43.893  36.343  34.003  1.00  0.00    +0.000 F 
ATOM     31  C23 UNL A   1      44.140  34.997  32.078  1.00  0.00    +0.000 C 
ATOM     32  F4  UNL A   1      44.534  36.063  31.368  1.00  0.00    +0.000 F 
ENDBRANCH   23   24
BRANCH   40   41
ATOM     41  C30 UNL A   1      48.007  27.011  30.952  1.00  0.00    +0.000 C 
ATOM     42  C31 UNL A   1      48.297  26.173  32.038  1.00  0.00    +0.000 C 
ATOM     43  F6  UNL A   1      47.315  25.760  32.853  1.00  0.00    +0.000 F 
ATOM     44  C32 UNL A   1      49.606  25.783  32.309  1.00  0.00    +0.000 C 
ATOM     45  F7  UNL A   1      49.866  25.013  33.376  1.00  0.00    +0.000 F 
ATOM     46  C33 UNL A   1      50.642  26.202  31.487  1.00  0.00    +0.000 C 
ATOM     47  F8  UNL A   1      51.900  25.821  31.748  1.00  0.00    +0.000 F 
ATOM     48  C34 UNL A   1      50.375  27.020  30.401  1.00  0.00    +0.000 C 
ATOM     49  F9  UNL A   1      51.374  27.418  29.600  1.00  0.00    +0.000 F 
ATOM     50  C35 UNL A   1      49.071  27.431  30.139  1.00  0.00    +0.000 C 
ATOM     51  F10 UNL A   1      48.843  28.230  29.087  1.00  0.00    +0.000 F 
ENDBRANCH   40   41
BRANCH   55   56
ATOM     65  C44 UNL A   1      42.449  22.724  28.048  1.00  0.00    +0.000 C 
ATOM     66  F15 UNL A   1      42.111  22.746  29.346  1.00  0.00    +0.000 F 
ATOM     56  C39 UNL A   1      42.882  23.896  27.415  1.00  0.00    +0.000 C 
ATOM     57  C40 UNL A   1      43.227  23.820  26.059  1.00  0.00    +0.000 C 
ATOM     58  F11 UNL A   1      43.627  24.922  25.408  1.00  0.00    +0.000 F 
ATOM     59  C41 UNL A   1      43.129  22.620  25.358  1.00  0.00    +0.000 C 
ATOM     60  F12 UNL A   1      43.431  22.582  24.054  1.00  0.00    +0.000 F 
ATOM     61  C42 UNL A   1      42.706  21.469  26.007  1.00  0.00    +0.000 C 
ATOM     62  F13 UNL A   1      42.615  20.314  25.335  1.00  0.00    +0.000 F 
ATOM     63  C43 UNL A   1      42.372  21.519  27.353  1.00  0.00    +0.000 C 
ATOM     64  F14 UNL A   1      41.974  20.407  27.984  1.00  0.00    +0.000 F 
ENDBRANCH   55   56
TORSDOF 19
ENDMDL
MODEL 10
REMARK VINA RESULT:     -10.1     37.560     43.039
ROOT
ATOM     19  C15 UNL A   1      14.077  53.878   5.081  1.00  0.00    +0.000 C 
ATOM     20  C16 UNL A   1      15.026  54.324   4.005  1.00  0.00    +0.000 C 
ATOM     21  N3  UNL A   1      15.510  53.646   2.994  1.00  0.00    +0.000 N 
ATOM     22  C17 UNL A   1      16.298  54.541   2.283  1.00  0.00    +0.000 C 
ATOM     23  C18 UNL A   1      17.052  54.311   1.182  1.00  0.00    +0.000 C 
ATOM     35  C25 UNL A   1      17.180  53.031   0.537  1.00  0.00    +0.000 C 
ATOM     36  C26 UNL A   1      17.972  52.684  -0.543  1.00  0.00    +0.000 C 
ATOM     37  C27 UNL A   1      17.743  51.335  -0.838  1.00  0.00    +0.000 C 
ATOM     38  C28 UNL A   1      16.837  50.834   0.081  1.00  0.00    +0.000 C 
ATOM     39  N4  UNL A   1      16.497  51.885   0.917  1.00  0.00    +0.000 N 
ATOM     40  C29 UNL A   1      16.317  49.496   0.192  1.00  0.00    +0.000 C 
ATOM     52  C36 UNL A   1      15.438  49.078   1.134  1.00  0.00    +0.000 C 
ATOM     53  N5  UNL A   1      14.859  49.800   2.167  1.00  0.00    +0.000 N 
ATOM     54  C37 UNL A   1      14.074  48.962   2.798  1.00  0.00    +0.000 C 
ATOM     55  C38 UNL A   1      13.217  49.194   4.011  1.00  0.00    +0.000 C 
ATOM     67  C45 UNL A   1      13.222  50.404   4.602  1.00  0.00    +0.000 C 
ATOM     68  C46 UNL A   1      12.449  50.773   5.784  1.00  0.00    +0.000 C 
ATOM     69  C47 UNL A   1      12.671  52.067   6.066  1.00  0.00    +0.000 C 
ATOM     70  C48 UNL A   1      13.628  52.610   5.101  1.00  0.00    +0.000 C 
ATOM     71  N6  UNL A   1      13.905  51.549   4.275  1.00  0.00    +0.000 N 
ATOM     72  C49 UNL A   1      14.047  47.612   2.216  1.00  0.00    +0.000 C 
ATOM     73  C50 UNL A   1      14.921  47.727   1.227  1.00  0.00    +0.000 C 
ATOM     74  C51 UNL A   1      16.196  55.820   2.953  1.00  0.00    +0.000 C 
ATOM     75  C52 UNL A   1      15.471  55.726   4.057  1.00  0.00    +0.000 C 
ATOM    111  H21 UNL A   1      18.620  53.311  -1.045  1.00  0.00    +0.000 H 
ATOM    112  H22 UNL A   1      18.177  50.804  -1.609  1.00  0.00    +0.000 H 
ATOM    113  H23 UNL A   1      15.865  51.828   1.669  1.00  0.00    +0.000 H 
ATOM    114  H24 UNL A   1      11.832  50.141   6.317  1.00  0.00    +0.000 H 
ATOM    115  H25 UNL A   1      12.236  52.593   6.840  1.00  0.00    +0.000 H 
ATOM    116  H26 UNL A   1      14.535  51.605   3.520  1.00  0.00    +0.000 H 
ATOM    117  H27 UNL A   1      13.494  46.789   2.504  1.00  0.00    +0.000 H 
ATOM    118  H28 UNL A   1      15.198  46.954   0.602  1.00  0.00    +0.000 H 
ATOM    119  H29 UNL A   1      16.632  56.692   2.614  1.00  0.00    +0.000 H 
ATOM    120  H30 UNL A   1      15.271  56.446   4.769  1.00  0.00    +0.000 H 
ENDROOT
BRANCH   19   18
ATOM     76  C53 UNL A   1      12.400  55.572   5.824  1.00  0.00    +0.000 C 
ATOM    109  H19 UNL A   1      14.234  56.081   9.144  1.00  0.00    +0.000 H 
ATOM     77  C54 UNL A   1      11.915  56.489   6.753  1.00  0.00    +0.000 C 
ATOM     15  C11 UNL A   1      12.552  56.631   7.989  1.00  0.00    +0.000 C 
ATOM     16  C12 UNL A   1      13.740  55.941   8.249  1.00  0.00    +0.000 C 
ATOM     17  C13 UNL A   1      14.257  55.065   7.293  1.00  0.00    +0.000 C 
ATOM    110  H20 UNL A   1      15.145  54.572   7.476  1.00  0.00    +0.000 H 
ATOM     18  C14 UNL A   1      13.576  54.851   6.084  1.00  0.00    +0.000 C 
ATOM    121  H31 UNL A   1      11.892  55.421   4.938  1.00  0.00    +0.000 H 
ATOM    122  H32 UNL A   1      11.087  57.064   6.529  1.00  0.00    +0.000 H 
BRANCH   15   13
ATOM     13  C10 UNL A   1      12.002  57.521   9.035  1.00  0.00    +0.000 C 
ATOM     14  O2  UNL A   1      12.168  58.734   8.948  1.00  0.00    +0.000 O 
BRANCH   13   12
ATOM    108  H18 UNL A   1      11.402  57.500  10.946  1.00  0.00    +0.000 H 
ATOM     12  N2  UNL A   1      11.327  56.991  10.105  1.00  0.00    +0.000 N 
BRANCH   12   11
ATOM    106  H16 UNL A   1       9.679  55.973  10.815  1.00  0.00    +0.000 H 
ATOM     11  C9  UNL A   1      10.518  55.786  10.177  1.00  0.00    +0.000 C 
ATOM    107  H17 UNL A   1      10.207  55.542   9.182  1.00  0.00    +0.000 H 
BRANCH   11   10
ATOM    105  H15 UNL A   1      10.719  54.214  11.547  1.00  0.00    +0.000 H 
ATOM     10  C8  UNL A   1      11.295  54.594  10.728  1.00  0.00    +0.000 C 
ATOM    104  H14 UNL A   1      12.268  54.935  11.015  1.00  0.00    +0.000 H 
BRANCH   10    9
ATOM      9  C7  UNL A   1      11.469  53.428   9.752  1.00  0.00    +0.000 C 
ATOM    102  H12 UNL A   1      12.485  53.428   9.415  1.00  0.00    +0.000 H 
ATOM    103  H13 UNL A   1      11.197  52.545  10.291  1.00  0.00    +0.000 H 
BRANCH    9    8
ATOM    100  H10 UNL A   1      10.083  54.427   8.493  1.00  0.00    +0.000 H 
ATOM    101  H11 UNL A   1      11.197  53.283   7.679  1.00  0.00    +0.000 H 
ATOM      8  C6  UNL A   1      10.562  53.470   8.520  1.00  0.00    +0.000 C 
BRANCH    8    7
ATOM     98  H8  UNL A   1       8.531  52.859   8.687  1.00  0.00    +0.000 H 
ATOM     99  H9  UNL A   1       9.513  51.963   7.493  1.00  0.00    +0.000 H 
ATOM      7  C5  UNL A   1       9.470  52.392   8.472  1.00  0.00    +0.000 C 
BRANCH    7    6
ATOM     97  H7  UNL A   1       9.368  51.571  10.432  1.00  0.00    +0.000 H 
ATOM      6  C4  UNL A   1       9.665  51.234   9.462  1.00  0.00    +0.000 C 
ATOM     96  H6  UNL A   1      10.695  50.943   9.456  1.00  0.00    +0.000 H 
BRANCH    6    5
ATOM      5  N1  UNL A   1       8.848  50.084   9.109  1.00  0.00    +0.000 N 
ATOM     95  H5  UNL A   1       7.922  50.046   9.441  1.00  0.00    +0.000 H 
BRANCH    5    3
ATOM      3  C3  UNL A   1       9.314  49.047   8.332  1.00  0.00    +0.000 C 
ATOM      4  O1  UNL A   1       9.328  49.214   7.113  1.00  0.00    +0.000 O 
BRANCH    3    2
ATOM      2  C2  UNL A   1       9.861  47.808   9.046  1.00  0.00    +0.000 C 
ATOM     94  H4  UNL A   1       9.618  46.979   8.415  1.00  0.00    +0.000 H 
BRANCH    2    1
ATOM      1  C1  UNL A   1       9.195  47.755  10.431  1.00  0.00    +0.000 C 
ATOM     91  H1  UNL A   1       8.679  48.674  10.614  1.00  0.00    +0.000 H 
ATOM     92  H2  UNL A   1       9.944  47.611  11.181  1.00  0.00    +0.000 H 
ATOM     93  H3  UNL A   1       8.499  46.944  10.462  1.00  0.00    +0.000 H 
ENDBRANCH    2    1
BRANCH    2   78
ATOM    130  H40 UNL A   1      13.916  45.609   9.971  1.00  0.00    +0.000 H 
ATOM     78  C55 UNL A   1      11.377  47.678   9.184  1.00  0.00    +0.000 C 
ATOM     79  C56 UNL A   1      12.171  48.768   8.773  1.00  0.00    +0.000 C 
ATOM     80  C57 UNL A   1      13.566  48.695   8.756  1.00  0.00    +0.000 C 
ATOM     81  C58 UNL A   1      14.223  47.525   9.146  1.00  0.00    +0.000 C 
ATOM     88  C64 UNL A   1      13.451  46.467   9.636  1.00  0.00    +0.000 C 
ATOM     89  C65 UNL A   1      12.056  46.559   9.677  1.00  0.00    +0.000 C 
ATOM     90  F16 UNL A   1      11.404  45.533  10.234  1.00  0.00    +0.000 F 
ATOM    123  H33 UNL A   1      11.710  49.643   8.476  1.00  0.00    +0.000 H 
ATOM    124  H34 UNL A   1      14.117  49.513   8.453  1.00  0.00    +0.000 H 
BRANCH   81   82
ATOM     82  C59 UNL A   1      15.728  47.407   9.037  1.00  0.00    +0.000 C 
ATOM    125  H35 UNL A   1      15.970  47.058   8.054  1.00  0.00    +0.000 H 
ATOM    126  H36 UNL A   1      16.049  46.726   9.797  1.00  0.00    +0.000 H 
BRANCH   82   83
ATOM    129  H39 UNL A   1      18.116  51.704   8.635  1.00  0.00    +0.000 H 
ATOM     83  C60 UNL A   1      16.446  48.711   9.273  1.00  0.00    +0.000 C 
ATOM     84  C61 UNL A   1      16.827  49.282  10.473  1.00  0.00    +0.000 C 
ATOM     85  C62 UNL A   1      17.508  50.521  10.301  1.00  0.00    +0.000 C 
ATOM     86  C63 UNL A   1      17.642  50.852   8.971  1.00  0.00    +0.000 C 
ATOM     87  S1  UNL A   1      16.931  49.684   7.945  1.00  0.00    +0.000 S 
ATOM    127  H37 UNL A   1      16.639  48.856  11.394  1.00  0.00    +0.000 H 
ATOM    128  H38 UNL A   1      17.858  51.102  11.079  1.00  0.00    +0.000 H 
ENDBRANCH   82   83
ENDBRANCH   81   82
ENDBRANCH    2   78
ENDBRANCH    3    2
ENDBRANCH    5    3
ENDBRANCH    6    5
ENDBRANCH    7    6
ENDBRANCH    8    7
ENDBRANCH    9    8
ENDBRANCH   10    9
ENDBRANCH   11   10
ENDBRANCH   12   11
ENDBRANCH   13   12
ENDBRANCH   15   13
ENDBRANCH   19   18
BRANCH   23   24
ATOM     33  C24 UNL A   1      19.048  55.850   1.136  1.00  0.00    +0.000 C 
ATOM     34  F5  UNL A   1      19.589  55.157   2.148  1.00  0.00    +0.000 F 
ATOM     24  C19 UNL A   1      17.805  55.473   0.606  1.00  0.00    +0.000 C 
ATOM     25  C20 UNL A   1      17.281  56.235  -0.449  1.00  0.00    +0.000 C 
ATOM     26  F1  UNL A   1      16.102  55.907  -0.997  1.00  0.00    +0.000 F 
ATOM     27  C21 UNL A   1      17.987  57.317  -0.970  1.00  0.00    +0.000 C 
ATOM     28  F2  UNL A   1      17.488  58.003  -2.007  1.00  0.00    +0.000 F 
ATOM     29  C22 UNL A   1      19.211  57.675  -0.427  1.00  0.00    +0.000 C 
ATOM     30  F3  UNL A   1      19.888  58.718  -0.927  1.00  0.00    +0.000 F 
ATOM     31  C23 UNL A   1      19.740  56.948   0.629  1.00  0.00    +0.000 C 
ATOM     32  F4  UNL A   1      20.917  57.300   1.161  1.00  0.00    +0.000 F 
ENDBRANCH   23   24
BRANCH   40   41
ATOM     41  C30 UNL A   1      16.796  48.477  -0.798  1.00  0.00    +0.000 C 
ATOM     42  C31 UNL A   1      18.013  47.803  -0.625  1.00  0.00    +0.000 C 
ATOM     43  F6  UNL A   1      18.806  48.098   0.416  1.00  0.00    +0.000 F 
ATOM     44  C32 UNL A   1      18.436  46.845  -1.543  1.00  0.00    +0.000 C 
ATOM     45  F7  UNL A   1      19.621  46.240  -1.379  1.00  0.00    +0.000 F 
ATOM     46  C33 UNL A   1      17.640  46.526  -2.632  1.00  0.00    +0.000 C 
ATOM     47  F8  UNL A   1      18.047  45.599  -3.512  1.00  0.00    +0.000 F 
ATOM     48  C34 UNL A   1      16.427  47.171  -2.816  1.00  0.00    +0.000 C 
ATOM     49  F9  UNL A   1      15.652  46.857  -3.864  1.00  0.00    +0.000 F 
ATOM     50  C35 UNL A   1      16.011  48.146  -1.914  1.00  0.00    +0.000 C 
ATOM     51  F10 UNL A   1      14.838  48.760  -2.120  1.00  0.00    +0.000 F 
ENDBRANCH   40   41
BRANCH   55   56
ATOM     65  C44 UNL A   1      12.932  47.158   5.463  1.00  0.00    +0.000 C 
ATOM     66  F15 UNL A   1      14.224  47.232   5.815  1.00  0.00    +0.000 F 
ATOM     56  C39 UNL A   1      12.390  48.100   4.579  1.00  0.00    +0.000 C 
ATOM     57  C40 UNL A   1      11.036  47.977   4.239  1.00  0.00    +0.000 C 
ATOM     58  F11 UNL A   1      10.470  48.868   3.412  1.00  0.00    +0.000 F 
ATOM     59  C41 UNL A   1      10.250  46.958   4.775  1.00  0.00    +0.000 C 
ATOM     60  F12 UNL A   1       8.949  46.884   4.461  1.00  0.00    +0.000 F 
ATOM     61  C42 UNL A   1      10.809  46.031   5.641  1.00  0.00    +0.000 C 
ATOM     62  F13 UNL A   1      10.055  45.050   6.153  1.00  0.00    +0.000 F 
ATOM     63  C43 UNL A   1      12.151  46.127   5.981  1.00  0.00    +0.000 C 
ATOM     64  F14 UNL A   1      12.697  45.226   6.809  1.00  0.00    +0.000 F 
ENDBRANCH   55   56
TORSDOF 19
ENDMDL
