MODEL 1
REMARK VINA RESULT:     -13.0      0.000      0.000
ROOT
ATOM     21  C17 UNL A   1      40.818  28.364  28.739  1.00  0.00    +0.000 C 
ATOM     22  C18 UNL A   1      41.413  27.153  28.139  1.00  0.00    +0.000 C 
ATOM     23  N3  UNL A   1      42.452  26.545  28.614  1.00  0.00    +0.000 N 
ATOM     24  C19 UNL A   1      42.849  25.611  27.685  1.00  0.00    +0.000 C 
ATOM     25  C20 UNL A   1      44.090  25.049  27.772  1.00  0.00    +0.000 C 
ATOM     37  C27 UNL A   1      44.832  25.555  28.921  1.00  0.00    +0.000 C 
ATOM     38  C28 UNL A   1      45.773  26.565  29.041  1.00  0.00    +0.000 C 
ATOM     39  C29 UNL A   1      45.915  26.875  30.412  1.00  0.00    +0.000 C 
ATOM     40  C30 UNL A   1      45.068  26.048  31.128  1.00  0.00    +0.000 C 
ATOM     41  N4  UNL A   1      44.434  25.230  30.212  1.00  0.00    +0.000 N 
ATOM     42  C31 UNL A   1      44.802  25.940  32.551  1.00  0.00    +0.000 C 
ATOM     54  C38 UNL A   1      44.149  27.005  33.097  1.00  0.00    +0.000 C 
ATOM     55  N5  UNL A   1      43.530  27.946  32.319  1.00  0.00    +0.000 N 
ATOM     56  C39 UNL A   1      42.925  28.805  33.090  1.00  0.00    +0.000 C 
ATOM     57  C40 UNL A   1      42.050  29.917  32.574  1.00  0.00    +0.000 C 
ATOM     69  C47 UNL A   1      42.264  30.241  31.268  1.00  0.00    +0.000 C 
ATOM     70  C48 UNL A   1      43.463  29.926  30.511  1.00  0.00    +0.000 C 
ATOM     71  C49 UNL A   1      43.071  29.265  29.412  1.00  0.00    +0.000 C 
ATOM     72  C50 UNL A   1      41.612  29.256  29.373  1.00  0.00    +0.000 C 
ATOM     73  N6  UNL A   1      41.210  30.248  30.308  1.00  0.00    +0.000 N 
ATOM     74  C51 UNL A   1      43.130  28.533  34.509  1.00  0.00    +0.000 C 
ATOM     75  C52 UNL A   1      43.894  27.429  34.461  1.00  0.00    +0.000 C 
ATOM     76  C53 UNL A   1      41.793  25.593  26.696  1.00  0.00    +0.000 C 
ATOM     77  C54 UNL A   1      40.859  26.514  26.953  1.00  0.00    +0.000 C 
ATOM    117  H22 UNL A   1      46.282  27.013  28.264  1.00  0.00    +0.000 H 
ATOM    118  H23 UNL A   1      46.539  27.593  30.809  1.00  0.00    +0.000 H 
ATOM    119  H24 UNL A   1      43.793  24.519  30.442  1.00  0.00    +0.000 H 
ATOM    120  H25 UNL A   1      44.433  30.166  30.770  1.00  0.00    +0.000 H 
ATOM    121  H26 UNL A   1      43.696  28.835  28.712  1.00  0.00    +0.000 H 
ATOM    122  H27 UNL A   1      40.398  30.805  30.296  1.00  0.00    +0.000 H 
ATOM    123  H28 UNL A   1      42.782  29.051  35.332  1.00  0.00    +0.000 H 
ATOM    124  H29 UNL A   1      44.256  26.940  35.294  1.00  0.00    +0.000 H 
ATOM    125  H30 UNL A   1      41.764  24.947  25.891  1.00  0.00    +0.000 H 
ATOM    126  H31 UNL A   1      39.984  26.720  26.448  1.00  0.00    +0.000 H 
ENDROOT
BRANCH   21   20
ATOM     78  C55 UNL A   1      38.983  29.373  27.497  1.00  0.00    +0.000 C 
ATOM     79  C56 UNL A   1      37.717  29.925  27.457  1.00  0.00    +0.000 C 
ATOM     17  C13 UNL A   1      36.911  29.854  28.593  1.00  0.00    +0.000 C 
ATOM     18  C14 UNL A   1      37.238  28.985  29.639  1.00  0.00    +0.000 C 
ATOM     19  C15 UNL A   1      38.486  28.363  29.645  1.00  0.00    +0.000 C 
ATOM    115  H20 UNL A   1      36.563  28.805  30.399  1.00  0.00    +0.000 H 
ATOM    116  H21 UNL A   1      38.736  27.699  30.396  1.00  0.00    +0.000 H 
ATOM     20  C16 UNL A   1      39.392  28.650  28.622  1.00  0.00    +0.000 C 
ATOM    127  H32 UNL A   1      39.626  29.495  26.699  1.00  0.00    +0.000 H 
ATOM    128  H33 UNL A   1      37.372  30.384  26.600  1.00  0.00    +0.000 H 
BRANCH   17   15
ATOM     15  C12 UNL A   1      35.801  30.813  28.808  1.00  0.00    +0.000 C 
ATOM     16  O2  UNL A   1      35.669  31.363  29.887  1.00  0.00    +0.000 O 
BRANCH   15   14
ATOM    114  H19 UNL A   1      35.460  31.370  26.903  1.00  0.00    +0.000 H 
ATOM     14  N2  UNL A   1      34.990  31.150  27.738  1.00  0.00    +0.000 N 
BRANCH   14   13
ATOM    113  H18 UNL A   1      33.293  31.967  26.947  1.00  0.00    +0.000 H 
ATOM     13  C11 UNL A   1      33.536  31.224  27.677  1.00  0.00    +0.000 C 
ATOM    112  H17 UNL A   1      33.170  31.473  28.652  1.00  0.00    +0.000 H 
BRANCH   13   12
ATOM     12  C10 UNL A   1      32.870  29.929  27.231  1.00  0.00    +0.000 C 
ATOM    110  H15 UNL A   1      33.171  29.150  27.900  1.00  0.00    +0.000 H 
ATOM    111  H16 UNL A   1      31.815  30.106  27.245  1.00  0.00    +0.000 H 
BRANCH   12   11
ATOM     11  C9  UNL A   1      33.223  29.497  25.803  1.00  0.00    +0.000 C 
ATOM    108  H13 UNL A   1      32.306  29.306  25.285  1.00  0.00    +0.000 H 
ATOM    109  H14 UNL A   1      33.803  30.301  25.400  1.00  0.00    +0.000 H 
BRANCH   11   10
ATOM     10  C8  UNL A   1      34.109  28.247  25.661  1.00  0.00    +0.000 C 
ATOM    107  H12 UNL A   1      34.006  27.722  26.588  1.00  0.00    +0.000 H 
ATOM    106  H11 UNL A   1      35.103  28.577  25.442  1.00  0.00    +0.000 H 
BRANCH   10    9
ATOM      9  C7  UNL A   1      33.706  27.237  24.578  1.00  0.00    +0.000 C 
ATOM    105  H10 UNL A   1      34.618  26.898  24.132  1.00  0.00    +0.000 H 
ATOM    104  H9  UNL A   1      33.053  27.732  23.890  1.00  0.00    +0.000 H 
BRANCH    9    8
ATOM    102  H7  UNL A   1      33.725  25.233  25.294  1.00  0.00    +0.000 H 
ATOM    103  H8  UNL A   1      32.451  26.261  25.971  1.00  0.00    +0.000 H 
ATOM      8  C6  UNL A   1      32.993  25.986  25.090  1.00  0.00    +0.000 C 
BRANCH    8    7
ATOM    101  H6  UNL A   1      31.472  26.126  23.690  1.00  0.00    +0.000 H 
ATOM      7  N1  UNL A   1      32.040  25.458  24.138  1.00  0.00    +0.000 N 
BRANCH    7    5
ATOM      5  C5  UNL A   1      31.819  24.159  23.777  1.00  0.00    +0.000 C 
ATOM      6  O1  UNL A   1      30.816  23.594  24.217  1.00  0.00    +0.000 O 
BRANCH    5    4
ATOM    100  H5  UNL A   1      33.512  24.156  22.534  1.00  0.00    +0.000 H 
ATOM     99  H4  UNL A   1      32.266  22.964  22.082  1.00  0.00    +0.000 H 
ATOM      4  C4  UNL A   1      32.810  23.425  22.879  1.00  0.00    +0.000 C 
BRANCH    4    3
ATOM    129  H34 UNL A   1      35.108  23.742  24.126  1.00  0.00    +0.000 H 
ATOM      2  C2  UNL A   1      33.226  20.986  23.653  1.00  0.00    +0.000 C 
ATOM      3  C3  UNL A   1      33.615  22.349  23.590  1.00  0.00    +0.000 C 
ATOM    135  H40 UNL A   1      35.794  19.864  25.528  1.00  0.00    +0.000 H 
ATOM     80  C57 UNL A   1      34.819  22.754  24.202  1.00  0.00    +0.000 C 
ATOM     81  C58 UNL A   1      35.634  21.864  24.905  1.00  0.00    +0.000 C 
ATOM     88  C65 UNL A   1      35.215  20.532  24.994  1.00  0.00    +0.000 C 
ATOM     89  C66 UNL A   1      34.030  20.069  24.384  1.00  0.00    +0.000 C 
BRANCH    2    1
ATOM      1  C1  UNL A   1      32.004  20.496  22.904  1.00  0.00    +0.000 C 
ATOM     98  H3  UNL A   1      32.050  20.834  21.891  1.00  0.00    +0.000 H 
ATOM     97  H2  UNL A   1      31.979  19.427  22.923  1.00  0.00    +0.000 H 
ATOM     96  H1  UNL A   1      31.122  20.883  23.370  1.00  0.00    +0.000 H 
ENDBRANCH    2    1
BRANCH   81   82
ATOM    130  H35 UNL A   1      36.226  24.268  25.977  1.00  0.00    +0.000 H 
ATOM    131  H36 UNL A   1      38.320  25.021  26.931  1.00  0.00    +0.000 H 
ATOM    132  H37 UNL A   1      40.223  23.521  27.026  1.00  0.00    +0.000 H 
ATOM    133  H38 UNL A   1      40.022  21.258  26.178  1.00  0.00    +0.000 H 
ATOM    134  H39 UNL A   1      37.928  20.496  25.231  1.00  0.00    +0.000 H 
ATOM     82  C59 UNL A   1      36.893  22.317  25.515  1.00  0.00    +0.000 C 
ATOM     83  C60 UNL A   1      37.029  23.622  26.015  1.00  0.00    +0.000 C 
ATOM     84  C61 UNL A   1      38.237  24.059  26.567  1.00  0.00    +0.000 C 
ATOM     85  C62 UNL A   1      39.330  23.197  26.623  1.00  0.00    +0.000 C 
ATOM     86  C63 UNL A   1      39.214  21.898  26.135  1.00  0.00    +0.000 C 
ATOM     87  C64 UNL A   1      38.005  21.461  25.588  1.00  0.00    +0.000 C 
ENDBRANCH   81   82
BRANCH   89   90
ATOM    136  H41 UNL A   1      34.862  17.944  22.970  1.00  0.00    +0.000 H 
ATOM    137  H42 UNL A   1      34.306  15.607  23.262  1.00  0.00    +0.000 H 
ATOM    138  H43 UNL A   1      32.805  14.929  25.043  1.00  0.00    +0.000 H 
ATOM    139  H44 UNL A   1      31.833  16.600  26.507  1.00  0.00    +0.000 H 
ATOM    140  H45 UNL A   1      32.352  18.945  26.193  1.00  0.00    +0.000 H 
ATOM     90  C67 UNL A   1      33.672  18.649  24.569  1.00  0.00    +0.000 C 
ATOM     91  C68 UNL A   1      34.216  17.665  23.724  1.00  0.00    +0.000 C 
ATOM     92  C69 UNL A   1      33.899  16.315  23.892  1.00  0.00    +0.000 C 
ATOM     93  C70 UNL A   1      33.033  15.927  24.912  1.00  0.00    +0.000 C 
ATOM     94  C71 UNL A   1      32.475  16.887  25.752  1.00  0.00    +0.000 C 
ATOM     95  C72 UNL A   1      32.783  18.239  25.575  1.00  0.00    +0.000 C 
ENDBRANCH   89   90
ENDBRANCH    4    3
ENDBRANCH    5    4
ENDBRANCH    7    5
ENDBRANCH    8    7
ENDBRANCH    9    8
ENDBRANCH   10    9
ENDBRANCH   11   10
ENDBRANCH   12   11
ENDBRANCH   13   12
ENDBRANCH   14   13
ENDBRANCH   15   14
ENDBRANCH   17   15
ENDBRANCH   21   20
BRANCH   25   26
ATOM     33  C25 UNL A   1      46.449  24.074  24.881  1.00  0.00    +0.000 C 
ATOM     34  F4  UNL A   1      47.420  24.646  24.154  1.00  0.00    +0.000 F 
ATOM     35  C26 UNL A   1      45.684  24.855  25.755  1.00  0.00    +0.000 C 
ATOM     36  F5  UNL A   1      45.867  26.181  25.696  1.00  0.00    +0.000 F 
ATOM     26  C21 UNL A   1      44.739  24.293  26.631  1.00  0.00    +0.000 C 
ATOM     27  C22 UNL A   1      44.470  22.924  26.413  1.00  0.00    +0.000 C 
ATOM     28  F1  UNL A   1      43.500  22.283  27.076  1.00  0.00    +0.000 F 
ATOM     29  C23 UNL A   1      45.195  22.152  25.501  1.00  0.00    +0.000 C 
ATOM     30  F2  UNL A   1      44.908  20.850  25.355  1.00  0.00    +0.000 F 
ATOM     31  C24 UNL A   1      46.217  22.718  24.769  1.00  0.00    +0.000 C 
ATOM     32  F3  UNL A   1      46.956  21.966  23.941  1.00  0.00    +0.000 F 
ENDBRANCH   25   26
BRANCH   42   43
ATOM     43  C32 UNL A   1      45.336  24.760  33.315  1.00  0.00    +0.000 C 
ATOM     44  C33 UNL A   1      46.567  24.766  33.989  1.00  0.00    +0.000 C 
ATOM     45  F6  UNL A   1      47.360  25.847  33.975  1.00  0.00    +0.000 F 
ATOM     46  C34 UNL A   1      46.997  23.675  34.749  1.00  0.00    +0.000 C 
ATOM     47  F7  UNL A   1      48.198  23.711  35.342  1.00  0.00    +0.000 F 
ATOM     48  C35 UNL A   1      46.183  22.568  34.912  1.00  0.00    +0.000 C 
ATOM     49  F8  UNL A   1      46.582  21.541  35.672  1.00  0.00    +0.000 F 
ATOM     50  C36 UNL A   1      44.945  22.543  34.302  1.00  0.00    +0.000 C 
ATOM     51  F9  UNL A   1      44.126  21.499  34.490  1.00  0.00    +0.000 F 
ATOM     52  C37 UNL A   1      44.535  23.610  33.504  1.00  0.00    +0.000 C 
ATOM     53  F10 UNL A   1      43.326  23.501  32.934  1.00  0.00    +0.000 F 
ENDBRANCH   42   43
BRANCH   57   58
ATOM     65  C45 UNL A   1      38.329  29.513  33.062  1.00  0.00    +0.000 C 
ATOM     66  F14 UNL A   1      37.404  28.551  32.943  1.00  0.00    +0.000 F 
ATOM     67  C46 UNL A   1      39.685  29.181  33.018  1.00  0.00    +0.000 C 
ATOM     68  F15 UNL A   1      40.025  27.895  32.845  1.00  0.00    +0.000 F 
ATOM     58  C41 UNL A   1      40.666  30.177  33.044  1.00  0.00    +0.000 C 
ATOM     59  C42 UNL A   1      40.242  31.508  33.207  1.00  0.00    +0.000 C 
ATOM     60  F11 UNL A   1      41.145  32.501  33.239  1.00  0.00    +0.000 F 
ATOM     61  C43 UNL A   1      38.889  31.838  33.241  1.00  0.00    +0.000 C 
ATOM     62  F12 UNL A   1      38.515  33.124  33.304  1.00  0.00    +0.000 F 
ATOM     63  C44 UNL A   1      37.933  30.841  33.144  1.00  0.00    +0.000 C 
ATOM     64  F13 UNL A   1      36.633  31.159  33.099  1.00  0.00    +0.000 F 
ENDBRANCH   57   58
TORSDOF 19
ENDMDL
MODEL 2
REMARK VINA RESULT:     -12.5      0.539      3.061
ROOT
ATOM     21  C17 UNL A   1      40.778  28.394  28.794  1.00  0.00    +0.000 C 
ATOM     22  C18 UNL A   1      41.370  27.176  28.205  1.00  0.00    +0.000 C 
ATOM     23  N3  UNL A   1      42.396  26.559  28.694  1.00  0.00    +0.000 N 
ATOM     24  C19 UNL A   1      42.797  25.619  27.772  1.00  0.00    +0.000 C 
ATOM     25  C20 UNL A   1      44.031  25.045  27.876  1.00  0.00    +0.000 C 
ATOM     37  C27 UNL A   1      44.763  25.547  29.033  1.00  0.00    +0.000 C 
ATOM     38  C28 UNL A   1      45.712  26.548  29.163  1.00  0.00    +0.000 C 
ATOM     39  C29 UNL A   1      45.839  26.861  30.535  1.00  0.00    +0.000 C 
ATOM     40  C30 UNL A   1      44.975  26.044  31.242  1.00  0.00    +0.000 C 
ATOM     41  N4  UNL A   1      44.345  25.229  30.321  1.00  0.00    +0.000 N 
ATOM     42  C31 UNL A   1      44.690  25.941  32.662  1.00  0.00    +0.000 C 
ATOM     54  C38 UNL A   1      44.041  27.014  33.198  1.00  0.00    +0.000 C 
ATOM     55  N5  UNL A   1      43.440  27.959  32.410  1.00  0.00    +0.000 N 
ATOM     56  C39 UNL A   1      42.833  28.825  33.170  1.00  0.00    +0.000 C 
ATOM     57  C40 UNL A   1      41.976  29.944  32.641  1.00  0.00    +0.000 C 
ATOM     69  C47 UNL A   1      42.210  30.263  31.337  1.00  0.00    +0.000 C 
ATOM     70  C48 UNL A   1      43.415  29.935  30.596  1.00  0.00    +0.000 C 
ATOM     71  C49 UNL A   1      43.031  29.275  29.494  1.00  0.00    +0.000 C 
ATOM     72  C50 UNL A   1      41.573  29.280  29.436  1.00  0.00    +0.000 C 
ATOM     73  N6  UNL A   1      41.168  30.278  30.364  1.00  0.00    +0.000 N 
ATOM     74  C51 UNL A   1      43.018  28.555  34.593  1.00  0.00    +0.000 C 
ATOM     75  C52 UNL A   1      43.772  27.443  34.557  1.00  0.00    +0.000 C 
ATOM     76  C53 UNL A   1      41.753  25.608  26.770  1.00  0.00    +0.000 C 
ATOM     77  C54 UNL A   1      40.825  26.539  27.013  1.00  0.00    +0.000 C 
ATOM    117  H22 UNL A   1      46.235  26.990  28.392  1.00  0.00    +0.000 H 
ATOM    118  H23 UNL A   1      46.465  27.574  30.939  1.00  0.00    +0.000 H 
ATOM    119  H24 UNL A   1      43.694  24.525  30.544  1.00  0.00    +0.000 H 
ATOM    120  H25 UNL A   1      44.384  30.166  30.867  1.00  0.00    +0.000 H 
ATOM    121  H26 UNL A   1      43.660  28.838  28.802  1.00  0.00    +0.000 H 
ATOM    122  H27 UNL A   1      40.362  30.842  30.340  1.00  0.00    +0.000 H 
ATOM    123  H28 UNL A   1      42.665  29.078  35.410  1.00  0.00    +0.000 H 
ATOM    124  H29 UNL A   1      44.119  26.952  35.396  1.00  0.00    +0.000 H 
ATOM    125  H30 UNL A   1      41.728  24.961  25.966  1.00  0.00    +0.000 H 
ATOM    126  H31 UNL A   1      39.958  26.752  26.496  1.00  0.00    +0.000 H 
ENDROOT
BRANCH   21   20
ATOM     78  C55 UNL A   1      38.968  29.410  27.522  1.00  0.00    +0.000 C 
ATOM     79  C56 UNL A   1      37.708  29.974  27.463  1.00  0.00    +0.000 C 
ATOM     17  C13 UNL A   1      36.889  29.921  28.590  1.00  0.00    +0.000 C 
ATOM     18  C14 UNL A   1      37.195  29.059  29.647  1.00  0.00    +0.000 C 
ATOM     19  C15 UNL A   1      38.436  28.424  29.673  1.00  0.00    +0.000 C 
ATOM    115  H20 UNL A   1      36.509  28.893  30.401  1.00  0.00    +0.000 H 
ATOM    116  H21 UNL A   1      38.671  27.765  30.432  1.00  0.00    +0.000 H 
ATOM     20  C16 UNL A   1      39.357  28.693  28.658  1.00  0.00    +0.000 C 
ATOM    127  H32 UNL A   1      39.621  29.518  26.730  1.00  0.00    +0.000 H 
ATOM    128  H33 UNL A   1      37.378  30.429  26.598  1.00  0.00    +0.000 H 
BRANCH   17   15
ATOM     15  C12 UNL A   1      35.786  30.893  28.784  1.00  0.00    +0.000 C 
ATOM     16  O2  UNL A   1      35.704  31.526  29.821  1.00  0.00    +0.000 O 
BRANCH   15   14
ATOM    114  H19 UNL A   1      35.316  31.075  26.833  1.00  0.00    +0.000 H 
ATOM     14  N2  UNL A   1      34.922  31.145  27.732  1.00  0.00    +0.000 N 
BRANCH   14   13
ATOM    113  H18 UNL A   1      33.420  32.472  27.336  1.00  0.00    +0.000 H 
ATOM     13  C11 UNL A   1      33.508  31.499  27.771  1.00  0.00    +0.000 C 
ATOM    112  H17 UNL A   1      33.182  31.473  28.790  1.00  0.00    +0.000 H 
BRANCH   13   12
ATOM     12  C10 UNL A   1      32.618  30.568  26.958  1.00  0.00    +0.000 C 
ATOM    110  H15 UNL A   1      31.652  30.542  27.419  1.00  0.00    +0.000 H 
ATOM    111  H16 UNL A   1      32.594  30.959  25.962  1.00  0.00    +0.000 H 
BRANCH   12   11
ATOM     11  C9  UNL A   1      33.138  29.129  26.851  1.00  0.00    +0.000 C 
ATOM    108  H13 UNL A   1      33.363  28.941  25.822  1.00  0.00    +0.000 H 
ATOM    109  H14 UNL A   1      33.981  29.084  27.509  1.00  0.00    +0.000 H 
BRANCH   11   10
ATOM     10  C8  UNL A   1      32.188  28.017  27.332  1.00  0.00    +0.000 C 
ATOM    107  H12 UNL A   1      31.469  28.510  27.952  1.00  0.00    +0.000 H 
ATOM    106  H11 UNL A   1      32.781  27.281  27.834  1.00  0.00    +0.000 H 
BRANCH   10    9
ATOM      9  C7  UNL A   1      31.368  27.299  26.253  1.00  0.00    +0.000 C 
ATOM    105  H10 UNL A   1      30.995  28.063  25.604  1.00  0.00    +0.000 H 
ATOM    104  H9  UNL A   1      30.596  26.740  26.741  1.00  0.00    +0.000 H 
BRANCH    9    8
ATOM    102  H7  UNL A   1      31.875  26.497  24.349  1.00  0.00    +0.000 H 
ATOM    103  H8  UNL A   1      33.199  26.536  25.524  1.00  0.00    +0.000 H 
ATOM      8  C6  UNL A   1      32.159  26.338  25.367  1.00  0.00    +0.000 C 
BRANCH    8    7
ATOM    101  H6  UNL A   1      31.947  24.734  26.661  1.00  0.00    +0.000 H 
ATOM      7  N1  UNL A   1      31.925  24.950  25.701  1.00  0.00    +0.000 N 
BRANCH    7    5
ATOM      5  C5  UNL A   1      31.678  23.897  24.865  1.00  0.00    +0.000 C 
ATOM      6  O1  UNL A   1      30.617  23.283  24.999  1.00  0.00    +0.000 O 
BRANCH    5    4
ATOM    100  H5  UNL A   1      33.239  24.365  23.541  1.00  0.00    +0.000 H 
ATOM     99  H4  UNL A   1      32.189  23.032  22.997  1.00  0.00    +0.000 H 
ATOM      4  C4  UNL A   1      32.707  23.479  23.820  1.00  0.00    +0.000 C 
BRANCH    4    3
ATOM    129  H34 UNL A   1      32.445  20.863  23.960  1.00  0.00    +0.000 H 
ATOM      2  C2  UNL A   1      35.015  22.865  24.826  1.00  0.00    +0.000 C 
ATOM      3  C3  UNL A   1      33.742  22.488  24.326  1.00  0.00    +0.000 C 
ATOM    135  H40 UNL A   1      36.192  19.769  25.458  1.00  0.00    +0.000 H 
ATOM     80  C57 UNL A   1      33.384  21.124  24.299  1.00  0.00    +0.000 C 
ATOM     81  C58 UNL A   1      34.258  20.117  24.716  1.00  0.00    +0.000 C 
ATOM     88  C65 UNL A   1      35.525  20.501  25.166  1.00  0.00    +0.000 C 
ATOM     89  C66 UNL A   1      35.926  21.853  25.234  1.00  0.00    +0.000 C 
BRANCH    2    1
ATOM      1  C1  UNL A   1      35.381  24.326  24.983  1.00  0.00    +0.000 C 
ATOM     98  H3  UNL A   1      36.383  24.405  25.347  1.00  0.00    +0.000 H 
ATOM     97  H2  UNL A   1      35.305  24.816  24.035  1.00  0.00    +0.000 H 
ATOM     96  H1  UNL A   1      34.712  24.788  25.679  1.00  0.00    +0.000 H 
ENDBRANCH    2    1
BRANCH   81   82
ATOM    130  H35 UNL A   1      32.162  18.945  25.945  1.00  0.00    +0.000 H 
ATOM    131  H36 UNL A   1      31.523  16.610  25.942  1.00  0.00    +0.000 H 
ATOM    132  H37 UNL A   1      32.829  14.993  24.694  1.00  0.00    +0.000 H 
ATOM    133  H38 UNL A   1      34.770  15.720  23.435  1.00  0.00    +0.000 H 
ATOM    134  H39 UNL A   1      35.409  18.054  23.428  1.00  0.00    +0.000 H 
ATOM     82  C59 UNL A   1      33.845  18.705  24.691  1.00  0.00    +0.000 C 
ATOM     83  C60 UNL A   1      32.722  18.265  25.410  1.00  0.00    +0.000 C 
ATOM     84  C61 UNL A   1      32.351  16.917  25.409  1.00  0.00    +0.000 C 
ATOM     85  C62 UNL A   1      33.100  15.988  24.691  1.00  0.00    +0.000 C 
ATOM     86  C63 UNL A   1      34.215  16.406  23.969  1.00  0.00    +0.000 C 
ATOM     87  C64 UNL A   1      34.583  17.754  23.967  1.00  0.00    +0.000 C 
ENDBRANCH   81   82
BRANCH   89   90
ATOM    136  H41 UNL A   1      38.084  20.259  25.138  1.00  0.00    +0.000 H 
ATOM    137  H42 UNL A   1      40.346  20.710  25.874  1.00  0.00    +0.000 H 
ATOM    138  H43 UNL A   1      40.900  22.861  26.848  1.00  0.00    +0.000 H 
ATOM    139  H44 UNL A   1      39.176  24.546  27.119  1.00  0.00    +0.000 H 
ATOM    140  H45 UNL A   1      36.903  24.085  26.424  1.00  0.00    +0.000 H 
ATOM     90  C67 UNL A   1      37.298  22.140  25.698  1.00  0.00    +0.000 C 
ATOM     91  C68 UNL A   1      38.310  21.173  25.559  1.00  0.00    +0.000 C 
ATOM     92  C69 UNL A   1      39.616  21.432  25.981  1.00  0.00    +0.000 C 
ATOM     93  C70 UNL A   1      39.932  22.665  26.545  1.00  0.00    +0.000 C 
ATOM     94  C71 UNL A   1      38.942  23.632  26.700  1.00  0.00    +0.000 C 
ATOM     95  C72 UNL A   1      37.633  23.368  26.290  1.00  0.00    +0.000 C 
ENDBRANCH   89   90
ENDBRANCH    4    3
ENDBRANCH    5    4
ENDBRANCH    7    5
ENDBRANCH    8    7
ENDBRANCH    9    8
ENDBRANCH   10    9
ENDBRANCH   11   10
ENDBRANCH   12   11
ENDBRANCH   13   12
ENDBRANCH   14   13
ENDBRANCH   15   14
ENDBRANCH   17   15
ENDBRANCH   21   20
BRANCH   25   26
ATOM     33  C25 UNL A   1      46.413  24.044  25.014  1.00  0.00    +0.000 C 
ATOM     34  F4  UNL A   1      47.394  24.608  24.294  1.00  0.00    +0.000 F 
ATOM     35  C26 UNL A   1      45.643  24.833  25.877  1.00  0.00    +0.000 C 
ATOM     36  F5  UNL A   1      45.834  26.158  25.812  1.00  0.00    +0.000 F 
ATOM     26  C21 UNL A   1      44.687  24.281  26.746  1.00  0.00    +0.000 C 
ATOM     27  C22 UNL A   1      44.413  22.912  26.531  1.00  0.00    +0.000 C 
ATOM     28  F1  UNL A   1      43.433  22.279  27.188  1.00  0.00    +0.000 F 
ATOM     29  C23 UNL A   1      45.143  22.132  25.631  1.00  0.00    +0.000 C 
ATOM     30  F2  UNL A   1      44.851  20.831  25.488  1.00  0.00    +0.000 F 
ATOM     31  C24 UNL A   1      46.175  22.689  24.906  1.00  0.00    +0.000 C 
ATOM     32  F3  UNL A   1      46.918  21.929  24.089  1.00  0.00    +0.000 F 
ENDBRANCH   25   26
BRANCH   42   43
ATOM     43  C32 UNL A   1      45.203  24.758  33.435  1.00  0.00    +0.000 C 
ATOM     44  C33 UNL A   1      44.464  23.581  33.630  1.00  0.00    +0.000 C 
ATOM     45  F6  UNL A   1      43.224  23.451  33.137  1.00  0.00    +0.000 F 
ATOM     46  C34 UNL A   1      45.001  22.474  34.293  1.00  0.00    +0.000 C 
ATOM     47  F7  UNL A   1      44.243  21.386  34.490  1.00  0.00    +0.000 F 
ATOM     48  C35 UNL A   1      46.315  22.484  34.726  1.00  0.00    +0.000 C 
ATOM     49  F8  UNL A   1      46.838  21.408  35.326  1.00  0.00    +0.000 F 
ATOM     50  C36 UNL A   1      47.089  23.607  34.513  1.00  0.00    +0.000 C 
ATOM     51  F9  UNL A   1      48.377  23.614  34.884  1.00  0.00    +0.000 F 
ATOM     52  C37 UNL A   1      46.539  24.730  33.895  1.00  0.00    +0.000 C 
ATOM     53  F10 UNL A   1      47.353  25.785  33.740  1.00  0.00    +0.000 F 
ENDBRANCH   42   43
BRANCH   57   58
ATOM     65  C45 UNL A   1      38.245  29.576  33.083  1.00  0.00    +0.000 C 
ATOM     66  F14 UNL A   1      37.313  28.622  32.954  1.00  0.00    +0.000 F 
ATOM     67  C46 UNL A   1      39.598  29.231  33.056  1.00  0.00    +0.000 C 
ATOM     68  F15 UNL A   1      39.929  27.942  32.892  1.00  0.00    +0.000 F 
ATOM     58  C41 UNL A   1      40.589  30.218  33.093  1.00  0.00    +0.000 C 
ATOM     59  C42 UNL A   1      40.175  31.553  33.246  1.00  0.00    +0.000 C 
ATOM     60  F11 UNL A   1      41.087  32.538  33.288  1.00  0.00    +0.000 F 
ATOM     61  C43 UNL A   1      38.825  31.896  33.262  1.00  0.00    +0.000 C 
ATOM     62  F12 UNL A   1      38.462  33.186  33.317  1.00  0.00    +0.000 F 
ATOM     63  C44 UNL A   1      37.861  30.908  33.156  1.00  0.00    +0.000 C 
ATOM     64  F13 UNL A   1      36.564  31.238  33.093  1.00  0.00    +0.000 F 
ENDBRANCH   57   58
TORSDOF 19
ENDMDL
MODEL 3
REMARK VINA RESULT:     -12.4      2.688      5.379
ROOT
ATOM     21  C17 UNL A   1      40.777  27.681  28.737  1.00  0.00    +0.000 C 
ATOM     22  C18 UNL A   1      40.896  26.246  28.409  1.00  0.00    +0.000 C 
ATOM     23  N3  UNL A   1      41.848  25.482  28.838  1.00  0.00    +0.000 N 
ATOM     24  C19 UNL A   1      41.763  24.289  28.157  1.00  0.00    +0.000 C 
ATOM     25  C20 UNL A   1      42.817  23.420  28.171  1.00  0.00    +0.000 C 
ATOM     37  C27 UNL A   1      43.925  23.930  28.969  1.00  0.00    +0.000 C 
ATOM     38  C28 UNL A   1      45.076  24.618  28.620  1.00  0.00    +0.000 C 
ATOM     39  C29 UNL A   1      45.633  25.173  29.794  1.00  0.00    +0.000 C 
ATOM     40  C30 UNL A   1      44.827  24.815  30.860  1.00  0.00    +0.000 C 
ATOM     41  N4  UNL A   1      43.805  24.036  30.351  1.00  0.00    +0.000 N 
ATOM     42  C31 UNL A   1      44.917  25.112  32.278  1.00  0.00    +0.000 C 
ATOM     54  C38 UNL A   1      44.695  26.416  32.608  1.00  0.00    +0.000 C 
ATOM     55  N5  UNL A   1      44.137  27.298  31.722  1.00  0.00    +0.000 N 
ATOM     56  C39 UNL A   1      43.968  28.447  32.313  1.00  0.00    +0.000 C 
ATOM     57  C40 UNL A   1      43.278  29.622  31.672  1.00  0.00    +0.000 C 
ATOM     69  C47 UNL A   1      43.221  29.566  30.311  1.00  0.00    +0.000 C 
ATOM     70  C48 UNL A   1      44.078  28.751  29.468  1.00  0.00    +0.000 C 
ATOM     71  C49 UNL A   1      43.274  28.006  28.696  1.00  0.00    +0.000 C 
ATOM     72  C50 UNL A   1      41.893  28.418  28.932  1.00  0.00    +0.000 C 
ATOM     73  N6  UNL A   1      41.989  29.668  29.601  1.00  0.00    +0.000 N 
ATOM     74  C51 UNL A   1      44.460  28.453  33.687  1.00  0.00    +0.000 C 
ATOM     75  C52 UNL A   1      44.904  27.191  33.816  1.00  0.00    +0.000 C 
ATOM     76  C53 UNL A   1      40.516  24.360  27.428  1.00  0.00    +0.000 C 
ATOM     77  C54 UNL A   1      39.923  25.550  27.579  1.00  0.00    +0.000 C 
ATOM    117  H22 UNL A   1      45.460  24.710  27.667  1.00  0.00    +0.000 H 
ATOM    118  H23 UNL A   1      46.489  25.745  29.847  1.00  0.00    +0.000 H 
ATOM    119  H24 UNL A   1      43.096  23.616  30.888  1.00  0.00    +0.000 H 
ATOM    120  H25 UNL A   1      45.110  28.747  29.464  1.00  0.00    +0.000 H 
ATOM    121  H26 UNL A   1      43.579  27.265  28.045  1.00  0.00    +0.000 H 
ATOM    122  H27 UNL A   1      41.356  30.422  29.581  1.00  0.00    +0.000 H 
ATOM    123  H28 UNL A   1      44.466  29.221  34.377  1.00  0.00    +0.000 H 
ATOM    124  H29 UNL A   1      45.342  26.817  34.673  1.00  0.00    +0.000 H 
ATOM    125  H30 UNL A   1      40.130  23.589  26.861  1.00  0.00    +0.000 H 
ATOM    126  H31 UNL A   1      39.021  25.885  27.207  1.00  0.00    +0.000 H 
ENDROOT
BRANCH   21   20
ATOM     78  C55 UNL A   1      39.102  29.119  27.709  1.00  0.00    +0.000 C 
ATOM     79  C56 UNL A   1      38.037  29.993  27.816  1.00  0.00    +0.000 C 
ATOM     17  C13 UNL A   1      37.430  30.171  29.058  1.00  0.00    +0.000 C 
ATOM     18  C14 UNL A   1      37.676  29.273  30.102  1.00  0.00    +0.000 C 
ATOM     19  C15 UNL A   1      38.700  28.336  29.969  1.00  0.00    +0.000 C 
ATOM    115  H20 UNL A   1      37.105  29.302  30.962  1.00  0.00    +0.000 H 
ATOM    116  H21 UNL A   1      38.880  27.649  30.718  1.00  0.00    +0.000 H 
ATOM     20  C16 UNL A   1      39.477  28.340  28.808  1.00  0.00    +0.000 C 
ATOM    127  H32 UNL A   1      39.620  29.041  26.820  1.00  0.00    +0.000 H 
ATOM    128  H33 UNL A   1      37.695  30.506  26.989  1.00  0.00    +0.000 H 
BRANCH   17   15
ATOM     15  C12 UNL A   1      36.661  31.400  29.368  1.00  0.00    +0.000 C 
ATOM     16  O2  UNL A   1      36.797  32.396  28.679  1.00  0.00    +0.000 O 
BRANCH   15   14
ATOM    114  H19 UNL A   1      35.018  30.676  30.280  1.00  0.00    +0.000 H 
ATOM     14  N2  UNL A   1      35.716  31.363  30.378  1.00  0.00    +0.000 N 
BRANCH   14   13
ATOM    113  H18 UNL A   1      36.519  32.077  32.116  1.00  0.00    +0.000 H 
ATOM     13  C11 UNL A   1      35.609  32.200  31.567  1.00  0.00    +0.000 C 
ATOM    112  H17 UNL A   1      34.749  31.888  32.123  1.00  0.00    +0.000 H 
BRANCH   13   12
ATOM     12  C10 UNL A   1      35.471  33.686  31.263  1.00  0.00    +0.000 C 
ATOM    110  H15 UNL A   1      35.474  34.219  32.191  1.00  0.00    +0.000 H 
ATOM    111  H16 UNL A   1      36.294  33.947  30.631  1.00  0.00    +0.000 H 
BRANCH   12   11
ATOM     11  C9  UNL A   1      34.196  34.060  30.499  1.00  0.00    +0.000 C 
ATOM    108  H13 UNL A   1      33.622  33.166  30.369  1.00  0.00    +0.000 H 
ATOM    109  H14 UNL A   1      33.720  34.812  31.094  1.00  0.00    +0.000 H 
BRANCH   11   10
ATOM     10  C8  UNL A   1      34.387  34.698  29.112  1.00  0.00    +0.000 C 
ATOM    107  H12 UNL A   1      35.433  34.612  28.904  1.00  0.00    +0.000 H 
ATOM    106  H11 UNL A   1      34.023  35.703  29.165  1.00  0.00    +0.000 H 
BRANCH   10    9
ATOM      9  C7  UNL A   1      33.683  34.010  27.935  1.00  0.00    +0.000 C 
ATOM    105  H10 UNL A   1      34.386  34.006  27.128  1.00  0.00    +0.000 H 
ATOM    104  H9  UNL A   1      32.788  34.556  27.718  1.00  0.00    +0.000 H 
BRANCH    9    8
ATOM    102  H7  UNL A   1      33.620  32.265  29.152  1.00  0.00    +0.000 H 
ATOM    103  H8  UNL A   1      32.239  32.472  28.063  1.00  0.00    +0.000 H 
ATOM      8  C6  UNL A   1      33.301  32.549  28.171  1.00  0.00    +0.000 C 
BRANCH    8    7
ATOM    101  H6  UNL A   1      34.508  32.072  26.557  1.00  0.00    +0.000 H 
ATOM      7  N1  UNL A   1      33.904  31.652  27.210  1.00  0.00    +0.000 N 
BRANCH    7    5
ATOM      5  C5  UNL A   1      33.749  30.300  27.085  1.00  0.00    +0.000 C 
ATOM      6  O1  UNL A   1      34.739  29.624  26.799  1.00  0.00    +0.000 O 
BRANCH    5    4
ATOM    100  H5  UNL A   1      31.708  30.438  27.560  1.00  0.00    +0.000 H 
ATOM     99  H4  UNL A   1      32.461  28.882  27.996  1.00  0.00    +0.000 H 
ATOM      4  C4  UNL A   1      32.377  29.657  27.263  1.00  0.00    +0.000 C 
BRANCH    4    3
ATOM    129  H34 UNL A   1      30.830  30.859  25.504  1.00  0.00    +0.000 H 
ATOM      2  C2  UNL A   1      32.019  27.706  25.594  1.00  0.00    +0.000 C 
ATOM      3  C3  UNL A   1      31.804  29.050  25.993  1.00  0.00    +0.000 C 
ATOM    135  H40 UNL A   1      30.307  27.810  22.692  1.00  0.00    +0.000 H 
ATOM     80  C57 UNL A   1      31.005  29.891  25.191  1.00  0.00    +0.000 C 
ATOM     81  C58 UNL A   1      30.441  29.457  23.989  1.00  0.00    +0.000 C 
ATOM     88  C65 UNL A   1      30.698  28.142  23.588  1.00  0.00    +0.000 C 
ATOM     89  C66 UNL A   1      31.473  27.253  24.363  1.00  0.00    +0.000 C 
BRANCH    2    1
ATOM      1  C1  UNL A   1      32.768  26.745  26.493  1.00  0.00    +0.000 C 
ATOM     98  H3  UNL A   1      32.130  25.927  26.751  1.00  0.00    +0.000 H 
ATOM     97  H2  UNL A   1      33.632  26.377  25.980  1.00  0.00    +0.000 H 
ATOM     96  H1  UNL A   1      33.072  27.254  27.384  1.00  0.00    +0.000 H 
ENDBRANCH    2    1
BRANCH   81   82
ATOM    130  H35 UNL A   1      29.680  29.209  21.413  1.00  0.00    +0.000 H 
ATOM    131  H36 UNL A   1      28.334  30.721  20.084  1.00  0.00    +0.000 H 
ATOM    132  H37 UNL A   1      27.463  32.759  21.068  1.00  0.00    +0.000 H 
ATOM    133  H38 UNL A   1      27.930  33.276  23.391  1.00  0.00    +0.000 H 
ATOM    134  H39 UNL A   1      29.268  31.764  24.726  1.00  0.00    +0.000 H 
ATOM     82  C59 UNL A   1      29.597  30.356  23.186  1.00  0.00    +0.000 C 
ATOM     83  C60 UNL A   1      29.312  30.073  21.840  1.00  0.00    +0.000 C 
ATOM     84  C61 UNL A   1      28.535  30.944  21.071  1.00  0.00    +0.000 C 
ATOM     85  C62 UNL A   1      28.033  32.114  21.636  1.00  0.00    +0.000 C 
ATOM     86  C63 UNL A   1      28.302  32.410  22.970  1.00  0.00    +0.000 C 
ATOM     87  C64 UNL A   1      29.076  31.537  23.739  1.00  0.00    +0.000 C 
ENDBRANCH   81   82
BRANCH   89   90
ATOM    136  H41 UNL A   1      29.783  25.167  24.330  1.00  0.00    +0.000 H 
ATOM    137  H42 UNL A   1      30.127  22.941  23.443  1.00  0.00    +0.000 H 
ATOM    138  H43 UNL A   1      32.239  22.362  22.400  1.00  0.00    +0.000 H 
ATOM    139  H44 UNL A   1      34.020  24.004  22.282  1.00  0.00    +0.000 H 
ATOM    140  H45 UNL A   1      33.697  26.220  23.205  1.00  0.00    +0.000 H 
ATOM     90  C67 UNL A   1      31.703  25.896  23.827  1.00  0.00    +0.000 C 
ATOM     91  C68 UNL A   1      30.687  24.926  23.895  1.00  0.00    +0.000 C 
ATOM     92  C69 UNL A   1      30.883  23.642  23.383  1.00  0.00    +0.000 C 
ATOM     93  C70 UNL A   1      32.097  23.308  22.789  1.00  0.00    +0.000 C 
ATOM     94  C71 UNL A   1      33.119  24.252  22.720  1.00  0.00    +0.000 C 
ATOM     95  C72 UNL A   1      32.928  25.532  23.246  1.00  0.00    +0.000 C 
ENDBRANCH   89   90
ENDBRANCH    4    3
ENDBRANCH    5    4
ENDBRANCH    7    5
ENDBRANCH    8    7
ENDBRANCH    9    8
ENDBRANCH   10    9
ENDBRANCH   11   10
ENDBRANCH   12   11
ENDBRANCH   13   12
ENDBRANCH   14   13
ENDBRANCH   15   14
ENDBRANCH   17   15
ENDBRANCH   21   20
BRANCH   25   26
ATOM     33  C25 UNL A   1      44.167  21.075  25.424  1.00  0.00    +0.000 C 
ATOM     34  F4  UNL A   1      45.152  21.074  24.513  1.00  0.00    +0.000 F 
ATOM     35  C26 UNL A   1      43.889  22.243  26.144  1.00  0.00    +0.000 C 
ATOM     36  F5  UNL A   1      44.532  23.355  25.762  1.00  0.00    +0.000 F 
ATOM     26  C21 UNL A   1      42.955  22.272  27.194  1.00  0.00    +0.000 C 
ATOM     27  C22 UNL A   1      42.173  21.103  27.323  1.00  0.00    +0.000 C 
ATOM     28  F1  UNL A   1      41.154  21.029  28.188  1.00  0.00    +0.000 F 
ATOM     29  C23 UNL A   1      42.412  19.952  26.567  1.00  0.00    +0.000 C 
ATOM     30  F2  UNL A   1      41.650  18.864  26.752  1.00  0.00    +0.000 F 
ATOM     31  C24 UNL A   1      43.441  19.924  25.649  1.00  0.00    +0.000 C 
ATOM     32  F3  UNL A   1      43.713  18.801  24.970  1.00  0.00    +0.000 F 
ENDBRANCH   25   26
BRANCH   42   43
ATOM     43  C32 UNL A   1      45.334  24.031  33.235  1.00  0.00    +0.000 C 
ATOM     44  C33 UNL A   1      44.510  22.953  33.595  1.00  0.00    +0.000 C 
ATOM     45  F6  UNL A   1      43.267  22.837  33.104  1.00  0.00    +0.000 F 
ATOM     46  C34 UNL A   1      44.959  21.928  34.431  1.00  0.00    +0.000 C 
ATOM     47  F7  UNL A   1      44.122  20.941  34.779  1.00  0.00    +0.000 F 
ATOM     48  C35 UNL A   1      46.266  21.912  34.883  1.00  0.00    +0.000 C 
ATOM     49  F8  UNL A   1      46.703  20.908  35.654  1.00  0.00    +0.000 F 
ATOM     50  C36 UNL A   1      47.122  22.930  34.515  1.00  0.00    +0.000 C 
ATOM     51  F9  UNL A   1      48.403  22.903  34.906  1.00  0.00    +0.000 F 
ATOM     52  C37 UNL A   1      46.661  23.979  33.720  1.00  0.00    +0.000 C 
ATOM     53  F10 UNL A   1      47.551  24.937  33.420  1.00  0.00    +0.000 F 
ENDBRANCH   42   43
BRANCH   57   58
ATOM     65  C45 UNL A   1      39.798  30.497  32.841  1.00  0.00    +0.000 C 
ATOM     66  F14 UNL A   1      38.639  29.870  33.088  1.00  0.00    +0.000 F 
ATOM     67  C46 UNL A   1      40.962  29.751  32.648  1.00  0.00    +0.000 C 
ATOM     68  F15 UNL A   1      40.885  28.413  32.706  1.00  0.00    +0.000 F 
ATOM     58  C41 UNL A   1      42.162  30.376  32.295  1.00  0.00    +0.000 C 
ATOM     59  C42 UNL A   1      42.172  31.781  32.231  1.00  0.00    +0.000 C 
ATOM     60  F11 UNL A   1      43.299  32.430  31.897  1.00  0.00    +0.000 F 
ATOM     61  C43 UNL A   1      41.007  32.523  32.414  1.00  0.00    +0.000 C 
ATOM     62  F12 UNL A   1      41.029  33.854  32.257  1.00  0.00    +0.000 F 
ATOM     63  C44 UNL A   1      39.815  31.877  32.696  1.00  0.00    +0.000 C 
ATOM     64  F13 UNL A   1      38.678  32.578  32.797  1.00  0.00    +0.000 F 
ENDBRANCH   57   58
TORSDOF 19
ENDMDL
MODEL 4
REMARK VINA RESULT:     -12.4      3.892     10.746
ROOT
ATOM     21  C17 UNL A   1      40.197  28.696  29.621  1.00  0.00    +0.000 C 
ATOM     22  C18 UNL A   1      39.211  29.738  29.971  1.00  0.00    +0.000 C 
ATOM     23  N3  UNL A   1      39.522  30.959  30.265  1.00  0.00    +0.000 N 
ATOM     24  C19 UNL A   1      38.390  31.573  30.751  1.00  0.00    +0.000 C 
ATOM     25  C20 UNL A   1      38.492  32.753  31.429  1.00  0.00    +0.000 C 
ATOM     37  C27 UNL A   1      39.876  33.205  31.519  1.00  0.00    +0.000 C 
ATOM     38  C28 UNL A   1      40.829  33.067  32.515  1.00  0.00    +0.000 C 
ATOM     39  C29 UNL A   1      42.092  33.377  31.962  1.00  0.00    +0.000 C 
ATOM     40  C30 UNL A   1      41.907  33.713  30.633  1.00  0.00    +0.000 C 
ATOM     41  N4  UNL A   1      40.551  33.632  30.381  1.00  0.00    +0.000 N 
ATOM     42  C31 UNL A   1      42.847  34.104  29.598  1.00  0.00    +0.000 C 
ATOM     54  C38 UNL A   1      43.690  33.116  29.183  1.00  0.00    +0.000 C 
ATOM     55  N5  UNL A   1      43.465  31.801  29.491  1.00  0.00    +0.000 N 
ATOM     56  C39 UNL A   1      44.372  31.067  28.913  1.00  0.00    +0.000 C 
ATOM     57  C40 UNL A   1      44.372  29.561  28.944  1.00  0.00    +0.000 C 
ATOM     69  C47 UNL A   1      43.631  29.020  29.952  1.00  0.00    +0.000 C 
ATOM     70  C48 UNL A   1      43.224  29.716  31.161  1.00  0.00    +0.000 C 
ATOM     71  C49 UNL A   1      41.891  29.603  31.249  1.00  0.00    +0.000 C 
ATOM     72  C50 UNL A   1      41.429  28.726  30.177  1.00  0.00    +0.000 C 
ATOM     73  N6  UNL A   1      42.598  28.069  29.705  1.00  0.00    +0.000 N 
ATOM     74  C51 UNL A   1      45.352  31.857  28.173  1.00  0.00    +0.000 C 
ATOM     75  C52 UNL A   1      44.896  33.105  28.378  1.00  0.00    +0.000 C 
ATOM     76  C53 UNL A   1      37.319  30.630  30.509  1.00  0.00    +0.000 C 
ATOM     77  C54 UNL A   1      37.778  29.483  29.995  1.00  0.00    +0.000 C 
ATOM    117  H22 UNL A   1      40.649  32.786  33.491  1.00  0.00    +0.000 H 
ATOM    118  H23 UNL A   1      42.994  33.356  32.462  1.00  0.00    +0.000 H 
ATOM    119  H24 UNL A   1      40.124  33.845  29.520  1.00  0.00    +0.000 H 
ATOM    120  H25 UNL A   1      43.844  30.204  31.825  1.00  0.00    +0.000 H 
ATOM    121  H26 UNL A   1      41.292  30.058  31.955  1.00  0.00    +0.000 H 
ATOM    122  H27 UNL A   1      42.675  27.174  29.304  1.00  0.00    +0.000 H 
ATOM    123  H28 UNL A   1      46.176  31.542  27.636  1.00  0.00    +0.000 H 
ATOM    124  H29 UNL A   1      45.351  33.954  28.007  1.00  0.00    +0.000 H 
ATOM    125  H30 UNL A   1      36.324  30.818  30.709  1.00  0.00    +0.000 H 
ATOM    126  H31 UNL A   1      37.257  28.644  29.697  1.00  0.00    +0.000 H 
ENDROOT
BRANCH   21   20
ATOM     78  C55 UNL A   1      39.267  26.468  29.301  1.00  0.00    +0.000 C 
ATOM     79  C56 UNL A   1      39.181  25.292  28.580  1.00  0.00    +0.000 C 
ATOM     17  C13 UNL A   1      39.795  25.218  27.331  1.00  0.00    +0.000 C 
ATOM     18  C14 UNL A   1      40.219  26.381  26.679  1.00  0.00    +0.000 C 
ATOM     19  C15 UNL A   1      40.234  27.587  27.379  1.00  0.00    +0.000 C 
ATOM    115  H20 UNL A   1      40.517  26.348  25.692  1.00  0.00    +0.000 H 
ATOM    116  H21 UNL A   1      40.520  28.461  26.908  1.00  0.00    +0.000 H 
ATOM     20  C16 UNL A   1      39.857  27.598  28.723  1.00  0.00    +0.000 C 
ATOM    127  H32 UNL A   1      38.897  26.514  30.263  1.00  0.00    +0.000 H 
ATOM    128  H33 UNL A   1      38.672  24.480  28.960  1.00  0.00    +0.000 H 
BRANCH   17   15
ATOM     15  C12 UNL A   1      40.180  23.913  26.741  1.00  0.00    +0.000 C 
ATOM     16  O2  UNL A   1      41.182  23.338  27.129  1.00  0.00    +0.000 O 
BRANCH   15   14
ATOM    114  H19 UNL A   1      39.628  23.348  24.888  1.00  0.00    +0.000 H 
ATOM     14  N2  UNL A   1      39.331  23.315  25.826  1.00  0.00    +0.000 N 
BRANCH   14   13
ATOM    113  H18 UNL A   1      37.912  22.612  27.117  1.00  0.00    +0.000 H 
ATOM     13  C11 UNL A   1      38.060  22.642  26.058  1.00  0.00    +0.000 C 
ATOM    112  H17 UNL A   1      38.111  21.665  25.623  1.00  0.00    +0.000 H 
BRANCH   13   12
ATOM     12  C10 UNL A   1      36.860  23.369  25.464  1.00  0.00    +0.000 C 
ATOM    110  H15 UNL A   1      35.993  23.102  26.030  1.00  0.00    +0.000 H 
ATOM    111  H16 UNL A   1      37.083  24.415  25.511  1.00  0.00    +0.000 H 
BRANCH   12   11
ATOM     11  C9  UNL A   1      36.590  23.044  23.990  1.00  0.00    +0.000 C 
ATOM    108  H13 UNL A   1      37.304  23.583  23.403  1.00  0.00    +0.000 H 
ATOM    109  H14 UNL A   1      36.665  21.979  23.918  1.00  0.00    +0.000 H 
BRANCH   11   10
ATOM     10  C8  UNL A   1      35.189  23.390  23.455  1.00  0.00    +0.000 C 
ATOM    107  H12 UNL A   1      35.273  23.336  22.390  1.00  0.00    +0.000 H 
ATOM    106  H11 UNL A   1      34.926  24.355  23.835  1.00  0.00    +0.000 H 
BRANCH   10    9
ATOM      9  C7  UNL A   1      34.055  22.422  23.819  1.00  0.00    +0.000 C 
ATOM    105  H10 UNL A   1      34.475  21.715  24.505  1.00  0.00    +0.000 H 
ATOM    104  H9  UNL A   1      33.696  21.977  22.915  1.00  0.00    +0.000 H 
BRANCH    9    8
ATOM    102  H7  UNL A   1      32.480  22.355  25.248  1.00  0.00    +0.000 H 
ATOM    103  H8  UNL A   1      33.215  23.949  25.014  1.00  0.00    +0.000 H 
ATOM      8  C6  UNL A   1      32.865  23.056  24.539  1.00  0.00    +0.000 C 
BRANCH    8    7
ATOM    101  H6  UNL A   1      31.367  22.688  23.157  1.00  0.00    +0.000 H 
ATOM      7  N1  UNL A   1      31.801  23.431  23.633  1.00  0.00    +0.000 N 
BRANCH    7    5
ATOM      5  C5  UNL A   1      31.318  24.677  23.348  1.00  0.00    +0.000 C 
ATOM      6  O1  UNL A   1      31.633  25.193  22.274  1.00  0.00    +0.000 O 
BRANCH    5    4
ATOM    100  H5  UNL A   1      30.609  24.960  25.305  1.00  0.00    +0.000 H 
ATOM     99  H4  UNL A   1      29.422  25.338  24.031  1.00  0.00    +0.000 H 
ATOM      4  C4  UNL A   1      30.439  25.417  24.352  1.00  0.00    +0.000 C 
BRANCH    4    3
ATOM    129  H34 UNL A   1      29.212  27.444  23.203  1.00  0.00    +0.000 H 
ATOM      2  C2  UNL A   1      31.849  27.374  25.302  1.00  0.00    +0.000 C 
ATOM      3  C3  UNL A   1      30.777  26.891  24.508  1.00  0.00    +0.000 C 
ATOM    135  H40 UNL A   1      31.346  30.668  24.790  1.00  0.00    +0.000 H 
ATOM     80  C57 UNL A   1      29.971  27.806  23.801  1.00  0.00    +0.000 C 
ATOM     81  C58 UNL A   1      30.166  29.187  23.881  1.00  0.00    +0.000 C 
ATOM     88  C65 UNL A   1      31.200  29.650  24.702  1.00  0.00    +0.000 C 
ATOM     89  C66 UNL A   1      32.049  28.777  25.415  1.00  0.00    +0.000 C 
BRANCH    2    1
ATOM      1  C1  UNL A   1      32.806  26.412  25.974  1.00  0.00    +0.000 C 
ATOM     98  H3  UNL A   1      32.252  25.624  26.438  1.00  0.00    +0.000 H 
ATOM     97  H2  UNL A   1      33.469  26.000  25.242  1.00  0.00    +0.000 H 
ATOM     96  H1  UNL A   1      33.374  26.934  26.716  1.00  0.00    +0.000 H 
ENDBRANCH    2    1
BRANCH   81   82
ATOM    130  H35 UNL A   1      29.185  28.911  21.384  1.00  0.00    +0.000 H 
ATOM    131  H36 UNL A   1      27.834  30.466  20.112  1.00  0.00    +0.000 H 
ATOM    132  H37 UNL A   1      27.176  32.586  21.087  1.00  0.00    +0.000 H 
ATOM    133  H38 UNL A   1      27.861  33.142  23.347  1.00  0.00    +0.000 H 
ATOM    134  H39 UNL A   1      29.204  31.587  24.626  1.00  0.00    +0.000 H 
ATOM     82  C59 UNL A   1      29.318  30.114  23.115  1.00  0.00    +0.000 C 
ATOM     83  C60 UNL A   1      28.908  29.809  21.807  1.00  0.00    +0.000 C 
ATOM     84  C61 UNL A   1      28.128  30.705  21.071  1.00  0.00    +0.000 C 
ATOM     85  C62 UNL A   1      27.748  31.923  21.632  1.00  0.00    +0.000 C 
ATOM     86  C63 UNL A   1      28.142  32.241  22.929  1.00  0.00    +0.000 C 
ATOM     87  C64 UNL A   1      28.919  31.343  23.665  1.00  0.00    +0.000 C 
ENDBRANCH   81   82
BRANCH   89   90
ATOM    136  H41 UNL A   1      31.944  31.077  26.794  1.00  0.00    +0.000 H 
ATOM    137  H42 UNL A   1      33.625  32.076  28.222  1.00  0.00    +0.000 H 
ATOM    138  H43 UNL A   1      35.751  30.958  28.561  1.00  0.00    +0.000 H 
ATOM    139  H44 UNL A   1      36.205  28.858  27.436  1.00  0.00    +0.000 H 
ATOM    140  H45 UNL A   1      34.545  27.875  25.972  1.00  0.00    +0.000 H 
ATOM     90  C67 UNL A   1      33.089  29.378  26.274  1.00  0.00    +0.000 C 
ATOM     91  C68 UNL A   1      32.849  30.600  26.927  1.00  0.00    +0.000 C 
ATOM     92  C69 UNL A   1      33.816  31.177  27.753  1.00  0.00    +0.000 C 
ATOM     93  C70 UNL A   1      35.039  30.537  27.942  1.00  0.00    +0.000 C 
ATOM     94  C71 UNL A   1      35.300  29.331  27.297  1.00  0.00    +0.000 C 
ATOM     95  C72 UNL A   1      34.337  28.761  26.459  1.00  0.00    +0.000 C 
ENDBRANCH   89   90
ENDBRANCH    4    3
ENDBRANCH    5    4
ENDBRANCH    7    5
ENDBRANCH    8    7
ENDBRANCH    9    8
ENDBRANCH   10    9
ENDBRANCH   11   10
ENDBRANCH   12   11
ENDBRANCH   13   12
ENDBRANCH   14   13
ENDBRANCH   15   14
ENDBRANCH   17   15
ENDBRANCH   21   20
BRANCH   25   26
ATOM     33  C25 UNL A   1      36.431  33.940  34.464  1.00  0.00    +0.000 C 
ATOM     34  F4  UNL A   1      36.506  33.881  35.801  1.00  0.00    +0.000 F 
ATOM     35  C26 UNL A   1      37.327  33.199  33.684  1.00  0.00    +0.000 C 
ATOM     36  F5  UNL A   1      38.121  32.337  34.334  1.00  0.00    +0.000 F 
ATOM     26  C21 UNL A   1      37.377  33.315  32.284  1.00  0.00    +0.000 C 
ATOM     27  C22 UNL A   1      36.323  34.064  31.714  1.00  0.00    +0.000 C 
ATOM     28  F1  UNL A   1      36.159  34.152  30.389  1.00  0.00    +0.000 F 
ATOM     29  C23 UNL A   1      35.392  34.761  32.489  1.00  0.00    +0.000 C 
ATOM     30  F2  UNL A   1      34.428  35.474  31.890  1.00  0.00    +0.000 F 
ATOM     31  C24 UNL A   1      35.475  34.736  33.866  1.00  0.00    +0.000 C 
ATOM     32  F3  UNL A   1      34.623  35.455  34.610  1.00  0.00    +0.000 F 
ENDBRANCH   25   26
BRANCH   42   43
ATOM     43  C32 UNL A   1      42.897  35.538  29.148  1.00  0.00    +0.000 C 
ATOM     44  C33 UNL A   1      42.137  36.042  28.081  1.00  0.00    +0.000 C 
ATOM     45  F6  UNL A   1      41.318  35.248  27.377  1.00  0.00    +0.000 F 
ATOM     46  C34 UNL A   1      42.156  37.396  27.737  1.00  0.00    +0.000 C 
ATOM     47  F7  UNL A   1      41.445  37.824  26.685  1.00  0.00    +0.000 F 
ATOM     48  C35 UNL A   1      42.883  38.302  28.489  1.00  0.00    +0.000 C 
ATOM     49  F8  UNL A   1      42.867  39.605  28.180  1.00  0.00    +0.000 F 
ATOM     50  C36 UNL A   1      43.607  37.853  29.575  1.00  0.00    +0.000 C 
ATOM     51  F9  UNL A   1      44.277  38.724  30.341  1.00  0.00    +0.000 F 
ATOM     52  C37 UNL A   1      43.629  36.494  29.889  1.00  0.00    +0.000 C 
ATOM     53  F10 UNL A   1      44.369  36.138  30.949  1.00  0.00    +0.000 F 
ENDBRANCH   42   43
BRANCH   57   58
ATOM     65  C45 UNL A   1      43.413  27.785  25.755  1.00  0.00    +0.000 C 
ATOM     66  F14 UNL A   1      42.483  27.887  24.794  1.00  0.00    +0.000 F 
ATOM     67  C46 UNL A   1      43.578  28.825  26.672  1.00  0.00    +0.000 C 
ATOM     68  F15 UNL A   1      42.787  29.903  26.571  1.00  0.00    +0.000 F 
ATOM     58  C41 UNL A   1      44.475  28.701  27.739  1.00  0.00    +0.000 C 
ATOM     59  C42 UNL A   1      45.261  27.537  27.800  1.00  0.00    +0.000 C 
ATOM     60  F11 UNL A   1      46.137  27.370  28.804  1.00  0.00    +0.000 F 
ATOM     61  C43 UNL A   1      45.087  26.497  26.889  1.00  0.00    +0.000 C 
ATOM     62  F12 UNL A   1      45.787  25.362  27.028  1.00  0.00    +0.000 F 
ATOM     63  C44 UNL A   1      44.145  26.613  25.881  1.00  0.00    +0.000 C 
ATOM     64  F13 UNL A   1      43.919  25.586  25.051  1.00  0.00    +0.000 F 
ENDBRANCH   57   58
TORSDOF 19
ENDMDL
MODEL 5
REMARK VINA RESULT:     -12.3      3.892     10.562
ROOT
ATOM     21  C17 UNL A   1      40.198  28.685  29.673  1.00  0.00    +0.000 C 
ATOM     22  C18 UNL A   1      39.220  29.725  30.052  1.00  0.00    +0.000 C 
ATOM     23  N3  UNL A   1      39.538  30.939  30.367  1.00  0.00    +0.000 N 
ATOM     24  C19 UNL A   1      38.413  31.547  30.875  1.00  0.00    +0.000 C 
ATOM     25  C20 UNL A   1      38.526  32.713  31.576  1.00  0.00    +0.000 C 
ATOM     37  C27 UNL A   1      39.912  33.157  31.663  1.00  0.00    +0.000 C 
ATOM     38  C28 UNL A   1      40.874  32.995  32.647  1.00  0.00    +0.000 C 
ATOM     39  C29 UNL A   1      42.133  33.312  32.090  1.00  0.00    +0.000 C 
ATOM     40  C30 UNL A   1      41.938  33.675  30.770  1.00  0.00    +0.000 C 
ATOM     41  N4  UNL A   1      40.579  33.604  30.528  1.00  0.00    +0.000 N 
ATOM     42  C31 UNL A   1      42.871  34.083  29.734  1.00  0.00    +0.000 C 
ATOM     54  C38 UNL A   1      43.706  33.100  29.292  1.00  0.00    +0.000 C 
ATOM     55  N5  UNL A   1      43.478  31.780  29.577  1.00  0.00    +0.000 N 
ATOM     56  C39 UNL A   1      44.377  31.053  28.975  1.00  0.00    +0.000 C 
ATOM     57  C40 UNL A   1      44.370  29.547  28.977  1.00  0.00    +0.000 C 
ATOM     69  C47 UNL A   1      43.636  28.989  29.980  1.00  0.00    +0.000 C 
ATOM     70  C48 UNL A   1      43.243  29.662  31.206  1.00  0.00    +0.000 C 
ATOM     71  C49 UNL A   1      41.910  29.553  31.304  1.00  0.00    +0.000 C 
ATOM     72  C50 UNL A   1      41.435  28.700  30.218  1.00  0.00    +0.000 C 
ATOM     73  N6  UNL A   1      42.597  28.048  29.723  1.00  0.00    +0.000 N 
ATOM     74  C51 UNL A   1      45.354  31.854  28.244  1.00  0.00    +0.000 C 
ATOM     75  C52 UNL A   1      44.905  33.099  28.477  1.00  0.00    +0.000 C 
ATOM     76  C53 UNL A   1      37.336  30.613  30.625  1.00  0.00    +0.000 C 
ATOM     77  C54 UNL A   1      37.785  29.476  30.084  1.00  0.00    +0.000 C 
ATOM    117  H22 UNL A   1      40.701  32.696  33.619  1.00  0.00    +0.000 H 
ATOM    118  H23 UNL A   1      43.040  33.277  32.581  1.00  0.00    +0.000 H 
ATOM    119  H24 UNL A   1      40.146  33.836  29.675  1.00  0.00    +0.000 H 
ATOM    120  H25 UNL A   1      43.871  30.135  31.875  1.00  0.00    +0.000 H 
ATOM    121  H26 UNL A   1      41.319  29.996  32.024  1.00  0.00    +0.000 H 
ATOM    122  H27 UNL A   1      42.667  27.160  29.303  1.00  0.00    +0.000 H 
ATOM    123  H28 UNL A   1      46.171  31.547  27.693  1.00  0.00    +0.000 H 
ATOM    124  H29 UNL A   1      45.360  33.954  28.119  1.00  0.00    +0.000 H 
ATOM    125  H30 UNL A   1      36.344  30.802  30.837  1.00  0.00    +0.000 H 
ATOM    126  H31 UNL A   1      37.258  28.644  29.774  1.00  0.00    +0.000 H 
ENDROOT
BRANCH   21   20
ATOM     78  C55 UNL A   1      39.235  26.478  29.313  1.00  0.00    +0.000 C 
ATOM     79  C56 UNL A   1      39.134  25.315  28.574  1.00  0.00    +0.000 C 
ATOM     17  C13 UNL A   1      39.754  25.250  27.327  1.00  0.00    +0.000 C 
ATOM     18  C14 UNL A   1      40.199  26.417  26.696  1.00  0.00    +0.000 C 
ATOM     19  C15 UNL A   1      40.229  27.612  27.414  1.00  0.00    +0.000 C 
ATOM    115  H20 UNL A   1      40.502  26.394  25.709  1.00  0.00    +0.000 H 
ATOM    116  H21 UNL A   1      40.532  28.487  26.958  1.00  0.00    +0.000 H 
ATOM     20  C16 UNL A   1      39.845  27.607  28.756  1.00  0.00    +0.000 C 
ATOM    127  H32 UNL A   1      38.860  26.515  30.274  1.00  0.00    +0.000 H 
ATOM    128  H33 UNL A   1      38.609  24.506  28.939  1.00  0.00    +0.000 H 
BRANCH   17   15
ATOM     15  C12 UNL A   1      40.121  23.949  26.719  1.00  0.00    +0.000 C 
ATOM     16  O2  UNL A   1      41.290  23.615  26.648  1.00  0.00    +0.000 O 
BRANCH   15   14
ATOM    114  H19 UNL A   1      38.205  23.459  26.335  1.00  0.00    +0.000 H 
ATOM     14  N2  UNL A   1      39.114  23.081  26.333  1.00  0.00    +0.000 N 
BRANCH   14   13
ATOM    113  H18 UNL A   1      39.396  21.114  26.811  1.00  0.00    +0.000 H 
ATOM     13  C11 UNL A   1      39.211  21.685  25.925  1.00  0.00    +0.000 C 
ATOM    112  H17 UNL A   1      40.002  21.598  25.209  1.00  0.00    +0.000 H 
BRANCH   13   12
ATOM     12  C10 UNL A   1      37.935  21.135  25.301  1.00  0.00    +0.000 C 
ATOM    110  H15 UNL A   1      38.194  20.285  24.705  1.00  0.00    +0.000 H 
ATOM    111  H16 UNL A   1      37.280  20.891  26.112  1.00  0.00    +0.000 H 
BRANCH   12   11
ATOM     11  C9  UNL A   1      37.184  22.134  24.414  1.00  0.00    +0.000 C 
ATOM    108  H13 UNL A   1      37.913  22.724  23.900  1.00  0.00    +0.000 H 
ATOM    109  H14 UNL A   1      36.564  21.536  23.778  1.00  0.00    +0.000 H 
BRANCH   11   10
ATOM     10  C8  UNL A   1      36.221  23.099  25.128  1.00  0.00    +0.000 C 
ATOM    107  H12 UNL A   1      36.532  24.079  24.829  1.00  0.00    +0.000 H 
ATOM    106  H11 UNL A   1      36.292  22.909  26.178  1.00  0.00    +0.000 H 
BRANCH   10    9
ATOM      9  C7  UNL A   1      34.740  23.009  24.737  1.00  0.00    +0.000 C 
ATOM    105  H10 UNL A   1      34.448  21.993  24.907  1.00  0.00    +0.000 H 
ATOM    104  H9  UNL A   1      34.648  23.313  23.715  1.00  0.00    +0.000 H 
BRANCH    9    8
ATOM    102  H7  UNL A   1      33.824  23.527  26.586  1.00  0.00    +0.000 H 
ATOM    103  H8  UNL A   1      34.120  24.884  25.489  1.00  0.00    +0.000 H 
ATOM      8  C6  UNL A   1      33.794  23.869  25.573  1.00  0.00    +0.000 C 
BRANCH    8    7
ATOM    101  H6  UNL A   1      31.925  23.001  25.359  1.00  0.00    +0.000 H 
ATOM      7  N1  UNL A   1      32.426  23.810  25.106  1.00  0.00    +0.000 N 
BRANCH    7    5
ATOM      5  C5  UNL A   1      31.735  24.723  24.359  1.00  0.00    +0.000 C 
ATOM      6  O1  UNL A   1      32.085  24.904  23.191  1.00  0.00    +0.000 O 
BRANCH    5    4
ATOM    100  H5  UNL A   1      30.569  25.276  26.016  1.00  0.00    +0.000 H 
ATOM     99  H4  UNL A   1      29.681  25.239  24.471  1.00  0.00    +0.000 H 
ATOM      4  C4  UNL A   1      30.585  25.515  24.973  1.00  0.00    +0.000 C 
BRANCH    4    3
ATOM    129  H34 UNL A   1      32.372  26.995  26.218  1.00  0.00    +0.000 H 
ATOM      2  C2  UNL A   1      29.906  27.854  24.086  1.00  0.00    +0.000 C 
ATOM      3  C3  UNL A   1      30.744  27.023  24.872  1.00  0.00    +0.000 C 
ATOM    135  H40 UNL A   1      31.432  30.789  24.736  1.00  0.00    +0.000 H 
ATOM     80  C57 UNL A   1      31.785  27.604  25.626  1.00  0.00    +0.000 C 
ATOM     81  C58 UNL A   1      32.048  28.975  25.599  1.00  0.00    +0.000 C 
ATOM     88  C65 UNL A   1      31.239  29.776  24.785  1.00  0.00    +0.000 C 
ATOM     89  C66 UNL A   1      30.172  29.249  24.028  1.00  0.00    +0.000 C 
BRANCH    2    1
ATOM      1  C1  UNL A   1      28.706  27.277  23.364  1.00  0.00    +0.000 C 
ATOM     98  H3  UNL A   1      27.985  26.945  24.081  1.00  0.00    +0.000 H 
ATOM     97  H2  UNL A   1      28.270  28.030  22.741  1.00  0.00    +0.000 H 
ATOM     96  H1  UNL A   1      29.017  26.450  22.761  1.00  0.00    +0.000 H 
ENDBRANCH    2    1
BRANCH   81   82
ATOM    130  H35 UNL A   1      32.130  31.356  26.864  1.00  0.00    +0.000 H 
ATOM    131  H36 UNL A   1      33.939  32.317  28.156  1.00  0.00    +0.000 H 
ATOM    132  H37 UNL A   1      36.005  31.085  28.461  1.00  0.00    +0.000 H 
ATOM    133  H38 UNL A   1      36.254  28.880  27.482  1.00  0.00    +0.000 H 
ATOM    134  H39 UNL A   1      34.446  27.911  26.197  1.00  0.00    +0.000 H 
ATOM     82  C59 UNL A   1      33.130  29.551  26.412  1.00  0.00    +0.000 C 
ATOM     83  C60 UNL A   1      33.005  30.824  26.991  1.00  0.00    +0.000 C 
ATOM     84  C61 UNL A   1      34.047  31.381  27.737  1.00  0.00    +0.000 C 
ATOM     85  C62 UNL A   1      35.234  30.673  27.914  1.00  0.00    +0.000 C 
ATOM     86  C63 UNL A   1      35.376  29.407  27.351  1.00  0.00    +0.000 C 
ATOM     87  C64 UNL A   1      34.332  28.850  26.608  1.00  0.00    +0.000 C 
ENDBRANCH   81   82
BRANCH   89   90
ATOM    136  H41 UNL A   1      28.517  31.218  24.799  1.00  0.00    +0.000 H 
ATOM    137  H42 UNL A   1      27.260  32.774  23.436  1.00  0.00    +0.000 H 
ATOM    138  H43 UNL A   1      27.419  32.672  21.017  1.00  0.00    +0.000 H 
ATOM    139  H44 UNL A   1      28.808  30.985  19.966  1.00  0.00    +0.000 H 
ATOM    140  H45 UNL A   1      30.034  29.398  21.323  1.00  0.00    +0.000 H 
ATOM     90  C67 UNL A   1      29.403  30.184  23.181  1.00  0.00    +0.000 C 
ATOM     91  C68 UNL A   1      28.583  31.163  23.770  1.00  0.00    +0.000 C 
ATOM     92  C69 UNL A   1      27.859  32.063  22.986  1.00  0.00    +0.000 C 
ATOM     93  C70 UNL A   1      27.946  32.001  21.598  1.00  0.00    +0.000 C 
ATOM     94  C71 UNL A   1      28.744  31.032  20.995  1.00  0.00    +0.000 C 
ATOM     95  C72 UNL A   1      29.458  30.123  21.780  1.00  0.00    +0.000 C 
ENDBRANCH   89   90
ENDBRANCH    4    3
ENDBRANCH    5    4
ENDBRANCH    7    5
ENDBRANCH    8    7
ENDBRANCH    9    8
ENDBRANCH   10    9
ENDBRANCH   11   10
ENDBRANCH   12   11
ENDBRANCH   13   12
ENDBRANCH   14   13
ENDBRANCH   15   14
ENDBRANCH   17   15
ENDBRANCH   21   20
BRANCH   25   26
ATOM     33  C25 UNL A   1      36.494  33.842  34.653  1.00  0.00    +0.000 C 
ATOM     34  F4  UNL A   1      36.578  33.751  35.988  1.00  0.00    +0.000 F 
ATOM     35  C26 UNL A   1      37.379  33.114  33.849  1.00  0.00    +0.000 C 
ATOM     36  F5  UNL A   1      38.172  32.231  34.473  1.00  0.00    +0.000 F 
ATOM     26  C21 UNL A   1      37.420  33.263  32.452  1.00  0.00    +0.000 C 
ATOM     27  C22 UNL A   1      36.368  34.032  31.908  1.00  0.00    +0.000 C 
ATOM     28  F1  UNL A   1      36.196  34.152  30.586  1.00  0.00    +0.000 F 
ATOM     29  C23 UNL A   1      35.448  34.717  32.705  1.00  0.00    +0.000 C 
ATOM     30  F2  UNL A   1      34.485  35.451  32.130  1.00  0.00    +0.000 F 
ATOM     31  C24 UNL A   1      35.540  34.659  34.080  1.00  0.00    +0.000 C 
ATOM     32  F3  UNL A   1      34.698  35.366  34.847  1.00  0.00    +0.000 F 
ENDBRANCH   25   26
BRANCH   42   43
ATOM     43  C32 UNL A   1      42.923  35.525  29.313  1.00  0.00    +0.000 C 
ATOM     44  C33 UNL A   1      43.528  36.534  30.078  1.00  0.00    +0.000 C 
ATOM     45  F6  UNL A   1      44.092  36.262  31.263  1.00  0.00    +0.000 F 
ATOM     46  C34 UNL A   1      43.620  37.851  29.620  1.00  0.00    +0.000 C 
ATOM     47  F7  UNL A   1      44.170  38.789  30.403  1.00  0.00    +0.000 F 
ATOM     48  C35 UNL A   1      43.169  38.189  28.356  1.00  0.00    +0.000 C 
ATOM     49  F8  UNL A   1      43.294  39.444  27.907  1.00  0.00    +0.000 F 
ATOM     50  C36 UNL A   1      42.610  37.215  27.555  1.00  0.00    +0.000 C 
ATOM     51  F9  UNL A   1      42.212  37.516  26.311  1.00  0.00    +0.000 F 
ATOM     52  C37 UNL A   1      42.472  35.911  28.030  1.00  0.00    +0.000 C 
ATOM     53  F10 UNL A   1      41.903  35.028  27.195  1.00  0.00    +0.000 F 
ENDBRANCH   42   43
BRANCH   57   58
ATOM     65  C45 UNL A   1      43.377  27.842  25.759  1.00  0.00    +0.000 C 
ATOM     66  F14 UNL A   1      42.441  27.968  24.808  1.00  0.00    +0.000 F 
ATOM     67  C46 UNL A   1      43.555  28.861  26.696  1.00  0.00    +0.000 C 
ATOM     68  F15 UNL A   1      42.770  29.946  26.622  1.00  0.00    +0.000 F 
ATOM     58  C41 UNL A   1      44.459  28.711  27.754  1.00  0.00    +0.000 C 
ATOM     59  C42 UNL A   1      45.238  27.541  27.786  1.00  0.00    +0.000 C 
ATOM     60  F11 UNL A   1      46.121  27.349  28.779  1.00  0.00    +0.000 F 
ATOM     61  C43 UNL A   1      45.051  26.521  26.856  1.00  0.00    +0.000 C 
ATOM     62  F12 UNL A   1      45.745  25.379  26.966  1.00  0.00    +0.000 F 
ATOM     63  C44 UNL A   1      44.103  26.663  25.857  1.00  0.00    +0.000 C 
ATOM     64  F13 UNL A   1      43.865  25.654  25.008  1.00  0.00    +0.000 F 
ENDBRANCH   57   58
TORSDOF 19
ENDMDL
MODEL 6
REMARK VINA RESULT:     -12.1     38.762     44.382
ROOT
ATOM     21  C17 UNL A   1       6.606  31.355   1.268  1.00  0.00    +0.000 C 
ATOM     22  C18 UNL A   1       7.975  31.605   0.774  1.00  0.00    +0.000 C 
ATOM     23  N3  UNL A   1       8.938  30.744   0.840  1.00  0.00    +0.000 N 
ATOM     24  C19 UNL A   1      10.102  31.393   0.500  1.00  0.00    +0.000 C 
ATOM     25  C20 UNL A   1      11.309  30.823   0.787  1.00  0.00    +0.000 C 
ATOM     37  C27 UNL A   1      11.152  29.527   1.436  1.00  0.00    +0.000 C 
ATOM     38  C28 UNL A   1      11.165  29.156   2.772  1.00  0.00    +0.000 C 
ATOM     39  C29 UNL A   1      10.626  27.854   2.873  1.00  0.00    +0.000 C 
ATOM     40  C30 UNL A   1      10.293  27.428   1.599  1.00  0.00    +0.000 C 
ATOM     41  N4  UNL A   1      10.643  28.444   0.729  1.00  0.00    +0.000 N 
ATOM     42  C31 UNL A   1       9.703  26.191   1.120  1.00  0.00    +0.000 C 
ATOM     54  C38 UNL A   1       8.400  26.000   1.473  1.00  0.00    +0.000 C 
ATOM     55  N5  UNL A   1       7.632  27.019   1.970  1.00  0.00    +0.000 N 
ATOM     56  C39 UNL A   1       6.417  26.587   2.153  1.00  0.00    +0.000 C 
ATOM     57  C40 UNL A   1       5.274  27.466   2.587  1.00  0.00    +0.000 C 
ATOM     69  C47 UNL A   1       5.657  28.630   3.186  1.00  0.00    +0.000 C 
ATOM     70  C48 UNL A   1       6.958  28.878   3.782  1.00  0.00    +0.000 C 
ATOM     71  C49 UNL A   1       7.444  29.990   3.211  1.00  0.00    +0.000 C 
ATOM     72  C50 UNL A   1       6.417  30.549   2.338  1.00  0.00    +0.000 C 
ATOM     73  N6  UNL A   1       5.211  29.901   2.720  1.00  0.00    +0.000 N 
ATOM     74  C51 UNL A   1       6.266  25.171   1.828  1.00  0.00    +0.000 C 
ATOM     75  C52 UNL A   1       7.509  24.857   1.427  1.00  0.00    +0.000 C 
ATOM     76  C53 UNL A   1       9.681  32.691   0.017  1.00  0.00    +0.000 C 
ATOM     77  C54 UNL A   1       8.360  32.858   0.139  1.00  0.00    +0.000 C 
ATOM    117  H22 UNL A   1      11.508  29.730   3.557  1.00  0.00    +0.000 H 
ATOM    118  H23 UNL A   1      10.501  27.315   3.743  1.00  0.00    +0.000 H 
ATOM    119  H24 UNL A   1      10.546  28.405  -0.249  1.00  0.00    +0.000 H 
ATOM    120  H25 UNL A   1       7.420  28.307   4.507  1.00  0.00    +0.000 H 
ATOM    121  H26 UNL A   1       8.386  30.384   3.364  1.00  0.00    +0.000 H 
ATOM    122  H27 UNL A   1       4.291  30.247   2.673  1.00  0.00    +0.000 H 
ATOM    123  H28 UNL A   1       5.428  24.571   1.890  1.00  0.00    +0.000 H 
ATOM    124  H29 UNL A   1       7.797  23.913   1.122  1.00  0.00    +0.000 H 
ATOM    125  H30 UNL A   1      10.322  33.400  -0.373  1.00  0.00    +0.000 H 
ATOM    126  H31 UNL A   1       7.772  33.659  -0.140  1.00  0.00    +0.000 H 
ENDROOT
BRANCH   21   20
ATOM     78  C55 UNL A   1       4.838  33.025   1.388  1.00  0.00    +0.000 C 
ATOM     79  C56 UNL A   1       3.586  33.481   1.020  1.00  0.00    +0.000 C 
ATOM     17  C13 UNL A   1       2.899  32.824   0.001  1.00  0.00    +0.000 C 
ATOM     18  C14 UNL A   1       3.568  31.930  -0.842  1.00  0.00    +0.000 C 
ATOM     19  C15 UNL A   1       4.863  31.525  -0.518  1.00  0.00    +0.000 C 
ATOM    115  H20 UNL A   1       3.109  31.572  -1.695  1.00  0.00    +0.000 H 
ATOM    116  H21 UNL A   1       5.381  30.886  -1.140  1.00  0.00    +0.000 H 
ATOM     20  C16 UNL A   1       5.447  31.998   0.659  1.00  0.00    +0.000 C 
ATOM    127  H32 UNL A   1       5.323  33.441   2.198  1.00  0.00    +0.000 H 
ATOM    128  H33 UNL A   1       3.165  34.295   1.493  1.00  0.00    +0.000 H 
BRANCH   17   15
ATOM     15  C12 UNL A   1       1.423  32.908  -0.109  1.00  0.00    +0.000 C 
ATOM     16  O2  UNL A   1       0.735  32.918   0.896  1.00  0.00    +0.000 O 
BRANCH   15   14
ATOM    114  H19 UNL A   1       0.353  32.308  -1.706  1.00  0.00    +0.000 H 
ATOM     14  N2  UNL A   1       0.852  33.081  -1.358  1.00  0.00    +0.000 N 
BRANCH   14   13
ATOM    113  H18 UNL A   1       1.646  34.899  -1.847  1.00  0.00    +0.000 H 
ATOM     13  C11 UNL A   1       0.888  34.248  -2.229  1.00  0.00    +0.000 C 
ATOM    112  H17 UNL A   1      -0.082  34.702  -2.224  1.00  0.00    +0.000 H 
BRANCH   13   12
ATOM     12  C10 UNL A   1       1.262  33.930  -3.671  1.00  0.00    +0.000 C 
ATOM    110  H15 UNL A   1       0.482  33.333  -4.096  1.00  0.00    +0.000 H 
ATOM    111  H16 UNL A   1       1.386  34.870  -4.169  1.00  0.00    +0.000 H 
BRANCH   12   11
ATOM     11  C9  UNL A   1       2.586  33.173  -3.828  1.00  0.00    +0.000 C 
ATOM    108  H13 UNL A   1       3.373  33.897  -3.858  1.00  0.00    +0.000 H 
ATOM    109  H14 UNL A   1       2.628  32.502  -2.995  1.00  0.00    +0.000 H 
BRANCH   11   10
ATOM     10  C8  UNL A   1       2.724  32.280  -5.074  1.00  0.00    +0.000 C 
ATOM    107  H12 UNL A   1       2.958  32.951  -5.876  1.00  0.00    +0.000 H 
ATOM    106  H11 UNL A   1       1.806  31.745  -5.193  1.00  0.00    +0.000 H 
BRANCH   10    9
ATOM      9  C7  UNL A   1       3.864  31.253  -5.062  1.00  0.00    +0.000 C 
ATOM    105  H10 UNL A   1       4.622  31.657  -4.423  1.00  0.00    +0.000 H 
ATOM    104  H9  UNL A   1       4.191  31.108  -6.071  1.00  0.00    +0.000 H 
BRANCH    9    8
ATOM    102  H7  UNL A   1       2.536  29.954  -4.025  1.00  0.00    +0.000 H 
ATOM    103  H8  UNL A   1       3.511  29.181  -5.285  1.00  0.00    +0.000 H 
ATOM      8  C6  UNL A   1       3.501  29.887  -4.481  1.00  0.00    +0.000 C 
BRANCH    8    7
ATOM    101  H6  UNL A   1       4.064  29.136  -2.634  1.00  0.00    +0.000 H 
ATOM      7  N1  UNL A   1       4.451  29.432  -3.489  1.00  0.00    +0.000 N 
BRANCH    7    5
ATOM      5  C5  UNL A   1       5.813  29.359  -3.577  1.00  0.00    +0.000 C 
ATOM      6  O1  UNL A   1       6.303  28.737  -4.522  1.00  0.00    +0.000 O 
BRANCH    5    4
ATOM    100  H5  UNL A   1       7.333  29.233  -2.134  1.00  0.00    +0.000 H 
ATOM     99  H4  UNL A   1       6.061  30.423  -1.759  1.00  0.00    +0.000 H 
ATOM      4  C4  UNL A   1       6.694  30.004  -2.512  1.00  0.00    +0.000 C 
BRANCH    4    3
ATOM    129  H34 UNL A   1       5.948  32.362  -3.417  1.00  0.00    +0.000 H 
ATOM      2  C2  UNL A   1       9.012  30.985  -3.132  1.00  0.00    +0.000 C 
ATOM      3  C3  UNL A   1       7.602  31.104  -3.038  1.00  0.00    +0.000 C 
ATOM    135  H40 UNL A   1       9.653  34.073  -4.322  1.00  0.00    +0.000 H 
ATOM     80  C57 UNL A   1       6.977  32.295  -3.462  1.00  0.00    +0.000 C 
ATOM     81  C58 UNL A   1       7.704  33.386  -3.943  1.00  0.00    +0.000 C 
ATOM     88  C65 UNL A   1       9.098  33.269  -3.990  1.00  0.00    +0.000 C 
ATOM     89  C66 UNL A   1       9.771  32.093  -3.597  1.00  0.00    +0.000 C 
BRANCH    2    1
ATOM      1  C1  UNL A   1       9.700  29.677  -2.801  1.00  0.00    +0.000 C 
ATOM     98  H3  UNL A   1      10.560  29.559  -3.425  1.00  0.00    +0.000 H 
ATOM     97  H2  UNL A   1      10.002  29.683  -1.775  1.00  0.00    +0.000 H 
ATOM     96  H1  UNL A   1       9.022  28.866  -2.969  1.00  0.00    +0.000 H 
ENDBRANCH    2    1
BRANCH   81   82
ATOM    130  H35 UNL A   1       8.672  35.897  -4.134  1.00  0.00    +0.000 H 
ATOM    131  H36 UNL A   1       7.521  37.910  -4.828  1.00  0.00    +0.000 H 
ATOM    132  H37 UNL A   1       5.190  37.812  -5.491  1.00  0.00    +0.000 H 
ATOM    133  H38 UNL A   1       4.017  35.690  -5.473  1.00  0.00    +0.000 H 
ATOM    134  H39 UNL A   1       5.166  33.672  -4.788  1.00  0.00    +0.000 H 
ATOM     82  C59 UNL A   1       7.019  34.607  -4.395  1.00  0.00    +0.000 C 
ATOM     83  C60 UNL A   1       7.682  35.845  -4.416  1.00  0.00    +0.000 C 
ATOM     84  C61 UNL A   1       7.019  37.009  -4.817  1.00  0.00    +0.000 C 
ATOM     85  C62 UNL A   1       5.681  36.953  -5.200  1.00  0.00    +0.000 C 
ATOM     86  C63 UNL A   1       5.008  35.733  -5.188  1.00  0.00    +0.000 C 
ATOM     87  C64 UNL A   1       5.672  34.571  -4.791  1.00  0.00    +0.000 C 
ENDBRANCH   81   82
BRANCH   89   90
ATOM    136  H41 UNL A   1      11.362  30.780  -5.315  1.00  0.00    +0.000 H 
ATOM    137  H42 UNL A   1      13.779  30.775  -5.454  1.00  0.00    +0.000 H 
ATOM    138  H43 UNL A   1      15.088  32.098  -3.898  1.00  0.00    +0.000 H 
ATOM    139  H44 UNL A   1      13.974  33.395  -2.178  1.00  0.00    +0.000 H 
ATOM    140  H45 UNL A   1      11.558  33.370  -2.007  1.00  0.00    +0.000 H 
ATOM     90  C67 UNL A   1      11.246  32.092  -3.661  1.00  0.00    +0.000 C 
ATOM     91  C68 UNL A   1      11.913  31.339  -4.644  1.00  0.00    +0.000 C 
ATOM     92  C69 UNL A   1      13.306  31.336  -4.728  1.00  0.00    +0.000 C 
ATOM     93  C70 UNL A   1      14.058  32.091  -3.831  1.00  0.00    +0.000 C 
ATOM     94  C71 UNL A   1      13.417  32.836  -2.844  1.00  0.00    +0.000 C 
ATOM     95  C72 UNL A   1      12.023  32.828  -2.752  1.00  0.00    +0.000 C 
ENDBRANCH   89   90
ENDBRANCH    4    3
ENDBRANCH    5    4
ENDBRANCH    7    5
ENDBRANCH    8    7
ENDBRANCH    9    8
ENDBRANCH   10    9
ENDBRANCH   11   10
ENDBRANCH   12   11
ENDBRANCH   13   12
ENDBRANCH   14   13
ENDBRANCH   15   14
ENDBRANCH   17   15
ENDBRANCH   21   20
BRANCH   25   26
ATOM     33  C25 UNL A   1      14.076  33.380   1.608  1.00  0.00    +0.000 C 
ATOM     34  F4  UNL A   1      14.215  34.494   2.341  1.00  0.00    +0.000 F 
ATOM     35  C26 UNL A   1      12.806  32.822   1.424  1.00  0.00    +0.000 C 
ATOM     36  F5  UNL A   1      11.764  33.537   1.872  1.00  0.00    +0.000 F 
ATOM     26  C21 UNL A   1      12.613  31.593   0.771  1.00  0.00    +0.000 C 
ATOM     27  C22 UNL A   1      13.761  31.075   0.132  1.00  0.00    +0.000 C 
ATOM     28  F1  UNL A   1      13.705  29.984  -0.640  1.00  0.00    +0.000 F 
ATOM     29  C23 UNL A   1      15.023  31.660   0.268  1.00  0.00    +0.000 C 
ATOM     30  F2  UNL A   1      16.082  31.108  -0.344  1.00  0.00    +0.000 F 
ATOM     31  C24 UNL A   1      15.188  32.787   1.045  1.00  0.00    +0.000 C 
ATOM     32  F3  UNL A   1      16.408  33.312   1.228  1.00  0.00    +0.000 F 
ENDBRANCH   25   26
BRANCH   42   43
ATOM     43  C32 UNL A   1      10.561  25.198   0.387  1.00  0.00    +0.000 C 
ATOM     44  C33 UNL A   1      10.454  24.948  -0.990  1.00  0.00    +0.000 C 
ATOM     45  F6  UNL A   1       9.546  25.586  -1.742  1.00  0.00    +0.000 F 
ATOM     46  C34 UNL A   1      11.318  24.070  -1.649  1.00  0.00    +0.000 C 
ATOM     47  F7  UNL A   1      11.151  23.832  -2.958  1.00  0.00    +0.000 F 
ATOM     48  C35 UNL A   1      12.358  23.463  -0.968  1.00  0.00    +0.000 C 
ATOM     49  F8  UNL A   1      13.207  22.652  -1.612  1.00  0.00    +0.000 F 
ATOM     50  C36 UNL A   1      12.525  23.719   0.378  1.00  0.00    +0.000 C 
ATOM     51  F9  UNL A   1      13.556  23.176   1.040  1.00  0.00    +0.000 F 
ATOM     52  C37 UNL A   1      11.634  24.556   1.048  1.00  0.00    +0.000 C 
ATOM     53  F10 UNL A   1      11.857  24.740   2.358  1.00  0.00    +0.000 F 
ENDBRANCH   42   43
BRANCH   57   58
ATOM     65  C45 UNL A   1       2.656  28.462   0.058  1.00  0.00    +0.000 C 
ATOM     66  F14 UNL A   1       2.605  28.982  -1.177  1.00  0.00    +0.000 F 
ATOM     67  C46 UNL A   1       3.873  28.005   0.568  1.00  0.00    +0.000 C 
ATOM     68  F15 UNL A   1       4.970  28.109  -0.197  1.00  0.00    +0.000 F 
ATOM     58  C41 UNL A   1       3.969  27.546   1.886  1.00  0.00    +0.000 C 
ATOM     59  C42 UNL A   1       2.786  27.479   2.642  1.00  0.00    +0.000 C 
ATOM     60  F11 UNL A   1       2.824  27.046   3.912  1.00  0.00    +0.000 F 
ATOM     61  C43 UNL A   1       1.575  27.946   2.135  1.00  0.00    +0.000 C 
ATOM     62  F12 UNL A   1       0.482  27.954   2.912  1.00  0.00    +0.000 F 
ATOM     63  C44 UNL A   1       1.517  28.459   0.850  1.00  0.00    +0.000 C 
ATOM     64  F13 UNL A   1       0.373  28.979   0.385  1.00  0.00    +0.000 F 
ENDBRANCH   57   58
TORSDOF 19
ENDMDL
MODEL 7
REMARK VINA RESULT:     -12.1     32.424     39.063
ROOT
ATOM     21  C17 UNL A   1       9.545   3.756  27.063  1.00  0.00    +0.000 C 
ATOM     22  C18 UNL A   1       8.688   4.498  26.116  1.00  0.00    +0.000 C 
ATOM     23  N3  UNL A   1       8.403   5.755  26.229  1.00  0.00    +0.000 N 
ATOM     24  C19 UNL A   1       7.416   6.042  25.314  1.00  0.00    +0.000 C 
ATOM     25  C20 UNL A   1       6.702   7.201  25.423  1.00  0.00    +0.000 C 
ATOM     37  C27 UNL A   1       7.144   8.001  26.558  1.00  0.00    +0.000 C 
ATOM     38  C28 UNL A   1       6.664   8.110  27.854  1.00  0.00    +0.000 C 
ATOM     39  C29 UNL A   1       7.651   8.749  28.638  1.00  0.00    +0.000 C 
ATOM     40  C30 UNL A   1       8.728   9.038  27.818  1.00  0.00    +0.000 C 
ATOM     41  N4  UNL A   1       8.397   8.603  26.549  1.00  0.00    +0.000 N 
ATOM     42  C31 UNL A   1      10.004   9.673  28.092  1.00  0.00    +0.000 C 
ATOM     54  C38 UNL A   1      10.853   8.947  28.874  1.00  0.00    +0.000 C 
ATOM     55  N5  UNL A   1      10.644   7.617  29.121  1.00  0.00    +0.000 N 
ATOM     56  C39 UNL A   1      11.635   7.154  29.828  1.00  0.00    +0.000 C 
ATOM     57  C40 UNL A   1      11.794   5.702  30.193  1.00  0.00    +0.000 C 
ATOM     69  C47 UNL A   1      10.643   4.974  30.116  1.00  0.00    +0.000 C 
ATOM     70  C48 UNL A   1       9.300   5.525  30.127  1.00  0.00    +0.000 C 
ATOM     71  C49 UNL A   1       8.677   5.063  29.034  1.00  0.00    +0.000 C 
ATOM     72  C50 UNL A   1       9.557   4.106  28.369  1.00  0.00    +0.000 C 
ATOM     73  N6  UNL A   1      10.552   3.786  29.333  1.00  0.00    +0.000 N 
ATOM     74  C51 UNL A   1      12.612   8.183  30.173  1.00  0.00    +0.000 C 
ATOM     75  C52 UNL A   1      12.083   9.263  29.574  1.00  0.00    +0.000 C 
ATOM     76  C53 UNL A   1       7.302   4.852  24.498  1.00  0.00    +0.000 C 
ATOM     77  C54 UNL A   1       8.099   3.873  24.940  1.00  0.00    +0.000 C 
ATOM    117  H22 UNL A   1       5.746   7.782  28.189  1.00  0.00    +0.000 H 
ATOM    118  H23 UNL A   1       7.582   8.962  29.644  1.00  0.00    +0.000 H 
ATOM    119  H24 UNL A   1       8.967   8.704  25.753  1.00  0.00    +0.000 H 
ATOM    120  H25 UNL A   1       8.901   6.154  30.842  1.00  0.00    +0.000 H 
ATOM    121  H26 UNL A   1       7.734   5.337  28.715  1.00  0.00    +0.000 H 
ATOM    122  H27 UNL A   1      11.056   2.947  29.434  1.00  0.00    +0.000 H 
ATOM    123  H28 UNL A   1      13.479   8.102  30.728  1.00  0.00    +0.000 H 
ATOM    124  H29 UNL A   1      12.502  10.206  29.609  1.00  0.00    +0.000 H 
ATOM    125  H30 UNL A   1       6.683   4.769  23.677  1.00  0.00    +0.000 H 
ATOM    126  H31 UNL A   1       8.253   2.929  24.554  1.00  0.00    +0.000 H 
ENDROOT
BRANCH   21   20
ATOM     78  C55 UNL A   1      11.391   2.224  27.476  1.00  0.00    +0.000 C 
ATOM     79  C56 UNL A   1      12.360   1.354  27.013  1.00  0.00    +0.000 C 
ATOM     17  C13 UNL A   1      12.346   0.979  25.670  1.00  0.00    +0.000 C 
ATOM     18  C14 UNL A   1      11.217   1.218  24.880  1.00  0.00    +0.000 C 
ATOM     19  C15 UNL A   1      10.198   2.032  25.373  1.00  0.00    +0.000 C 
ATOM    115  H20 UNL A   1      11.138   0.796  23.941  1.00  0.00    +0.000 H 
ATOM    116  H21 UNL A   1       9.346   2.199  24.815  1.00  0.00    +0.000 H 
ATOM     20  C16 UNL A   1      10.346   2.617  26.633  1.00  0.00    +0.000 C 
ATOM    127  H32 UNL A   1      11.437   2.582  28.443  1.00  0.00    +0.000 H 
ATOM    128  H33 UNL A   1      13.083   0.988  27.650  1.00  0.00    +0.000 H 
BRANCH   17   15
ATOM     15  C12 UNL A   1      13.573   0.491  24.997  1.00  0.00    +0.000 C 
ATOM     16  O2  UNL A   1      14.452   1.274  24.682  1.00  0.00    +0.000 O 
BRANCH   15   14
ATOM    114  H19 UNL A   1      14.538  -1.255  25.278  1.00  0.00    +0.000 H 
ATOM     14  N2  UNL A   1      13.749  -0.873  24.831  1.00  0.00    +0.000 N 
BRANCH   14   13
ATOM    113  H18 UNL A   1      12.183  -2.183  24.764  1.00  0.00    +0.000 H 
ATOM     13  C11 UNL A   1      12.929  -1.820  24.088  1.00  0.00    +0.000 C 
ATOM    112  H17 UNL A   1      13.563  -2.600  23.720  1.00  0.00    +0.000 H 
BRANCH   13   12
ATOM     12  C10 UNL A   1      12.192  -1.203  22.906  1.00  0.00    +0.000 C 
ATOM    110  H15 UNL A   1      11.411  -0.578  23.288  1.00  0.00    +0.000 H 
ATOM    111  H16 UNL A   1      12.921  -0.660  22.341  1.00  0.00    +0.000 H 
BRANCH   12   11
ATOM     11  C9  UNL A   1      11.566  -2.224  21.949  1.00  0.00    +0.000 C 
ATOM    108  H13 UNL A   1      10.525  -1.991  21.862  1.00  0.00    +0.000 H 
ATOM    109  H14 UNL A   1      12.120  -2.134  21.038  1.00  0.00    +0.000 H 
BRANCH   11   10
ATOM     10  C8  UNL A   1      11.681  -3.705  22.351  1.00  0.00    +0.000 C 
ATOM    107  H12 UNL A   1      10.889  -3.869  23.051  1.00  0.00    +0.000 H 
ATOM    106  H11 UNL A   1      12.664  -3.858  22.745  1.00  0.00    +0.000 H 
BRANCH   10    9
ATOM      9  C7  UNL A   1      11.459  -4.739  21.240  1.00  0.00    +0.000 C 
ATOM    105  H10 UNL A   1      10.601  -5.309  21.529  1.00  0.00    +0.000 H 
ATOM    104  H9  UNL A   1      12.350  -5.326  21.151  1.00  0.00    +0.000 H 
BRANCH    9    8
ATOM    102  H7  UNL A   1      11.718  -3.268  19.724  1.00  0.00    +0.000 H 
ATOM    103  H8  UNL A   1      11.374  -4.901  19.134  1.00  0.00    +0.000 H 
ATOM      8  C6  UNL A   1      11.138  -4.155  19.864  1.00  0.00    +0.000 C 
BRANCH    8    7
ATOM    101  H6  UNL A   1       9.551  -2.968  19.262  1.00  0.00    +0.000 H 
ATOM      7  N1  UNL A   1       9.738  -3.823  19.713  1.00  0.00    +0.000 N 
BRANCH    7    5
ATOM      5  C5  UNL A   1       8.640  -4.532  20.112  1.00  0.00    +0.000 C 
ATOM      6  O1  UNL A   1       8.415  -5.613  19.563  1.00  0.00    +0.000 O 
BRANCH    5    4
ATOM    100  H5  UNL A   1       6.746  -4.418  21.011  1.00  0.00    +0.000 H 
ATOM     99  H4  UNL A   1       7.696  -2.913  21.103  1.00  0.00    +0.000 H 
ATOM      4  C4  UNL A   1       7.707  -3.979  21.184  1.00  0.00    +0.000 C 
BRANCH    4    3
ATOM    129  H34 UNL A   1       7.972  -6.407  22.169  1.00  0.00    +0.000 H 
ATOM      2  C2  UNL A   1       8.371  -3.391  23.620  1.00  0.00    +0.000 C 
ATOM      3  C3  UNL A   1       8.105  -4.345  22.604  1.00  0.00    +0.000 C 
ATOM    135  H40 UNL A   1       9.176  -5.551  26.079  1.00  0.00    +0.000 H 
ATOM     80  C57 UNL A   1       8.195  -5.720  22.906  1.00  0.00    +0.000 C 
ATOM     81  C58 UNL A   1       8.574  -6.182  24.168  1.00  0.00    +0.000 C 
ATOM     88  C65 UNL A   1       8.874  -5.228  25.147  1.00  0.00    +0.000 C 
ATOM     89  C66 UNL A   1       8.780  -3.841  24.904  1.00  0.00    +0.000 C 
BRANCH    2    1
ATOM      1  C1  UNL A   1       8.165  -1.913  23.362  1.00  0.00    +0.000 C 
ATOM     98  H3  UNL A   1       7.522  -1.785  22.517  1.00  0.00    +0.000 H 
ATOM     97  H2  UNL A   1       7.718  -1.460  24.223  1.00  0.00    +0.000 H 
ATOM     96  H1  UNL A   1       9.109  -1.450  23.165  1.00  0.00    +0.000 H 
ENDBRANCH    2    1
BRANCH   81   82
ATOM    130  H35 UNL A   1       7.374  -8.220  22.870  1.00  0.00    +0.000 H 
ATOM    131  H36 UNL A   1       7.445 -10.586  23.381  1.00  0.00    +0.000 H 
ATOM    132  H37 UNL A   1       8.743 -11.385  25.267  1.00  0.00    +0.000 H 
ATOM    133  H38 UNL A   1       9.984  -9.812  26.634  1.00  0.00    +0.000 H 
ATOM    134  H39 UNL A   1       9.924  -7.447  26.122  1.00  0.00    +0.000 H 
ATOM     82  C59 UNL A   1       8.639  -7.624  24.454  1.00  0.00    +0.000 C 
ATOM     83  C60 UNL A   1       7.931  -8.551  23.673  1.00  0.00    +0.000 C 
ATOM     84  C61 UNL A   1       7.970  -9.918  23.965  1.00  0.00    +0.000 C 
ATOM     85  C62 UNL A   1       8.717 -10.377  25.048  1.00  0.00    +0.000 C 
ATOM     86  C63 UNL A   1       9.429  -9.473  25.832  1.00  0.00    +0.000 C 
ATOM     87  C64 UNL A   1       9.392  -8.108  25.537  1.00  0.00    +0.000 C 
ENDBRANCH   81   82
BRANCH   89   90
ATOM    136  H41 UNL A   1      11.221  -3.337  25.903  1.00  0.00    +0.000 H 
ATOM    137  H42 UNL A   1      11.856  -1.830  27.686  1.00  0.00    +0.000 H 
ATOM    138  H43 UNL A   1      10.166  -0.514  28.824  1.00  0.00    +0.000 H 
ATOM    139  H44 UNL A   1       7.833  -0.740  28.198  1.00  0.00    +0.000 H 
ATOM    140  H45 UNL A   1       7.187  -2.278  26.444  1.00  0.00    +0.000 H 
ATOM     90  C67 UNL A   1       9.150  -2.925  26.002  1.00  0.00    +0.000 C 
ATOM     91  C68 UNL A   1      10.495  -2.787  26.387  1.00  0.00    +0.000 C 
ATOM     92  C69 UNL A   1      10.864  -1.917  27.415  1.00  0.00    +0.000 C 
ATOM     93  C70 UNL A   1       9.893  -1.166  28.072  1.00  0.00    +0.000 C 
ATOM     94  C71 UNL A   1       8.554  -1.295  27.711  1.00  0.00    +0.000 C 
ATOM     95  C72 UNL A   1       8.183  -2.177  26.692  1.00  0.00    +0.000 C 
ENDBRANCH   89   90
ENDBRANCH    4    3
ENDBRANCH    5    4
ENDBRANCH    7    5
ENDBRANCH    8    7
ENDBRANCH    9    8
ENDBRANCH   10    9
ENDBRANCH   11   10
ENDBRANCH   12   11
ENDBRANCH   13   12
ENDBRANCH   14   13
ENDBRANCH   15   14
ENDBRANCH   17   15
ENDBRANCH   21   20
BRANCH   25   26
ATOM     33  C25 UNL A   1       3.032   8.109  24.662  1.00  0.00    +0.000 C 
ATOM     34  F4  UNL A   1       1.917   8.396  25.348  1.00  0.00    +0.000 F 
ATOM     35  C26 UNL A   1       4.164   7.640  25.340  1.00  0.00    +0.000 C 
ATOM     36  F5  UNL A   1       4.011   7.353  26.641  1.00  0.00    +0.000 F 
ATOM     26  C21 UNL A   1       5.396   7.440  24.695  1.00  0.00    +0.000 C 
ATOM     27  C22 UNL A   1       5.350   7.539  23.287  1.00  0.00    +0.000 C 
ATOM     28  F1  UNL A   1       6.410   7.244  22.525  1.00  0.00    +0.000 F 
ATOM     29  C23 UNL A   1       4.205   7.954  22.601  1.00  0.00    +0.000 C 
ATOM     30  F2  UNL A   1       4.230   8.052  21.263  1.00  0.00    +0.000 F 
ATOM     31  C24 UNL A   1       3.060   8.284  23.294  1.00  0.00    +0.000 C 
ATOM     32  F3  UNL A   1       1.982   8.743  22.643  1.00  0.00    +0.000 F 
ENDBRANCH   25   26
BRANCH   42   43
ATOM     43  C32 UNL A   1      10.252  11.073  27.604  1.00  0.00    +0.000 C 
ATOM     44  C33 UNL A   1       9.714  12.215  28.219  1.00  0.00    +0.000 C 
ATOM     45  F6  UNL A   1       8.917  12.114  29.293  1.00  0.00    +0.000 F 
ATOM     46  C34 UNL A   1      10.025  13.504  27.780  1.00  0.00    +0.000 C 
ATOM     47  F7  UNL A   1       9.455  14.563  28.373  1.00  0.00    +0.000 F 
ATOM     48  C35 UNL A   1      10.934  13.698  26.755  1.00  0.00    +0.000 C 
ATOM     49  F8  UNL A   1      11.258  14.937  26.363  1.00  0.00    +0.000 F 
ATOM     50  C36 UNL A   1      11.520  12.602  26.155  1.00  0.00    +0.000 C 
ATOM     51  F9  UNL A   1      12.437  12.775  25.193  1.00  0.00    +0.000 F 
ATOM     52  C37 UNL A   1      11.173  11.313  26.559  1.00  0.00    +0.000 C 
ATOM     53  F10 UNL A   1      11.775  10.303  25.914  1.00  0.00    +0.000 F 
ENDBRANCH   42   43
BRANCH   57   58
ATOM     65  C45 UNL A   1      14.457   3.724  28.392  1.00  0.00    +0.000 C 
ATOM     66  F14 UNL A   1      14.893   3.548  27.137  1.00  0.00    +0.000 F 
ATOM     67  C46 UNL A   1      13.571   4.766  28.677  1.00  0.00    +0.000 C 
ATOM     68  F15 UNL A   1      13.172   5.562  27.675  1.00  0.00    +0.000 F 
ATOM     58  C41 UNL A   1      13.028   4.911  29.958  1.00  0.00    +0.000 C 
ATOM     59  C42 UNL A   1      13.472   4.031  30.960  1.00  0.00    +0.000 C 
ATOM     60  F11 UNL A   1      12.982   4.130  32.207  1.00  0.00    +0.000 F 
ATOM     61  C43 UNL A   1      14.348   2.987  30.670  1.00  0.00    +0.000 C 
ATOM     62  F12 UNL A   1      14.682   2.109  31.627  1.00  0.00    +0.000 F 
ATOM     63  C44 UNL A   1      14.821   2.820  29.380  1.00  0.00    +0.000 C 
ATOM     64  F13 UNL A   1      15.601   1.774  29.079  1.00  0.00    +0.000 F 
ENDBRANCH   57   58
TORSDOF 19
ENDMDL
MODEL 8
REMARK VINA RESULT:     -12.0     32.607     38.069
ROOT
ATOM     21  C17 UNL A   1       9.505   3.666  27.281  1.00  0.00    +0.000 C 
ATOM     22  C18 UNL A   1       8.615   4.373  26.338  1.00  0.00    +0.000 C 
ATOM     23  N3  UNL A   1       8.430   5.653  26.336  1.00  0.00    +0.000 N 
ATOM     24  C19 UNL A   1       7.382   5.922  25.486  1.00  0.00    +0.000 C 
ATOM     25  C20 UNL A   1       6.765   7.139  25.530  1.00  0.00    +0.000 C 
ATOM     37  C27 UNL A   1       7.368   8.014  26.528  1.00  0.00    +0.000 C 
ATOM     38  C28 UNL A   1       7.024   8.293  27.841  1.00  0.00    +0.000 C 
ATOM     39  C29 UNL A   1       8.124   8.929  28.460  1.00  0.00    +0.000 C 
ATOM     40  C30 UNL A   1       9.134   9.045  27.522  1.00  0.00    +0.000 C 
ATOM     41  N4  UNL A   1       8.654   8.510  26.342  1.00  0.00    +0.000 N 
ATOM     42  C31 UNL A   1      10.472   9.603  27.611  1.00  0.00    +0.000 C 
ATOM     54  C38 UNL A   1      11.340   8.896  28.390  1.00  0.00    +0.000 C 
ATOM     55  N5  UNL A   1      11.063   7.618  28.798  1.00  0.00    +0.000 N 
ATOM     56  C39 UNL A   1      12.084   7.153  29.462  1.00  0.00    +0.000 C 
ATOM     57  C40 UNL A   1      12.175   5.738  29.968  1.00  0.00    +0.000 C 
ATOM     69  C47 UNL A   1      10.975   5.100  30.073  1.00  0.00    +0.000 C 
ATOM     70  C48 UNL A   1       9.680   5.754  30.142  1.00  0.00    +0.000 C 
ATOM     71  C49 UNL A   1       8.924   5.233  29.165  1.00  0.00    +0.000 C 
ATOM     72  C50 UNL A   1       9.667   4.146  28.535  1.00  0.00    +0.000 C 
ATOM     73  N6  UNL A   1      10.726   3.849  29.436  1.00  0.00    +0.000 N 
ATOM     74  C51 UNL A   1      13.158   8.131  29.604  1.00  0.00    +0.000 C 
ATOM     75  C52 UNL A   1      12.650   9.183  28.940  1.00  0.00    +0.000 C 
ATOM     76  C53 UNL A   1       7.108   4.668  24.820  1.00  0.00    +0.000 C 
ATOM     77  C54 UNL A   1       7.873   3.679  25.294  1.00  0.00    +0.000 C 
ATOM    117  H22 UNL A   1       6.121   8.075  28.290  1.00  0.00    +0.000 H 
ATOM    118  H23 UNL A   1       8.167   9.249  29.439  1.00  0.00    +0.000 H 
ATOM    119  H24 UNL A   1       9.150   8.484  25.493  1.00  0.00    +0.000 H 
ATOM    120  H25 UNL A   1       9.396   6.483  30.816  1.00  0.00    +0.000 H 
ATOM    121  H26 UNL A   1       7.976   5.547  28.903  1.00  0.00    +0.000 H 
ATOM    122  H27 UNL A   1      11.178   2.987  29.583  1.00  0.00    +0.000 H 
ATOM    123  H28 UNL A   1      14.067   8.039  30.085  1.00  0.00    +0.000 H 
ATOM    124  H29 UNL A   1      13.135  10.088  28.834  1.00  0.00    +0.000 H 
ATOM    125  H30 UNL A   1       6.408   4.550  24.070  1.00  0.00    +0.000 H 
ATOM    126  H31 UNL A   1       7.924   2.691  25.002  1.00  0.00    +0.000 H 
ENDROOT
BRANCH   21   20
ATOM     78  C55 UNL A   1       9.455   1.523  26.127  1.00  0.00    +0.000 C 
ATOM     79  C56 UNL A   1       9.909   0.226  25.977  1.00  0.00    +0.000 C 
ATOM     17  C13 UNL A   1      11.019  -0.192  26.709  1.00  0.00    +0.000 C 
ATOM     18  C14 UNL A   1      11.845   0.745  27.339  1.00  0.00    +0.000 C 
ATOM     19  C15 UNL A   1      11.429   2.073  27.426  1.00  0.00    +0.000 C 
ATOM    115  H20 UNL A   1      12.753   0.457  27.737  1.00  0.00    +0.000 H 
ATOM    116  H21 UNL A   1      12.035   2.783  27.865  1.00  0.00    +0.000 H 
ATOM     20  C16 UNL A   1      10.181   2.428  26.909  1.00  0.00    +0.000 C 
ATOM    127  H32 UNL A   1       8.584   1.824  25.663  1.00  0.00    +0.000 H 
ATOM    128  H33 UNL A   1       9.433  -0.424  25.333  1.00  0.00    +0.000 H 
BRANCH   17   15
ATOM     15  C12 UNL A   1      11.255  -1.627  26.993  1.00  0.00    +0.000 C 
ATOM     16  O2  UNL A   1      12.369  -2.016  27.294  1.00  0.00    +0.000 O 
BRANCH   15   14
ATOM    114  H19 UNL A   1       9.794  -2.672  27.905  1.00  0.00    +0.000 H 
ATOM     14  N2  UNL A   1      10.174  -2.492  27.016  1.00  0.00    +0.000 N 
BRANCH   14   13
ATOM    113  H18 UNL A   1       9.126  -2.415  25.264  1.00  0.00    +0.000 H 
ATOM     13  C11 UNL A   1       9.521  -3.174  25.905  1.00  0.00    +0.000 C 
ATOM    112  H17 UNL A   1       8.759  -3.813  26.303  1.00  0.00    +0.000 H 
BRANCH   13   12
ATOM     12  C10 UNL A   1      10.465  -4.021  25.061  1.00  0.00    +0.000 C 
ATOM    110  H15 UNL A   1      11.402  -4.088  25.573  1.00  0.00    +0.000 H 
ATOM    111  H16 UNL A   1       9.991  -4.971  24.932  1.00  0.00    +0.000 H 
BRANCH   12   11
ATOM     11  C9  UNL A   1      10.725  -3.466  23.655  1.00  0.00    +0.000 C 
ATOM    108  H13 UNL A   1       9.786  -3.144  23.255  1.00  0.00    +0.000 H 
ATOM    109  H14 UNL A   1      11.444  -2.685  23.788  1.00  0.00    +0.000 H 
BRANCH   11   10
ATOM     10  C8  UNL A   1      11.359  -4.433  22.640  1.00  0.00    +0.000 C 
ATOM    107  H12 UNL A   1      10.992  -5.403  22.907  1.00  0.00    +0.000 H 
ATOM    106  H11 UNL A   1      12.421  -4.324  22.708  1.00  0.00    +0.000 H 
BRANCH   10    9
ATOM      9  C7  UNL A   1      10.965  -4.243  21.170  1.00  0.00    +0.000 C 
ATOM    105  H10 UNL A   1      11.379  -5.076  20.640  1.00  0.00    +0.000 H 
ATOM    104  H9  UNL A   1      11.348  -3.298  20.844  1.00  0.00    +0.000 H 
BRANCH    9    8
ATOM    102  H7  UNL A   1       9.297  -4.721  19.938  1.00  0.00    +0.000 H 
ATOM    103  H8  UNL A   1       8.997  -4.821  21.680  1.00  0.00    +0.000 H 
ATOM      8  C6  UNL A   1       9.462  -4.267  20.892  1.00  0.00    +0.000 C 
BRANCH    8    7
ATOM    101  H6  UNL A   1       8.470  -2.654  21.730  1.00  0.00    +0.000 H 
ATOM      7  N1  UNL A   1       8.876  -2.945  20.882  1.00  0.00    +0.000 N 
BRANCH    7    5
ATOM      5  C5  UNL A   1       8.807  -2.045  19.856  1.00  0.00    +0.000 C 
ATOM      6  O1  UNL A   1       7.714  -1.856  19.319  1.00  0.00    +0.000 O 
BRANCH    5    4
ATOM    100  H5  UNL A   1       9.822  -0.896  18.421  1.00  0.00    +0.000 H 
ATOM     99  H4  UNL A   1      10.860  -2.030  19.322  1.00  0.00    +0.000 H 
ATOM      4  C4  UNL A   1      10.061  -1.321  19.374  1.00  0.00    +0.000 C 
BRANCH    4    3
ATOM    129  H34 UNL A   1      11.741  -1.454  21.397  1.00  0.00    +0.000 H 
ATOM      2  C2  UNL A   1      10.023   1.157  20.133  1.00  0.00    +0.000 C 
ATOM      3  C3  UNL A   1      10.499  -0.173  20.268  1.00  0.00    +0.000 C 
ATOM    135  H40 UNL A   1      11.844   2.546  22.608  1.00  0.00    +0.000 H 
ATOM     80  C57 UNL A   1      11.422  -0.479  21.289  1.00  0.00    +0.000 C 
ATOM     81  C58 UNL A   1      11.918   0.495  22.160  1.00  0.00    +0.000 C 
ATOM     88  C65 UNL A   1      11.472   1.809  21.987  1.00  0.00    +0.000 C 
ATOM     89  C66 UNL A   1      10.534   2.165  20.995  1.00  0.00    +0.000 C 
BRANCH    2    1
ATOM      1  C1  UNL A   1       8.942   1.491  19.128  1.00  0.00    +0.000 C 
ATOM     98  H3  UNL A   1       9.393   1.780  18.203  1.00  0.00    +0.000 H 
ATOM     97  H2  UNL A   1       8.323   0.633  18.972  1.00  0.00    +0.000 H 
ATOM     96  H1  UNL A   1       8.346   2.298  19.501  1.00  0.00    +0.000 H 
ENDBRANCH    2    1
BRANCH   81   82
ATOM    130  H35 UNL A   1      12.632  -1.954  23.039  1.00  0.00    +0.000 H 
ATOM    131  H36 UNL A   1      14.154  -2.529  24.832  1.00  0.00    +0.000 H 
ATOM    132  H37 UNL A   1      15.280  -0.782  26.081  1.00  0.00    +0.000 H 
ATOM    133  H38 UNL A   1      14.891   1.546  25.521  1.00  0.00    +0.000 H 
ATOM    134  H39 UNL A   1      13.378   2.127  23.724  1.00  0.00    +0.000 H 
ATOM     82  C59 UNL A   1      12.867   0.138  23.226  1.00  0.00    +0.000 C 
ATOM     83  C60 UNL A   1      13.109  -1.204  23.563  1.00  0.00    +0.000 C 
ATOM     84  C61 UNL A   1      13.987  -1.539  24.598  1.00  0.00    +0.000 C 
ATOM     85  C62 UNL A   1      14.635  -0.535  25.314  1.00  0.00    +0.000 C 
ATOM     86  C63 UNL A   1      14.411   0.801  24.992  1.00  0.00    +0.000 C 
ATOM     87  C64 UNL A   1      13.536   1.135  23.956  1.00  0.00    +0.000 C 
ENDBRANCH   81   82
BRANCH   89   90
ATOM    136  H41 UNL A   1       8.802   3.550  22.509  1.00  0.00    +0.000 H 
ATOM    137  H42 UNL A   1       8.180   5.885  22.363  1.00  0.00    +0.000 H 
ATOM    138  H43 UNL A   1       9.180   7.305  20.670  1.00  0.00    +0.000 H 
ATOM    139  H44 UNL A   1      10.775   6.374  19.099  1.00  0.00    +0.000 H 
ATOM    140  H45 UNL A   1      11.370   4.030  19.212  1.00  0.00    +0.000 H 
ATOM     90  C67 UNL A   1      10.157   3.589  20.886  1.00  0.00    +0.000 C 
ATOM     91  C68 UNL A   1       9.226   4.146  21.780  1.00  0.00    +0.000 C 
ATOM     92  C69 UNL A   1       8.867   5.493  21.700  1.00  0.00    +0.000 C 
ATOM     93  C70 UNL A   1       9.437   6.307  20.724  1.00  0.00    +0.000 C 
ATOM     94  C71 UNL A   1      10.353   5.772  19.822  1.00  0.00    +0.000 C 
ATOM     95  C72 UNL A   1      10.702   4.421  19.895  1.00  0.00    +0.000 C 
ENDBRANCH   89   90
ENDBRANCH    4    3
ENDBRANCH    5    4
ENDBRANCH    7    5
ENDBRANCH    8    7
ENDBRANCH    9    8
ENDBRANCH   10    9
ENDBRANCH   11   10
ENDBRANCH   12   11
ENDBRANCH   13   12
ENDBRANCH   14   13
ENDBRANCH   15   14
ENDBRANCH   17   15
ENDBRANCH   21   20
BRANCH   25   26
ATOM     33  C25 UNL A   1       3.059   8.090  25.043  1.00  0.00    +0.000 C 
ATOM     34  F4  UNL A   1       1.995   8.367  25.810  1.00  0.00    +0.000 F 
ATOM     35  C26 UNL A   1       4.230   7.597  25.631  1.00  0.00    +0.000 C 
ATOM     36  F5  UNL A   1       4.164   7.278  26.931  1.00  0.00    +0.000 F 
ATOM     26  C21 UNL A   1       5.414   7.405  24.899  1.00  0.00    +0.000 C 
ATOM     27  C22 UNL A   1       5.274   7.540  23.500  1.00  0.00    +0.000 C 
ATOM     28  F1  UNL A   1       6.278   7.258  22.661  1.00  0.00    +0.000 F 
ATOM     29  C23 UNL A   1       4.089   7.980  22.904  1.00  0.00    +0.000 C 
ATOM     30  F2  UNL A   1       4.024   8.112  21.570  1.00  0.00    +0.000 F 
ATOM     31  C24 UNL A   1       2.996   8.300  23.681  1.00  0.00    +0.000 C 
ATOM     32  F3  UNL A   1       1.880   8.782  23.116  1.00  0.00    +0.000 F 
ENDBRANCH   25   26
BRANCH   42   43
ATOM     43  C32 UNL A   1      10.769  10.921  26.952  1.00  0.00    +0.000 C 
ATOM     44  C33 UNL A   1      11.292  11.039  25.655  1.00  0.00    +0.000 C 
ATOM     45  F6  UNL A   1      11.578   9.954  24.921  1.00  0.00    +0.000 F 
ATOM     46  C34 UNL A   1      11.487  12.283  25.049  1.00  0.00    +0.000 C 
ATOM     47  F7  UNL A   1      12.027  12.347  23.824  1.00  0.00    +0.000 F 
ATOM     48  C35 UNL A   1      11.105  13.446  25.694  1.00  0.00    +0.000 C 
ATOM     49  F8  UNL A   1      11.259  14.633  25.094  1.00  0.00    +0.000 F 
ATOM     50  C36 UNL A   1      10.544  13.369  26.952  1.00  0.00    +0.000 C 
ATOM     51  F9  UNL A   1      10.127  14.483  27.569  1.00  0.00    +0.000 F 
ATOM     52  C37 UNL A   1      10.395  12.132  27.578  1.00  0.00    +0.000 C 
ATOM     53  F10 UNL A   1       9.857  12.145  28.807  1.00  0.00    +0.000 F 
ENDBRANCH   42   43
BRANCH   57   58
ATOM     65  C45 UNL A   1      14.566   3.462  28.138  1.00  0.00    +0.000 C 
ATOM     66  F14 UNL A   1      14.925   3.198  26.874  1.00  0.00    +0.000 F 
ATOM     67  C46 UNL A   1      13.789   4.589  28.417  1.00  0.00    +0.000 C 
ATOM     68  F15 UNL A   1      13.413   5.377  27.400  1.00  0.00    +0.000 F 
ATOM     58  C41 UNL A   1      13.322   4.832  29.713  1.00  0.00    +0.000 C 
ATOM     59  C42 UNL A   1      13.736   3.956  30.732  1.00  0.00    +0.000 C 
ATOM     60  F11 UNL A   1      13.317   4.146  31.993  1.00  0.00    +0.000 F 
ATOM     61  C43 UNL A   1      14.503   2.827  30.449  1.00  0.00    +0.000 C 
ATOM     62  F12 UNL A   1      14.804   1.961  31.427  1.00  0.00    +0.000 F 
ATOM     63  C44 UNL A   1      14.896   2.569  29.147  1.00  0.00    +0.000 C 
ATOM     64  F13 UNL A   1      15.567   1.446  28.858  1.00  0.00    +0.000 F 
ENDBRANCH   57   58
TORSDOF 19
ENDMDL
MODEL 9
REMARK VINA RESULT:     -12.0     32.477     38.617
ROOT
ATOM     21  C17 UNL A   1       8.802   3.492  27.039  1.00  0.00    +0.000 C 
ATOM     22  C18 UNL A   1       8.034   4.321  26.088  1.00  0.00    +0.000 C 
ATOM     23  N3  UNL A   1       7.985   5.613  26.129  1.00  0.00    +0.000 N 
ATOM     24  C19 UNL A   1       7.010   6.021  25.248  1.00  0.00    +0.000 C 
ATOM     25  C20 UNL A   1       6.523   7.295  25.313  1.00  0.00    +0.000 C 
ATOM     37  C27 UNL A   1       7.170   8.066  26.368  1.00  0.00    +0.000 C 
ATOM     38  C28 UNL A   1       6.799   8.335  27.676  1.00  0.00    +0.000 C 
ATOM     39  C29 UNL A   1       7.930   8.828  28.363  1.00  0.00    +0.000 C 
ATOM     40  C30 UNL A   1       8.988   8.868  27.473  1.00  0.00    +0.000 C 
ATOM     41  N4  UNL A   1       8.507   8.428  26.254  1.00  0.00    +0.000 N 
ATOM     42  C31 UNL A   1      10.372   9.276  27.638  1.00  0.00    +0.000 C 
ATOM     54  C38 UNL A   1      11.124   8.454  28.424  1.00  0.00    +0.000 C 
ATOM     55  N5  UNL A   1      10.697   7.200  28.771  1.00  0.00    +0.000 N 
ATOM     56  C39 UNL A   1      11.632   6.606  29.457  1.00  0.00    +0.000 C 
ATOM     57  C40 UNL A   1      11.551   5.173  29.911  1.00  0.00    +0.000 C 
ATOM     69  C47 UNL A   1      10.287   4.664  29.942  1.00  0.00    +0.000 C 
ATOM     70  C48 UNL A   1       9.067   5.450  29.984  1.00  0.00    +0.000 C 
ATOM     71  C49 UNL A   1       8.305   5.046  28.957  1.00  0.00    +0.000 C 
ATOM     72  C50 UNL A   1       8.957   3.908  28.316  1.00  0.00    +0.000 C 
ATOM     73  N6  UNL A   1       9.937   3.469  29.247  1.00  0.00    +0.000 N 
ATOM     74  C51 UNL A   1      12.797   7.458  29.681  1.00  0.00    +0.000 C 
ATOM     75  C52 UNL A   1      12.432   8.581  29.038  1.00  0.00    +0.000 C 
ATOM     76  C53 UNL A   1       6.636   4.827  24.522  1.00  0.00    +0.000 C 
ATOM     77  C54 UNL A   1       7.271   3.746  24.989  1.00  0.00    +0.000 C 
ATOM    117  H22 UNL A   1       5.859   8.199  28.079  1.00  0.00    +0.000 H 
ATOM    118  H23 UNL A   1       7.962   9.108  29.356  1.00  0.00    +0.000 H 
ATOM    119  H24 UNL A   1       9.036   8.378  25.426  1.00  0.00    +0.000 H 
ATOM    120  H25 UNL A   1       8.831   6.181  30.673  1.00  0.00    +0.000 H 
ATOM    121  H26 UNL A   1       7.408   5.468  28.668  1.00  0.00    +0.000 H 
ATOM    122  H27 UNL A   1      10.289   2.560  29.380  1.00  0.00    +0.000 H 
ATOM    123  H28 UNL A   1      13.668   7.254  30.195  1.00  0.00    +0.000 H 
ATOM    124  H29 UNL A   1      13.013   9.432  28.987  1.00  0.00    +0.000 H 
ATOM    125  H30 UNL A   1       5.962   4.810  23.741  1.00  0.00    +0.000 H 
ATOM    126  H31 UNL A   1       7.230   2.769  24.660  1.00  0.00    +0.000 H 
ENDROOT
BRANCH   21   20
ATOM     78  C55 UNL A   1       9.028   1.102  27.444  1.00  0.00    +0.000 C 
ATOM     79  C56 UNL A   1       9.734  -0.080  27.314  1.00  0.00    +0.000 C 
ATOM     17  C13 UNL A   1      10.845  -0.115  26.473  1.00  0.00    +0.000 C 
ATOM     18  C14 UNL A   1      11.066   0.911  25.548  1.00  0.00    +0.000 C 
ATOM     19  C15 UNL A   1      10.303   2.075  25.625  1.00  0.00    +0.000 C 
ATOM    115  H20 UNL A   1      11.786   0.807  24.816  1.00  0.00    +0.000 H 
ATOM    116  H21 UNL A   1      10.435   2.833  24.936  1.00  0.00    +0.000 H 
ATOM     20  C16 UNL A   1       9.359   2.202  26.647  1.00  0.00    +0.000 C 
ATOM    127  H32 UNL A   1       8.259   1.172  28.128  1.00  0.00    +0.000 H 
ATOM    128  H33 UNL A   1       9.443  -0.923  27.831  1.00  0.00    +0.000 H 
BRANCH   17   15
ATOM     15  C12 UNL A   1      11.912  -1.128  26.654  1.00  0.00    +0.000 C 
ATOM     16  O2  UNL A   1      11.655  -2.203  27.166  1.00  0.00    +0.000 O 
BRANCH   15   14
ATOM    114  H19 UNL A   1      13.729  -0.259  26.664  1.00  0.00    +0.000 H 
ATOM     14  N2  UNL A   1      13.172  -0.875  26.137  1.00  0.00    +0.000 N 
BRANCH   14   13
ATOM    113  H18 UNL A   1      13.906  -2.448  25.060  1.00  0.00    +0.000 H 
ATOM     13  C11 UNL A   1      13.787  -1.394  24.922  1.00  0.00    +0.000 C 
ATOM    112  H17 UNL A   1      14.721  -0.892  24.776  1.00  0.00    +0.000 H 
BRANCH   13   12
ATOM     12  C10 UNL A   1      12.938  -1.203  23.672  1.00  0.00    +0.000 C 
ATOM    110  H15 UNL A   1      12.054  -0.666  23.946  1.00  0.00    +0.000 H 
ATOM    111  H16 UNL A   1      13.546  -0.675  22.967  1.00  0.00    +0.000 H 
BRANCH   12   11
ATOM     11  C9  UNL A   1      12.513  -2.510  22.992  1.00  0.00    +0.000 C 
ATOM    108  H13 UNL A   1      12.106  -2.260  22.034  1.00  0.00    +0.000 H 
ATOM    109  H14 UNL A   1      13.398  -3.111  22.957  1.00  0.00    +0.000 H 
BRANCH   11   10
ATOM     10  C8  UNL A   1      11.471  -3.365  23.734  1.00  0.00    +0.000 C 
ATOM    107  H12 UNL A   1      10.690  -2.685  24.005  1.00  0.00    +0.000 H 
ATOM    106  H11 UNL A   1      11.964  -3.831  24.561  1.00  0.00    +0.000 H 
BRANCH   10    9
ATOM      9  C7  UNL A   1      10.782  -4.469  22.921  1.00  0.00    +0.000 C 
ATOM    105  H10 UNL A   1       9.733  -4.259  22.962  1.00  0.00    +0.000 H 
ATOM    104  H9  UNL A   1      11.045  -5.412  23.354  1.00  0.00    +0.000 H 
BRANCH    9    8
ATOM    102  H7  UNL A   1      11.872  -3.746  21.243  1.00  0.00    +0.000 H 
ATOM    103  H8  UNL A   1      11.538  -5.485  21.229  1.00  0.00    +0.000 H 
ATOM      8  C6  UNL A   1      11.150  -4.510  21.439  1.00  0.00    +0.000 C 
BRANCH    8    7
ATOM    101  H6  UNL A   1       9.504  -5.109  20.331  1.00  0.00    +0.000 H 
ATOM      7  N1  UNL A   1      10.009  -4.300  20.575  1.00  0.00    +0.000 N 
BRANCH    7    5
ATOM      5  C5  UNL A   1       9.536  -3.130  20.049  1.00  0.00    +0.000 C 
ATOM      6  O1  UNL A   1       8.520  -3.174  19.352  1.00  0.00    +0.000 O 
BRANCH    5    4
ATOM    100  H5  UNL A   1      10.375  -1.339  19.342  1.00  0.00    +0.000 H 
ATOM     99  H4  UNL A   1      11.211  -2.037  20.753  1.00  0.00    +0.000 H 
ATOM      4  C4  UNL A   1      10.270  -1.816  20.295  1.00  0.00    +0.000 C 
BRANCH    4    3
ATOM    129  H34 UNL A   1       9.101  -2.368  22.589  1.00  0.00    +0.000 H 
ATOM      2  C2  UNL A   1       9.330   0.528  20.879  1.00  0.00    +0.000 C 
ATOM      3  C3  UNL A   1       9.521  -0.843  21.190  1.00  0.00    +0.000 C 
ATOM    135  H40 UNL A   1       7.664   1.405  23.675  1.00  0.00    +0.000 H 
ATOM     80  C57 UNL A   1       8.983  -1.363  22.385  1.00  0.00    +0.000 C 
ATOM     81  C58 UNL A   1       8.294  -0.564  23.301  1.00  0.00    +0.000 C 
ATOM     88  C65 UNL A   1       8.151   0.795  23.000  1.00  0.00    +0.000 C 
ATOM     89  C66 UNL A   1       8.652   1.362  21.809  1.00  0.00    +0.000 C 
BRANCH    2    1
ATOM      1  C1  UNL A   1       9.788   1.088  19.548  1.00  0.00    +0.000 C 
ATOM     98  H3  UNL A   1       9.555   2.131  19.502  1.00  0.00    +0.000 H 
ATOM     97  H2  UNL A   1      10.845   0.954  19.450  1.00  0.00    +0.000 H 
ATOM     96  H1  UNL A   1       9.287   0.575  18.755  1.00  0.00    +0.000 H 
ENDBRANCH    2    1
BRANCH   81   82
ATOM    130  H35 UNL A   1       8.982  -2.844  24.568  1.00  0.00    +0.000 H 
ATOM    131  H36 UNL A   1       8.010  -3.816  26.561  1.00  0.00    +0.000 H 
ATOM    132  H37 UNL A   1       6.182  -2.696  27.695  1.00  0.00    +0.000 H 
ATOM    133  H38 UNL A   1       5.338  -0.590  26.837  1.00  0.00    +0.000 H 
ATOM    134  H39 UNL A   1       6.312   0.391  24.850  1.00  0.00    +0.000 H 
ATOM     82  C59 UNL A   1       7.729  -1.143  24.530  1.00  0.00    +0.000 C 
ATOM     83  C60 UNL A   1       8.206  -2.359  25.045  1.00  0.00    +0.000 C 
ATOM     84  C61 UNL A   1       7.647  -2.923  26.196  1.00  0.00    +0.000 C 
ATOM     85  C62 UNL A   1       6.599  -2.278  26.848  1.00  0.00    +0.000 C 
ATOM     86  C63 UNL A   1       6.114  -1.069  26.354  1.00  0.00    +0.000 C 
ATOM     87  C64 UNL A   1       6.676  -0.506  25.206  1.00  0.00    +0.000 C 
ENDBRANCH   81   82
BRANCH   89   90
ATOM    136  H41 UNL A   1      10.328   3.356  22.459  1.00  0.00    +0.000 H 
ATOM    137  H42 UNL A   1      10.063   5.739  22.127  1.00  0.00    +0.000 H 
ATOM    138  H43 UNL A   1       8.060   6.602  21.066  1.00  0.00    +0.000 H 
ATOM    139  H44 UNL A   1       6.306   5.077  20.372  1.00  0.00    +0.000 H 
ATOM    140  H45 UNL A   1       6.547   2.695  20.740  1.00  0.00    +0.000 H 
ATOM     90  C67 UNL A   1       8.470   2.814  21.610  1.00  0.00    +0.000 C 
ATOM     91  C68 UNL A   1       9.470   3.716  22.014  1.00  0.00    +0.000 C 
ATOM     92  C69 UNL A   1       9.320   5.091  21.822  1.00  0.00    +0.000 C 
ATOM     93  C70 UNL A   1       8.167   5.586  21.218  1.00  0.00    +0.000 C 
ATOM     94  C71 UNL A   1       7.161   4.710  20.819  1.00  0.00    +0.000 C 
ATOM     95  C72 UNL A   1       7.305   3.335  21.024  1.00  0.00    +0.000 C 
ENDBRANCH   89   90
ENDBRANCH    4    3
ENDBRANCH    5    4
ENDBRANCH    7    5
ENDBRANCH    8    7
ENDBRANCH    9    8
ENDBRANCH   10    9
ENDBRANCH   11   10
ENDBRANCH   12   11
ENDBRANCH   13   12
ENDBRANCH   14   13
ENDBRANCH   15   14
ENDBRANCH   17   15
ENDBRANCH   21   20
BRANCH   25   26
ATOM     33  C25 UNL A   1       2.913   8.515  24.722  1.00  0.00    +0.000 C 
ATOM     34  F4  UNL A   1       1.808   8.739  25.447  1.00  0.00    +0.000 F 
ATOM     35  C26 UNL A   1       4.012   7.877  25.309  1.00  0.00    +0.000 C 
ATOM     36  F5  UNL A   1       3.833   7.379  26.540  1.00  0.00    +0.000 F 
ATOM     26  C21 UNL A   1       5.238   7.725  24.638  1.00  0.00    +0.000 C 
ATOM     27  C22 UNL A   1       5.209   8.067  23.268  1.00  0.00    +0.000 C 
ATOM     28  F1  UNL A   1       6.259   7.851  22.467  1.00  0.00    +0.000 F 
ATOM     29  C23 UNL A   1       4.094   8.654  22.664  1.00  0.00    +0.000 C 
ATOM     30  F2  UNL A   1       4.136   8.980  21.364  1.00  0.00    +0.000 F 
ATOM     31  C24 UNL A   1       2.962   8.921  23.404  1.00  0.00    +0.000 C 
ATOM     32  F3  UNL A   1       1.915   9.542  22.842  1.00  0.00    +0.000 F 
ENDBRANCH   25   26
BRANCH   42   43
ATOM     43  C32 UNL A   1      10.835  10.577  27.044  1.00  0.00    +0.000 C 
ATOM     44  C33 UNL A   1      11.386  10.689  25.758  1.00  0.00    +0.000 C 
ATOM     45  F6  UNL A   1      11.549   9.611  24.977  1.00  0.00    +0.000 F 
ATOM     46  C34 UNL A   1      11.739  11.926  25.212  1.00  0.00    +0.000 C 
ATOM     47  F7  UNL A   1      12.299  11.979  23.996  1.00  0.00    +0.000 F 
ATOM     48  C35 UNL A   1      11.491  13.096  25.907  1.00  0.00    +0.000 C 
ATOM     49  F8  UNL A   1      11.795  14.282  25.364  1.00  0.00    +0.000 F 
ATOM     50  C36 UNL A   1      10.908  13.032  27.156  1.00  0.00    +0.000 C 
ATOM     51  F9  UNL A   1      10.619  14.159  27.820  1.00  0.00    +0.000 F 
ATOM     52  C37 UNL A   1      10.601  11.795  27.722  1.00  0.00    +0.000 C 
ATOM     53  F10 UNL A   1      10.051  11.818  28.946  1.00  0.00    +0.000 F 
ENDBRANCH   42   43
BRANCH   57   58
ATOM     65  C45 UNL A   1      14.490   2.887  30.529  1.00  0.00    +0.000 C 
ATOM     66  F14 UNL A   1      15.137   2.350  31.573  1.00  0.00    +0.000 F 
ATOM     67  C46 UNL A   1      13.256   3.509  30.724  1.00  0.00    +0.000 C 
ATOM     68  F15 UNL A   1      12.752   3.561  31.966  1.00  0.00    +0.000 F 
ATOM     58  C41 UNL A   1      12.608   4.160  29.668  1.00  0.00    +0.000 C 
ATOM     59  C42 UNL A   1      13.199   4.086  28.395  1.00  0.00    +0.000 C 
ATOM     60  F11 UNL A   1      12.616   4.692  27.348  1.00  0.00    +0.000 F 
ATOM     61  C43 UNL A   1      14.436   3.473  28.205  1.00  0.00    +0.000 C 
ATOM     62  F12 UNL A   1      15.017   3.498  26.997  1.00  0.00    +0.000 F 
ATOM     63  C44 UNL A   1      15.091   2.895  29.278  1.00  0.00    +0.000 C 
ATOM     64  F13 UNL A   1      16.315   2.372  29.116  1.00  0.00    +0.000 F 
ENDBRANCH   57   58
TORSDOF 19
ENDMDL
MODEL 10
REMARK VINA RESULT:     -11.9     27.909     36.649
ROOT
ATOM     21  C17 UNL A   1       9.474   3.269  27.354  1.00  0.00    +0.000 C 
ATOM     22  C18 UNL A   1       8.707   3.730  26.180  1.00  0.00    +0.000 C 
ATOM     23  N3  UNL A   1       8.373   4.962  25.970  1.00  0.00    +0.000 N 
ATOM     24  C19 UNL A   1       7.486   4.981  24.918  1.00  0.00    +0.000 C 
ATOM     25  C20 UNL A   1       6.729   6.093  24.685  1.00  0.00    +0.000 C 
ATOM     37  C27 UNL A   1       7.017   7.152  25.645  1.00  0.00    +0.000 C 
ATOM     38  C28 UNL A   1       6.393   7.524  26.825  1.00  0.00    +0.000 C 
ATOM     39  C29 UNL A   1       7.266   8.376  27.537  1.00  0.00    +0.000 C 
ATOM     40  C30 UNL A   1       8.418   8.531  26.787  1.00  0.00    +0.000 C 
ATOM     41  N4  UNL A   1       8.245   7.804  25.625  1.00  0.00    +0.000 N 
ATOM     42  C31 UNL A   1       9.637   9.282  27.036  1.00  0.00    +0.000 C 
ATOM     54  C38 UNL A   1      10.414   8.798  28.046  1.00  0.00    +0.000 C 
ATOM     55  N5  UNL A   1      10.220   7.548  28.570  1.00  0.00    +0.000 N 
ATOM     56  C39 UNL A   1      11.140   7.312  29.461  1.00  0.00    +0.000 C 
ATOM     57  C40 UNL A   1      11.300   5.990  30.165  1.00  0.00    +0.000 C 
ATOM     69  C47 UNL A   1      10.188   5.202  30.140  1.00  0.00    +0.000 C 
ATOM     70  C48 UNL A   1       8.836   5.666  29.888  1.00  0.00    +0.000 C 
ATOM     71  C49 UNL A   1       8.353   4.936  28.872  1.00  0.00    +0.000 C 
ATOM     72  C50 UNL A   1       9.330   3.904  28.539  1.00  0.00    +0.000 C 
ATOM     73  N6  UNL A   1      10.221   3.865  29.646  1.00  0.00    +0.000 N 
ATOM     74  C51 UNL A   1      12.041   8.444  29.658  1.00  0.00    +0.000 C 
ATOM     75  C52 UNL A   1      11.549   9.331  28.776  1.00  0.00    +0.000 C 
ATOM     76  C53 UNL A   1       7.500   3.634  24.391  1.00  0.00    +0.000 C 
ATOM     77  C54 UNL A   1       8.271   2.824  25.125  1.00  0.00    +0.000 C 
ATOM    117  H22 UNL A   1       5.453   7.230  27.132  1.00  0.00    +0.000 H 
ATOM    118  H23 UNL A   1       7.079   8.806  28.456  1.00  0.00    +0.000 H 
ATOM    119  H24 UNL A   1       8.897   7.755  24.889  1.00  0.00    +0.000 H 
ATOM    120  H25 UNL A   1       8.340   6.417  30.394  1.00  0.00    +0.000 H 
ATOM    121  H26 UNL A   1       7.444   5.079  28.405  1.00  0.00    +0.000 H 
ATOM    122  H27 UNL A   1      10.736   3.099  29.988  1.00  0.00    +0.000 H 
ATOM    123  H28 UNL A   1      12.842   8.538  30.301  1.00  0.00    +0.000 H 
ATOM    124  H29 UNL A   1      11.932  10.279  28.636  1.00  0.00    +0.000 H 
ATOM    125  H30 UNL A   1       6.979   3.334  23.553  1.00  0.00    +0.000 H 
ATOM    126  H31 UNL A   1       8.496   1.827  24.984  1.00  0.00    +0.000 H 
ENDROOT
BRANCH   21   20
ATOM     78  C55 UNL A   1      11.730   2.357  27.252  1.00  0.00    +0.000 C 
ATOM     79  C56 UNL A   1      12.605   1.347  26.898  1.00  0.00    +0.000 C 
ATOM     17  C13 UNL A   1      12.090   0.130  26.456  1.00  0.00    +0.000 C 
ATOM     18  C14 UNL A   1      10.741  -0.183  26.655  1.00  0.00    +0.000 C 
ATOM     19  C15 UNL A   1       9.867   0.812  27.089  1.00  0.00    +0.000 C 
ATOM    115  H20 UNL A   1      10.396  -1.141  26.484  1.00  0.00    +0.000 H 
ATOM    116  H21 UNL A   1       8.873   0.595  27.265  1.00  0.00    +0.000 H 
ATOM     20  C16 UNL A   1      10.354   2.107  27.281  1.00  0.00    +0.000 C 
ATOM    127  H32 UNL A   1      12.090   3.293  27.495  1.00  0.00    +0.000 H 
ATOM    128  H33 UNL A   1      13.624   1.493  26.958  1.00  0.00    +0.000 H 
BRANCH   17   15
ATOM     15  C12 UNL A   1      12.896  -0.783  25.610  1.00  0.00    +0.000 C 
ATOM     16  O2  UNL A   1      12.535  -1.933  25.434  1.00  0.00    +0.000 O 
BRANCH   15   14
ATOM    114  H19 UNL A   1      13.845  -0.012  24.009  1.00  0.00    +0.000 H 
ATOM     14  N2  UNL A   1      14.000  -0.279  24.943  1.00  0.00    +0.000 N 
BRANCH   14   13
ATOM    113  H18 UNL A   1      15.738   0.794  24.963  1.00  0.00    +0.000 H 
ATOM     13  C11 UNL A   1      15.359  -0.089  25.433  1.00  0.00    +0.000 C 
ATOM    112  H17 UNL A   1      15.931  -0.961  25.188  1.00  0.00    +0.000 H 
BRANCH   13   12
ATOM     12  C10 UNL A   1      15.448   0.136  26.937  1.00  0.00    +0.000 C 
ATOM    110  H15 UNL A   1      14.613   0.735  27.235  1.00  0.00    +0.000 H 
ATOM    111  H16 UNL A   1      15.449  -0.833  27.391  1.00  0.00    +0.000 H 
BRANCH   12   11
ATOM     11  C9  UNL A   1      16.730   0.838  27.396  1.00  0.00    +0.000 C 
ATOM    108  H13 UNL A   1      16.755   1.804  26.935  1.00  0.00    +0.000 H 
ATOM    109  H14 UNL A   1      16.676   0.855  28.465  1.00  0.00    +0.000 H 
BRANCH   11   10
ATOM     10  C8  UNL A   1      18.057   0.131  27.068  1.00  0.00    +0.000 C 
ATOM    107  H12 UNL A   1      18.078   0.052  26.001  1.00  0.00    +0.000 H 
ATOM    106  H11 UNL A   1      18.061  -0.806  27.586  1.00  0.00    +0.000 H 
BRANCH   10    9
ATOM      9  C7  UNL A   1      19.346   0.875  27.443  1.00  0.00    +0.000 C 
ATOM    105  H10 UNL A   1      19.554   1.539  26.630  1.00  0.00    +0.000 H 
ATOM    104  H9  UNL A   1      20.113   0.148  27.606  1.00  0.00    +0.000 H 
BRANCH    9    8
ATOM    102  H7  UNL A   1      18.524   2.516  28.520  1.00  0.00    +0.000 H 
ATOM    103  H8  UNL A   1      18.970   1.117  29.509  1.00  0.00    +0.000 H 
ATOM      8  C6  UNL A   1      19.250   1.750  28.693  1.00  0.00    +0.000 C 
BRANCH    8    7
ATOM    101  H6  UNL A   1      20.964   2.845  28.299  1.00  0.00    +0.000 H 
ATOM      7  N1  UNL A   1      20.509   2.375  29.034  1.00  0.00    +0.000 N 
BRANCH    7    5
ATOM      5  C5  UNL A   1      21.154   2.400  30.239  1.00  0.00    +0.000 C 
ATOM      6  O1  UNL A   1      20.685   3.103  31.136  1.00  0.00    +0.000 O 
BRANCH    5    4
ATOM    100  H5  UNL A   1      23.176   2.033  29.805  1.00  0.00    +0.000 H 
ATOM     99  H4  UNL A   1      22.237   0.576  30.221  1.00  0.00    +0.000 H 
ATOM      4  C4  UNL A   1      22.437   1.602  30.449  1.00  0.00    +0.000 C 
BRANCH    4    3
ATOM    129  H34 UNL A   1      21.774   0.069  32.484  1.00  0.00    +0.000 H 
ATOM      2  C2  UNL A   1      23.955   2.632  32.281  1.00  0.00    +0.000 C 
ATOM      3  C3  UNL A   1      22.992   1.677  31.862  1.00  0.00    +0.000 C 
ATOM    135  H40 UNL A   1      24.284   1.580  35.467  1.00  0.00    +0.000 H 
ATOM     80  C57 UNL A   1      22.495   0.741  32.791  1.00  0.00    +0.000 C 
ATOM     81  C58 UNL A   1      22.944   0.693  34.113  1.00  0.00    +0.000 C 
ATOM     88  C65 UNL A   1      23.924   1.614  34.500  1.00  0.00    +0.000 C 
ATOM     89  C66 UNL A   1      24.441   2.585  33.616  1.00  0.00    +0.000 C 
BRANCH    2    1
ATOM      1  C1  UNL A   1      24.416   3.726  31.341  1.00  0.00    +0.000 C 
ATOM     98  H3  UNL A   1      23.574   4.122  30.815  1.00  0.00    +0.000 H 
ATOM     97  H2  UNL A   1      24.884   4.506  31.905  1.00  0.00    +0.000 H 
ATOM     96  H1  UNL A   1      25.117   3.322  30.640  1.00  0.00    +0.000 H 
ENDBRANCH    2    1
BRANCH   81   82
ATOM    130  H35 UNL A   1      20.609  -0.651  33.986  1.00  0.00    +0.000 H 
ATOM    131  H36 UNL A   1      19.682  -2.220  35.581  1.00  0.00    +0.000 H 
ATOM    132  H37 UNL A   1      20.910  -2.774  37.597  1.00  0.00    +0.000 H 
ATOM    133  H38 UNL A   1      23.076  -1.766  38.009  1.00  0.00    +0.000 H 
ATOM    134  H39 UNL A   1      24.012  -0.204  36.414  1.00  0.00    +0.000 H 
ATOM     82  C59 UNL A   1      22.390  -0.285  35.062  1.00  0.00    +0.000 C 
ATOM     83  C60 UNL A   1      21.139  -0.883  34.840  1.00  0.00    +0.000 C 
ATOM     84  C61 UNL A   1      20.602  -1.789  35.759  1.00  0.00    +0.000 C 
ATOM     85  C62 UNL A   1      21.308  -2.109  36.917  1.00  0.00    +0.000 C 
ATOM     86  C63 UNL A   1      22.552  -1.529  37.152  1.00  0.00    +0.000 C 
ATOM     87  C64 UNL A   1      23.089  -0.626  36.232  1.00  0.00    +0.000 C 
ENDBRANCH   81   82
BRANCH   89   90
ATOM    136  H41 UNL A   1      26.975   2.831  32.766  1.00  0.00    +0.000 H 
ATOM    137  H42 UNL A   1      28.715   4.311  33.568  1.00  0.00    +0.000 H 
ATOM    138  H43 UNL A   1      28.255   5.853  35.384  1.00  0.00    +0.000 H 
ATOM    139  H44 UNL A   1      26.063   5.882  36.420  1.00  0.00    +0.000 H 
ATOM    140  H45 UNL A   1      24.332   4.374  35.651  1.00  0.00    +0.000 H 
ATOM     90  C67 UNL A   1      25.494   3.486  34.124  1.00  0.00    +0.000 C 
ATOM     91  C68 UNL A   1      26.775   3.478  33.544  1.00  0.00    +0.000 C 
ATOM     92  C69 UNL A   1      27.779   4.333  34.004  1.00  0.00    +0.000 C 
ATOM     93  C70 UNL A   1      27.517   5.214  35.050  1.00  0.00    +0.000 C 
ATOM     94  C71 UNL A   1      26.258   5.230  35.645  1.00  0.00    +0.000 C 
ATOM     95  C72 UNL A   1      25.257   4.365  35.193  1.00  0.00    +0.000 C 
ENDBRANCH   89   90
ENDBRANCH    4    3
ENDBRANCH    5    4
ENDBRANCH    7    5
ENDBRANCH    8    7
ENDBRANCH    9    8
ENDBRANCH   10    9
ENDBRANCH   11   10
ENDBRANCH   12   11
ENDBRANCH   13   12
ENDBRANCH   14   13
ENDBRANCH   15   14
ENDBRANCH   17   15
ENDBRANCH   21   20
BRANCH   25   26
ATOM     33  C25 UNL A   1       3.233   5.335  23.247  1.00  0.00    +0.000 C 
ATOM     34  F4  UNL A   1       2.224   4.483  23.482  1.00  0.00    +0.000 F 
ATOM     35  C26 UNL A   1       4.456   5.162  23.905  1.00  0.00    +0.000 C 
ATOM     36  F5  UNL A   1       4.599   4.042  24.627  1.00  0.00    +0.000 F 
ATOM     26  C21 UNL A   1       5.506   6.090  23.793  1.00  0.00    +0.000 C 
ATOM     27  C22 UNL A   1       5.314   7.085  22.809  1.00  0.00    +0.000 C 
ATOM     28  F1  UNL A   1       6.279   7.957  22.493  1.00  0.00    +0.000 F 
ATOM     29  C23 UNL A   1       4.113   7.227  22.109  1.00  0.00    +0.000 C 
ATOM     30  F2  UNL A   1       3.983   8.207  21.203  1.00  0.00    +0.000 F 
ATOM     31  C24 UNL A   1       3.055   6.380  22.363  1.00  0.00    +0.000 C 
ATOM     32  F3  UNL A   1       1.882   6.554  21.739  1.00  0.00    +0.000 F 
ENDBRANCH   25   26
BRANCH   42   43
ATOM     43  C32 UNL A   1       9.895  10.547  26.267  1.00  0.00    +0.000 C 
ATOM     44  C33 UNL A   1      10.488  10.574  24.995  1.00  0.00    +0.000 C 
ATOM     45  F6  UNL A   1      10.880   9.444  24.389  1.00  0.00    +0.000 F 
ATOM     46  C34 UNL A   1      10.646  11.764  24.280  1.00  0.00    +0.000 C 
ATOM     47  F7  UNL A   1      11.255  11.745  23.086  1.00  0.00    +0.000 F 
ATOM     48  C35 UNL A   1      10.159  12.956  24.784  1.00  0.00    +0.000 C 
ATOM     49  F8  UNL A   1      10.278  14.088  24.078  1.00  0.00    +0.000 F 
ATOM     50  C36 UNL A   1       9.528  12.965  26.011  1.00  0.00    +0.000 C 
ATOM     51  F9  UNL A   1       9.009  14.103  26.491  1.00  0.00    +0.000 F 
ATOM     52  C37 UNL A   1       9.413  11.786  26.748  1.00  0.00    +0.000 C 
ATOM     53  F10 UNL A   1       8.802  11.883  27.938  1.00  0.00    +0.000 F 
ENDBRANCH   42   43
BRANCH   57   58
ATOM     65  C45 UNL A   1      14.291   3.946  29.104  1.00  0.00    +0.000 C 
ATOM     66  F14 UNL A   1      14.949   3.649  27.975  1.00  0.00    +0.000 F 
ATOM     67  C46 UNL A   1      13.342   4.971  29.104  1.00  0.00    +0.000 C 
ATOM     68  F15 UNL A   1      13.108   5.629  27.959  1.00  0.00    +0.000 F 
ATOM     58  C41 UNL A   1      12.576   5.236  30.244  1.00  0.00    +0.000 C 
ATOM     59  C42 UNL A   1      12.858   4.497  31.407  1.00  0.00    +0.000 C 
ATOM     60  F11 UNL A   1      12.151   4.714  32.528  1.00  0.00    +0.000 F 
ATOM     61  C43 UNL A   1      13.797   3.468  31.401  1.00  0.00    +0.000 C 
ATOM     62  F12 UNL A   1      13.978   2.721  32.499  1.00  0.00    +0.000 F 
ATOM     63  C44 UNL A   1      14.496   3.179  30.242  1.00  0.00    +0.000 C 
ATOM     64  F13 UNL A   1      15.344   2.142  30.209  1.00  0.00    +0.000 F 
ENDBRANCH   57   58
TORSDOF 19
ENDMDL
