MODEL 1
REMARK VINA RESULT:      -9.4      0.000      0.000
ROOT
ATOM     27  C21 UNL A   1      21.181  38.209  49.310  1.00  0.00    +0.000 C 
ATOM     28  C22 UNL A   1      22.028  39.450  49.425  1.00  0.00    +0.000 C 
ATOM     29  N3  UNL A   1      23.206  39.701  48.911  1.00  0.00    +0.000 N 
ATOM     30  C23 UNL A   1      23.517  41.000  49.292  1.00  0.00    +0.000 C 
ATOM     31  C24 UNL A   1      24.658  41.698  49.071  1.00  0.00    +0.000 C 
ATOM     43  C31 UNL A   1      25.797  41.184  48.357  1.00  0.00    +0.000 C 
ATOM     44  C32 UNL A   1      27.016  41.794  48.123  1.00  0.00    +0.000 C 
ATOM     45  C33 UNL A   1      27.792  40.937  47.336  1.00  0.00    +0.000 C 
ATOM     46  C34 UNL A   1      27.082  39.765  47.135  1.00  0.00    +0.000 C 
ATOM     47  N4  UNL A   1      25.856  39.933  47.759  1.00  0.00    +0.000 N 
ATOM     48  C35 UNL A   1      27.491  38.580  46.424  1.00  0.00    +0.000 C 
ATOM     60  C42 UNL A   1      26.732  37.467  46.275  1.00  0.00    +0.000 C 
ATOM     61  N5  UNL A   1      25.454  37.210  46.752  1.00  0.00    +0.000 N 
ATOM     62  C43 UNL A   1      25.149  36.005  46.333  1.00  0.00    +0.000 C 
ATOM     63  C44 UNL A   1      23.901  35.197  46.584  1.00  0.00    +0.000 C 
ATOM     75  C51 UNL A   1      22.919  35.724  47.341  1.00  0.00    +0.000 C 
ATOM     76  C52 UNL A   1      21.662  35.062  47.674  1.00  0.00    +0.000 C 
ATOM     77  C53 UNL A   1      20.903  35.902  48.396  1.00  0.00    +0.000 C 
ATOM     78  C54 UNL A   1      21.638  37.148  48.615  1.00  0.00    +0.000 C 
ATOM     79  N6  UNL A   1      22.828  36.949  47.959  1.00  0.00    +0.000 N 
ATOM     80  C55 UNL A   1      26.190  35.377  45.509  1.00  0.00    +0.000 C 
ATOM     81  C56 UNL A   1      27.152  36.288  45.547  1.00  0.00    +0.000 C 
ATOM     82  C57 UNL A   1      22.380  41.508  50.027  1.00  0.00    +0.000 C 
ATOM     83  C58 UNL A   1      21.464  40.566  50.200  1.00  0.00    +0.000 C 
ATOM    109  H24 UNL A   1      27.304  42.724  48.469  1.00  0.00    +0.000 H 
ATOM    110  H25 UNL A   1      28.734  41.143  46.968  1.00  0.00    +0.000 H 
ATOM    111  H26 UNL A   1      25.134  39.264  47.776  1.00  0.00    +0.000 H 
ATOM    112  H27 UNL A   1      21.399  34.104  47.399  1.00  0.00    +0.000 H 
ATOM    113  H28 UNL A   1      19.951  35.701  48.740  1.00  0.00    +0.000 H 
ATOM    114  H29 UNL A   1      23.548  37.620  47.932  1.00  0.00    +0.000 H 
ATOM    115  H30 UNL A   1      26.177  34.464  45.027  1.00  0.00    +0.000 H 
ATOM    116  H31 UNL A   1      28.081  36.171  45.113  1.00  0.00    +0.000 H 
ATOM    117  H32 UNL A   1      22.294  42.477  50.374  1.00  0.00    +0.000 H 
ATOM    118  H33 UNL A   1      20.585  40.606  50.738  1.00  0.00    +0.000 H 
ENDROOT
BRANCH   27   26
ATOM    107  H22 UNL A   1      16.604  38.889  49.244  1.00  0.00    +0.000 H 
ATOM    108  H23 UNL A   1      18.790  38.839  48.193  1.00  0.00    +0.000 H 
ATOM     84  C59 UNL A   1      19.653  37.725  51.234  1.00  0.00    +0.000 C 
ATOM     85  C60 UNL A   1      18.381  37.656  51.802  1.00  0.00    +0.000 C 
ATOM    120  H35 UNL A   1      18.258  37.244  52.741  1.00  0.00    +0.000 H 
ATOM     23  C17 UNL A   1      17.274  38.144  51.104  1.00  0.00    +0.000 C 
ATOM     24  C18 UNL A   1      17.426  38.568  49.780  1.00  0.00    +0.000 C 
ATOM     25  C19 UNL A   1      18.690  38.558  49.181  1.00  0.00    +0.000 C 
ATOM    119  H34 UNL A   1      20.478  37.446  51.789  1.00  0.00    +0.000 H 
ATOM     26  C20 UNL A   1      19.822  38.169  49.914  1.00  0.00    +0.000 C 
BRANCH   23   21
ATOM     21  C16 UNL A   1      15.921  38.186  51.711  1.00  0.00    +0.000 C 
ATOM     22  O4  UNL A   1      15.547  39.208  52.280  1.00  0.00    +0.000 O 
BRANCH   21   20
ATOM    106  H21 UNL A   1      15.446  36.280  52.086  1.00  0.00    +0.000 H 
ATOM     20  N2  UNL A   1      15.087  37.095  51.666  1.00  0.00    +0.000 N 
BRANCH   20   19
ATOM    105  H20 UNL A   1      13.087  37.516  51.712  1.00  0.00    +0.000 H 
ATOM     19  C15 UNL A   1      13.760  36.955  51.097  1.00  0.00    +0.000 C 
ATOM    104  H19 UNL A   1      13.507  35.915  51.072  1.00  0.00    +0.000 H 
BRANCH   19   18
ATOM     18  C14 UNL A   1      13.653  37.514  49.683  1.00  0.00    +0.000 C 
ATOM    102  H17 UNL A   1      12.688  37.966  49.585  1.00  0.00    +0.000 H 
ATOM    103  H18 UNL A   1      14.475  38.192  49.586  1.00  0.00    +0.000 H 
BRANCH   18   17
ATOM     17  C13 UNL A   1      13.817  36.516  48.535  1.00  0.00    +0.000 C 
ATOM    100  H15 UNL A   1      13.341  35.606  48.830  1.00  0.00    +0.000 H 
ATOM    101  H16 UNL A   1      13.384  37.002  47.685  1.00  0.00    +0.000 H 
BRANCH   17   16
ATOM     98  H13 UNL A   1      15.891  36.372  48.936  1.00  0.00    +0.000 H 
ATOM     99  H14 UNL A   1      15.198  35.145  47.799  1.00  0.00    +0.000 H 
ATOM     16  C12 UNL A   1      15.248  36.170  48.104  1.00  0.00    +0.000 C 
BRANCH   16   15
ATOM     97  H12 UNL A   1      15.815  37.943  47.161  1.00  0.00    +0.000 H 
ATOM     15  C11 UNL A   1      15.825  36.907  46.890  1.00  0.00    +0.000 C 
ATOM     96  H11 UNL A   1      15.220  36.659  46.043  1.00  0.00    +0.000 H 
BRANCH   15   14
ATOM     94  H9  UNL A   1      17.678  37.473  46.050  1.00  0.00    +0.000 H 
ATOM     14  C10 UNL A   1      17.274  36.604  46.527  1.00  0.00    +0.000 C 
ATOM     95  H10 UNL A   1      17.750  36.344  47.449  1.00  0.00    +0.000 H 
BRANCH   14   13
ATOM     13  N1  UNL A   1      17.491  35.481  45.651  1.00  0.00    +0.000 N 
ATOM     93  H8  UNL A   1      16.675  35.010  45.364  1.00  0.00    +0.000 H 
BRANCH   13   11
ATOM     11  C9  UNL A   1      18.670  34.969  45.156  1.00  0.00    +0.000 C 
ATOM     12  O3  UNL A   1      19.628  35.744  45.091  1.00  0.00    +0.000 O 
BRANCH   11   10
ATOM      5  C3  UNL A   1      18.566  32.855  43.627  1.00  0.00    +0.000 C 
ATOM      6  C4  UNL A   1      18.785  31.473  43.489  1.00  0.00    +0.000 C 
ATOM      7  C5  UNL A   1      19.402  30.753  44.507  1.00  0.00    +0.000 C 
ATOM      8  C6  UNL A   1      19.804  31.411  45.662  1.00  0.00    +0.000 C 
ATOM      9  C7  UNL A   1      19.555  32.781  45.808  1.00  0.00    +0.000 C 
ATOM     10  C8  UNL A   1      18.897  33.529  44.808  1.00  0.00    +0.000 C 
ATOM     89  H4  UNL A   1      18.486  30.990  42.628  1.00  0.00    +0.000 H 
ATOM     90  H5  UNL A   1      19.559  29.738  44.405  1.00  0.00    +0.000 H 
ATOM     91  H6  UNL A   1      20.287  30.892  46.412  1.00  0.00    +0.000 H 
ATOM     92  H7  UNL A   1      19.861  33.257  46.672  1.00  0.00    +0.000 H 
BRANCH    5    4
ATOM      4  O2  UNL A   1      17.930  33.439  42.527  1.00  0.00    +0.000 O 
BRANCH    4    2
ATOM      2  C2  UNL A   1      16.548  33.315  42.470  1.00  0.00    +0.000 C 
ATOM      3  O1  UNL A   1      15.739  33.745  43.283  1.00  0.00    +0.000 O 
BRANCH    2    1
ATOM      1  C1  UNL A   1      16.189  32.552  41.227  1.00  0.00    +0.000 C 
ATOM     86  H1  UNL A   1      15.386  33.047  40.723  1.00  0.00    +0.000 H 
ATOM     87  H2  UNL A   1      15.885  31.561  41.492  1.00  0.00    +0.000 H 
ATOM     88  H3  UNL A   1      17.040  32.502  40.580  1.00  0.00    +0.000 H 
ENDBRANCH    2    1
ENDBRANCH    4    2
ENDBRANCH    5    4
ENDBRANCH   11   10
ENDBRANCH   13   11
ENDBRANCH   14   13
ENDBRANCH   15   14
ENDBRANCH   16   15
ENDBRANCH   17   16
ENDBRANCH   18   17
ENDBRANCH   19   18
ENDBRANCH   20   19
ENDBRANCH   21   20
ENDBRANCH   23   21
ENDBRANCH   27   26
BRANCH   31   32
ATOM     33  C26 UNL A   1      25.227  43.364  50.899  1.00  0.00    +0.000 C 
ATOM     34  F1  UNL A   1      25.582  42.354  51.708  1.00  0.00    +0.000 F 
ATOM     35  C27 UNL A   1      25.322  44.669  51.377  1.00  0.00    +0.000 C 
ATOM     36  F2  UNL A   1      25.749  44.893  52.627  1.00  0.00    +0.000 F 
ATOM     37  C28 UNL A   1      24.967  45.734  50.565  1.00  0.00    +0.000 C 
ATOM     38  F3  UNL A   1      25.070  46.991  51.020  1.00  0.00    +0.000 F 
ATOM     39  C29 UNL A   1      24.498  45.498  49.281  1.00  0.00    +0.000 C 
ATOM     40  F4  UNL A   1      24.169  46.529  48.489  1.00  0.00    +0.000 F 
ATOM     41  C30 UNL A   1      24.371  44.193  48.813  1.00  0.00    +0.000 C 
ATOM     42  F5  UNL A   1      23.902  43.998  47.571  1.00  0.00    +0.000 F 
ATOM     32  C25 UNL A   1      24.737  43.099  49.611  1.00  0.00    +0.000 C 
ENDBRANCH   31   32
BRANCH   48   49
ATOM     49  C36 UNL A   1      28.871  38.563  45.828  1.00  0.00    +0.000 C 
ATOM     50  C37 UNL A   1      29.183  39.283  44.666  1.00  0.00    +0.000 C 
ATOM     51  F6  UNL A   1      28.230  39.973  44.022  1.00  0.00    +0.000 F 
ATOM     52  C38 UNL A   1      30.471  39.262  44.136  1.00  0.00    +0.000 C 
ATOM     53  F7  UNL A   1      30.734  39.913  42.994  1.00  0.00    +0.000 F 
ATOM     54  C39 UNL A   1      31.478  38.556  44.778  1.00  0.00    +0.000 C 
ATOM     55  F8  UNL A   1      32.717  38.544  44.271  1.00  0.00    +0.000 F 
ATOM     56  C40 UNL A   1      31.197  37.856  45.942  1.00  0.00    +0.000 C 
ATOM     57  F9  UNL A   1      32.171  37.188  46.573  1.00  0.00    +0.000 F 
ATOM     58  C41 UNL A   1      29.903  37.847  46.454  1.00  0.00    +0.000 C 
ATOM     59  F10 UNL A   1      29.659  37.147  47.573  1.00  0.00    +0.000 F 
ENDBRANCH   48   49
BRANCH   63   64
ATOM     65  C46 UNL A   1      24.362  32.724  46.631  1.00  0.00    +0.000 C 
ATOM     66  F11 UNL A   1      25.077  32.891  47.752  1.00  0.00    +0.000 F 
ATOM     67  C47 UNL A   1      24.279  31.452  46.069  1.00  0.00    +0.000 C 
ATOM     68  F12 UNL A   1      24.917  30.424  46.646  1.00  0.00    +0.000 F 
ATOM     69  C48 UNL A   1      23.558  31.251  44.902  1.00  0.00    +0.000 C 
ATOM     70  F13 UNL A   1      23.479  30.028  44.361  1.00  0.00    +0.000 F 
ATOM     71  C49 UNL A   1      22.928  32.324  44.289  1.00  0.00    +0.000 C 
ATOM     72  F14 UNL A   1      22.216  32.134  43.170  1.00  0.00    +0.000 F 
ATOM     73  C50 UNL A   1      23.039  33.603  44.831  1.00  0.00    +0.000 C 
ATOM     74  F15 UNL A   1      22.437  34.624  44.203  1.00  0.00    +0.000 F 
ATOM     64  C45 UNL A   1      23.758  33.830  46.014  1.00  0.00    +0.000 C 
ENDBRANCH   63   64
TORSDOF 18
ENDMDL
MODEL 2
REMARK VINA RESULT:      -9.2     44.836     50.818
ROOT
ATOM     27  C21 UNL A   1      52.932  19.977  11.458  1.00  0.00    +0.000 C 
ATOM     28  C22 UNL A   1      54.259  19.305  11.224  1.00  0.00    +0.000 C 
ATOM     29  N3  UNL A   1      55.280  19.178  12.035  1.00  0.00    +0.000 N 
ATOM     30  C23 UNL A   1      56.230  18.443  11.338  1.00  0.00    +0.000 C 
ATOM     31  C24 UNL A   1      57.487  18.108  11.716  1.00  0.00    +0.000 C 
ATOM     43  C31 UNL A   1      58.078  18.470  12.979  1.00  0.00    +0.000 C 
ATOM     44  C32 UNL A   1      59.360  18.220  13.435  1.00  0.00    +0.000 C 
ATOM     45  C33 UNL A   1      59.463  18.709  14.742  1.00  0.00    +0.000 C 
ATOM     46  C34 UNL A   1      58.267  19.321  15.075  1.00  0.00    +0.000 C 
ATOM     47  N4  UNL A   1      57.422  19.161  13.988  1.00  0.00    +0.000 N 
ATOM     48  C35 UNL A   1      57.918  20.002  16.297  1.00  0.00    +0.000 C 
ATOM     60  C42 UNL A   1      56.719  20.581  16.544  1.00  0.00    +0.000 C 
ATOM     61  N5  UNL A   1      55.601  20.664  15.724  1.00  0.00    +0.000 N 
ATOM     62  C43 UNL A   1      54.692  21.305  16.418  1.00  0.00    +0.000 C 
ATOM     63  C44 UNL A   1      53.298  21.712  16.014  1.00  0.00    +0.000 C 
ATOM     75  C51 UNL A   1      52.858  21.409  14.777  1.00  0.00    +0.000 C 
ATOM     76  C52 UNL A   1      51.540  21.741  14.245  1.00  0.00    +0.000 C 
ATOM     77  C53 UNL A   1      51.430  21.236  13.005  1.00  0.00    +0.000 C 
ATOM     78  C54 UNL A   1      52.686  20.583  12.637  1.00  0.00    +0.000 C 
ATOM     79  N6  UNL A   1      53.478  20.740  13.748  1.00  0.00    +0.000 N 
ATOM     80  C55 UNL A   1      55.121  21.670  17.774  1.00  0.00    +0.000 C 
ATOM     81  C56 UNL A   1      56.379  21.252  17.782  1.00  0.00    +0.000 C 
ATOM     82  C57 UNL A   1      55.644  18.098  10.062  1.00  0.00    +0.000 C 
ATOM     83  C58 UNL A   1      54.456  18.667   9.913  1.00  0.00    +0.000 C 
ATOM    109  H24 UNL A   1      60.111  17.753  12.902  1.00  0.00    +0.000 H 
ATOM    110  H25 UNL A   1      60.291  18.627  15.352  1.00  0.00    +0.000 H 
ATOM    111  H26 UNL A   1      56.495  19.487  13.939  1.00  0.00    +0.000 H 
ATOM    112  H27 UNL A   1      50.811  22.277  14.740  1.00  0.00    +0.000 H 
ATOM    113  H28 UNL A   1      50.591  21.300  12.407  1.00  0.00    +0.000 H 
ATOM    114  H29 UNL A   1      54.402  20.406  13.803  1.00  0.00    +0.000 H 
ATOM    115  H30 UNL A   1      54.585  22.132  18.525  1.00  0.00    +0.000 H 
ATOM    116  H31 UNL A   1      57.032  21.386  18.570  1.00  0.00    +0.000 H 
ATOM    117  H32 UNL A   1      56.092  17.489   9.358  1.00  0.00    +0.000 H 
ATOM    118  H33 UNL A   1      53.832  18.664   9.091  1.00  0.00    +0.000 H 
ENDROOT
BRANCH   27   26
ATOM    107  H22 UNL A   1      49.586  17.873   9.052  1.00  0.00    +0.000 H 
ATOM    108  H23 UNL A   1      51.215  17.967  10.847  1.00  0.00    +0.000 H 
ATOM     84  C59 UNL A   1      51.635  21.052   9.605  1.00  0.00    +0.000 C 
ATOM     85  C60 UNL A   1      50.626  21.031   8.642  1.00  0.00    +0.000 C 
ATOM    120  H35 UNL A   1      50.400  21.889   8.114  1.00  0.00    +0.000 H 
ATOM     23  C17 UNL A   1      49.921  19.851   8.390  1.00  0.00    +0.000 C 
ATOM     24  C18 UNL A   1      50.134  18.734   9.205  1.00  0.00    +0.000 C 
ATOM     25  C19 UNL A   1      51.088  18.783  10.227  1.00  0.00    +0.000 C 
ATOM    119  H34 UNL A   1      52.211  21.900   9.724  1.00  0.00    +0.000 H 
ATOM     26  C20 UNL A   1      51.873  19.931  10.414  1.00  0.00    +0.000 C 
BRANCH   23   21
ATOM     21  C16 UNL A   1      48.914  19.756   7.305  1.00  0.00    +0.000 C 
ATOM     22  O4  UNL A   1      48.133  20.687   7.126  1.00  0.00    +0.000 O 
BRANCH   21   20
ATOM    106  H21 UNL A   1      49.175  17.812   6.917  1.00  0.00    +0.000 H 
ATOM     20  N2  UNL A   1      48.828  18.639   6.510  1.00  0.00    +0.000 N 
BRANCH   20   19
ATOM    105  H20 UNL A   1      49.059  18.001   4.582  1.00  0.00    +0.000 H 
ATOM     19  C15 UNL A   1      48.303  18.485   5.166  1.00  0.00    +0.000 C 
ATOM    104  H19 UNL A   1      48.060  19.453   4.782  1.00  0.00    +0.000 H 
BRANCH   19   18
ATOM     18  C14 UNL A   1      47.056  17.611   5.108  1.00  0.00    +0.000 C 
ATOM    102  H17 UNL A   1      47.289  16.753   4.512  1.00  0.00    +0.000 H 
ATOM    103  H18 UNL A   1      46.815  17.395   6.128  1.00  0.00    +0.000 H 
BRANCH   18   17
ATOM     17  C13 UNL A   1      45.795  18.252   4.524  1.00  0.00    +0.000 C 
ATOM    100  H15 UNL A   1      45.544  17.715   3.634  1.00  0.00    +0.000 H 
ATOM    101  H16 UNL A   1      45.070  18.196   5.309  1.00  0.00    +0.000 H 
BRANCH   17   16
ATOM     98  H13 UNL A   1      46.278  20.257   5.004  1.00  0.00    +0.000 H 
ATOM     99  H14 UNL A   1      46.459  19.772   3.268  1.00  0.00    +0.000 H 
ATOM     16  C12 UNL A   1      45.868  19.741   4.160  1.00  0.00    +0.000 C 
BRANCH   16   15
ATOM     97  H12 UNL A   1      44.337  21.084   4.612  1.00  0.00    +0.000 H 
ATOM     15  C11 UNL A   1      44.560  20.446   3.783  1.00  0.00    +0.000 C 
ATOM     96  H11 UNL A   1      43.829  19.690   3.588  1.00  0.00    +0.000 H 
BRANCH   15   14
ATOM     94  H9  UNL A   1      44.666  22.375   2.930  1.00  0.00    +0.000 H 
ATOM     14  C10 UNL A   1      44.602  21.369   2.571  1.00  0.00    +0.000 C 
ATOM     95  H10 UNL A   1      45.449  21.050   1.999  1.00  0.00    +0.000 H 
BRANCH   14   13
ATOM     13  N1  UNL A   1      43.480  21.293   1.671  1.00  0.00    +0.000 N 
ATOM     93  H8  UNL A   1      43.205  22.149   1.270  1.00  0.00    +0.000 H 
BRANCH   13   11
ATOM     11  C9  UNL A   1      42.734  20.199   1.288  1.00  0.00    +0.000 C 
ATOM     12  O3  UNL A   1      43.213  19.485   0.402  1.00  0.00    +0.000 O 
BRANCH   11   10
ATOM      5  C3  UNL A   1      40.171  20.275   1.776  1.00  0.00    +0.000 C 
ATOM      6  C4  UNL A   1      39.087  19.792   2.529  1.00  0.00    +0.000 C 
ATOM      7  C5  UNL A   1      39.263  18.735   3.417  1.00  0.00    +0.000 C 
ATOM      8  C6  UNL A   1      40.520  18.158   3.552  1.00  0.00    +0.000 C 
ATOM      9  C7  UNL A   1      41.603  18.664   2.823  1.00  0.00    +0.000 C 
ATOM     10  C8  UNL A   1      41.462  19.760   1.944  1.00  0.00    +0.000 C 
ATOM     89  H4  UNL A   1      38.156  20.222   2.424  1.00  0.00    +0.000 H 
ATOM     90  H5  UNL A   1      38.467  18.383   3.972  1.00  0.00    +0.000 H 
ATOM     91  H6  UNL A   1      40.655  17.356   4.187  1.00  0.00    +0.000 H 
ATOM     92  H7  UNL A   1      42.530  18.225   2.932  1.00  0.00    +0.000 H 
BRANCH    5    4
ATOM      4  O2  UNL A   1      39.842  21.344   0.935  1.00  0.00    +0.000 O 
BRANCH    4    2
ATOM      2  C2  UNL A   1      39.573  21.032  -0.391  1.00  0.00    +0.000 C 
ATOM      3  O1  UNL A   1      39.654  19.928  -0.916  1.00  0.00    +0.000 O 
BRANCH    2    1
ATOM      1  C1  UNL A   1      39.161  22.289  -1.102  1.00  0.00    +0.000 C 
ATOM     86  H1  UNL A   1      38.289  22.694  -0.633  1.00  0.00    +0.000 H 
ATOM     87  H2  UNL A   1      38.943  22.066  -2.125  1.00  0.00    +0.000 H 
ATOM     88  H3  UNL A   1      39.956  23.003  -1.055  1.00  0.00    +0.000 H 
ENDBRANCH    2    1
ENDBRANCH    4    2
ENDBRANCH    5    4
ENDBRANCH   11   10
ENDBRANCH   13   11
ENDBRANCH   14   13
ENDBRANCH   15   14
ENDBRANCH   16   15
ENDBRANCH   17   16
ENDBRANCH   18   17
ENDBRANCH   19   18
ENDBRANCH   20   19
ENDBRANCH   21   20
ENDBRANCH   23   21
ENDBRANCH   27   26
BRANCH   31   32
ATOM     33  C26 UNL A   1      58.327  15.905  10.775  1.00  0.00    +0.000 C 
ATOM     34  F1  UNL A   1      57.632  15.241  11.710  1.00  0.00    +0.000 F 
ATOM     35  C27 UNL A   1      59.080  15.177   9.857  1.00  0.00    +0.000 C 
ATOM     36  F2  UNL A   1      59.109  13.839   9.929  1.00  0.00    +0.000 F 
ATOM     37  C28 UNL A   1      59.807  15.833   8.876  1.00  0.00    +0.000 C 
ATOM     38  F3  UNL A   1      60.521  15.131   7.985  1.00  0.00    +0.000 F 
ATOM     39  C29 UNL A   1      59.798  17.219   8.822  1.00  0.00    +0.000 C 
ATOM     40  F4  UNL A   1      60.488  17.855   7.863  1.00  0.00    +0.000 F 
ATOM     41  C30 UNL A   1      59.073  17.950   9.758  1.00  0.00    +0.000 C 
ATOM     42  F5  UNL A   1      59.096  19.290   9.685  1.00  0.00    +0.000 F 
ATOM     32  C25 UNL A   1      58.319  17.309  10.752  1.00  0.00    +0.000 C 
ENDBRANCH   31   32
BRANCH   48   49
ATOM     49  C36 UNL A   1      58.971  20.104  17.365  1.00  0.00    +0.000 C 
ATOM     50  C37 UNL A   1      59.672  21.295  17.600  1.00  0.00    +0.000 C 
ATOM     51  F6  UNL A   1      59.450  22.372  16.832  1.00  0.00    +0.000 F 
ATOM     52  C38 UNL A   1      60.637  21.372  18.602  1.00  0.00    +0.000 C 
ATOM     53  F7  UNL A   1      61.332  22.504  18.774  1.00  0.00    +0.000 F 
ATOM     54  C39 UNL A   1      60.889  20.273  19.412  1.00  0.00    +0.000 C 
ATOM     55  F8  UNL A   1      61.811  20.353  20.380  1.00  0.00    +0.000 F 
ATOM     56  C40 UNL A   1      60.191  19.093  19.212  1.00  0.00    +0.000 C 
ATOM     57  F9  UNL A   1      60.421  18.037  20.004  1.00  0.00    +0.000 F 
ATOM     58  C41 UNL A   1      59.252  19.003  18.189  1.00  0.00    +0.000 C 
ATOM     59  F10 UNL A   1      58.604  17.841  18.011  1.00  0.00    +0.000 F 
ENDBRANCH   48   49
BRANCH   63   64
ATOM     65  C46 UNL A   1      51.692  21.769  17.951  1.00  0.00    +0.000 C 
ATOM     66  F11 UNL A   1      51.785  20.435  18.052  1.00  0.00    +0.000 F 
ATOM     67  C47 UNL A   1      50.823  22.449  18.802  1.00  0.00    +0.000 C 
ATOM     68  F12 UNL A   1      50.094  21.767  19.696  1.00  0.00    +0.000 F 
ATOM     69  C48 UNL A   1      50.695  23.827  18.711  1.00  0.00    +0.000 C 
ATOM     70  F13 UNL A   1      49.859  24.480  19.528  1.00  0.00    +0.000 F 
ATOM     71  C49 UNL A   1      51.425  24.524  17.761  1.00  0.00    +0.000 C 
ATOM     72  F14 UNL A   1      51.318  25.858  17.679  1.00  0.00    +0.000 F 
ATOM     73  C50 UNL A   1      52.268  23.841  16.886  1.00  0.00    +0.000 C 
ATOM     74  F15 UNL A   1      52.945  24.542  15.964  1.00  0.00    +0.000 F 
ATOM     64  C45 UNL A   1      52.420  22.449  16.962  1.00  0.00    +0.000 C 
ENDBRANCH   63   64
TORSDOF 18
ENDMDL
MODEL 3
REMARK VINA RESULT:      -9.2     40.089     46.430
ROOT
ATOM     27  C21 UNL A   1      22.195  19.609   4.909  1.00  0.00    +0.000 C 
ATOM     28  C22 UNL A   1      21.893  20.616   3.830  1.00  0.00    +0.000 C 
ATOM     29  N3  UNL A   1      20.743  21.126   3.469  1.00  0.00    +0.000 N 
ATOM     30  C23 UNL A   1      21.029  22.030   2.455  1.00  0.00    +0.000 C 
ATOM     31  C24 UNL A   1      20.171  22.762   1.704  1.00  0.00    +0.000 C 
ATOM     43  C31 UNL A   1      18.739  22.730   1.848  1.00  0.00    +0.000 C 
ATOM     44  C32 UNL A   1      17.782  23.397   1.103  1.00  0.00    +0.000 C 
ATOM     45  C33 UNL A   1      16.525  23.106   1.643  1.00  0.00    +0.000 C 
ATOM     46  C34 UNL A   1      16.693  22.206   2.682  1.00  0.00    +0.000 C 
ATOM     47  N4  UNL A   1      18.057  21.990   2.803  1.00  0.00    +0.000 N 
ATOM     48  C35 UNL A   1      15.684  21.589   3.506  1.00  0.00    +0.000 C 
ATOM     60  C42 UNL A   1      15.934  20.710   4.506  1.00  0.00    +0.000 C 
ATOM     61  N5  UNL A   1      17.152  20.211   4.949  1.00  0.00    +0.000 N 
ATOM     62  C43 UNL A   1      16.871  19.408   5.947  1.00  0.00    +0.000 C 
ATOM     63  C44 UNL A   1      17.801  18.565   6.781  1.00  0.00    +0.000 C 
ATOM     75  C51 UNL A   1      19.122  18.588   6.517  1.00  0.00    +0.000 C 
ATOM     76  C52 UNL A   1      20.140  17.824   7.233  1.00  0.00    +0.000 C 
ATOM     77  C53 UNL A   1      21.349  18.136   6.739  1.00  0.00    +0.000 C 
ATOM     78  C54 UNL A   1      21.189  19.089   5.640  1.00  0.00    +0.000 C 
ATOM     79  N6  UNL A   1      19.833  19.295   5.576  1.00  0.00    +0.000 N 
ATOM     80  C55 UNL A   1      15.441  19.336   6.273  1.00  0.00    +0.000 C 
ATOM     81  C56 UNL A   1      14.910  20.107   5.334  1.00  0.00    +0.000 C 
ATOM     82  C57 UNL A   1      22.467  22.046   2.297  1.00  0.00    +0.000 C 
ATOM     83  C58 UNL A   1      23.042  21.138   3.072  1.00  0.00    +0.000 C 
ATOM    109  H24 UNL A   1      17.965  24.006   0.290  1.00  0.00    +0.000 H 
ATOM    110  H25 UNL A   1      15.625  23.496   1.321  1.00  0.00    +0.000 H 
ATOM    111  H26 UNL A   1      18.479  21.400   3.468  1.00  0.00    +0.000 H 
ATOM    112  H27 UNL A   1      19.959  17.153   7.995  1.00  0.00    +0.000 H 
ATOM    113  H28 UNL A   1      22.248  17.762   7.081  1.00  0.00    +0.000 H 
ATOM    114  H29 UNL A   1      19.409  19.892   4.919  1.00  0.00    +0.000 H 
ATOM    115  H30 UNL A   1      14.971  18.819   7.033  1.00  0.00    +0.000 H 
ATOM    116  H31 UNL A   1      13.897  20.258   5.210  1.00  0.00    +0.000 H 
ATOM    117  H32 UNL A   1      22.979  22.680   1.663  1.00  0.00    +0.000 H 
ATOM    118  H33 UNL A   1      24.035  20.866   3.129  1.00  0.00    +0.000 H 
ENDROOT
BRANCH   27   26
ATOM    107  H22 UNL A   1      26.352  20.293   6.825  1.00  0.00    +0.000 H 
ATOM    108  H23 UNL A   1      24.024  20.874   6.464  1.00  0.00    +0.000 H 
ATOM     84  C59 UNL A   1      24.133  18.040   4.676  1.00  0.00    +0.000 C 
ATOM     85  C60 UNL A   1      25.441  17.656   4.970  1.00  0.00    +0.000 C 
ATOM    120  H35 UNL A   1      25.793  16.740   4.649  1.00  0.00    +0.000 H 
ATOM     23  C17 UNL A   1      26.277  18.508   5.697  1.00  0.00    +0.000 C 
ATOM     24  C18 UNL A   1      25.752  19.681   6.249  1.00  0.00    +0.000 C 
ATOM     25  C19 UNL A   1      24.415  20.025   6.025  1.00  0.00    +0.000 C 
ATOM    119  H34 UNL A   1      23.551  17.448   4.063  1.00  0.00    +0.000 H 
ATOM     26  C20 UNL A   1      23.601  19.225   5.206  1.00  0.00    +0.000 C 
BRANCH   23   21
ATOM     21  C16 UNL A   1      27.703  18.185   5.943  1.00  0.00    +0.000 C 
ATOM     22  O4  UNL A   1      28.405  17.808   5.008  1.00  0.00    +0.000 O 
BRANCH   21   20
ATOM    106  H21 UNL A   1      28.839  19.057   7.339  1.00  0.00    +0.000 H 
ATOM     20  N2  UNL A   1      28.248  18.281   7.200  1.00  0.00    +0.000 N 
BRANCH   20   19
ATOM    105  H20 UNL A   1      28.906  16.726   8.353  1.00  0.00    +0.000 H 
ATOM     19  C15 UNL A   1      28.090  17.419   8.357  1.00  0.00    +0.000 C 
ATOM    104  H19 UNL A   1      27.143  16.925   8.287  1.00  0.00    +0.000 H 
BRANCH   19   18
ATOM     18  C14 UNL A   1      28.145  18.176   9.679  1.00  0.00    +0.000 C 
ATOM    102  H17 UNL A   1      27.537  17.646  10.381  1.00  0.00    +0.000 H 
ATOM    103  H18 UNL A   1      29.184  18.223   9.933  1.00  0.00    +0.000 H 
BRANCH   18   17
ATOM     17  C13 UNL A   1      27.671  19.630   9.658  1.00  0.00    +0.000 C 
ATOM    100  H15 UNL A   1      28.297  20.163   8.973  1.00  0.00    +0.000 H 
ATOM    101  H16 UNL A   1      26.638  19.578   9.383  1.00  0.00    +0.000 H 
BRANCH   17   16
ATOM     98  H13 UNL A   1      28.668  20.291  11.404  1.00  0.00    +0.000 H 
ATOM     99  H14 UNL A   1      27.398  21.392  10.730  1.00  0.00    +0.000 H 
ATOM     16  C12 UNL A   1      27.687  20.394  10.988  1.00  0.00    +0.000 C 
BRANCH   16   15
ATOM     97  H12 UNL A   1      27.240  19.972  12.982  1.00  0.00    +0.000 H 
ATOM     15  C11 UNL A   1      26.685  19.967  12.067  1.00  0.00    +0.000 C 
ATOM     96  H11 UNL A   1      26.292  19.013  11.784  1.00  0.00    +0.000 H 
BRANCH   15   14
ATOM     94  H9  UNL A   1      25.175  20.746  13.320  1.00  0.00    +0.000 H 
ATOM     14  C10 UNL A   1      25.503  20.897  12.313  1.00  0.00    +0.000 C 
ATOM     95  H10 UNL A   1      25.868  21.882  12.110  1.00  0.00    +0.000 H 
BRANCH   14   13
ATOM     13  N1  UNL A   1      24.363  20.723  11.449  1.00  0.00    +0.000 N 
ATOM     93  H8  UNL A   1      24.243  21.423  10.768  1.00  0.00    +0.000 H 
BRANCH   13   11
ATOM     11  C9  UNL A   1      23.417  19.722  11.434  1.00  0.00    +0.000 C 
ATOM     12  O3  UNL A   1      22.332  19.977  11.965  1.00  0.00    +0.000 O 
BRANCH   11   10
ATOM      5  C3  UNL A   1      23.204  17.133  11.168  1.00  0.00    +0.000 C 
ATOM      6  C4  UNL A   1      23.486  15.988  10.404  1.00  0.00    +0.000 C 
ATOM      7  C5  UNL A   1      24.081  16.106   9.151  1.00  0.00    +0.000 C 
ATOM      8  C6  UNL A   1      24.391  17.367   8.659  1.00  0.00    +0.000 C 
ATOM      9  C7  UNL A   1      24.137  18.503   9.437  1.00  0.00    +0.000 C 
ATOM     10  C8  UNL A   1      23.570  18.411  10.727  1.00  0.00    +0.000 C 
ATOM     89  H4  UNL A   1      23.253  15.054  10.773  1.00  0.00    +0.000 H 
ATOM     90  H5  UNL A   1      24.291  15.264   8.593  1.00  0.00    +0.000 H 
ATOM     91  H6  UNL A   1      24.807  17.468   7.720  1.00  0.00    +0.000 H 
ATOM     92  H7  UNL A   1      24.372  19.434   9.057  1.00  0.00    +0.000 H 
BRANCH    5    4
ATOM      4  O2  UNL A   1      22.615  16.856  12.405  1.00  0.00    +0.000 O 
BRANCH    4    2
ATOM      2  C2  UNL A   1      23.479  16.605  13.463  1.00  0.00    +0.000 C 
ATOM      3  O1  UNL A   1      24.390  17.325  13.852  1.00  0.00    +0.000 O 
BRANCH    2    1
ATOM      1  C1  UNL A   1      23.116  15.280  14.070  1.00  0.00    +0.000 C 
ATOM     86  H1  UNL A   1      23.519  14.491  13.471  1.00  0.00    +0.000 H 
ATOM     87  H2  UNL A   1      22.051  15.186  14.113  1.00  0.00    +0.000 H 
ATOM     88  H3  UNL A   1      23.519  15.218  15.059  1.00  0.00    +0.000 H 
ENDBRANCH    2    1
ENDBRANCH    4    2
ENDBRANCH    5    4
ENDBRANCH   11   10
ENDBRANCH   13   11
ENDBRANCH   14   13
ENDBRANCH   15   14
ENDBRANCH   16   15
ENDBRANCH   17   16
ENDBRANCH   18   17
ENDBRANCH   19   18
ENDBRANCH   20   19
ENDBRANCH   21   20
ENDBRANCH   23   21
ENDBRANCH   27   26
BRANCH   31   32
ATOM     33  C26 UNL A   1      20.905  23.239  -0.678  1.00  0.00    +0.000 C 
ATOM     34  F1  UNL A   1      20.584  21.985  -1.028  1.00  0.00    +0.000 F 
ATOM     35  C27 UNL A   1      21.421  24.094  -1.650  1.00  0.00    +0.000 C 
ATOM     36  F2  UNL A   1      21.599  23.651  -2.902  1.00  0.00    +0.000 F 
ATOM     37  C28 UNL A   1      21.759  25.397  -1.322  1.00  0.00    +0.000 C 
ATOM     38  F3  UNL A   1      22.243  26.223  -2.261  1.00  0.00    +0.000 F 
ATOM     39  C29 UNL A   1      21.601  25.844  -0.019  1.00  0.00    +0.000 C 
ATOM     40  F4  UNL A   1      21.912  27.110   0.296  1.00  0.00    +0.000 F 
ATOM     41  C30 UNL A   1      21.116  24.983   0.961  1.00  0.00    +0.000 C 
ATOM     42  F5  UNL A   1      20.987  25.443   2.215  1.00  0.00    +0.000 F 
ATOM     32  C25 UNL A   1      20.755  23.663   0.651  1.00  0.00    +0.000 C 
ENDBRANCH   31   32
BRANCH   48   49
ATOM     49  C36 UNL A   1      14.247  21.920   3.217  1.00  0.00    +0.000 C 
ATOM     50  C37 UNL A   1      13.529  21.272   2.202  1.00  0.00    +0.000 C 
ATOM     51  F6  UNL A   1      14.133  20.364   1.421  1.00  0.00    +0.000 F 
ATOM     52  C38 UNL A   1      12.194  21.587   1.956  1.00  0.00    +0.000 C 
ATOM     53  F7  UNL A   1      11.544  20.994   0.946  1.00  0.00    +0.000 F 
ATOM     54  C39 UNL A   1      11.542  22.523   2.746  1.00  0.00    +0.000 C 
ATOM     55  F8  UNL A   1      10.257  22.817   2.514  1.00  0.00    +0.000 F 
ATOM     56  C40 UNL A   1      12.226  23.159   3.770  1.00  0.00    +0.000 C 
ATOM     57  F9  UNL A   1      11.594  24.050   4.545  1.00  0.00    +0.000 F 
ATOM     58  C41 UNL A   1      13.570  22.872   3.995  1.00  0.00    +0.000 C 
ATOM     59  F10 UNL A   1      14.208  23.516   4.984  1.00  0.00    +0.000 F 
ENDBRANCH   48   49
BRANCH   63   64
ATOM     65  C46 UNL A   1      17.131  16.321   7.703  1.00  0.00    +0.000 C 
ATOM     66  F11 UNL A   1      17.485  15.752   6.541  1.00  0.00    +0.000 F 
ATOM     67  C47 UNL A   1      16.579  15.523   8.703  1.00  0.00    +0.000 C 
ATOM     68  F12 UNL A   1      16.403  14.211   8.488  1.00  0.00    +0.000 F 
ATOM     69  C48 UNL A   1      16.191  16.086   9.908  1.00  0.00    +0.000 C 
ATOM     70  F13 UNL A   1      15.659  15.318  10.869  1.00  0.00    +0.000 F 
ATOM     71  C49 UNL A   1      16.344  17.448  10.113  1.00  0.00    +0.000 C 
ATOM     72  F14 UNL A   1      15.985  17.995  11.282  1.00  0.00    +0.000 F 
ATOM     73  C50 UNL A   1      16.864  18.254   9.101  1.00  0.00    +0.000 C 
ATOM     74  F15 UNL A   1      16.979  19.572   9.321  1.00  0.00    +0.000 F 
ATOM     64  C45 UNL A   1      17.270  17.707   7.874  1.00  0.00    +0.000 C 
ENDBRANCH   63   64
TORSDOF 18
ENDMDL
MODEL 4
REMARK VINA RESULT:      -9.2     48.117     53.312
ROOT
ATOM     27  C21 UNL A   1      29.126 -13.960  30.833  1.00  0.00    +0.000 C 
ATOM     28  C22 UNL A   1      28.882 -14.085  32.314  1.00  0.00    +0.000 C 
ATOM     29  N3  UNL A   1      27.874 -13.651  33.029  1.00  0.00    +0.000 N 
ATOM     30  C23 UNL A   1      28.125 -14.065  34.330  1.00  0.00    +0.000 C 
ATOM     31  C24 UNL A   1      27.415 -13.803  35.454  1.00  0.00    +0.000 C 
ATOM     43  C31 UNL A   1      26.210 -13.016  35.488  1.00  0.00    +0.000 C 
ATOM     44  C32 UNL A   1      25.446 -12.654  36.583  1.00  0.00    +0.000 C 
ATOM     45  C33 UNL A   1      24.336 -11.937  36.125  1.00  0.00    +0.000 C 
ATOM     46  C34 UNL A   1      24.442 -11.796  34.751  1.00  0.00    +0.000 C 
ATOM     47  N4  UNL A   1      25.592 -12.470  34.372  1.00  0.00    +0.000 N 
ATOM     48  C35 UNL A   1      23.559 -11.099  33.850  1.00  0.00    +0.000 C 
ATOM     60  C42 UNL A   1      23.738 -11.004  32.511  1.00  0.00    +0.000 C 
ATOM     61  N5  UNL A   1      24.763 -11.519  31.726  1.00  0.00    +0.000 N 
ATOM     62  C43 UNL A   1      24.480 -11.174  30.493  1.00  0.00    +0.000 C 
ATOM     63  C44 UNL A   1      25.262 -11.429  29.230  1.00  0.00    +0.000 C 
ATOM     75  C51 UNL A   1      26.429 -12.099  29.305  1.00  0.00    +0.000 C 
ATOM     76  C52 UNL A   1      27.295 -12.415  28.173  1.00  0.00    +0.000 C 
ATOM     77  C53 UNL A   1      28.339 -13.137  28.610  1.00  0.00    +0.000 C 
ATOM     78  C54 UNL A   1      28.241 -13.298  30.061  1.00  0.00    +0.000 C 
ATOM     79  N6  UNL A   1      27.078 -12.643  30.388  1.00  0.00    +0.000 N 
ATOM     80  C55 UNL A   1      23.221 -10.431  30.354  1.00  0.00    +0.000 C 
ATOM     81  C56 UNL A   1      22.836 -10.311  31.616  1.00  0.00    +0.000 C 
ATOM     82  C57 UNL A   1      29.347 -14.837  34.299  1.00  0.00    +0.000 C 
ATOM     83  C58 UNL A   1      29.892 -14.819  33.091  1.00  0.00    +0.000 C 
ATOM    109  H24 UNL A   1      25.659 -12.875  37.569  1.00  0.00    +0.000 H 
ATOM    110  H25 UNL A   1      23.568 -11.574  36.712  1.00  0.00    +0.000 H 
ATOM    111  H26 UNL A   1      25.922 -12.549  33.447  1.00  0.00    +0.000 H 
ATOM    112  H27 UNL A   1      27.131 -12.130  27.196  1.00  0.00    +0.000 H 
ATOM    113  H28 UNL A   1      29.092 -13.519  28.016  1.00  0.00    +0.000 H 
ATOM    114  H29 UNL A   1      26.742 -12.570  31.310  1.00  0.00    +0.000 H 
ATOM    115  H30 UNL A   1      22.758 -10.090  29.496  1.00  0.00    +0.000 H 
ATOM    116  H31 UNL A   1      21.999  -9.790  31.922  1.00  0.00    +0.000 H 
ATOM    117  H32 UNL A   1      29.744 -15.337  35.111  1.00  0.00    +0.000 H 
ATOM    118  H33 UNL A   1      30.791 -15.216  32.778  1.00  0.00    +0.000 H 
ENDROOT
BRANCH   27   26
ATOM    107  H22 UNL A   1      31.311 -17.483  28.778  1.00  0.00    +0.000 H 
ATOM    108  H23 UNL A   1      29.331 -16.402  29.668  1.00  0.00    +0.000 H 
ATOM     84  C59 UNL A   1      31.533 -13.919  30.141  1.00  0.00    +0.000 C 
ATOM     85  C60 UNL A   1      32.644 -14.505  29.535  1.00  0.00    +0.000 C 
ATOM    120  H35 UNL A   1      33.510 -13.957  29.410  1.00  0.00    +0.000 H 
ATOM     23  C17 UNL A   1      32.588 -15.830  29.097  1.00  0.00    +0.000 C 
ATOM     24  C18 UNL A   1      31.371 -16.518  29.140  1.00  0.00    +0.000 C 
ATOM     25  C19 UNL A   1      30.234 -15.901  29.672  1.00  0.00    +0.000 C 
ATOM    119  H34 UNL A   1      31.608 -12.971  30.543  1.00  0.00    +0.000 H 
ATOM     26  C20 UNL A   1      30.312 -14.607  30.210  1.00  0.00    +0.000 C 
BRANCH   23   21
ATOM     21  C16 UNL A   1      33.776 -16.523  28.542  1.00  0.00    +0.000 C 
ATOM     22  O4  UNL A   1      34.543 -17.106  29.304  1.00  0.00    +0.000 O 
BRANCH   21   20
ATOM    106  H21 UNL A   1      34.063 -17.394  26.765  1.00  0.00    +0.000 H 
ATOM     20  N2  UNL A   1      34.043 -16.508  27.195  1.00  0.00    +0.000 N 
BRANCH   20   19
ATOM    105  H20 UNL A   1      34.849 -15.772  25.467  1.00  0.00    +0.000 H 
ATOM     19  C15 UNL A   1      34.301 -15.392  26.304  1.00  0.00    +0.000 C 
ATOM    104  H19 UNL A   1      34.852 -14.648  26.840  1.00  0.00    +0.000 H 
BRANCH   19   18
ATOM     18  C14 UNL A   1      33.027 -14.755  25.761  1.00  0.00    +0.000 C 
ATOM    102  H17 UNL A   1      33.101 -14.743  24.694  1.00  0.00    +0.000 H 
ATOM    103  H18 UNL A   1      32.227 -15.352  26.147  1.00  0.00    +0.000 H 
BRANCH   18   17
ATOM     17  C13 UNL A   1      32.723 -13.328  26.221  1.00  0.00    +0.000 C 
ATOM    100  H15 UNL A   1      32.891 -13.288  27.277  1.00  0.00    +0.000 H 
ATOM    101  H16 UNL A   1      33.366 -12.707  25.634  1.00  0.00    +0.000 H 
BRANCH   17   16
ATOM     98  H13 UNL A   1      31.218 -12.634  24.904  1.00  0.00    +0.000 H 
ATOM     99  H14 UNL A   1      30.658 -13.534  26.371  1.00  0.00    +0.000 H 
ATOM     16  C12 UNL A   1      31.309 -12.792  25.958  1.00  0.00    +0.000 C 
BRANCH   16   15
ATOM     97  H12 UNL A   1      31.812 -10.943  26.783  1.00  0.00    +0.000 H 
ATOM     15  C11 UNL A   1      30.901 -11.489  26.654  1.00  0.00    +0.000 C 
ATOM     96  H11 UNL A   1      30.402 -11.750  27.564  1.00  0.00    +0.000 H 
BRANCH   15   14
ATOM     94  H9  UNL A   1      30.599  -9.868  25.335  1.00  0.00    +0.000 H 
ATOM     14  C10 UNL A   1      29.982 -10.553  25.877  1.00  0.00    +0.000 C 
ATOM     95  H10 UNL A   1      29.382 -11.191  25.261  1.00  0.00    +0.000 H 
BRANCH   14   13
ATOM     13  N1  UNL A   1      29.048  -9.783  26.657  1.00  0.00    +0.000 N 
ATOM     93  H8  UNL A   1      28.142 -10.162  26.722  1.00  0.00    +0.000 H 
BRANCH   13   11
ATOM     11  C9  UNL A   1      29.235  -8.593  27.328  1.00  0.00    +0.000 C 
ATOM     12  O3  UNL A   1      28.480  -7.664  27.030  1.00  0.00    +0.000 O 
BRANCH   11   10
ATOM      5  C3  UNL A   1      30.165  -8.953  29.741  1.00  0.00    +0.000 C 
ATOM      6  C4  UNL A   1      31.114  -8.600  30.717  1.00  0.00    +0.000 C 
ATOM      7  C5  UNL A   1      32.154  -7.729  30.405  1.00  0.00    +0.000 C 
ATOM      8  C6  UNL A   1      32.250  -7.212  29.119  1.00  0.00    +0.000 C 
ATOM      9  C7  UNL A   1      31.284  -7.542  28.160  1.00  0.00    +0.000 C 
ATOM     10  C8  UNL A   1      30.197  -8.392  28.459  1.00  0.00    +0.000 C 
ATOM     89  H4  UNL A   1      31.039  -8.987  31.669  1.00  0.00    +0.000 H 
ATOM     90  H5  UNL A   1      32.847  -7.468  31.123  1.00  0.00    +0.000 H 
ATOM     91  H6  UNL A   1      33.032  -6.587  28.869  1.00  0.00    +0.000 H 
ATOM     92  H7  UNL A   1      31.369  -7.151  27.208  1.00  0.00    +0.000 H 
BRANCH    5    4
ATOM      4  O2  UNL A   1      29.178  -9.827  30.204  1.00  0.00    +0.000 O 
BRANCH    4    2
ATOM      2  C2  UNL A   1      28.150  -9.267  30.951  1.00  0.00    +0.000 C 
ATOM      3  O1  UNL A   1      27.427  -8.335  30.619  1.00  0.00    +0.000 O 
BRANCH    2    1
ATOM      1  C1  UNL A   1      28.061  -9.995  32.262  1.00  0.00    +0.000 C 
ATOM     86  H1  UNL A   1      28.019  -9.286  33.061  1.00  0.00    +0.000 H 
ATOM     87  H2  UNL A   1      28.922 -10.618  32.383  1.00  0.00    +0.000 H 
ATOM     88  H3  UNL A   1      27.179 -10.600  32.274  1.00  0.00    +0.000 H 
ENDBRANCH    2    1
ENDBRANCH    4    2
ENDBRANCH    5    4
ENDBRANCH   11   10
ENDBRANCH   13   11
ENDBRANCH   14   13
ENDBRANCH   15   14
ENDBRANCH   16   15
ENDBRANCH   17   16
ENDBRANCH   18   17
ENDBRANCH   19   18
ENDBRANCH   20   19
ENDBRANCH   21   20
ENDBRANCH   23   21
ENDBRANCH   27   26
BRANCH   31   32
ATOM     33  C26 UNL A   1      28.915 -13.718  37.500  1.00  0.00    +0.000 C 
ATOM     34  F1  UNL A   1      29.480 -12.592  37.039  1.00  0.00    +0.000 F 
ATOM     35  C27 UNL A   1      29.357 -14.239  38.714  1.00  0.00    +0.000 C 
ATOM     36  F2  UNL A   1      30.338 -13.623  39.388  1.00  0.00    +0.000 F 
ATOM     37  C28 UNL A   1      28.790 -15.398  39.221  1.00  0.00    +0.000 C 
ATOM     38  F3  UNL A   1      29.207 -15.892  40.395  1.00  0.00    +0.000 F 
ATOM     39  C29 UNL A   1      27.795 -16.049  38.507  1.00  0.00    +0.000 C 
ATOM     40  F4  UNL A   1      27.235 -17.162  39.004  1.00  0.00    +0.000 F 
ATOM     41  C30 UNL A   1      27.375 -15.549  37.278  1.00  0.00    +0.000 C 
ATOM     42  F5  UNL A   1      26.420 -16.210  36.607  1.00  0.00    +0.000 F 
ATOM     32  C25 UNL A   1      27.924 -14.370  36.751  1.00  0.00    +0.000 C 
ENDBRANCH   31   32
BRANCH   48   49
ATOM     49  C36 UNL A   1      22.368 -10.399  34.441  1.00  0.00    +0.000 C 
ATOM     50  C37 UNL A   1      21.089 -10.975  34.425  1.00  0.00    +0.000 C 
ATOM     51  F6  UNL A   1      20.889 -12.159  33.828  1.00  0.00    +0.000 F 
ATOM     52  C38 UNL A   1      19.999 -10.314  34.987  1.00  0.00    +0.000 C 
ATOM     53  F7  UNL A   1      18.777 -10.859  34.912  1.00  0.00    +0.000 F 
ATOM     54  C39 UNL A   1      20.174  -9.087  35.611  1.00  0.00    +0.000 C 
ATOM     55  F8  UNL A   1      19.127  -8.458  36.159  1.00  0.00    +0.000 F 
ATOM     56  C40 UNL A   1      21.434  -8.510  35.659  1.00  0.00    +0.000 C 
ATOM     57  F9  UNL A   1      21.609  -7.334  36.276  1.00  0.00    +0.000 F 
ATOM     58  C41 UNL A   1      22.518  -9.152  35.067  1.00  0.00    +0.000 C 
ATOM     59  F10 UNL A   1      23.722  -8.560  35.117  1.00  0.00    +0.000 F 
ENDBRANCH   48   49
BRANCH   63   64
ATOM     65  C46 UNL A   1      23.858 -11.699  27.160  1.00  0.00    +0.000 C 
ATOM     66  F11 UNL A   1      23.430 -12.884  27.619  1.00  0.00    +0.000 F 
ATOM     67  C47 UNL A   1      23.432 -11.271  25.904  1.00  0.00    +0.000 C 
ATOM     68  F12 UNL A   1      22.617 -12.047  25.175  1.00  0.00    +0.000 F 
ATOM     69  C48 UNL A   1      23.869 -10.057  25.397  1.00  0.00    +0.000 C 
ATOM     70  F13 UNL A   1      23.461  -9.647  24.188  1.00  0.00    +0.000 F 
ATOM     71  C49 UNL A   1      24.740  -9.275  26.139  1.00  0.00    +0.000 C 
ATOM     72  F14 UNL A   1      25.153  -8.093  25.661  1.00  0.00    +0.000 F 
ATOM     73  C50 UNL A   1      25.194  -9.718  27.381  1.00  0.00    +0.000 C 
ATOM     74  F15 UNL A   1      26.053  -8.948  28.065  1.00  0.00    +0.000 F 
ATOM     64  C45 UNL A   1      24.761 -10.939  27.918  1.00  0.00    +0.000 C 
ENDBRANCH   63   64
TORSDOF 18
ENDMDL
MODEL 5
REMARK VINA RESULT:      -9.2     27.740     36.583
ROOT
ATOM     27  C21 UNL A   1       2.524  11.078  37.826  1.00  0.00    +0.000 C 
ATOM     28  C22 UNL A   1       1.195  10.676  37.240  1.00  0.00    +0.000 C 
ATOM     29  N3  UNL A   1       0.783   9.497  36.849  1.00  0.00    +0.000 N 
ATOM     30  C23 UNL A   1      -0.528   9.673  36.427  1.00  0.00    +0.000 C 
ATOM     31  C24 UNL A   1      -1.367   8.768  35.867  1.00  0.00    +0.000 C 
ATOM     43  C31 UNL A   1      -1.023   7.394  35.610  1.00  0.00    +0.000 C 
ATOM     44  C32 UNL A   1      -1.786   6.413  35.002  1.00  0.00    +0.000 C 
ATOM     45  C33 UNL A   1      -1.060   5.217  35.023  1.00  0.00    +0.000 C 
ATOM     46  C34 UNL A   1       0.181   5.469  35.584  1.00  0.00    +0.000 C 
ATOM     47  N4  UNL A   1       0.188   6.806  35.948  1.00  0.00    +0.000 N 
ATOM     48  C35 UNL A   1       1.279   4.556  35.777  1.00  0.00    +0.000 C 
ATOM     60  C42 UNL A   1       2.469   4.885  36.335  1.00  0.00    +0.000 C 
ATOM     61  N5  UNL A   1       2.898   6.114  36.820  1.00  0.00    +0.000 N 
ATOM     62  C43 UNL A   1       4.114   5.918  37.272  1.00  0.00    +0.000 C 
ATOM     63  C44 UNL A   1       5.076   6.908  37.875  1.00  0.00    +0.000 C 
ATOM     75  C51 UNL A   1       4.702   8.197  37.996  1.00  0.00    +0.000 C 
ATOM     76  C52 UNL A   1       5.524   9.266  38.553  1.00  0.00    +0.000 C 
ATOM     77  C53 UNL A   1       4.811  10.404  38.568  1.00  0.00    +0.000 C 
ATOM     78  C54 UNL A   1       3.495  10.155  37.980  1.00  0.00    +0.000 C 
ATOM     79  N6  UNL A   1       3.522   8.819  37.663  1.00  0.00    +0.000 N 
ATOM     80  C55 UNL A   1       4.579   4.529  37.155  1.00  0.00    +0.000 C 
ATOM     81  C56 UNL A   1       3.560   3.954  36.533  1.00  0.00    +0.000 C 
ATOM     82  C57 UNL A   1      -0.866  11.059  36.667  1.00  0.00    +0.000 C 
ATOM     83  C58 UNL A   1       0.186  11.738  37.101  1.00  0.00    +0.000 C 
ATOM    109  H24 UNL A   1      -2.729   6.541  34.602  1.00  0.00    +0.000 H 
ATOM    110  H25 UNL A   1      -1.393   4.304  34.678  1.00  0.00    +0.000 H 
ATOM    111  H26 UNL A   1       0.939   7.270  36.382  1.00  0.00    +0.000 H 
ATOM    112  H27 UNL A   1       6.496   9.165  38.882  1.00  0.00    +0.000 H 
ATOM    113  H28 UNL A   1       5.140  11.310  38.937  1.00  0.00    +0.000 H 
ATOM    114  H29 UNL A   1       2.768   8.350  37.238  1.00  0.00    +0.000 H 
ATOM    115  H30 UNL A   1       5.467   4.111  37.474  1.00  0.00    +0.000 H 
ATOM    116  H31 UNL A   1       3.546   2.968  36.229  1.00  0.00    +0.000 H 
ATOM    117  H32 UNL A   1      -1.803  11.466  36.518  1.00  0.00    +0.000 H 
ATOM    118  H33 UNL A   1       0.275  12.748  37.290  1.00  0.00    +0.000 H 
ENDROOT
BRANCH   27   26
ATOM    107  H22 UNL A   1       4.009  15.423  37.255  1.00  0.00    +0.000 H 
ATOM    108  H23 UNL A   1       3.525  13.189  36.445  1.00  0.00    +0.000 H 
ATOM     84  C59 UNL A   1       2.400  12.855  39.585  1.00  0.00    +0.000 C 
ATOM     85  C60 UNL A   1       2.584  14.169  40.015  1.00  0.00    +0.000 C 
ATOM    120  H35 UNL A   1       2.240  14.460  40.945  1.00  0.00    +0.000 H 
ATOM     23  C17 UNL A   1       3.234  15.093  39.192  1.00  0.00    +0.000 C 
ATOM     24  C18 UNL A   1       3.569  14.733  37.883  1.00  0.00    +0.000 C 
ATOM     25  C19 UNL A   1       3.307  13.438  37.423  1.00  0.00    +0.000 C 
ATOM    119  H34 UNL A   1       2.002  12.156  40.232  1.00  0.00    +0.000 H 
ATOM     26  C20 UNL A   1       2.752  12.475  38.282  1.00  0.00    +0.000 C 
BRANCH   23   21
ATOM     21  C16 UNL A   1       3.542  16.470  39.650  1.00  0.00    +0.000 C 
ATOM     22  O4  UNL A   1       2.734  17.371  39.437  1.00  0.00    +0.000 O 
BRANCH   21   20
ATOM    106  H21 UNL A   1       4.807  17.687  40.608  1.00  0.00    +0.000 H 
ATOM     20  N2  UNL A   1       4.722  16.759  40.291  1.00  0.00    +0.000 N 
BRANCH   20   19
ATOM    105  H20 UNL A   1       5.848  15.105  39.871  1.00  0.00    +0.000 H 
ATOM     19  C15 UNL A   1       5.864  15.910  40.576  1.00  0.00    +0.000 C 
ATOM    104  H19 UNL A   1       5.787  15.561  41.584  1.00  0.00    +0.000 H 
BRANCH   19   18
ATOM     18  C14 UNL A   1       7.198  16.628  40.411  1.00  0.00    +0.000 C 
ATOM    102  H17 UNL A   1       7.026  17.498  39.812  1.00  0.00    +0.000 H 
ATOM    103  H18 UNL A   1       7.533  16.832  41.407  1.00  0.00    +0.000 H 
BRANCH   18   17
ATOM     17  C13 UNL A   1       8.331  15.833  39.760  1.00  0.00    +0.000 C 
ATOM    100  H15 UNL A   1       8.744  15.189  40.508  1.00  0.00    +0.000 H 
ATOM    101  H16 UNL A   1       7.875  15.334  38.931  1.00  0.00    +0.000 H 
BRANCH   17   16
ATOM     98  H13 UNL A   1      10.240  15.930  38.849  1.00  0.00    +0.000 H 
ATOM     99  H14 UNL A   1       9.042  17.196  38.358  1.00  0.00    +0.000 H 
ATOM     16  C12 UNL A   1       9.490  16.633  39.150  1.00  0.00    +0.000 C 
BRANCH   16   15
ATOM     97  H12 UNL A   1      10.578  17.134  40.858  1.00  0.00    +0.000 H 
ATOM     15  C11 UNL A   1      10.175  17.682  40.032  1.00  0.00    +0.000 C 
ATOM     96  H11 UNL A   1       9.439  18.414  40.295  1.00  0.00    +0.000 H 
BRANCH   15   14
ATOM     94  H9  UNL A   1      12.205  17.764  39.461  1.00  0.00    +0.000 H 
ATOM     14  C10 UNL A   1      11.362  18.421  39.427  1.00  0.00    +0.000 C 
ATOM     95  H10 UNL A   1      11.053  18.695  38.439  1.00  0.00    +0.000 H 
BRANCH   14   13
ATOM     13  N1  UNL A   1      11.740  19.655  40.067  1.00  0.00    +0.000 N 
ATOM     93  H8  UNL A   1      11.064  20.370  40.030  1.00  0.00    +0.000 H 
BRANCH   13   11
ATOM     11  C9  UNL A   1      12.906  19.983  40.724  1.00  0.00    +0.000 C 
ATOM     12  O3  UNL A   1      13.643  19.047  41.046  1.00  0.00    +0.000 O 
BRANCH   11   10
ATOM      5  C3  UNL A   1      13.548  22.419  40.037  1.00  0.00    +0.000 C 
ATOM      6  C4  UNL A   1      14.085  23.661  40.418  1.00  0.00    +0.000 C 
ATOM      7  C5  UNL A   1      14.409  23.910  41.748  1.00  0.00    +0.000 C 
ATOM      8  C6  UNL A   1      14.194  22.921  42.700  1.00  0.00    +0.000 C 
ATOM      9  C7  UNL A   1      13.689  21.674  42.311  1.00  0.00    +0.000 C 
ATOM     10  C8  UNL A   1      13.388  21.381  40.963  1.00  0.00    +0.000 C 
ATOM     89  H4  UNL A   1      14.241  24.392  39.708  1.00  0.00    +0.000 H 
ATOM     90  H5  UNL A   1      14.806  24.821  42.025  1.00  0.00    +0.000 H 
ATOM     91  H6  UNL A   1      14.405  23.105  43.694  1.00  0.00    +0.000 H 
ATOM     92  H7  UNL A   1      13.534  20.950  43.030  1.00  0.00    +0.000 H 
BRANCH    5    4
ATOM      4  O2  UNL A   1      13.282  22.314  38.669  1.00  0.00    +0.000 O 
BRANCH    4    2
ATOM      2  C2  UNL A   1      14.267  22.774  37.806  1.00  0.00    +0.000 C 
ATOM      3  O1  UNL A   1      14.248  23.816  37.162  1.00  0.00    +0.000 O 
BRANCH    2    1
ATOM      1  C1  UNL A   1      15.386  21.772  37.781  1.00  0.00    +0.000 C 
ATOM     86  H1  UNL A   1      14.982  20.785  37.851  1.00  0.00    +0.000 H 
ATOM     87  H2  UNL A   1      16.041  21.949  38.608  1.00  0.00    +0.000 H 
ATOM     88  H3  UNL A   1      15.933  21.871  36.867  1.00  0.00    +0.000 H 
ENDBRANCH    2    1
ENDBRANCH    4    2
ENDBRANCH    5    4
ENDBRANCH   11   10
ENDBRANCH   13   11
ENDBRANCH   14   13
ENDBRANCH   15   14
ENDBRANCH   16   15
ENDBRANCH   17   16
ENDBRANCH   18   17
ENDBRANCH   19   18
ENDBRANCH   20   19
ENDBRANCH   21   20
ENDBRANCH   23   21
ENDBRANCH   27   26
BRANCH   31   32
ATOM     33  C26 UNL A   1      -3.023   9.746  34.210  1.00  0.00    +0.000 C 
ATOM     34  F1  UNL A   1      -2.038   9.889  33.311  1.00  0.00    +0.000 F 
ATOM     35  C27 UNL A   1      -4.311  10.147  33.862  1.00  0.00    +0.000 C 
ATOM     36  F2  UNL A   1      -4.541  10.677  32.653  1.00  0.00    +0.000 F 
ATOM     37  C28 UNL A   1      -5.352  10.007  34.767  1.00  0.00    +0.000 C 
ATOM     38  F3  UNL A   1      -6.593  10.381  34.426  1.00  0.00    +0.000 F 
ATOM     39  C29 UNL A   1      -5.105   9.486  36.028  1.00  0.00    +0.000 C 
ATOM     40  F4  UNL A   1      -6.114   9.336  36.899  1.00  0.00    +0.000 F 
ATOM     41  C30 UNL A   1      -3.813   9.115  36.390  1.00  0.00    +0.000 C 
ATOM     42  F5  UNL A   1      -3.606   8.625  37.622  1.00  0.00    +0.000 F 
ATOM     32  C25 UNL A   1      -2.746   9.234  35.487  1.00  0.00    +0.000 C 
ENDBRANCH   31   32
BRANCH   48   49
ATOM     49  C36 UNL A   1       1.106   3.142  35.297  1.00  0.00    +0.000 C 
ATOM     50  C37 UNL A   1       1.452   2.756  33.995  1.00  0.00    +0.000 C 
ATOM     51  F6  UNL A   1       1.906   3.665  33.119  1.00  0.00    +0.000 F 
ATOM     52  C38 UNL A   1       1.293   1.438  33.573  1.00  0.00    +0.000 C 
ATOM     53  F7  UNL A   1       1.579   1.103  32.308  1.00  0.00    +0.000 F 
ATOM     54  C39 UNL A   1       0.824   0.475  34.456  1.00  0.00    +0.000 C 
ATOM     55  F8  UNL A   1       0.680  -0.793  34.050  1.00  0.00    +0.000 F 
ATOM     56  C40 UNL A   1       0.497   0.831  35.755  1.00  0.00    +0.000 C 
ATOM     57  F9  UNL A   1       0.061  -0.100  36.614  1.00  0.00    +0.000 F 
ATOM     58  C41 UNL A   1       0.622   2.154  36.169  1.00  0.00    +0.000 C 
ATOM     59  F10 UNL A   1       0.283   2.469  37.429  1.00  0.00    +0.000 F 
ENDBRANCH   48   49
BRANCH   63   64
ATOM     65  C46 UNL A   1       6.596   5.740  39.505  1.00  0.00    +0.000 C 
ATOM     66  F11 UNL A   1       5.529   5.415  40.249  1.00  0.00    +0.000 F 
ATOM     67  C47 UNL A   1       7.865   5.383  39.957  1.00  0.00    +0.000 C 
ATOM     68  F12 UNL A   1       8.000   4.735  41.123  1.00  0.00    +0.000 F 
ATOM     69  C48 UNL A   1       8.988   5.718  39.217  1.00  0.00    +0.000 C 
ATOM     70  F13 UNL A   1      10.208   5.376  39.653  1.00  0.00    +0.000 F 
ATOM     71  C49 UNL A   1       8.845   6.419  38.030  1.00  0.00    +0.000 C 
ATOM     72  F14 UNL A   1       9.926   6.732  37.301  1.00  0.00    +0.000 F 
ATOM     73  C50 UNL A   1       7.579   6.807  37.594  1.00  0.00    +0.000 C 
ATOM     74  F15 UNL A   1       7.476   7.504  36.452  1.00  0.00    +0.000 F 
ATOM     64  C45 UNL A   1       6.428   6.475  38.322  1.00  0.00    +0.000 C 
ENDBRANCH   63   64
TORSDOF 18
ENDMDL
MODEL 6
REMARK VINA RESULT:      -9.1     47.840     53.572
ROOT
ATOM     27  C21 UNL A   1      51.680  19.034   7.072  1.00  0.00    +0.000 C 
ATOM     28  C22 UNL A   1      52.846  18.354   6.404  1.00  0.00    +0.000 C 
ATOM     29  N3  UNL A   1      54.106  18.329   6.758  1.00  0.00    +0.000 N 
ATOM     30  C23 UNL A   1      54.749  17.532   5.820  1.00  0.00    +0.000 C 
ATOM     31  C24 UNL A   1      56.070  17.253   5.707  1.00  0.00    +0.000 C 
ATOM     43  C31 UNL A   1      57.084  17.758   6.596  1.00  0.00    +0.000 C 
ATOM     44  C32 UNL A   1      58.454  17.574   6.536  1.00  0.00    +0.000 C 
ATOM     45  C33 UNL A   1      59.030  18.204   7.644  1.00  0.00    +0.000 C 
ATOM     46  C34 UNL A   1      58.026  18.837   8.358  1.00  0.00    +0.000 C 
ATOM     47  N4  UNL A   1      56.836  18.549   7.710  1.00  0.00    +0.000 N 
ATOM     48  C35 UNL A   1      58.144  19.644   9.546  1.00  0.00    +0.000 C 
ATOM     60  C42 UNL A   1      57.105  20.234  10.186  1.00  0.00    +0.000 C 
ATOM     61  N5  UNL A   1      55.754  20.214   9.865  1.00  0.00    +0.000 N 
ATOM     62  C43 UNL A   1      55.153  20.918  10.794  1.00  0.00    +0.000 C 
ATOM     63  C44 UNL A   1      53.692  21.263  10.930  1.00  0.00    +0.000 C 
ATOM     75  C51 UNL A   1      52.824  20.822   9.999  1.00  0.00    +0.000 C 
ATOM     76  C52 UNL A   1      51.387  21.079   9.996  1.00  0.00    +0.000 C 
ATOM     77  C53 UNL A   1      50.831  20.440   8.954  1.00  0.00    +0.000 C 
ATOM     78  C54 UNL A   1      51.879  19.763   8.189  1.00  0.00    +0.000 C 
ATOM     79  N6  UNL A   1      53.030  20.050   8.880  1.00  0.00    +0.000 N 
ATOM     80  C55 UNL A   1      56.055  21.435  11.831  1.00  0.00    +0.000 C 
ATOM     81  C56 UNL A   1      57.238  21.033  11.387  1.00  0.00    +0.000 C 
ATOM     82  C57 UNL A   1      53.732  17.042   4.916  1.00  0.00    +0.000 C 
ATOM     83  C58 UNL A   1      52.552  17.578   5.189  1.00  0.00    +0.000 C 
ATOM    109  H24 UNL A   1      58.963  17.059   5.800  1.00  0.00    +0.000 H 
ATOM    110  H25 UNL A   1      60.033  18.199   7.887  1.00  0.00    +0.000 H 
ATOM    111  H26 UNL A   1      55.946  18.858   7.996  1.00  0.00    +0.000 H 
ATOM    112  H27 UNL A   1      50.880  21.658  10.682  1.00  0.00    +0.000 H 
ATOM    113  H28 UNL A   1      49.824  20.428   8.729  1.00  0.00    +0.000 H 
ATOM    114  H29 UNL A   1      53.919  19.734   8.601  1.00  0.00    +0.000 H 
ATOM    115  H30 UNL A   1      55.828  21.971  12.683  1.00  0.00    +0.000 H 
ATOM    116  H31 UNL A   1      58.137  21.261  11.839  1.00  0.00    +0.000 H 
ATOM    117  H32 UNL A   1      53.904  16.364   4.155  1.00  0.00    +0.000 H 
ATOM    118  H33 UNL A   1      51.659  17.478   4.681  1.00  0.00    +0.000 H 
ENDROOT
BRANCH   27   26
ATOM    107  H22 UNL A   1      47.679  16.756   6.602  1.00  0.00    +0.000 H 
ATOM    108  H23 UNL A   1      49.869  17.081   7.593  1.00  0.00    +0.000 H 
ATOM     84  C59 UNL A   1      49.768  19.814   5.655  1.00  0.00    +0.000 C 
ATOM     85  C60 UNL A   1      48.468  19.679   5.168  1.00  0.00    +0.000 C 
ATOM    120  H35 UNL A   1      48.053  20.429   4.592  1.00  0.00    +0.000 H 
ATOM     23  C17 UNL A   1      47.726  18.530   5.456  1.00  0.00    +0.000 C 
ATOM     24  C18 UNL A   1      48.240  17.586   6.351  1.00  0.00    +0.000 C 
ATOM     25  C19 UNL A   1      49.511  17.764   6.906  1.00  0.00    +0.000 C 
ATOM    119  H34 UNL A   1      50.342  20.622   5.365  1.00  0.00    +0.000 H 
ATOM     26  C20 UNL A   1      50.302  18.863   6.536  1.00  0.00    +0.000 C 
BRANCH   23   21
ATOM     21  C16 UNL A   1      46.382  18.299   4.874  1.00  0.00    +0.000 C 
ATOM     22  O4  UNL A   1      45.676  17.401   5.325  1.00  0.00    +0.000 O 
BRANCH   21   20
ATOM    106  H21 UNL A   1      46.174  18.732   2.932  1.00  0.00    +0.000 H 
ATOM     20  N2  UNL A   1      45.920  19.059   3.826  1.00  0.00    +0.000 N 
BRANCH   20   19
ATOM    105  H20 UNL A   1      45.669  21.019   3.304  1.00  0.00    +0.000 H 
ATOM     19  C15 UNL A   1      45.117  20.267   3.829  1.00  0.00    +0.000 C 
ATOM    104  H19 UNL A   1      44.925  20.546   4.844  1.00  0.00    +0.000 H 
BRANCH   19   18
ATOM     18  C14 UNL A   1      43.783  20.100   3.111  1.00  0.00    +0.000 C 
ATOM    102  H17 UNL A   1      43.540  19.058   3.119  1.00  0.00    +0.000 H 
ATOM    103  H18 UNL A   1      43.096  20.723   3.644  1.00  0.00    +0.000 H 
BRANCH   18   17
ATOM     17  C13 UNL A   1      43.719  20.580   1.660  1.00  0.00    +0.000 C 
ATOM    100  H15 UNL A   1      43.750  21.649   1.673  1.00  0.00    +0.000 H 
ATOM    101  H16 UNL A   1      44.549  20.107   1.177  1.00  0.00    +0.000 H 
BRANCH   17   16
ATOM     98  H13 UNL A   1      42.075  21.054   0.414  1.00  0.00    +0.000 H 
ATOM     99  H14 UNL A   1      42.872  19.454   0.129  1.00  0.00    +0.000 H 
ATOM     16  C12 UNL A   1      42.494  20.163   0.835  1.00  0.00    +0.000 C 
BRANCH   16   15
ATOM     97  H12 UNL A   1      41.717  19.288   2.562  1.00  0.00    +0.000 H 
ATOM     15  C11 UNL A   1      41.365  19.424   1.561  1.00  0.00    +0.000 C 
ATOM     96  H11 UNL A   1      41.174  18.517   1.024  1.00  0.00    +0.000 H 
BRANCH   15   14
ATOM     94  H9  UNL A   1      39.256  19.468   1.482  1.00  0.00    +0.000 H 
ATOM     14  C10 UNL A   1      40.039  20.162   1.702  1.00  0.00    +0.000 C 
ATOM     95  H10 UNL A   1      40.028  20.538   2.704  1.00  0.00    +0.000 H 
BRANCH   14   13
ATOM     13  N1  UNL A   1      39.857  21.314   0.857  1.00  0.00    +0.000 N 
ATOM     93  H8  UNL A   1      40.369  22.112   1.120  1.00  0.00    +0.000 H 
BRANCH   13   11
ATOM     11  C9  UNL A   1      39.072  21.464  -0.266  1.00  0.00    +0.000 C 
ATOM     12  O3  UNL A   1      39.546  21.061  -1.332  1.00  0.00    +0.000 O 
BRANCH   11   10
ATOM      5  C3  UNL A   1      36.574  21.506   0.492  1.00  0.00    +0.000 C 
ATOM      6  C4  UNL A   1      35.287  22.046   0.323  1.00  0.00    +0.000 C 
ATOM      7  C5  UNL A   1      35.077  23.104  -0.556  1.00  0.00    +0.000 C 
ATOM      8  C6  UNL A   1      36.152  23.627  -1.265  1.00  0.00    +0.000 C 
ATOM      9  C7  UNL A   1      37.426  23.065  -1.116  1.00  0.00    +0.000 C 
ATOM     10  C8  UNL A   1      37.661  21.967  -0.261  1.00  0.00    +0.000 C 
ATOM     89  H4  UNL A   1      34.493  21.655   0.852  1.00  0.00    +0.000 H 
ATOM     90  H5  UNL A   1      34.131  23.496  -0.682  1.00  0.00    +0.000 H 
ATOM     91  H6  UNL A   1      36.012  24.429  -1.899  1.00  0.00    +0.000 H 
ATOM     92  H7  UNL A   1      38.215  23.464  -1.649  1.00  0.00    +0.000 H 
BRANCH    5    4
ATOM      4  O2  UNL A   1      36.627  20.445   1.400  1.00  0.00    +0.000 O 
BRANCH    4    2
ATOM      2  C2  UNL A   1      36.626  20.777   2.748  1.00  0.00    +0.000 C 
ATOM      3  O1  UNL A   1      37.097  21.789   3.253  1.00  0.00    +0.000 O 
BRANCH    2    1
ATOM      1  C1  UNL A   1      35.944  19.678   3.511  1.00  0.00    +0.000 C 
ATOM     86  H1  UNL A   1      36.064  19.844   4.561  1.00  0.00    +0.000 H 
ATOM     87  H2  UNL A   1      36.381  18.737   3.248  1.00  0.00    +0.000 H 
ATOM     88  H3  UNL A   1      34.903  19.666   3.267  1.00  0.00    +0.000 H 
ENDBRANCH    2    1
ENDBRANCH    4    2
ENDBRANCH    5    4
ENDBRANCH   11   10
ENDBRANCH   13   11
ENDBRANCH   14   13
ENDBRANCH   15   14
ENDBRANCH   16   15
ENDBRANCH   17   16
ENDBRANCH   18   17
ENDBRANCH   19   18
ENDBRANCH   20   19
ENDBRANCH   21   20
ENDBRANCH   23   21
ENDBRANCH   27   26
BRANCH   31   32
ATOM     33  C26 UNL A   1      56.626  14.973   4.740  1.00  0.00    +0.000 C 
ATOM     34  F1  UNL A   1      56.415  14.413   5.941  1.00  0.00    +0.000 F 
ATOM     35  C27 UNL A   1      57.001  14.155   3.677  1.00  0.00    +0.000 C 
ATOM     36  F2  UNL A   1      57.156  12.838   3.870  1.00  0.00    +0.000 F 
ATOM     37  C28 UNL A   1      57.221  14.702   2.423  1.00  0.00    +0.000 C 
ATOM     38  F3  UNL A   1      57.570  13.913   1.397  1.00  0.00    +0.000 F 
ATOM     39  C29 UNL A   1      57.088  16.070   2.232  1.00  0.00    +0.000 C 
ATOM     40  F4  UNL A   1      57.286  16.598   1.016  1.00  0.00    +0.000 F 
ATOM     41  C30 UNL A   1      56.745  16.894   3.301  1.00  0.00    +0.000 C 
ATOM     42  F5  UNL A   1      56.636  18.214   3.086  1.00  0.00    +0.000 F 
ATOM     32  C25 UNL A   1      56.503  16.362   4.577  1.00  0.00    +0.000 C 
ENDBRANCH   31   32
BRANCH   48   49
ATOM     49  C36 UNL A   1      59.521  19.874  10.102  1.00  0.00    +0.000 C 
ATOM     50  C37 UNL A   1      60.311  20.959   9.694  1.00  0.00    +0.000 C 
ATOM     51  F6  UNL A   1      59.867  21.800   8.749  1.00  0.00    +0.000 F 
ATOM     52  C38 UNL A   1      61.581  21.160  10.229  1.00  0.00    +0.000 C 
ATOM     53  F7  UNL A   1      62.339  22.172   9.786  1.00  0.00    +0.000 F 
ATOM     54  C39 UNL A   1      62.069  20.306  11.208  1.00  0.00    +0.000 C 
ATOM     55  F8  UNL A   1      63.287  20.507  11.727  1.00  0.00    +0.000 F 
ATOM     56  C40 UNL A   1      61.296  19.241  11.643  1.00  0.00    +0.000 C 
ATOM     57  F9  UNL A   1      61.757  18.425  12.600  1.00  0.00    +0.000 F 
ATOM     58  C41 UNL A   1      60.040  19.017  11.085  1.00  0.00    +0.000 C 
ATOM     59  F10 UNL A   1      59.323  17.967  11.515  1.00  0.00    +0.000 F 
ENDBRANCH   48   49
BRANCH   63   64
ATOM     65  C46 UNL A   1      52.628  21.497  13.198  1.00  0.00    +0.000 C 
ATOM     66  F11 UNL A   1      52.498  20.164  13.261  1.00  0.00    +0.000 F 
ATOM     67  C47 UNL A   1      52.125  22.272  14.241  1.00  0.00    +0.000 C 
ATOM     68  F12 UNL A   1      51.515  21.681  15.279  1.00  0.00    +0.000 F 
ATOM     69  C48 UNL A   1      52.232  23.654  14.197  1.00  0.00    +0.000 C 
ATOM     70  F13 UNL A   1      51.747  24.399  15.199  1.00  0.00    +0.000 F 
ATOM     71  C49 UNL A   1      52.832  24.263  13.106  1.00  0.00    +0.000 C 
ATOM     72  F14 UNL A   1      52.953  25.597  13.065  1.00  0.00    +0.000 F 
ATOM     73  C50 UNL A   1      53.305  23.491  12.046  1.00  0.00    +0.000 C 
ATOM     74  F15 UNL A   1      53.860  24.110  10.994  1.00  0.00    +0.000 F 
ATOM     64  C45 UNL A   1      53.213  22.091  12.070  1.00  0.00    +0.000 C 
ENDBRANCH   63   64
TORSDOF 18
ENDMDL
MODEL 7
REMARK VINA RESULT:      -9.1     42.536     46.504
ROOT
ATOM     27  C21 UNL A   1      13.901  53.678   5.194  1.00  0.00    +0.000 C 
ATOM     28  C22 UNL A   1      14.865  54.126   4.126  1.00  0.00    +0.000 C 
ATOM     29  N3  UNL A   1      15.357  53.453   3.116  1.00  0.00    +0.000 N 
ATOM     30  C23 UNL A   1      16.163  54.344   2.422  1.00  0.00    +0.000 C 
ATOM     31  C24 UNL A   1      16.949  54.113   1.342  1.00  0.00    +0.000 C 
ATOM     43  C31 UNL A   1      17.078  52.835   0.693  1.00  0.00    +0.000 C 
ATOM     44  C32 UNL A   1      17.885  52.487  -0.376  1.00  0.00    +0.000 C 
ATOM     45  C33 UNL A   1      17.632  51.150  -0.700  1.00  0.00    +0.000 C 
ATOM     46  C34 UNL A   1      16.717  50.646   0.209  1.00  0.00    +0.000 C 
ATOM     47  N4  UNL A   1      16.378  51.691   1.053  1.00  0.00    +0.000 N 
ATOM     48  C35 UNL A   1      16.188  49.308   0.300  1.00  0.00    +0.000 C 
ATOM     60  C42 UNL A   1      15.293  48.892   1.228  1.00  0.00    +0.000 C 
ATOM     61  N5  UNL A   1      14.707  49.610   2.262  1.00  0.00    +0.000 N 
ATOM     62  C43 UNL A   1      13.901  48.773   2.870  1.00  0.00    +0.000 C 
ATOM     63  C44 UNL A   1      13.037  48.996   4.085  1.00  0.00    +0.000 C 
ATOM     75  C51 UNL A   1      13.047  50.202   4.685  1.00  0.00    +0.000 C 
ATOM     76  C52 UNL A   1      12.270  50.564   5.866  1.00  0.00    +0.000 C 
ATOM     77  C53 UNL A   1      12.484  51.858   6.151  1.00  0.00    +0.000 C 
ATOM     78  C54 UNL A   1      13.448  52.408   5.198  1.00  0.00    +0.000 C 
ATOM     79  N6  UNL A   1      13.732  51.351   4.368  1.00  0.00    +0.000 N 
ATOM     80  C55 UNL A   1      13.859  47.436   2.263  1.00  0.00    +0.000 C 
ATOM     81  C56 UNL A   1      14.761  47.547   1.299  1.00  0.00    +0.000 C 
ATOM     82  C57 UNL A   1      16.049  55.623   3.088  1.00  0.00    +0.000 C 
ATOM     83  C58 UNL A   1      15.317  55.525   4.188  1.00  0.00    +0.000 C 
ATOM    109  H24 UNL A   1      18.557  53.109  -0.853  1.00  0.00    +0.000 H 
ATOM    110  H25 UNL A   1      18.057  50.629  -1.482  1.00  0.00    +0.000 H 
ATOM    111  H26 UNL A   1      15.737  51.632   1.797  1.00  0.00    +0.000 H 
ATOM    112  H27 UNL A   1      11.656  49.928   6.398  1.00  0.00    +0.000 H 
ATOM    113  H28 UNL A   1      12.038  52.382   6.920  1.00  0.00    +0.000 H 
ATOM    114  H29 UNL A   1      14.366  51.410   3.617  1.00  0.00    +0.000 H 
ATOM    115  H30 UNL A   1      13.278  46.622   2.521  1.00  0.00    +0.000 H 
ATOM    116  H31 UNL A   1      15.048  46.774   0.679  1.00  0.00    +0.000 H 
ATOM    117  H32 UNL A   1      16.483  56.498   2.752  1.00  0.00    +0.000 H 
ATOM    118  H33 UNL A   1      15.117  56.242   4.902  1.00  0.00    +0.000 H 
ENDROOT
BRANCH   27   26
ATOM    107  H22 UNL A   1      10.963  56.891   6.763  1.00  0.00    +0.000 H 
ATOM    108  H23 UNL A   1      11.674  55.228   5.146  1.00  0.00    +0.000 H 
ATOM     84  C59 UNL A   1      14.109  54.819   7.413  1.00  0.00    +0.000 C 
ATOM     85  C60 UNL A   1      13.640  55.701   8.387  1.00  0.00    +0.000 C 
ATOM    120  H35 UNL A   1      14.115  55.756   9.302  1.00  0.00    +0.000 H 
ATOM     23  C17 UNL A   1      12.531  56.509   8.127  1.00  0.00    +0.000 C 
ATOM     24  C18 UNL A   1      11.809  56.327   6.943  1.00  0.00    +0.000 C 
ATOM     25  C19 UNL A   1      12.231  55.382   6.001  1.00  0.00    +0.000 C 
ATOM    119  H34 UNL A   1      14.981  54.291   7.577  1.00  0.00    +0.000 H 
ATOM     26  C20 UNL A   1      13.406  54.643   6.212  1.00  0.00    +0.000 C 
BRANCH   23   21
ATOM     21  C16 UNL A   1      12.063  57.532   9.093  1.00  0.00    +0.000 C 
ATOM     22  O4  UNL A   1      12.375  58.708   8.923  1.00  0.00    +0.000 O 
BRANCH   21   20
ATOM    106  H21 UNL A   1      11.446  57.743  10.983  1.00  0.00    +0.000 H 
ATOM     20  N2  UNL A   1      11.304  57.185  10.184  1.00  0.00    +0.000 N 
BRANCH   20   19
ATOM    105  H20 UNL A   1       9.825  56.008   9.405  1.00  0.00    +0.000 H 
ATOM     19  C15 UNL A   1      10.324  56.127  10.345  1.00  0.00    +0.000 C 
ATOM    104  H19 UNL A   1       9.647  56.404  11.126  1.00  0.00    +0.000 H 
BRANCH   19   18
ATOM     18  C14 UNL A   1      10.950  54.783  10.699  1.00  0.00    +0.000 C 
ATOM    102  H17 UNL A   1      11.995  54.944  10.858  1.00  0.00    +0.000 H 
ATOM    103  H18 UNL A   1      10.414  54.442  11.560  1.00  0.00    +0.000 H 
BRANCH   18   17
ATOM     17  C13 UNL A   1      10.805  53.664   9.665  1.00  0.00    +0.000 C 
ATOM    100  H15 UNL A   1       9.827  53.246   9.779  1.00  0.00    +0.000 H 
ATOM    101  H16 UNL A   1      10.991  54.135   8.723  1.00  0.00    +0.000 H 
BRANCH   17   16
ATOM     98  H13 UNL A   1      12.125  52.297   8.734  1.00  0.00    +0.000 H 
ATOM     99  H14 UNL A   1      12.579  52.858  10.394  1.00  0.00    +0.000 H 
ATOM     16  C12 UNL A   1      11.811  52.508   9.735  1.00  0.00    +0.000 C 
BRANCH   16   15
ATOM     97  H12 UNL A   1      10.271  51.244  10.352  1.00  0.00    +0.000 H 
ATOM     15  C11 UNL A   1      11.339  51.189  10.356  1.00  0.00    +0.000 C 
ATOM     96  H11 UNL A   1      11.782  51.111  11.327  1.00  0.00    +0.000 H 
BRANCH   15   14
ATOM     94  H9  UNL A   1      10.776  49.339   9.509  1.00  0.00    +0.000 H 
ATOM     14  C10 UNL A   1      11.675  49.912   9.594  1.00  0.00    +0.000 C 
ATOM     95  H10 UNL A   1      12.083  50.237   8.659  1.00  0.00    +0.000 H 
BRANCH   14   13
ATOM     13  N1  UNL A   1      12.683  49.066  10.180  1.00  0.00    +0.000 N 
ATOM     93  H8  UNL A   1      12.467  48.714  11.074  1.00  0.00    +0.000 H 
BRANCH   13   11
ATOM     11  C9  UNL A   1      13.904  48.675   9.675  1.00  0.00    +0.000 C 
ATOM     12  O3  UNL A   1      14.218  47.492   9.838  1.00  0.00    +0.000 O 
BRANCH   11   10
ATOM      5  C3  UNL A   1      15.298  50.819   9.151  1.00  0.00    +0.000 C 
ATOM      6  C4  UNL A   1      16.083  51.533   8.229  1.00  0.00    +0.000 C 
ATOM      7  C5  UNL A   1      16.448  50.954   7.018  1.00  0.00    +0.000 C 
ATOM      8  C6  UNL A   1      16.032  49.661   6.726  1.00  0.00    +0.000 C 
ATOM      9  C7  UNL A   1      15.223  48.966   7.634  1.00  0.00    +0.000 C 
ATOM     10  C8  UNL A   1      14.806  49.542   8.853  1.00  0.00    +0.000 C 
ATOM     89  H4  UNL A   1      16.391  52.492   8.452  1.00  0.00    +0.000 H 
ATOM     90  H5  UNL A   1      17.022  51.481   6.341  1.00  0.00    +0.000 H 
ATOM     91  H6  UNL A   1      16.320  49.212   5.842  1.00  0.00    +0.000 H 
ATOM     92  H7  UNL A   1      14.923  48.006   7.404  1.00  0.00    +0.000 H 
BRANCH    5    4
ATOM      4  O2  UNL A   1      15.006  51.533  10.317  1.00  0.00    +0.000 O 
BRANCH    4    2
ATOM      2  C2  UNL A   1      15.823  51.296  11.414  1.00  0.00    +0.000 C 
ATOM      3  O1  UNL A   1      16.699  50.445  11.505  1.00  0.00    +0.000 O 
BRANCH    2    1
ATOM      1  C1  UNL A   1      15.456  52.266  12.501  1.00  0.00    +0.000 C 
ATOM     86  H1  UNL A   1      15.940  51.981  13.411  1.00  0.00    +0.000 H 
ATOM     87  H2  UNL A   1      14.396  52.258  12.643  1.00  0.00    +0.000 H 
ATOM     88  H3  UNL A   1      15.770  53.249  12.222  1.00  0.00    +0.000 H 
ENDBRANCH    2    1
ENDBRANCH    4    2
ENDBRANCH    5    4
ENDBRANCH   11   10
ENDBRANCH   13   11
ENDBRANCH   14   13
ENDBRANCH   15   14
ENDBRANCH   16   15
ENDBRANCH   17   16
ENDBRANCH   18   17
ENDBRANCH   19   18
ENDBRANCH   20   19
ENDBRANCH   21   20
ENDBRANCH   23   21
ENDBRANCH   27   26
BRANCH   31   32
ATOM     33  C26 UNL A   1      18.988  55.624   1.322  1.00  0.00    +0.000 C 
ATOM     34  F1  UNL A   1      19.481  54.972   2.386  1.00  0.00    +0.000 F 
ATOM     35  C27 UNL A   1      19.723  56.678   0.784  1.00  0.00    +0.000 C 
ATOM     36  F2  UNL A   1      20.891  57.029   1.338  1.00  0.00    +0.000 F 
ATOM     37  C28 UNL A   1      19.243  57.369  -0.318  1.00  0.00    +0.000 C 
ATOM     38  F3  UNL A   1      19.957  58.374  -0.844  1.00  0.00    +0.000 F 
ATOM     39  C29 UNL A   1      18.020  57.022  -0.872  1.00  0.00    +0.000 C 
ATOM     40  F4  UNL A   1      17.562  57.679  -1.947  1.00  0.00    +0.000 F 
ATOM     41  C30 UNL A   1      17.269  55.990  -0.315  1.00  0.00    +0.000 C 
ATOM     42  F5  UNL A   1      16.084  55.688  -0.867  1.00  0.00    +0.000 F 
ATOM     32  C25 UNL A   1      17.739  55.267   0.791  1.00  0.00    +0.000 C 
ENDBRANCH   31   32
BRANCH   48   49
ATOM     49  C36 UNL A   1      16.688  48.290  -0.686  1.00  0.00    +0.000 C 
ATOM     50  C37 UNL A   1      15.923  47.896  -1.793  1.00  0.00    +0.000 C 
ATOM     51  F6  UNL A   1      14.689  48.389  -1.971  1.00  0.00    +0.000 F 
ATOM     52  C38 UNL A   1      16.409  46.958  -2.702  1.00  0.00    +0.000 C 
ATOM     53  F7  UNL A   1      15.639  46.556  -3.722  1.00  0.00    +0.000 F 
ATOM     54  C39 UNL A   1      17.682  46.429  -2.543  1.00  0.00    +0.000 C 
ATOM     55  F8  UNL A   1      18.151  45.534  -3.423  1.00  0.00    +0.000 F 
ATOM     56  C40 UNL A   1      18.465  46.822  -1.469  1.00  0.00    +0.000 C 
ATOM     57  F9  UNL A   1      19.701  46.326  -1.323  1.00  0.00    +0.000 F 
ATOM     58  C41 UNL A   1      17.968  47.732  -0.541  1.00  0.00    +0.000 C 
ATOM     59  F10 UNL A   1      18.744  48.081   0.497  1.00  0.00    +0.000 F 
ENDBRANCH   48   49
BRANCH   63   64
ATOM     65  C46 UNL A   1      10.830  47.805   4.298  1.00  0.00    +0.000 C 
ATOM     66  F11 UNL A   1      10.275  48.715   3.485  1.00  0.00    +0.000 F 
ATOM     67  C47 UNL A   1      10.022  46.812   4.848  1.00  0.00    +0.000 C 
ATOM     68  F12 UNL A   1       8.712  46.785   4.567  1.00  0.00    +0.000 F 
ATOM     69  C48 UNL A   1      10.566  45.866   5.704  1.00  0.00    +0.000 C 
ATOM     70  F13 UNL A   1       9.788  44.913   6.233  1.00  0.00    +0.000 F 
ATOM     71  C49 UNL A   1      11.915  45.919   6.019  1.00  0.00    +0.000 C 
ATOM     72  F14 UNL A   1      12.449  44.998   6.833  1.00  0.00    +0.000 F 
ATOM     73  C50 UNL A   1      12.717  46.932   5.497  1.00  0.00    +0.000 C 
ATOM     74  F15 UNL A   1      14.013  46.968   5.838  1.00  0.00    +0.000 F 
ATOM     64  C45 UNL A   1      12.192  47.896   4.624  1.00  0.00    +0.000 C 
ENDBRANCH   63   64
TORSDOF 18
ENDMDL
MODEL 8
REMARK VINA RESULT:      -9.1     44.813     50.844
ROOT
ATOM     27  C21 UNL A   1      53.488  19.614  11.609  1.00  0.00    +0.000 C 
ATOM     28  C22 UNL A   1      54.864  19.012  11.491  1.00  0.00    +0.000 C 
ATOM     29  N3  UNL A   1      55.852  19.024  12.350  1.00  0.00    +0.000 N 
ATOM     30  C23 UNL A   1      56.876  18.295  11.762  1.00  0.00    +0.000 C 
ATOM     31  C24 UNL A   1      58.133  18.076  12.219  1.00  0.00    +0.000 C 
ATOM     43  C31 UNL A   1      58.641  18.585  13.467  1.00  0.00    +0.000 C 
ATOM     44  C32 UNL A   1      59.914  18.460  13.995  1.00  0.00    +0.000 C 
ATOM     45  C33 UNL A   1      59.926  19.067  15.256  1.00  0.00    +0.000 C 
ATOM     46  C34 UNL A   1      58.680  19.626  15.484  1.00  0.00    +0.000 C 
ATOM     47  N4  UNL A   1      57.899  19.317  14.383  1.00  0.00    +0.000 N 
ATOM     48  C35 UNL A   1      58.235  20.387  16.624  1.00  0.00    +0.000 C 
ATOM     60  C42 UNL A   1      56.992  20.906  16.770  1.00  0.00    +0.000 C 
ATOM     61  N5  UNL A   1      55.911  20.844  15.901  1.00  0.00    +0.000 N 
ATOM     62  C43 UNL A   1      54.932  21.482  16.497  1.00  0.00    +0.000 C 
ATOM     63  C44 UNL A   1      53.536  21.760  16.002  1.00  0.00    +0.000 C 
ATOM     75  C51 UNL A   1      53.174  21.323  14.780  1.00  0.00    +0.000 C 
ATOM     76  C52 UNL A   1      51.864  21.520  14.167  1.00  0.00    +0.000 C 
ATOM     77  C53 UNL A   1      51.841  20.903  12.975  1.00  0.00    +0.000 C 
ATOM     78  C54 UNL A   1      53.151  20.303  12.718  1.00  0.00    +0.000 C 
ATOM     79  N6  UNL A   1      53.880  20.609  13.842  1.00  0.00    +0.000 N 
ATOM     80  C55 UNL A   1      55.276  21.991  17.831  1.00  0.00    +0.000 C 
ATOM     81  C56 UNL A   1      56.555  21.658  17.927  1.00  0.00    +0.000 C 
ATOM     82  C57 UNL A   1      56.372  17.802  10.499  1.00  0.00    +0.000 C 
ATOM     83  C58 UNL A   1      55.160  18.277  10.252  1.00  0.00    +0.000 C 
ATOM    109  H24 UNL A   1      60.716  17.998  13.538  1.00  0.00    +0.000 H 
ATOM    110  H25 UNL A   1      60.729  19.092  15.904  1.00  0.00    +0.000 H 
ATOM    111  H26 UNL A   1      56.956  19.577  14.267  1.00  0.00    +0.000 H 
ATOM    112  H27 UNL A   1      51.081  22.048  14.582  1.00  0.00    +0.000 H 
ATOM    113  H28 UNL A   1      51.029  20.859  12.340  1.00  0.00    +0.000 H 
ATOM    114  H29 UNL A   1      54.819  20.342  13.964  1.00  0.00    +0.000 H 
ATOM    115  H30 UNL A   1      54.678  22.482  18.515  1.00  0.00    +0.000 H 
ATOM    116  H31 UNL A   1      57.162  21.904  18.725  1.00  0.00    +0.000 H 
ATOM    117  H32 UNL A   1      56.888  17.164   9.872  1.00  0.00    +0.000 H 
ATOM    118  H33 UNL A   1      54.576  18.161   9.409  1.00  0.00    +0.000 H 
ENDROOT
BRANCH   27   26
ATOM    107  H22 UNL A   1      50.228  17.179   9.405  1.00  0.00    +0.000 H 
ATOM    108  H23 UNL A   1      51.765  17.550  11.245  1.00  0.00    +0.000 H 
ATOM     84  C59 UNL A   1      52.309  20.383   9.538  1.00  0.00    +0.000 C 
ATOM     85  C60 UNL A   1      51.351  20.214   8.539  1.00  0.00    +0.000 C 
ATOM    120  H35 UNL A   1      51.169  20.976   7.866  1.00  0.00    +0.000 H 
ATOM     23  C17 UNL A   1      50.637  19.017   8.446  1.00  0.00    +0.000 C 
ATOM     24  C18 UNL A   1      50.785  18.048   9.444  1.00  0.00    +0.000 C 
ATOM     25  C19 UNL A   1      51.686  18.254  10.494  1.00  0.00    +0.000 C 
ATOM    119  H34 UNL A   1      52.896  21.232   9.547  1.00  0.00    +0.000 H 
ATOM     26  C20 UNL A   1      52.483  19.409  10.532  1.00  0.00    +0.000 C 
BRANCH   23   21
ATOM     21  C16 UNL A   1      49.685  18.756   7.339  1.00  0.00    +0.000 C 
ATOM     22  O4  UNL A   1      49.209  17.631   7.206  1.00  0.00    +0.000 O 
BRANCH   21   20
ATOM    106  H21 UNL A   1      49.947  19.840   5.680  1.00  0.00    +0.000 H 
ATOM     20  N2  UNL A   1      49.340  19.744   6.449  1.00  0.00    +0.000 N 
BRANCH   20   19
ATOM    105  H20 UNL A   1      48.629  21.660   6.473  1.00  0.00    +0.000 H 
ATOM     19  C15 UNL A   1      48.223  20.670   6.464  1.00  0.00    +0.000 C 
ATOM    104  H19 UNL A   1      47.629  20.472   7.332  1.00  0.00    +0.000 H 
BRANCH   19   18
ATOM     18  C14 UNL A   1      47.335  20.554   5.231  1.00  0.00    +0.000 C 
ATOM    102  H17 UNL A   1      46.347  20.851   5.515  1.00  0.00    +0.000 H 
ATOM    103  H18 UNL A   1      47.794  21.178   4.494  1.00  0.00    +0.000 H 
BRANCH   18   17
ATOM     17  C13 UNL A   1      47.235  19.172   4.584  1.00  0.00    +0.000 C 
ATOM    100  H15 UNL A   1      47.815  19.195   3.686  1.00  0.00    +0.000 H 
ATOM    101  H16 UNL A   1      47.583  18.492   5.333  1.00  0.00    +0.000 H 
BRANCH   17   16
ATOM     98  H13 UNL A   1      45.866  17.598   4.220  1.00  0.00    +0.000 H 
ATOM     99  H14 UNL A   1      45.186  19.113   4.942  1.00  0.00    +0.000 H 
ATOM     16  C12 UNL A   1      45.833  18.668   4.215  1.00  0.00    +0.000 C 
BRANCH   16   15
ATOM     97  H12 UNL A   1      45.987  18.816   2.139  1.00  0.00    +0.000 H 
ATOM     15  C11 UNL A   1      45.253  19.101   2.864  1.00  0.00    +0.000 C 
ATOM     96  H11 UNL A   1      45.060  20.153   2.917  1.00  0.00    +0.000 H 
BRANCH   15   14
ATOM     94  H9  UNL A   1      44.045  18.230   1.368  1.00  0.00    +0.000 H 
ATOM     14  C10 UNL A   1      43.966  18.419   2.418  1.00  0.00    +0.000 C 
ATOM     95  H10 UNL A   1      43.887  17.538   3.021  1.00  0.00    +0.000 H 
BRANCH   14   13
ATOM     13  N1  UNL A   1      42.745  19.149   2.642  1.00  0.00    +0.000 N 
ATOM     93  H8  UNL A   1      42.565  19.387   3.581  1.00  0.00    +0.000 H 
BRANCH   13   11
ATOM     11  C9  UNL A   1      41.792  19.567   1.739  1.00  0.00    +0.000 C 
ATOM     12  O3  UNL A   1      42.141  19.636   0.557  1.00  0.00    +0.000 O 
BRANCH   11   10
ATOM      5  C3  UNL A   1      39.521  20.848   1.607  1.00  0.00    +0.000 C 
ATOM      6  C4  UNL A   1      38.204  20.988   2.078  1.00  0.00    +0.000 C 
ATOM      7  C5  UNL A   1      37.673  20.064   2.972  1.00  0.00    +0.000 C 
ATOM      8  C6  UNL A   1      38.456  18.997   3.396  1.00  0.00    +0.000 C 
ATOM      9  C7  UNL A   1      39.777  18.879   2.948  1.00  0.00    +0.000 C 
ATOM     10  C8  UNL A   1      40.354  19.823   2.071  1.00  0.00    +0.000 C 
ATOM     89  H4  UNL A   1      37.627  21.782   1.759  1.00  0.00    +0.000 H 
ATOM     90  H5  UNL A   1      36.708  20.171   3.320  1.00  0.00    +0.000 H 
ATOM     91  H6  UNL A   1      38.063  18.291   4.038  1.00  0.00    +0.000 H 
ATOM     92  H7  UNL A   1      40.346  18.080   3.271  1.00  0.00    +0.000 H 
BRANCH    5    4
ATOM      4  O2  UNL A   1      39.915  21.856   0.722  1.00  0.00    +0.000 O 
BRANCH    4    2
ATOM      2  C2  UNL A   1      39.194  21.964  -0.460  1.00  0.00    +0.000 C 
ATOM      3  O1  UNL A   1      38.365  22.822  -0.736  1.00  0.00    +0.000 O 
BRANCH    2    1
ATOM      1  C1  UNL A   1      39.596  20.838  -1.369  1.00  0.00    +0.000 C 
ATOM     86  H1  UNL A   1      38.994  19.979  -1.160  1.00  0.00    +0.000 H 
ATOM     87  H2  UNL A   1      40.626  20.598  -1.207  1.00  0.00    +0.000 H 
ATOM     88  H3  UNL A   1      39.455  21.133  -2.387  1.00  0.00    +0.000 H 
ENDBRANCH    2    1
ENDBRANCH    4    2
ENDBRANCH    5    4
ENDBRANCH   11   10
ENDBRANCH   13   11
ENDBRANCH   14   13
ENDBRANCH   15   14
ENDBRANCH   16   15
ENDBRANCH   17   16
ENDBRANCH   18   17
ENDBRANCH   19   18
ENDBRANCH   20   19
ENDBRANCH   21   20
ENDBRANCH   23   21
ENDBRANCH   27   26
BRANCH   31   32
ATOM     33  C26 UNL A   1      59.899  17.843  10.411  1.00  0.00    +0.000 C 
ATOM     34  F1  UNL A   1      59.855  19.166  10.198  1.00  0.00    +0.000 F 
ATOM     35  C27 UNL A   1      60.770  17.070   9.647  1.00  0.00    +0.000 C 
ATOM     36  F2  UNL A   1      61.532  17.652   8.710  1.00  0.00    +0.000 F 
ATOM     37  C28 UNL A   1      60.844  15.701   9.846  1.00  0.00    +0.000 C 
ATOM     38  F3  UNL A   1      61.691  14.960   9.119  1.00  0.00    +0.000 F 
ATOM     39  C29 UNL A   1      60.033  15.097  10.797  1.00  0.00    +0.000 C 
ATOM     40  F4  UNL A   1      60.115  13.775  11.002  1.00  0.00    +0.000 F 
ATOM     41  C30 UNL A   1      59.139  15.863  11.539  1.00  0.00    +0.000 C 
ATOM     42  F5  UNL A   1      58.360  15.246  12.442  1.00  0.00    +0.000 F 
ATOM     32  C25 UNL A   1      59.056  17.252  11.365  1.00  0.00    +0.000 C 
ENDBRANCH   31   32
BRANCH   48   49
ATOM     49  C36 UNL A   1      59.229  20.650  17.720  1.00  0.00    +0.000 C 
ATOM     50  C37 UNL A   1      59.986  21.830  17.764  1.00  0.00    +0.000 C 
ATOM     51  F6  UNL A   1      59.874  22.741  16.786  1.00  0.00    +0.000 F 
ATOM     52  C38 UNL A   1      60.895  22.059  18.795  1.00  0.00    +0.000 C 
ATOM     53  F7  UNL A   1      61.647  23.168  18.787  1.00  0.00    +0.000 F 
ATOM     54  C39 UNL A   1      61.034  21.134  19.820  1.00  0.00    +0.000 C 
ATOM     55  F8  UNL A   1      61.902  21.362  20.814  1.00  0.00    +0.000 F 
ATOM     56  C40 UNL A   1      60.279  19.972  19.809  1.00  0.00    +0.000 C 
ATOM     57  F9  UNL A   1      60.398  19.087  20.807  1.00  0.00    +0.000 F 
ATOM     58  C41 UNL A   1      59.396  19.724  18.762  1.00  0.00    +0.000 C 
ATOM     59  F10 UNL A   1      58.690  18.582  18.773  1.00  0.00    +0.000 F 
ENDBRANCH   48   49
BRANCH   63   64
ATOM     65  C46 UNL A   1      52.389  23.899  16.667  1.00  0.00    +0.000 C 
ATOM     66  F11 UNL A   1      53.087  24.551  15.726  1.00  0.00    +0.000 F 
ATOM     67  C47 UNL A   1      51.531  24.624  17.492  1.00  0.00    +0.000 C 
ATOM     68  F12 UNL A   1      51.423  25.951  17.341  1.00  0.00    +0.000 F 
ATOM     69  C48 UNL A   1      50.808  23.979  18.484  1.00  0.00    +0.000 C 
ATOM     70  F13 UNL A   1      49.984  24.676  19.277  1.00  0.00    +0.000 F 
ATOM     71  C49 UNL A   1      50.950  22.611  18.659  1.00  0.00    +0.000 C 
ATOM     72  F14 UNL A   1      50.241  21.979  19.604  1.00  0.00    +0.000 F 
ATOM     73  C50 UNL A   1      51.834  21.890  17.857  1.00  0.00    +0.000 C 
ATOM     74  F15 UNL A   1      51.965  20.572  18.066  1.00  0.00    +0.000 F 
ATOM     64  C45 UNL A   1      52.572  22.519  16.844  1.00  0.00    +0.000 C 
ENDBRANCH   63   64
TORSDOF 18
ENDMDL
MODEL 9
REMARK VINA RESULT:      -9.1     42.957     46.890
ROOT
ATOM     27  C21 UNL A   1      14.293  54.040   4.639  1.00  0.00    +0.000 C 
ATOM     28  C22 UNL A   1      15.242  54.444   3.541  1.00  0.00    +0.000 C 
ATOM     29  N3  UNL A   1      15.709  53.734   2.544  1.00  0.00    +0.000 N 
ATOM     30  C23 UNL A   1      16.511  54.595   1.807  1.00  0.00    +0.000 C 
ATOM     31  C24 UNL A   1      17.274  54.321   0.722  1.00  0.00    +0.000 C 
ATOM     43  C31 UNL A   1      17.379  53.022   0.111  1.00  0.00    +0.000 C 
ATOM     44  C32 UNL A   1      18.163  52.632  -0.960  1.00  0.00    +0.000 C 
ATOM     45  C33 UNL A   1      17.892  51.288  -1.237  1.00  0.00    +0.000 C 
ATOM     46  C34 UNL A   1      16.988  50.822  -0.296  1.00  0.00    +0.000 C 
ATOM     47  N4  UNL A   1      16.675  51.898   0.520  1.00  0.00    +0.000 N 
ATOM     48  C35 UNL A   1      16.448  49.494  -0.153  1.00  0.00    +0.000 C 
ATOM     60  C42 UNL A   1      15.566  49.117   0.803  1.00  0.00    +0.000 C 
ATOM     61  N5  UNL A   1      15.006  49.873   1.825  1.00  0.00    +0.000 N 
ATOM     62  C43 UNL A   1      14.203  49.064   2.473  1.00  0.00    +0.000 C 
ATOM     63  C44 UNL A   1      13.363  49.334   3.695  1.00  0.00    +0.000 C 
ATOM     75  C51 UNL A   1      13.396  50.559   4.256  1.00  0.00    +0.000 C 
ATOM     76  C52 UNL A   1      12.644  50.966   5.439  1.00  0.00    +0.000 C 
ATOM     77  C53 UNL A   1      12.876  52.267   5.679  1.00  0.00    +0.000 C 
ATOM     78  C54 UNL A   1      13.828  52.776   4.691  1.00  0.00    +0.000 C 
ATOM     79  N6  UNL A   1      14.086  51.690   3.891  1.00  0.00    +0.000 N 
ATOM     80  C55 UNL A   1      14.136  47.709   1.910  1.00  0.00    +0.000 C 
ATOM     81  C56 UNL A   1      15.022  47.780   0.927  1.00  0.00    +0.000 C 
ATOM     82  C57 UNL A   1      16.422  55.895   2.434  1.00  0.00    +0.000 C 
ATOM     83  C58 UNL A   1      15.709  55.839   3.549  1.00  0.00    +0.000 C 
ATOM    109  H24 UNL A   1      18.833  53.231  -1.469  1.00  0.00    +0.000 H 
ATOM    110  H25 UNL A   1      18.297  50.738  -2.010  1.00  0.00    +0.000 H 
ATOM    111  H26 UNL A   1      16.047  51.869   1.277  1.00  0.00    +0.000 H 
ATOM    112  H27 UNL A   1      12.034  50.353   6.002  1.00  0.00    +0.000 H 
ATOM    113  H28 UNL A   1      12.450  52.819   6.439  1.00  0.00    +0.000 H 
ATOM    114  H29 UNL A   1      14.707  51.719   3.127  1.00  0.00    +0.000 H 
ATOM    115  H30 UNL A   1      13.553  46.910   2.204  1.00  0.00    +0.000 H 
ATOM    116  H31 UNL A   1      15.290  46.985   0.327  1.00  0.00    +0.000 H 
ATOM    117  H32 UNL A   1      16.858  56.755   2.062  1.00  0.00    +0.000 H 
ATOM    118  H33 UNL A   1      15.529  56.581   4.244  1.00  0.00    +0.000 H 
ENDROOT
BRANCH   27   26
ATOM    107  H22 UNL A   1      14.679  56.455   8.568  1.00  0.00    +0.000 H 
ATOM    108  H23 UNL A   1      15.523  54.916   6.893  1.00  0.00    +0.000 H 
ATOM     84  C59 UNL A   1      12.604  55.703   5.447  1.00  0.00    +0.000 C 
ATOM     85  C60 UNL A   1      12.169  56.664   6.359  1.00  0.00    +0.000 C 
ATOM    120  H35 UNL A   1      11.313  57.208   6.165  1.00  0.00    +0.000 H 
ATOM     23  C17 UNL A   1      12.889  56.893   7.534  1.00  0.00    +0.000 C 
ATOM     24  C18 UNL A   1      14.120  56.257   7.722  1.00  0.00    +0.000 C 
ATOM     25  C19 UNL A   1      14.598  55.355   6.765  1.00  0.00    +0.000 C 
ATOM    119  H34 UNL A   1      12.021  55.475   4.626  1.00  0.00    +0.000 H 
ATOM     26  C20 UNL A   1      13.827  55.042   5.634  1.00  0.00    +0.000 C 
BRANCH   23   21
ATOM     21  C16 UNL A   1      12.408  57.830   8.578  1.00  0.00    +0.000 C 
ATOM     22  O4  UNL A   1      12.553  59.039   8.417  1.00  0.00    +0.000 O 
BRANCH   21   20
ATOM    106  H21 UNL A   1      12.006  57.906  10.536  1.00  0.00    +0.000 H 
ATOM     20  N2  UNL A   1      11.820  57.369   9.732  1.00  0.00    +0.000 N 
BRANCH   20   19
ATOM    105  H20 UNL A   1      10.524  55.962   9.010  1.00  0.00    +0.000 H 
ATOM     19  C15 UNL A   1      10.968  56.215   9.951  1.00  0.00    +0.000 C 
ATOM    104  H19 UNL A   1      10.233  56.469  10.686  1.00  0.00    +0.000 H 
BRANCH   19   18
ATOM     18  C14 UNL A   1      11.734  54.989  10.434  1.00  0.00    +0.000 C 
ATOM    102  H17 UNL A   1      12.759  55.274  10.551  1.00  0.00    +0.000 H 
ATOM    103  H18 UNL A   1      11.247  54.691  11.339  1.00  0.00    +0.000 H 
BRANCH   18   17
ATOM     17  C13 UNL A   1      11.696  53.755   9.531  1.00  0.00    +0.000 C 
ATOM    100  H15 UNL A   1      11.124  53.005  10.035  1.00  0.00    +0.000 H 
ATOM    101  H16 UNL A   1      11.278  54.102   8.609  1.00  0.00    +0.000 H 
BRANCH   17   16
ATOM     98  H13 UNL A   1      12.871  52.081   8.984  1.00  0.00    +0.000 H 
ATOM     99  H14 UNL A   1      13.358  53.678   8.282  1.00  0.00    +0.000 H 
ATOM     16  C12 UNL A   1      13.040  53.126   9.143  1.00  0.00    +0.000 C 
BRANCH   16   15
ATOM     97  H12 UNL A   1      13.913  54.043  10.801  1.00  0.00    +0.000 H 
ATOM     15  C11 UNL A   1      14.201  53.256  10.136  1.00  0.00    +0.000 C 
ATOM     96  H11 UNL A   1      15.090  53.446   9.572  1.00  0.00    +0.000 H 
BRANCH   15   14
ATOM     94  H9  UNL A   1      14.131  52.300  12.017  1.00  0.00    +0.000 H 
ATOM     14  C10 UNL A   1      14.474  52.055  11.034  1.00  0.00    +0.000 C 
ATOM     95  H10 UNL A   1      13.960  51.235  10.578  1.00  0.00    +0.000 H 
BRANCH   14   13
ATOM     13  N1  UNL A   1      15.848  51.637  11.140  1.00  0.00    +0.000 N 
ATOM     93  H8  UNL A   1      16.483  52.343  11.398  1.00  0.00    +0.000 H 
BRANCH   13   11
ATOM     11  C9  UNL A   1      16.406  50.393  10.934  1.00  0.00    +0.000 C 
ATOM     12  O3  UNL A   1      17.463  50.156  11.525  1.00  0.00    +0.000 O 
BRANCH   11   10
ATOM      5  C3  UNL A   1      16.008  48.906   8.826  1.00  0.00    +0.000 C 
ATOM      6  C4  UNL A   1      15.262  47.884   8.213  1.00  0.00    +0.000 C 
ATOM      7  C5  UNL A   1      14.306  47.179   8.938  1.00  0.00    +0.000 C 
ATOM      8  C6  UNL A   1      14.095  47.491  10.275  1.00  0.00    +0.000 C 
ATOM      9  C7  UNL A   1      14.818  48.531  10.872  1.00  0.00    +0.000 C 
ATOM     10  C8  UNL A   1      15.766  49.288  10.151  1.00  0.00    +0.000 C 
ATOM     89  H4  UNL A   1      15.424  47.655   7.221  1.00  0.00    +0.000 H 
ATOM     90  H5  UNL A   1      13.757  46.431   8.485  1.00  0.00    +0.000 H 
ATOM     91  H6  UNL A   1      13.408  46.956  10.829  1.00  0.00    +0.000 H 
ATOM     92  H7  UNL A   1      14.651  48.751  11.866  1.00  0.00    +0.000 H 
BRANCH    5    4
ATOM      4  O2  UNL A   1      16.923  49.528   7.971  1.00  0.00    +0.000 O 
BRANCH    4    2
ATOM      2  C2  UNL A   1      16.413  50.488   7.106  1.00  0.00    +0.000 C 
ATOM      3  O1  UNL A   1      15.775  51.487   7.414  1.00  0.00    +0.000 O 
BRANCH    2    1
ATOM      1  C1  UNL A   1      16.771  50.100   5.700  1.00  0.00    +0.000 C 
ATOM     86  H1  UNL A   1      16.437  49.102   5.509  1.00  0.00    +0.000 H 
ATOM     87  H2  UNL A   1      17.832  50.151   5.574  1.00  0.00    +0.000 H 
ATOM     88  H3  UNL A   1      16.299  50.772   5.014  1.00  0.00    +0.000 H 
ENDBRANCH    2    1
ENDBRANCH    4    2
ENDBRANCH    5    4
ENDBRANCH   11   10
ENDBRANCH   13   11
ENDBRANCH   14   13
ENDBRANCH   15   14
ENDBRANCH   16   15
ENDBRANCH   17   16
ENDBRANCH   18   17
ENDBRANCH   19   18
ENDBRANCH   20   19
ENDBRANCH   21   20
ENDBRANCH   23   21
ENDBRANCH   27   26
BRANCH   31   32
ATOM     33  C26 UNL A   1      17.610  56.146  -1.010  1.00  0.00    +0.000 C 
ATOM     34  F1  UNL A   1      16.475  55.776  -1.621  1.00  0.00    +0.000 F 
ATOM     35  C27 UNL A   1      18.339  57.208  -1.541  1.00  0.00    +0.000 C 
ATOM     36  F2  UNL A   1      17.908  57.828  -2.648  1.00  0.00    +0.000 F 
ATOM     37  C28 UNL A   1      19.514  57.619  -0.931  1.00  0.00    +0.000 C 
ATOM     38  F3  UNL A   1      20.209  58.649  -1.435  1.00  0.00    +0.000 F 
ATOM     39  C29 UNL A   1      19.974  56.957   0.198  1.00  0.00    +0.000 C 
ATOM     40  F4  UNL A   1      21.103  57.363   0.798  1.00  0.00    +0.000 F 
ATOM     41  C30 UNL A   1      19.265  55.875   0.711  1.00  0.00    +0.000 C 
ATOM     42  F5  UNL A   1      19.743  55.249   1.797  1.00  0.00    +0.000 F 
ATOM     32  C25 UNL A   1      18.066  55.449   0.120  1.00  0.00    +0.000 C 
ENDBRANCH   31   32
BRANCH   48   49
ATOM     49  C36 UNL A   1      16.920  48.440  -1.115  1.00  0.00    +0.000 C 
ATOM     50  C37 UNL A   1      16.231  48.164  -2.305  1.00  0.00    +0.000 C 
ATOM     51  F6  UNL A   1      15.092  48.810  -2.592  1.00  0.00    +0.000 F 
ATOM     52  C38 UNL A   1      16.692  47.190  -3.189  1.00  0.00    +0.000 C 
ATOM     53  F7  UNL A   1      15.989  46.906  -4.294  1.00  0.00    +0.000 F 
ATOM     54  C39 UNL A   1      17.867  46.504  -2.920  1.00  0.00    +0.000 C 
ATOM     55  F8  UNL A   1      18.312  45.574  -3.775  1.00  0.00    +0.000 F 
ATOM     56  C40 UNL A   1      18.576  46.777  -1.760  1.00  0.00    +0.000 C 
ATOM     57  F9  UNL A   1      19.720  46.128  -1.507  1.00  0.00    +0.000 F 
ATOM     58  C41 UNL A   1      18.100  47.725  -0.859  1.00  0.00    +0.000 C 
ATOM     59  F10 UNL A   1      18.801  47.955   0.262  1.00  0.00    +0.000 F 
ENDBRANCH   48   49
BRANCH   63   64
ATOM     65  C46 UNL A   1      11.145  48.186   4.002  1.00  0.00    +0.000 C 
ATOM     66  F11 UNL A   1      10.580  49.088   3.186  1.00  0.00    +0.000 F 
ATOM     67  C47 UNL A   1      10.339  47.219   4.599  1.00  0.00    +0.000 C 
ATOM     68  F12 UNL A   1       9.020  47.209   4.358  1.00  0.00    +0.000 F 
ATOM     69  C48 UNL A   1      10.893  46.283   5.458  1.00  0.00    +0.000 C 
ATOM     70  F13 UNL A   1      10.117  45.355   6.032  1.00  0.00    +0.000 F 
ATOM     71  C49 UNL A   1      12.252  46.319   5.731  1.00  0.00    +0.000 C 
ATOM     72  F14 UNL A   1      12.796  45.407   6.548  1.00  0.00    +0.000 F 
ATOM     73  C50 UNL A   1      13.054  47.307   5.162  1.00  0.00    +0.000 C 
ATOM     74  F15 UNL A   1      14.360  47.329   5.463  1.00  0.00    +0.000 F 
ATOM     64  C45 UNL A   1      12.518  48.262   4.285  1.00  0.00    +0.000 C 
ENDBRANCH   63   64
TORSDOF 18
ENDMDL
MODEL 10
REMARK VINA RESULT:      -9.1     42.499     46.699
ROOT
ATOM     27  C21 UNL A   1      14.084  54.419   5.012  1.00  0.00    +0.000 C 
ATOM     28  C22 UNL A   1      13.666  52.979   5.153  1.00  0.00    +0.000 C 
ATOM     29  N3  UNL A   1      14.020  51.938   4.440  1.00  0.00    +0.000 N 
ATOM     30  C23 UNL A   1      13.378  50.849   5.014  1.00  0.00    +0.000 C 
ATOM     31  C24 UNL A   1      13.365  49.558   4.600  1.00  0.00    +0.000 C 
ATOM     43  C31 UNL A   1      14.062  49.073   3.437  1.00  0.00    +0.000 C 
ATOM     44  C32 UNL A   1      14.071  47.795   2.908  1.00  0.00    +0.000 C 
ATOM     45  C33 UNL A   1      14.935  47.782   1.808  1.00  0.00    +0.000 C 
ATOM     46  C34 UNL A   1      15.412  49.067   1.612  1.00  0.00    +0.000 C 
ATOM     47  N4  UNL A   1      14.876  49.848   2.623  1.00  0.00    +0.000 N 
ATOM     48  C35 UNL A   1      16.294  49.547   0.578  1.00  0.00    +0.000 C 
ATOM     60  C42 UNL A   1      16.713  50.830   0.454  1.00  0.00    +0.000 C 
ATOM     61  N5  UNL A   1      16.405  51.931   1.241  1.00  0.00    +0.000 N 
ATOM     62  C43 UNL A   1      17.067  52.939   0.726  1.00  0.00    +0.000 C 
ATOM     63  C44 UNL A   1      17.080  54.385   1.149  1.00  0.00    +0.000 C 
ATOM     75  C51 UNL A   1      16.325  54.770   2.197  1.00  0.00    +0.000 C 
ATOM     76  C52 UNL A   1      16.233  56.130   2.717  1.00  0.00    +0.000 C 
ATOM     77  C53 UNL A   1      15.435  56.132   3.797  1.00  0.00    +0.000 C 
ATOM     78  C54 UNL A   1      14.923  54.780   4.020  1.00  0.00    +0.000 C 
ATOM     79  N6  UNL A   1      15.500  54.039   3.018  1.00  0.00    +0.000 N 
ATOM     80  C55 UNL A   1      17.901  52.579  -0.429  1.00  0.00    +0.000 C 
ATOM     81  C56 UNL A   1      17.610  51.296  -0.584  1.00  0.00    +0.000 C 
ATOM     82  C57 UNL A   1      12.662  51.341   6.169  1.00  0.00    +0.000 C 
ATOM     83  C58 UNL A   1      12.748  52.661   6.258  1.00  0.00    +0.000 C 
ATOM    109  H24 UNL A   1      13.533  46.989   3.265  1.00  0.00    +0.000 H 
ATOM    110  H25 UNL A   1      15.174  46.955   1.239  1.00  0.00    +0.000 H 
ATOM    111  H26 UNL A   1      15.047  50.809   2.746  1.00  0.00    +0.000 H 
ATOM    112  H27 UNL A   1      16.704  56.957   2.319  1.00  0.00    +0.000 H 
ATOM    113  H28 UNL A   1      15.217  56.958   4.377  1.00  0.00    +0.000 H 
ATOM    114  H29 UNL A   1      15.338  53.075   2.899  1.00  0.00    +0.000 H 
ATOM    115  H30 UNL A   1      18.544  53.171  -0.977  1.00  0.00    +0.000 H 
ATOM    116  H31 UNL A   1      17.976  50.704  -1.346  1.00  0.00    +0.000 H 
ATOM    117  H32 UNL A   1      12.149  50.744   6.838  1.00  0.00    +0.000 H 
ATOM    118  H33 UNL A   1      12.290  53.299   6.926  1.00  0.00    +0.000 H 
ENDROOT
BRANCH   27   26
ATOM    107  H22 UNL A   1      11.041  57.499   6.646  1.00  0.00    +0.000 H 
ATOM    108  H23 UNL A   1      11.721  55.749   5.109  1.00  0.00    +0.000 H 
ATOM     84  C59 UNL A   1      14.437  55.796   7.074  1.00  0.00    +0.000 C 
ATOM     85  C60 UNL A   1      13.999  56.728   8.016  1.00  0.00    +0.000 C 
ATOM    120  H35 UNL A   1      14.570  56.920   8.854  1.00  0.00    +0.000 H 
ATOM     23  C17 UNL A   1      12.790  57.402   7.826  1.00  0.00    +0.000 C 
ATOM     24  C18 UNL A   1      11.955  57.035   6.766  1.00  0.00    +0.000 C 
ATOM     25  C19 UNL A   1      12.357  56.040   5.868  1.00  0.00    +0.000 C 
ATOM    119  H34 UNL A   1      15.371  55.369   7.173  1.00  0.00    +0.000 H 
ATOM     26  C20 UNL A   1      13.618  55.435   5.994  1.00  0.00    +0.000 C 
BRANCH   23   21
ATOM     21  C16 UNL A   1      12.338  58.473   8.747  1.00  0.00    +0.000 C 
ATOM     22  O4  UNL A   1      12.798  59.606   8.627  1.00  0.00    +0.000 O 
BRANCH   21   20
ATOM    106  H21 UNL A   1      11.340  58.929  10.419  1.00  0.00    +0.000 H 
ATOM     20  N2  UNL A   1      11.428  58.216   9.745  1.00  0.00    +0.000 N 
BRANCH   20   19
ATOM    105  H20 UNL A   1      10.173  56.780   9.010  1.00  0.00    +0.000 H 
ATOM     19  C15 UNL A   1      10.577  57.061   9.961  1.00  0.00    +0.000 C 
ATOM    104  H19 UNL A   1       9.811  57.328  10.658  1.00  0.00    +0.000 H 
BRANCH   19   18
ATOM     18  C14 UNL A   1      11.333  55.856  10.507  1.00  0.00    +0.000 C 
ATOM    102  H17 UNL A   1      12.358  56.141  10.622  1.00  0.00    +0.000 H 
ATOM    103  H18 UNL A   1      10.835  55.601  11.419  1.00  0.00    +0.000 H 
BRANCH   18   17
ATOM     17  C13 UNL A   1      11.299  54.582   9.660  1.00  0.00    +0.000 C 
ATOM    100  H15 UNL A   1      10.351  54.114   9.822  1.00  0.00    +0.000 H 
ATOM    101  H16 UNL A   1      11.477  54.913   8.658  1.00  0.00    +0.000 H 
BRANCH   17   16
ATOM     98  H13 UNL A   1      12.065  52.949  10.768  1.00  0.00    +0.000 H 
ATOM     99  H14 UNL A   1      12.476  52.997   9.005  1.00  0.00    +0.000 H 
ATOM     16  C12 UNL A   1      12.384  53.531   9.928  1.00  0.00    +0.000 C 
BRANCH   16   15
ATOM     97  H12 UNL A   1      13.764  55.089  10.074  1.00  0.00    +0.000 H 
ATOM     15  C11 UNL A   1      13.801  54.031  10.229  1.00  0.00    +0.000 C 
ATOM     96  H11 UNL A   1      14.474  53.506   9.582  1.00  0.00    +0.000 H 
BRANCH   15   14
ATOM     94  H9  UNL A   1      15.366  53.977  11.644  1.00  0.00    +0.000 H 
ATOM     14  C10 UNL A   1      14.304  53.854  11.656  1.00  0.00    +0.000 C 
ATOM     95  H10 UNL A   1      13.781  54.587  12.235  1.00  0.00    +0.000 H 
BRANCH   14   13
ATOM     13  N1  UNL A   1      14.014  52.591  12.283  1.00  0.00    +0.000 N 
ATOM     93  H8  UNL A   1      13.124  52.523  12.698  1.00  0.00    +0.000 H 
BRANCH   13   11
ATOM     11  C9  UNL A   1      14.798  51.461  12.388  1.00  0.00    +0.000 C 
ATOM     12  O3  UNL A   1      14.657  50.782  13.409  1.00  0.00    +0.000 O 
BRANCH   11   10
ATOM      5  C3  UNL A   1      15.376  50.541  10.015  1.00  0.00    +0.000 C 
ATOM      6  C4  UNL A   1      16.347  50.012   9.147  1.00  0.00    +0.000 C 
ATOM      7  C5  UNL A   1      17.680  49.944   9.539  1.00  0.00    +0.000 C 
ATOM      8  C6  UNL A   1      18.046  50.408  10.796  1.00  0.00    +0.000 C 
ATOM      9  C7  UNL A   1      17.070  50.904  11.669  1.00  0.00    +0.000 C 
ATOM     10  C8  UNL A   1      15.705  50.948  11.313  1.00  0.00    +0.000 C 
ATOM     89  H4  UNL A   1      16.070  49.671   8.213  1.00  0.00    +0.000 H 
ATOM     90  H5  UNL A   1      18.391  49.553   8.902  1.00  0.00    +0.000 H 
ATOM     91  H6  UNL A   1      19.036  50.388  11.087  1.00  0.00    +0.000 H 
ATOM     92  H7  UNL A   1      17.358  51.246  12.600  1.00  0.00    +0.000 H 
BRANCH    5    4
ATOM      4  O2  UNL A   1      14.082  50.535   9.485  1.00  0.00    +0.000 O 
BRANCH    4    2
ATOM      2  C2  UNL A   1      13.265  49.472   9.849  1.00  0.00    +0.000 C 
ATOM      3  O1  UNL A   1      13.613  48.437  10.403  1.00  0.00    +0.000 O 
BRANCH    2    1
ATOM      1  C1  UNL A   1      11.855  49.795   9.446  1.00  0.00    +0.000 C 
ATOM     86  H1  UNL A   1      11.183  49.112   9.921  1.00  0.00    +0.000 H 
ATOM     87  H2  UNL A   1      11.758  49.709   8.384  1.00  0.00    +0.000 H 
ATOM     88  H3  UNL A   1      11.618  50.795   9.745  1.00  0.00    +0.000 H 
ENDBRANCH    2    1
ENDBRANCH    4    2
ENDBRANCH    5    4
ENDBRANCH   11   10
ENDBRANCH   13   11
ENDBRANCH   14   13
ENDBRANCH   15   14
ENDBRANCH   16   15
ENDBRANCH   17   16
ENDBRANCH   18   17
ENDBRANCH   19   18
ENDBRANCH   20   19
ENDBRANCH   21   20
ENDBRANCH   23   21
ENDBRANCH   27   26
BRANCH   31   32
ATOM     33  C26 UNL A   1      11.239  48.258   5.082  1.00  0.00    +0.000 C 
ATOM     34  F1  UNL A   1      10.627  48.885   4.066  1.00  0.00    +0.000 F 
ATOM     35  C27 UNL A   1      10.521  47.322   5.821  1.00  0.00    +0.000 C 
ATOM     36  F2  UNL A   1       9.239  47.073   5.520  1.00  0.00    +0.000 F 
ATOM     37  C28 UNL A   1      11.127  46.653   6.874  1.00  0.00    +0.000 C 
ATOM     38  F3  UNL A   1      10.439  45.743   7.577  1.00  0.00    +0.000 F 
ATOM     39  C29 UNL A   1      12.445  46.933   7.202  1.00  0.00    +0.000 C 
ATOM     40  F4  UNL A   1      13.037  46.276   8.210  1.00  0.00    +0.000 F 
ATOM     41  C30 UNL A   1      13.155  47.893   6.486  1.00  0.00    +0.000 C 
ATOM     42  F5  UNL A   1      14.424  48.149   6.837  1.00  0.00    +0.000 F 
ATOM     32  C25 UNL A   1      12.568  48.572   5.408  1.00  0.00    +0.000 C 
ENDBRANCH   31   32
BRANCH   48   49
ATOM     49  C36 UNL A   1      16.761  48.562  -0.456  1.00  0.00    +0.000 C 
ATOM     50  C37 UNL A   1      17.988  47.893  -0.339  1.00  0.00    +0.000 C 
ATOM     51  F6  UNL A   1      18.807  48.159   0.688  1.00  0.00    +0.000 F 
ATOM     52  C38 UNL A   1      18.397  46.976  -1.305  1.00  0.00    +0.000 C 
ATOM     53  F7  UNL A   1      19.597  46.388  -1.201  1.00  0.00    +0.000 F 
ATOM     54  C39 UNL A   1      17.572  46.681  -2.381  1.00  0.00    +0.000 C 
ATOM     55  F8  UNL A   1      17.964  45.792  -3.302  1.00  0.00    +0.000 F 
ATOM     56  C40 UNL A   1      16.345  47.313  -2.503  1.00  0.00    +0.000 C 
ATOM     57  F9  UNL A   1      15.539  47.017  -3.532  1.00  0.00    +0.000 F 
ATOM     58  C41 UNL A   1      15.949  48.256  -1.559  1.00  0.00    +0.000 C 
ATOM     59  F10 UNL A   1      14.761  48.862  -1.715  1.00  0.00    +0.000 F 
ENDBRANCH   48   49
BRANCH   63   64
ATOM     65  C46 UNL A   1      19.154  55.790   0.908  1.00  0.00    +0.000 C 
ATOM     66  F11 UNL A   1      19.620  55.278   2.056  1.00  0.00    +0.000 F 
ATOM     67  C47 UNL A   1      19.903  56.766   0.254  1.00  0.00    +0.000 C 
ATOM     68  F12 UNL A   1      21.064  57.182   0.781  1.00  0.00    +0.000 F 
ATOM     69  C48 UNL A   1      19.440  57.325  -0.927  1.00  0.00    +0.000 C 
ATOM     70  F13 UNL A   1      20.160  58.264  -1.555  1.00  0.00    +0.000 F 
ATOM     71  C49 UNL A   1      18.223  56.917  -1.450  1.00  0.00    +0.000 C 
ATOM     72  F14 UNL A   1      17.777  57.441  -2.600  1.00  0.00    +0.000 F 
ATOM     73  C50 UNL A   1      17.456  55.966  -0.779  1.00  0.00    +0.000 C 
ATOM     74  F15 UNL A   1      16.273  55.608  -1.299  1.00  0.00    +0.000 F 
ATOM     64  C45 UNL A   1      17.906  55.382   0.414  1.00  0.00    +0.000 C 
ENDBRANCH   63   64
TORSDOF 18
ENDMDL
