MODEL 1
REMARK VINA RESULT:      -8.6      0.000      0.000
ROOT
ATOM    145  H40 UNL A   1      17.457  15.165   9.333  1.00  0.00    +0.000 H 
ATOM    146  H41 UNL A   1      19.670  15.018   7.961  1.00  0.00    +0.000 H 
ATOM    147  H42 UNL A   1      17.735  18.533   6.937  1.00  0.00    +0.000 H 
ATOM    148  H43 UNL A   1      17.461  23.826   3.395  1.00  0.00    +0.000 H 
ATOM    149  H44 UNL A   1      15.396  24.053   4.855  1.00  0.00    +0.000 H 
ATOM    150  H45 UNL A   1      17.299  20.506   5.893  1.00  0.00    +0.000 H 
ATOM    151  H46 UNL A   1      21.471  20.323   3.105  1.00  0.00    +0.000 H 
ATOM    152  H47 UNL A   1      21.937  18.053   4.194  1.00  0.00    +0.000 H 
ATOM    153  H48 UNL A   1      13.578  18.863   9.727  1.00  0.00    +0.000 H 
ATOM    154  H49 UNL A   1      12.960  21.006   8.467  1.00  0.00    +0.000 H 
ATOM     47  C34 UNL A   1      14.935  21.839   6.585  1.00  0.00    +0.000 C 
ATOM     48  C35 UNL A   1      14.939  20.604   7.437  1.00  0.00    +0.000 C 
ATOM     49  N6  UNL A   1      15.831  19.647   7.495  1.00  0.00    +0.000 N 
ATOM     50  C36 UNL A   1      15.373  18.757   8.456  1.00  0.00    +0.000 C 
ATOM     51  C37 UNL A   1      15.937  17.594   8.864  1.00  0.00    +0.000 C 
ATOM     63  C44 UNL A   1      17.164  17.055   8.334  1.00  0.00    +0.000 C 
ATOM     64  C45 UNL A   1      17.797  15.868   8.657  1.00  0.00    +0.000 C 
ATOM     65  C46 UNL A   1      18.978  15.782   7.911  1.00  0.00    +0.000 C 
ATOM     66  C47 UNL A   1      19.062  16.898   7.094  1.00  0.00    +0.000 C 
ATOM     67  N7  UNL A   1      17.944  17.672   7.366  1.00  0.00    +0.000 N 
ATOM     68  C48 UNL A   1      20.084  17.234   6.138  1.00  0.00    +0.000 C 
ATOM     80  C55 UNL A   1      20.087  18.340   5.353  1.00  0.00    +0.000 C 
ATOM     81  N8  UNL A   1      19.159  19.368   5.294  1.00  0.00    +0.000 N 
ATOM     82  C56 UNL A   1      19.617  20.214   4.405  1.00  0.00    +0.000 C 
ATOM     83  C57 UNL A   1      19.017  21.506   3.933  1.00  0.00    +0.000 C 
ATOM     95  C64 UNL A   1      17.859  21.924   4.473  1.00  0.00    +0.000 C 
ATOM     96  C65 UNL A   1      17.159  23.152   4.115  1.00  0.00    +0.000 C 
ATOM     97  C66 UNL A   1      16.060  23.263   4.875  1.00  0.00    +0.000 C 
ATOM     98  C67 UNL A   1      15.952  22.085   5.738  1.00  0.00    +0.000 C 
ATOM     99  N9  UNL A   1      17.075  21.355   5.447  1.00  0.00    +0.000 N 
ATOM    100  C68 UNL A   1      20.899  19.823   3.803  1.00  0.00    +0.000 C 
ATOM    101  C69 UNL A   1      21.125  18.658   4.393  1.00  0.00    +0.000 C 
ATOM    102  C70 UNL A   1      14.132  19.296   8.972  1.00  0.00    +0.000 C 
ATOM    103  C71 UNL A   1      13.799  20.418   8.346  1.00  0.00    +0.000 C 
ENDROOT
BRANCH   47   46
ATOM    104  C72 UNL A   1      13.787  23.852   7.564  1.00  0.00    +0.000 C 
ATOM    105  C73 UNL A   1      12.731  24.767   7.569  1.00  0.00    +0.000 C 
ATOM     43  C30 UNL A   1      11.715  24.656   6.615  1.00  0.00    +0.000 C 
ATOM     44  C31 UNL A   1      11.772  23.660   5.637  1.00  0.00    +0.000 C 
ATOM     45  C32 UNL A   1      12.783  22.706   5.679  1.00  0.00    +0.000 C 
ATOM     46  C33 UNL A   1      13.809  22.803   6.633  1.00  0.00    +0.000 C 
ATOM    143  H38 UNL A   1      11.066  23.630   4.885  1.00  0.00    +0.000 H 
ATOM    144  H39 UNL A   1      12.780  21.924   5.007  1.00  0.00    +0.000 H 
ATOM    155  H50 UNL A   1      14.553  23.948   8.249  1.00  0.00    +0.000 H 
ATOM    156  H51 UNL A   1      12.702  25.521   8.273  1.00  0.00    +0.000 H 
BRANCH   43    2
ATOM      1  O1  UNL A   1      10.229  26.101   7.715  1.00  0.00    +0.000 O 
ATOM      2  C1  UNL A   1      10.589  25.615   6.648  1.00  0.00    +0.000 C 
BRANCH    2    3
ATOM    106  H1  UNL A   1       9.003  25.670   5.419  1.00  0.00    +0.000 H 
ATOM      3  N1  UNL A   1       9.946  25.943   5.481  1.00  0.00    +0.000 N 
BRANCH    3    4
ATOM    108  H3  UNL A   1      11.535  26.761   4.470  1.00  0.00    +0.000 H 
ATOM    107  H2  UNL A   1      10.277  26.065   3.447  1.00  0.00    +0.000 H 
ATOM      4  C2  UNL A   1      10.482  26.641   4.325  1.00  0.00    +0.000 C 
BRANCH    4    5
ATOM    109  H4  UNL A   1       9.645  28.409   5.134  1.00  0.00    +0.000 H 
ATOM      5  C3  UNL A   1       9.868  28.023   4.161  1.00  0.00    +0.000 C 
ATOM    110  H5  UNL A   1       8.997  27.902   3.553  1.00  0.00    +0.000 H 
BRANCH    5    6
ATOM      6  C4  UNL A   1      10.767  29.030   3.441  1.00  0.00    +0.000 C 
ATOM    111  H6  UNL A   1      11.647  28.515   3.116  1.00  0.00    +0.000 H 
ATOM    112  H7  UNL A   1      10.967  29.809   4.146  1.00  0.00    +0.000 H 
BRANCH    6    7
ATOM    113  H8  UNL A   1      10.461  30.727   2.201  1.00  0.00    +0.000 H 
ATOM    114  H9  UNL A   1       9.077  29.599   2.336  1.00  0.00    +0.000 H 
ATOM      7  C5  UNL A   1      10.135  29.708   2.221  1.00  0.00    +0.000 C 
BRANCH    7    8
ATOM    115  H10 UNL A   1       9.818  29.471   0.127  1.00  0.00    +0.000 H 
ATOM    116  H11 UNL A   1      10.379  28.015   0.983  1.00  0.00    +0.000 H 
ATOM      8  C6  UNL A   1      10.482  29.073   0.866  1.00  0.00    +0.000 C 
BRANCH    8    9
ATOM      9  C7  UNL A   1      11.919  29.331   0.413  1.00  0.00    +0.000 C 
ATOM    117  H12 UNL A   1      12.573  28.646   0.909  1.00  0.00    +0.000 H 
ATOM    118  H13 UNL A   1      12.181  30.339   0.659  1.00  0.00    +0.000 H 
BRANCH    9   10
ATOM     10  N2  UNL A   1      12.044  29.154  -1.019  1.00  0.00    +0.000 N 
ATOM    119  H14 UNL A   1      11.314  29.524  -1.566  1.00  0.00    +0.000 H 
BRANCH   10   11
ATOM     11  C8  UNL A   1      13.051  28.537  -1.699  1.00  0.00    +0.000 C 
ATOM     12  O2  UNL A   1      14.211  28.776  -1.357  1.00  0.00    +0.000 O 
BRANCH   11   13
ATOM     13  C9  UNL A   1      12.751  27.578  -2.859  1.00  0.00    +0.000 C 
ATOM    120  H15 UNL A   1      11.687  27.480  -2.926  1.00  0.00    +0.000 H 
BRANCH   13   14
ATOM    121  H16 UNL A   1      13.435  26.041  -1.530  1.00  0.00    +0.000 H 
ATOM    122  H17 UNL A   1      14.226  26.047  -3.095  1.00  0.00    +0.000 H 
ATOM     14  C10 UNL A   1      13.293  26.167  -2.584  1.00  0.00    +0.000 C 
BRANCH   14   15
ATOM    123  H18 UNL A   1      12.239  24.507  -2.374  1.00  0.00    +0.000 H 
ATOM     15  O3  UNL A   1      12.371  25.181  -3.058  1.00  0.00    +0.000 O 
ENDBRANCH   14   15
ENDBRANCH   13   14
BRANCH   13   16
ATOM    124  H19 UNL A   1      14.105  28.459  -4.161  1.00  0.00    +0.000 H 
ATOM     16  N3  UNL A   1      13.181  28.121  -4.148  1.00  0.00    +0.000 N 
BRANCH   16   17
ATOM     17  C11 UNL A   1      12.519  28.237  -5.331  1.00  0.00    +0.000 C 
ATOM     18  O4  UNL A   1      12.487  27.193  -5.996  1.00  0.00    +0.000 O 
BRANCH   17   19
ATOM     19  C12 UNL A   1      11.630  29.453  -5.719  1.00  0.00    +0.000 C 
ATOM    125  H20 UNL A   1      10.737  29.012  -6.113  1.00  0.00    +0.000 H 
BRANCH   19   20
ATOM     20  C13 UNL A   1      12.369  30.314  -6.774  1.00  0.00    +0.000 C 
ATOM    126  H21 UNL A   1      13.395  30.399  -6.480  1.00  0.00    +0.000 H 
ATOM    127  H22 UNL A   1      11.871  31.260  -6.806  1.00  0.00    +0.000 H 
BRANCH   20   21
ATOM     21  S1  UNL A   1      12.310  29.628  -8.468  1.00  0.00    +0.000 S 
ATOM    128  H23 UNL A   1      11.015  29.406  -8.822  1.00  0.00    +0.000 H 
ENDBRANCH   20   21
ENDBRANCH   19   20
BRANCH   19   22
ATOM    129  H24 UNL A   1      10.293  29.935  -4.233  1.00  0.00    +0.000 H 
ATOM     22  N4  UNL A   1      11.119  30.295  -4.631  1.00  0.00    +0.000 N 
BRANCH   22   23
ATOM     23  C14 UNL A   1      11.517  31.453  -4.043  1.00  0.00    +0.000 C 
ATOM     24  O5  UNL A   1      12.690  31.401  -3.665  1.00  0.00    +0.000 O 
BRANCH   23   25
ATOM     25  C15 UNL A   1      10.699  32.777  -3.977  1.00  0.00    +0.000 C 
ATOM    130  H25 UNL A   1      11.397  33.562  -4.178  1.00  0.00    +0.000 H 
BRANCH   25   26
ATOM     26  C16 UNL A   1      10.047  33.006  -2.577  1.00  0.00    +0.000 C 
ATOM    131  H26 UNL A   1       9.331  32.221  -2.455  1.00  0.00    +0.000 H 
ATOM    132  H27 UNL A   1       9.723  34.022  -2.659  1.00  0.00    +0.000 H 
BRANCH   26   27
ATOM    133  H28 UNL A   1       9.392  32.229   0.001  1.00  0.00    +0.000 H 
ATOM    134  H29 UNL A   1      10.599  32.628   2.055  1.00  0.00    +0.000 H 
ATOM    135  H30 UNL A   1      12.762  33.718   2.007  1.00  0.00    +0.000 H 
ATOM    136  H31 UNL A   1      13.733  34.360  -0.121  1.00  0.00    +0.000 H 
ATOM    137  H32 UNL A   1      12.535  33.946  -2.182  1.00  0.00    +0.000 H 
ATOM     27  C17 UNL A   1      10.845  33.049  -1.283  1.00  0.00    +0.000 C 
ATOM     28  C18 UNL A   1      10.318  32.684  -0.038  1.00  0.00    +0.000 C 
ATOM     29  C19 UNL A   1      11.012  32.916   1.153  1.00  0.00    +0.000 C 
ATOM     30  C20 UNL A   1      12.253  33.535   1.129  1.00  0.00    +0.000 C 
ATOM     31  C21 UNL A   1      12.807  33.906  -0.092  1.00  0.00    +0.000 C 
ATOM     32  C22 UNL A   1      12.111  33.666  -1.284  1.00  0.00    +0.000 C 
ENDBRANCH   26   27
ENDBRANCH   25   26
BRANCH   25   33
ATOM     33  N5  UNL A   1       9.605  32.758  -4.963  1.00  0.00    +0.000 N 
ATOM    138  H33 UNL A   1       9.033  31.960  -4.899  1.00  0.00    +0.000 H 
BRANCH   33   34
ATOM     34  C23 UNL A   1       9.224  33.626  -5.951  1.00  0.00    +0.000 C 
ATOM     35  O6  UNL A   1       9.806  33.538  -7.032  1.00  0.00    +0.000 O 
BRANCH   34   36
ATOM     36  C24 UNL A   1       8.214  34.705  -5.768  1.00  0.00    +0.000 C 
ATOM     37  C25 UNL A   1       7.636  35.242  -6.932  1.00  0.00    +0.000 C 
ATOM     38  C26 UNL A   1       6.773  36.339  -6.861  1.00  0.00    +0.000 C 
ATOM     39  C27 UNL A   1       6.493  36.907  -5.626  1.00  0.00    +0.000 C 
ATOM     40  F1  UNL A   1       5.683  37.971  -5.554  1.00  0.00    +0.000 F 
ATOM     41  C28 UNL A   1       7.060  36.399  -4.464  1.00  0.00    +0.000 C 
ATOM     42  C29 UNL A   1       7.927  35.303  -4.535  1.00  0.00    +0.000 C 
ATOM    139  H34 UNL A   1       7.849  34.821  -7.849  1.00  0.00    +0.000 H 
ATOM    140  H35 UNL A   1       6.349  36.725  -7.719  1.00  0.00    +0.000 H 
ATOM    141  H36 UNL A   1       6.844  36.830  -3.552  1.00  0.00    +0.000 H 
ATOM    142  H37 UNL A   1       8.357  34.933  -3.674  1.00  0.00    +0.000 H 
ENDBRANCH   34   36
ENDBRANCH   33   34
ENDBRANCH   25   33
ENDBRANCH   23   25
ENDBRANCH   22   23
ENDBRANCH   19   22
ENDBRANCH   17   19
ENDBRANCH   16   17
ENDBRANCH   13   16
ENDBRANCH   11   13
ENDBRANCH   10   11
ENDBRANCH    9   10
ENDBRANCH    8    9
ENDBRANCH    7    8
ENDBRANCH    6    7
ENDBRANCH    5    6
ENDBRANCH    4    5
ENDBRANCH    3    4
ENDBRANCH    2    3
ENDBRANCH   43    2
ENDBRANCH   47   46
BRANCH   51   52
ATOM     52  C38 UNL A   1      15.241  16.827   9.950  1.00  0.00    +0.000 C 
ATOM     53  C39 UNL A   1      14.439  15.714   9.664  1.00  0.00    +0.000 C 
ATOM     54  F2  UNL A   1      14.227  15.342   8.393  1.00  0.00    +0.000 F 
ATOM     55  C40 UNL A   1      13.825  14.993  10.685  1.00  0.00    +0.000 C 
ATOM     56  F3  UNL A   1      13.033  13.953  10.387  1.00  0.00    +0.000 F 
ATOM     57  C41 UNL A   1      14.022  15.354  12.010  1.00  0.00    +0.000 C 
ATOM     58  F4  UNL A   1      13.436  14.655  12.991  1.00  0.00    +0.000 F 
ATOM     59  C42 UNL A   1      14.822  16.445  12.316  1.00  0.00    +0.000 C 
ATOM     60  F5  UNL A   1      15.021  16.790  13.595  1.00  0.00    +0.000 F 
ATOM     61  C43 UNL A   1      15.420  17.181  11.295  1.00  0.00    +0.000 C 
ATOM     62  F6  UNL A   1      16.181  18.236  11.623  1.00  0.00    +0.000 F 
ENDBRANCH   51   52
BRANCH   68   69
ATOM     69  C49 UNL A   1      21.232  16.286   5.974  1.00  0.00    +0.000 C 
ATOM     70  C50 UNL A   1      21.200  15.259   5.020  1.00  0.00    +0.000 C 
ATOM     71  F7  UNL A   1      20.113  15.084   4.254  1.00  0.00    +0.000 F 
ATOM     72  C51 UNL A   1      22.271  14.382   4.880  1.00  0.00    +0.000 C 
ATOM     73  F8  UNL A   1      22.202  13.379   3.993  1.00  0.00    +0.000 F 
ATOM     74  C52 UNL A   1      23.401  14.532   5.669  1.00  0.00    +0.000 C 
ATOM     75  F9  UNL A   1      24.432  13.686   5.534  1.00  0.00    +0.000 F 
ATOM     76  C53 UNL A   1      23.461  15.553   6.606  1.00  0.00    +0.000 C 
ATOM     77  F10 UNL A   1      24.556  15.703   7.364  1.00  0.00    +0.000 F 
ATOM     78  C54 UNL A   1      22.383  16.418   6.765  1.00  0.00    +0.000 C 
ATOM     79  F11 UNL A   1      22.460  17.388   7.689  1.00  0.00    +0.000 F 
ENDBRANCH   68   69
BRANCH   83   84
ATOM     84  C58 UNL A   1      19.671  22.321   2.880  1.00  0.00    +0.000 C 
ATOM     85  C59 UNL A   1      19.461  22.044   1.522  1.00  0.00    +0.000 C 
ATOM     86  F12 UNL A   1      18.699  21.002   1.162  1.00  0.00    +0.000 F 
ATOM     87  C60 UNL A   1      20.056  22.822   0.532  1.00  0.00    +0.000 C 
ATOM     88  F13 UNL A   1      19.864  22.518  -0.759  1.00  0.00    +0.000 F 
ATOM     89  C61 UNL A   1      20.851  23.905   0.880  1.00  0.00    +0.000 C 
ATOM     90  F14 UNL A   1      21.412  24.660  -0.074  1.00  0.00    +0.000 F 
ATOM     91  C62 UNL A   1      21.064  24.202   2.217  1.00  0.00    +0.000 C 
ATOM     92  F15 UNL A   1      21.819  25.256   2.557  1.00  0.00    +0.000 F 
ATOM     93  C63 UNL A   1      20.492  23.409   3.208  1.00  0.00    +0.000 C 
ATOM     94  F16 UNL A   1      20.717  23.717   4.494  1.00  0.00    +0.000 F 
ENDBRANCH   83   84
TORSDOF 30
ENDMDL
MODEL 2
REMARK VINA RESULT:      -8.5     25.011     30.733
ROOT
ATOM    145  H40 UNL A   1      13.419  46.852   2.932  1.00  0.00    +0.000 H 
ATOM    146  H41 UNL A   1      15.039  46.952   0.891  1.00  0.00    +0.000 H 
ATOM    147  H42 UNL A   1      14.905  50.708   2.630  1.00  0.00    +0.000 H 
ATOM    148  H43 UNL A   1      16.661  56.836   2.621  1.00  0.00    +0.000 H 
ATOM    149  H44 UNL A   1      15.220  56.696   4.706  1.00  0.00    +0.000 H 
ATOM    150  H45 UNL A   1      15.315  52.918   2.976  1.00  0.00    +0.000 H 
ATOM    151  H46 UNL A   1      18.385  53.299  -0.978  1.00  0.00    +0.000 H 
ATOM    152  H47 UNL A   1      17.864  50.836  -1.449  1.00  0.00    +0.000 H 
ATOM    153  H48 UNL A   1      11.919  50.428   6.653  1.00  0.00    +0.000 H 
ATOM    154  H49 UNL A   1      12.219  52.949   6.992  1.00  0.00    +0.000 H 
ATOM     47  C34 UNL A   1      14.028  54.146   5.139  1.00  0.00    +0.000 C 
ATOM     48  C35 UNL A   1      13.570  52.719   5.186  1.00  0.00    +0.000 C 
ATOM     49  N6  UNL A   1      13.887  51.727   4.392  1.00  0.00    +0.000 N 
ATOM     50  C36 UNL A   1      13.215  50.616   4.882  1.00  0.00    +0.000 C 
ATOM     51  C37 UNL A   1      13.205  49.353   4.392  1.00  0.00    +0.000 C 
ATOM     63  C44 UNL A   1      13.919  48.932   3.213  1.00  0.00    +0.000 C 
ATOM     64  C45 UNL A   1      13.944  47.684   2.617  1.00  0.00    +0.000 C 
ATOM     65  C46 UNL A   1      14.804  47.740   1.514  1.00  0.00    +0.000 C 
ATOM     66  C47 UNL A   1      15.285  49.034   1.400  1.00  0.00    +0.000 C 
ATOM     67  N7  UNL A   1      14.737  49.754   2.451  1.00  0.00    +0.000 N 
ATOM     68  C48 UNL A   1      16.178  49.574   0.408  1.00  0.00    +0.000 C 
ATOM     80  C55 UNL A   1      16.590  50.864   0.347  1.00  0.00    +0.000 C 
ATOM     81  N8  UNL A   1      16.276  51.919   1.189  1.00  0.00    +0.000 N 
ATOM     82  C56 UNL A   1      16.938  52.953   0.732  1.00  0.00    +0.000 C 
ATOM     83  C57 UNL A   1      16.970  54.360   1.252  1.00  0.00    +0.000 C 
ATOM     95  C64 UNL A   1      16.258  54.666   2.351  1.00  0.00    +0.000 C 
ATOM     96  C65 UNL A   1      16.189  55.987   2.968  1.00  0.00    +0.000 C 
ATOM     97  C66 UNL A   1      15.415  55.916   4.060  1.00  0.00    +0.000 C 
ATOM     98  C67 UNL A   1      14.890  54.555   4.188  1.00  0.00    +0.000 C 
ATOM     99  N9  UNL A   1      15.461  53.877   3.143  1.00  0.00    +0.000 N 
ATOM    100  C68 UNL A   1      17.760  52.668  -0.451  1.00  0.00    +0.000 C 
ATOM    101  C69 UNL A   1      17.486  51.389  -0.663  1.00  0.00    +0.000 C 
ATOM    102  C70 UNL A   1      12.486  51.050   6.056  1.00  0.00    +0.000 C 
ATOM    103  C71 UNL A   1      12.641  52.351   6.264  1.00  0.00    +0.000 C 
ENDROOT
BRANCH   47   46
ATOM    104  C72 UNL A   1      14.203  55.385   7.322  1.00  0.00    +0.000 C 
ATOM    105  C73 UNL A   1      13.731  56.355   8.211  1.00  0.00    +0.000 C 
ATOM     43  C30 UNL A   1      12.608  57.116   7.874  1.00  0.00    +0.000 C 
ATOM     44  C31 UNL A   1      11.980  56.936   6.638  1.00  0.00    +0.000 C 
ATOM     45  C32 UNL A   1      12.404  55.920   5.788  1.00  0.00    +0.000 C 
ATOM     46  C33 UNL A   1      13.529  55.147   6.115  1.00  0.00    +0.000 C 
ATOM    143  H38 UNL A   1      11.203  57.553   6.357  1.00  0.00    +0.000 H 
ATOM    144  H39 UNL A   1      11.890  55.734   4.913  1.00  0.00    +0.000 H 
ATOM    155  H50 UNL A   1      15.048  54.841   7.556  1.00  0.00    +0.000 H 
ATOM    156  H51 UNL A   1      14.211  56.509   9.111  1.00  0.00    +0.000 H 
BRANCH   43    2
ATOM      1  O1  UNL A   1      12.653  59.213   8.924  1.00  0.00    +0.000 O 
ATOM      2  C1  UNL A   1      12.103  58.120   8.835  1.00  0.00    +0.000 C 
BRANCH    2    3
ATOM    106  H1  UNL A   1      10.469  58.575   9.908  1.00  0.00    +0.000 H 
ATOM      3  N1  UNL A   1      11.029  57.814   9.631  1.00  0.00    +0.000 N 
BRANCH    3    4
ATOM    108  H3  UNL A   1       9.752  56.208   9.559  1.00  0.00    +0.000 H 
ATOM    107  H2  UNL A   1      11.419  55.818   9.989  1.00  0.00    +0.000 H 
ATOM      4  C2  UNL A   1      10.612  56.510  10.117  1.00  0.00    +0.000 C 
BRANCH    4    5
ATOM    109  H4  UNL A   1       9.208  56.238  11.679  1.00  0.00    +0.000 H 
ATOM      5  C3  UNL A   1      10.229  56.548  11.590  1.00  0.00    +0.000 C 
ATOM    110  H5  UNL A   1      10.387  57.553  11.922  1.00  0.00    +0.000 H 
BRANCH    5    6
ATOM      6  C4  UNL A   1      11.083  55.651  12.487  1.00  0.00    +0.000 C 
ATOM    111  H6  UNL A   1      10.452  54.883  12.884  1.00  0.00    +0.000 H 
ATOM    112  H7  UNL A   1      11.499  56.288  13.237  1.00  0.00    +0.000 H 
BRANCH    6    7
ATOM    113  H8  UNL A   1      12.860  55.741  11.327  1.00  0.00    +0.000 H 
ATOM    114  H9  UNL A   1      11.849  54.282  11.093  1.00  0.00    +0.000 H 
ATOM      7  C5  UNL A   1      12.269  54.977  11.789  1.00  0.00    +0.000 C 
BRANCH    7    8
ATOM    115  H10 UNL A   1      12.659  53.281  13.018  1.00  0.00    +0.000 H 
ATOM    116  H11 UNL A   1      13.453  54.790  13.528  1.00  0.00    +0.000 H 
ATOM      8  C6  UNL A   1      13.189  54.157  12.707  1.00  0.00    +0.000 C 
BRANCH    8    9
ATOM      9  C7  UNL A   1      14.495  53.720  12.043  1.00  0.00    +0.000 C 
ATOM    117  H12 UNL A   1      15.227  53.529  12.799  1.00  0.00    +0.000 H 
ATOM    118  H13 UNL A   1      14.828  54.502  11.393  1.00  0.00    +0.000 H 
BRANCH    9   10
ATOM     10  N2  UNL A   1      14.295  52.518  11.261  1.00  0.00    +0.000 N 
ATOM    119  H14 UNL A   1      13.470  52.483  10.725  1.00  0.00    +0.000 H 
BRANCH   10   11
ATOM     11  C8  UNL A   1      15.112  51.431  11.179  1.00  0.00    +0.000 C 
ATOM     12  O2  UNL A   1      16.323  51.604  11.325  1.00  0.00    +0.000 O 
BRANCH   11   13
ATOM     13  C9  UNL A   1      14.542  50.031  10.906  1.00  0.00    +0.000 C 
ATOM    120  H15 UNL A   1      15.245  49.320  11.286  1.00  0.00    +0.000 H 
BRANCH   13   14
ATOM    121  H16 UNL A   1      14.996  48.882   9.155  1.00  0.00    +0.000 H 
ATOM    122  H17 UNL A   1      14.788  50.597   8.857  1.00  0.00    +0.000 H 
ATOM     14  C10 UNL A   1      14.421  49.751   9.400  1.00  0.00    +0.000 C 
BRANCH   14   15
ATOM    123  H18 UNL A   1      12.791  50.152   8.354  1.00  0.00    +0.000 H 
ATOM     15  O3  UNL A   1      13.052  49.526   9.047  1.00  0.00    +0.000 O 
ENDBRANCH   14   15
ENDBRANCH   13   14
BRANCH   13   16
ATOM    124  H19 UNL A   1      12.478  49.960  11.121  1.00  0.00    +0.000 H 
ATOM     16  N3  UNL A   1      13.298  49.791  11.639  1.00  0.00    +0.000 N 
BRANCH   16   17
ATOM     17  C11 UNL A   1      13.084  49.375  12.917  1.00  0.00    +0.000 C 
ATOM     18  O4  UNL A   1      13.404  50.204  13.779  1.00  0.00    +0.000 O 
BRANCH   17   19
ATOM     19  C12 UNL A   1      12.257  48.113  13.297  1.00  0.00    +0.000 C 
ATOM    125  H20 UNL A   1      12.580  47.876  14.290  1.00  0.00    +0.000 H 
BRANCH   19   20
ATOM     20  C13 UNL A   1      12.569  46.973  12.295  1.00  0.00    +0.000 C 
ATOM    126  H21 UNL A   1      13.614  47.003  12.067  1.00  0.00    +0.000 H 
ATOM    127  H22 UNL A   1      11.956  47.142  11.434  1.00  0.00    +0.000 H 
BRANCH   20   21
ATOM     21  S1  UNL A   1      12.161  45.303  12.916  1.00  0.00    +0.000 S 
ATOM    128  H23 UNL A   1      13.309  44.601  13.118  1.00  0.00    +0.000 H 
ENDBRANCH   20   21
ENDBRANCH   19   20
BRANCH   19   22
ATOM    129  H24 UNL A   1      10.396  47.520  13.939  1.00  0.00    +0.000 H 
ATOM     22  N4  UNL A   1      10.808  48.276  13.460  1.00  0.00    +0.000 N 
BRANCH   22   23
ATOM     23  C14 UNL A   1       9.900  49.222  13.105  1.00  0.00    +0.000 C 
ATOM     24  O5  UNL A   1       9.165  48.839  12.191  1.00  0.00    +0.000 O 
BRANCH   23   25
ATOM     25  C15 UNL A   1       9.653  50.576  13.834  1.00  0.00    +0.000 C 
ATOM    130  H25 UNL A   1       8.590  50.697  13.875  1.00  0.00    +0.000 H 
BRANCH   25   26
ATOM     26  C16 UNL A   1      10.285  51.786  13.077  1.00  0.00    +0.000 C 
ATOM    131  H26 UNL A   1      11.340  51.609  13.071  1.00  0.00    +0.000 H 
ATOM    132  H27 UNL A   1       9.882  52.612  13.624  1.00  0.00    +0.000 H 
BRANCH   26   27
ATOM    133  H28 UNL A   1      11.621  51.396  10.681  1.00  0.00    +0.000 H 
ATOM    134  H29 UNL A   1      11.116  52.307   8.501  1.00  0.00    +0.000 H 
ATOM    135  H30 UNL A   1       9.124  53.646   8.169  1.00  0.00    +0.000 H 
ATOM    136  H31 UNL A   1       7.613  54.025  10.029  1.00  0.00    +0.000 H 
ATOM    137  H32 UNL A   1       8.106  53.099  12.209  1.00  0.00    +0.000 H 
ATOM     27  C17 UNL A   1       9.916  52.161  11.650  1.00  0.00    +0.000 C 
ATOM     28  C18 UNL A   1      10.762  51.955  10.553  1.00  0.00    +0.000 C 
ATOM     29  C19 UNL A   1      10.475  52.484   9.291  1.00  0.00    +0.000 C 
ATOM     30  C20 UNL A   1       9.332  53.246   9.097  1.00  0.00    +0.000 C 
ATOM     31  C21 UNL A   1       8.469  53.466  10.166  1.00  0.00    +0.000 C 
ATOM     32  C22 UNL A   1       8.757  52.929  11.427  1.00  0.00    +0.000 C 
ENDBRANCH   26   27
ENDBRANCH   25   26
BRANCH   25   33
ATOM     33  N5  UNL A   1      10.248  50.553  15.182  1.00  0.00    +0.000 N 
ATOM    138  H33 UNL A   1      11.204  50.785  15.192  1.00  0.00    +0.000 H 
BRANCH   33   34
ATOM     34  C23 UNL A   1       9.739  50.274  16.422  1.00  0.00    +0.000 C 
ATOM     35  O6  UNL A   1       8.818  49.459  16.481  1.00  0.00    +0.000 O 
BRANCH   34   36
ATOM     36  C24 UNL A   1      10.180  50.946  17.674  1.00  0.00    +0.000 C 
ATOM     37  C25 UNL A   1       9.445  50.669  18.841  1.00  0.00    +0.000 C 
ATOM     38  C26 UNL A   1       9.711  51.350  20.032  1.00  0.00    +0.000 C 
ATOM     39  C27 UNL A   1      10.706  52.316  20.058  1.00  0.00    +0.000 C 
ATOM     40  F1  UNL A   1      10.951  52.985  21.192  1.00  0.00    +0.000 F 
ATOM     41  C28 UNL A   1      11.439  52.613  18.915  1.00  0.00    +0.000 C 
ATOM     42  C29 UNL A   1      11.170  51.934  17.722  1.00  0.00    +0.000 C 
ATOM    139  H34 UNL A   1       8.702  49.953  18.818  1.00  0.00    +0.000 H 
ATOM    140  H35 UNL A   1       9.170  51.136  20.886  1.00  0.00    +0.000 H 
ATOM    141  H36 UNL A   1      12.177  53.333  18.947  1.00  0.00    +0.000 H 
ATOM    142  H37 UNL A   1      11.706  52.163  16.871  1.00  0.00    +0.000 H 
ENDBRANCH   34   36
ENDBRANCH   33   34
ENDBRANCH   25   33
ENDBRANCH   23   25
ENDBRANCH   22   23
ENDBRANCH   19   22
ENDBRANCH   17   19
ENDBRANCH   16   17
ENDBRANCH   13   16
ENDBRANCH   11   13
ENDBRANCH   10   11
ENDBRANCH    9   10
ENDBRANCH    8    9
ENDBRANCH    7    8
ENDBRANCH    6    7
ENDBRANCH    5    6
ENDBRANCH    4    5
ENDBRANCH    3    4
ENDBRANCH    2    3
ENDBRANCH   43    2
ENDBRANCH   47   46
BRANCH   51   52
ATOM     52  C38 UNL A   1      12.406  48.324   5.137  1.00  0.00    +0.000 C 
ATOM     53  C39 UNL A   1      11.085  48.021   4.780  1.00  0.00    +0.000 C 
ATOM     54  F2  UNL A   1      10.480  48.694   3.790  1.00  0.00    +0.000 F 
ATOM     55  C40 UNL A   1      10.367  47.041   5.461  1.00  0.00    +0.000 C 
ATOM     56  F3  UNL A   1       9.093  46.792   5.127  1.00  0.00    +0.000 F 
ATOM     57  C41 UNL A   1      10.963  46.329   6.492  1.00  0.00    +0.000 C 
ATOM     58  F4  UNL A   1      10.273  45.382   7.141  1.00  0.00    +0.000 F 
ATOM     59  C42 UNL A   1      12.274  46.604   6.853  1.00  0.00    +0.000 C 
ATOM     60  F5  UNL A   1      12.854  45.911   7.842  1.00  0.00    +0.000 F 
ATOM     61  C43 UNL A   1      12.987  47.599   6.188  1.00  0.00    +0.000 C 
ATOM     62  F6  UNL A   1      14.250  47.848   6.566  1.00  0.00    +0.000 F 
ENDBRANCH   51   52
BRANCH   68   69
ATOM     69  C49 UNL A   1      16.685  48.652  -0.657  1.00  0.00    +0.000 C 
ATOM     70  C50 UNL A   1      15.931  48.382  -1.808  1.00  0.00    +0.000 C 
ATOM     71  F7  UNL A   1      14.712  48.923  -1.959  1.00  0.00    +0.000 F 
ATOM     72  C51 UNL A   1      16.411  47.519  -2.790  1.00  0.00    +0.000 C 
ATOM     73  F8  UNL A   1      15.655  47.239  -3.860  1.00  0.00    +0.000 F 
ATOM     74  C52 UNL A   1      17.661  46.935  -2.651  1.00  0.00    +0.000 C 
ATOM     75  F9  UNL A   1      18.121  46.105  -3.597  1.00  0.00    +0.000 F 
ATOM     76  C53 UNL A   1      18.431  47.204  -1.530  1.00  0.00    +0.000 C 
ATOM     77  F10 UNL A   1      19.643  46.646  -1.399  1.00  0.00    +0.000 F 
ATOM     78  C54 UNL A   1      17.945  48.048  -0.536  1.00  0.00    +0.000 C 
ATOM     79  F11 UNL A   1      18.703  48.279   0.547  1.00  0.00    +0.000 F 
ENDBRANCH   68   69
BRANCH   83   84
ATOM     84  C58 UNL A   1      17.760  55.416   0.573  1.00  0.00    +0.000 C 
ATOM     85  C59 UNL A   1      19.020  55.794   1.057  1.00  0.00    +0.000 C 
ATOM     86  F12 UNL A   1      19.505  55.231   2.173  1.00  0.00    +0.000 F 
ATOM     87  C60 UNL A   1      19.774  56.769   0.408  1.00  0.00    +0.000 C 
ATOM     88  F13 UNL A   1      20.963  57.134   0.907  1.00  0.00    +0.000 F 
ATOM     89  C61 UNL A   1      19.293  57.367  -0.748  1.00  0.00    +0.000 C 
ATOM     90  F14 UNL A   1      20.025  58.296  -1.378  1.00  0.00    +0.000 F 
ATOM     91  C62 UNL A   1      18.053  57.002  -1.248  1.00  0.00    +0.000 C 
ATOM     92  F15 UNL A   1      17.592  57.566  -2.373  1.00  0.00    +0.000 F 
ATOM     93  C63 UNL A   1      17.287  56.046  -0.586  1.00  0.00    +0.000 C 
ATOM     94  F16 UNL A   1      16.089  55.713  -1.090  1.00  0.00    +0.000 F 
ENDBRANCH   83   84
TORSDOF 30
ENDMDL
MODEL 3
REMARK VINA RESULT:      -8.2     48.486     54.414
ROOT
ATOM    145  H40 UNL A   1      54.571  -2.804  11.589  1.00  0.00    +0.000 H 
ATOM    146  H41 UNL A   1      52.754  -4.100  12.938  1.00  0.00    +0.000 H 
ATOM    147  H42 UNL A   1      55.511  -2.561  15.616  1.00  0.00    +0.000 H 
ATOM    148  H43 UNL A   1      57.617  -1.961  21.604  1.00  0.00    +0.000 H 
ATOM    149  H44 UNL A   1      59.287  -0.556  20.307  1.00  0.00    +0.000 H 
ATOM    150  H45 UNL A   1      56.550  -2.102  17.588  1.00  0.00    +0.000 H 
ATOM    151  H46 UNL A   1      53.190  -4.642  20.320  1.00  0.00    +0.000 H 
ATOM    152  H47 UNL A   1      52.055  -5.255  18.108  1.00  0.00    +0.000 H 
ATOM    153  H48 UNL A   1      58.886   0.072  12.998  1.00  0.00    +0.000 H 
ATOM    154  H49 UNL A   1      60.181   0.482  15.169  1.00  0.00    +0.000 H 
ATOM     47  C34 UNL A   1      58.897  -0.578  17.486  1.00  0.00    +0.000 C 
ATOM     48  C35 UNL A   1      58.458  -0.695  16.056  1.00  0.00    +0.000 C 
ATOM     49  N6  UNL A   1      57.410  -1.308  15.565  1.00  0.00    +0.000 N 
ATOM     50  C36 UNL A   1      57.451  -1.093  14.194  1.00  0.00    +0.000 C 
ATOM     51  C37 UNL A   1      56.595  -1.544  13.246  1.00  0.00    +0.000 C 
ATOM     63  C44 UNL A   1      55.446  -2.372  13.513  1.00  0.00    +0.000 C 
ATOM     64  C45 UNL A   1      54.540  -2.907  12.616  1.00  0.00    +0.000 C 
ATOM     65  C46 UNL A   1      53.571  -3.614  13.339  1.00  0.00    +0.000 C 
ATOM     66  C47 UNL A   1      53.897  -3.551  14.684  1.00  0.00    +0.000 C 
ATOM     67  N7  UNL A   1      55.047  -2.783  14.777  1.00  0.00    +0.000 N 
ATOM     68  C48 UNL A   1      53.210  -4.145  15.801  1.00  0.00    +0.000 C 
ATOM     80  C55 UNL A   1      53.603  -4.059  17.096  1.00  0.00    +0.000 C 
ATOM     81  N8  UNL A   1      54.698  -3.400  17.631  1.00  0.00    +0.000 N 
ATOM     82  C56 UNL A   1      54.632  -3.586  18.926  1.00  0.00    +0.000 C 
ATOM     83  C57 UNL A   1      55.562  -3.101  20.000  1.00  0.00    +0.000 C 
ATOM     95  C64 UNL A   1      56.620  -2.347  19.655  1.00  0.00    +0.000 C 
ATOM     96  C65 UNL A   1      57.607  -1.807  20.584  1.00  0.00    +0.000 C 
ATOM     97  C66 UNL A   1      58.498  -1.079  19.896  1.00  0.00    +0.000 C 
ATOM     98  C67 UNL A   1      58.173  -1.145  18.470  1.00  0.00    +0.000 C 
ATOM     99  N9  UNL A   1      57.030  -1.900  18.422  1.00  0.00    +0.000 N 
ATOM    100  C68 UNL A   1      53.476  -4.380  19.363  1.00  0.00    +0.000 C 
ATOM    101  C69 UNL A   1      52.899  -4.669  18.206  1.00  0.00    +0.000 C 
ATOM    102  C70 UNL A   1      58.617  -0.276  13.931  1.00  0.00    +0.000 C 
ATOM    103  C71 UNL A   1      59.296  -0.034  15.046  1.00  0.00    +0.000 C 
ENDROOT
BRANCH   47   46
ATOM    104  C72 UNL A   1      61.372  -0.539  17.940  1.00  0.00    +0.000 C 
ATOM    105  C73 UNL A   1      62.538   0.163  18.256  1.00  0.00    +0.000 C 
ATOM     43  C30 UNL A   1      62.486   1.546  18.446  1.00  0.00    +0.000 C 
ATOM     44  C31 UNL A   1      61.280   2.235  18.283  1.00  0.00    +0.000 C 
ATOM     45  C32 UNL A   1      60.107   1.527  18.043  1.00  0.00    +0.000 C 
ATOM     46  C33 UNL A   1      60.145   0.137  17.852  1.00  0.00    +0.000 C 
ATOM    143  H38 UNL A   1      61.259   3.264  18.343  1.00  0.00    +0.000 H 
ATOM    144  H39 UNL A   1      59.205   2.026  18.004  1.00  0.00    +0.000 H 
ATOM    155  H50 UNL A   1      61.412  -1.556  17.772  1.00  0.00    +0.000 H 
ATOM    156  H51 UNL A   1      63.435  -0.340  18.348  1.00  0.00    +0.000 H 
BRANCH   43    2
ATOM      1  O1  UNL A   1      64.449   2.720  17.926  1.00  0.00    +0.000 O 
ATOM      2  C1  UNL A   1      63.723   2.272  18.807  1.00  0.00    +0.000 C 
BRANCH    2    3
ATOM    106  H1  UNL A   1      63.539   3.101  20.625  1.00  0.00    +0.000 H 
ATOM      3  N1  UNL A   1      64.055   2.426  20.129  1.00  0.00    +0.000 N 
BRANCH    3    4
ATOM    108  H3  UNL A   1      65.481   0.954  20.264  1.00  0.00    +0.000 H 
ATOM    107  H2  UNL A   1      65.827   2.417  21.190  1.00  0.00    +0.000 H 
ATOM      4  C2  UNL A   1      65.072   1.720  20.889  1.00  0.00    +0.000 C 
BRANCH    4    5
ATOM    109  H4  UNL A   1      64.497   1.771  22.926  1.00  0.00    +0.000 H 
ATOM      5  C3  UNL A   1      64.495   1.055  22.131  1.00  0.00    +0.000 C 
ATOM    110  H5  UNL A   1      65.110   0.205  22.337  1.00  0.00    +0.000 H 
BRANCH    5    6
ATOM      6  C4  UNL A   1      63.068   0.533  21.959  1.00  0.00    +0.000 C 
ATOM    111  H6  UNL A   1      62.623   1.047  21.133  1.00  0.00    +0.000 H 
ATOM    112  H7  UNL A   1      62.571   0.712  22.889  1.00  0.00    +0.000 H 
BRANCH    6    7
ATOM    113  H8  UNL A   1      63.592  -1.479  22.393  1.00  0.00    +0.000 H 
ATOM    114  H9  UNL A   1      63.238  -1.119  20.675  1.00  0.00    +0.000 H 
ATOM      7  C5  UNL A   1      62.956  -0.973  21.697  1.00  0.00    +0.000 C 
BRANCH    7    8
ATOM    115  H10 UNL A   1      60.896  -1.039  21.158  1.00  0.00    +0.000 H 
ATOM    116  H11 UNL A   1      61.252  -1.432  22.857  1.00  0.00    +0.000 H 
ATOM      8  C6  UNL A   1      61.542  -1.558  21.835  1.00  0.00    +0.000 C 
BRANCH    8    9
ATOM      9  C7  UNL A   1      61.459  -3.054  21.530  1.00  0.00    +0.000 C 
ATOM    117  H12 UNL A   1      60.825  -3.525  22.252  1.00  0.00    +0.000 H 
ATOM    118  H13 UNL A   1      62.444  -3.468  21.575  1.00  0.00    +0.000 H 
BRANCH    9   10
ATOM     10  N2  UNL A   1      60.919  -3.277  20.206  1.00  0.00    +0.000 N 
ATOM    119  H14 UNL A   1      60.184  -2.683  19.932  1.00  0.00    +0.000 H 
BRANCH   10   11
ATOM     11  C8  UNL A   1      61.308  -4.211  19.292  1.00  0.00    +0.000 C 
ATOM     12  O2  UNL A   1      62.500  -4.258  18.984  1.00  0.00    +0.000 O 
BRANCH   11   13
ATOM     13  C9  UNL A   1      60.290  -5.173  18.663  1.00  0.00    +0.000 C 
ATOM    120  H15 UNL A   1      60.842  -5.970  18.208  1.00  0.00    +0.000 H 
BRANCH   13   14
ATOM    121  H16 UNL A   1      58.732  -3.883  17.953  1.00  0.00    +0.000 H 
ATOM    122  H17 UNL A   1      59.059  -5.258  16.915  1.00  0.00    +0.000 H 
ATOM     14  C10 UNL A   1      59.498  -4.501  17.531  1.00  0.00    +0.000 C 
BRANCH   14   15
ATOM    123  H18 UNL A   1      59.980  -3.577  15.850  1.00  0.00    +0.000 H 
ATOM     15  O3  UNL A   1      60.367  -3.693  16.730  1.00  0.00    +0.000 O 
ENDBRANCH   14   15
ENDBRANCH   13   14
BRANCH   13   16
ATOM    124  H19 UNL A   1      58.607  -5.314  19.870  1.00  0.00    +0.000 H 
ATOM     16  N3  UNL A   1      59.436  -5.806  19.668  1.00  0.00    +0.000 N 
BRANCH   16   17
ATOM     17  C11 UNL A   1      59.593  -6.960  20.372  1.00  0.00    +0.000 C 
ATOM     18  O4  UNL A   1      59.755  -7.964  19.665  1.00  0.00    +0.000 O 
BRANCH   17   19
ATOM     19  C12 UNL A   1      59.841  -7.020  21.906  1.00  0.00    +0.000 C 
ATOM    125  H20 UNL A   1      59.825  -5.996  22.216  1.00  0.00    +0.000 H 
BRANCH   19   20
ATOM     20  C13 UNL A   1      61.211  -7.690  22.179  1.00  0.00    +0.000 C 
ATOM    126  H21 UNL A   1      61.525  -8.190  21.286  1.00  0.00    +0.000 H 
ATOM    127  H22 UNL A   1      61.069  -8.364  22.999  1.00  0.00    +0.000 H 
BRANCH   20   21
ATOM     21  S1  UNL A   1      62.525  -6.520  22.678  1.00  0.00    +0.000 S 
ATOM    128  H23 UNL A   1      62.473  -5.416  21.884  1.00  0.00    +0.000 H 
ENDBRANCH   20   21
ENDBRANCH   19   20
BRANCH   19   22
ATOM    129  H24 UNL A   1      58.583  -7.081  23.532  1.00  0.00    +0.000 H 
ATOM     22  N4  UNL A   1      58.795  -7.625  22.739  1.00  0.00    +0.000 N 
BRANCH   22   23
ATOM     23  C14 UNL A   1      58.050  -8.760  22.675  1.00  0.00    +0.000 C 
ATOM     24  O5  UNL A   1      58.418  -9.602  23.498  1.00  0.00    +0.000 O 
BRANCH   23   25
ATOM     25  C15 UNL A   1      56.771  -8.971  21.812  1.00  0.00    +0.000 C 
ATOM    130  H25 UNL A   1      56.600  -8.041  21.311  1.00  0.00    +0.000 H 
BRANCH   25   26
ATOM     26  C16 UNL A   1      55.523  -9.336  22.674  1.00  0.00    +0.000 C 
ATOM    131  H26 UNL A   1      55.889  -9.500  23.666  1.00  0.00    +0.000 H 
ATOM    132  H27 UNL A   1      55.108 -10.147  22.113  1.00  0.00    +0.000 H 
BRANCH   26   27
ATOM    133  H28 UNL A   1      54.133  -7.833  20.807  1.00  0.00    +0.000 H 
ATOM    134  H29 UNL A   1      52.427  -6.163  21.175  1.00  0.00    +0.000 H 
ATOM    135  H30 UNL A   1      51.608  -5.727  23.413  1.00  0.00    +0.000 H 
ATOM    136  H31 UNL A   1      52.476  -7.013  25.277  1.00  0.00    +0.000 H 
ATOM    137  H32 UNL A   1      54.171  -8.700  24.910  1.00  0.00    +0.000 H 
ATOM     27  C17 UNL A   1      54.314  -8.423  22.819  1.00  0.00    +0.000 C 
ATOM     28  C18 UNL A   1      53.786  -7.668  21.765  1.00  0.00    +0.000 C 
ATOM     29  C19 UNL A   1      52.802  -6.698  21.975  1.00  0.00    +0.000 C 
ATOM     30  C20 UNL A   1      52.327  -6.450  23.254  1.00  0.00    +0.000 C 
ATOM     31  C21 UNL A   1      52.828  -7.186  24.322  1.00  0.00    +0.000 C 
ATOM     32  C22 UNL A   1      53.811  -8.161  24.107  1.00  0.00    +0.000 C 
ENDBRANCH   26   27
ENDBRANCH   25   26
BRANCH   25   33
ATOM     33  N5  UNL A   1      56.971 -10.073  20.855  1.00  0.00    +0.000 N 
ATOM    138  H33 UNL A   1      57.207 -10.927  21.284  1.00  0.00    +0.000 H 
BRANCH   33   34
ATOM     34  C23 UNL A   1      56.894 -10.149  19.490  1.00  0.00    +0.000 C 
ATOM     35  O6  UNL A   1      57.124 -11.243  18.975  1.00  0.00    +0.000 O 
BRANCH   34   36
ATOM     36  C24 UNL A   1      56.626  -8.983  18.605  1.00  0.00    +0.000 C 
ATOM     37  C25 UNL A   1      56.979  -9.116  17.250  1.00  0.00    +0.000 C 
ATOM     38  C26 UNL A   1      56.879  -8.030  16.375  1.00  0.00    +0.000 C 
ATOM     39  C27 UNL A   1      56.431  -6.808  16.854  1.00  0.00    +0.000 C 
ATOM     40  F1  UNL A   1      56.352  -5.760  16.025  1.00  0.00    +0.000 F 
ATOM     41  C28 UNL A   1      56.085  -6.651  18.191  1.00  0.00    +0.000 C 
ATOM     42  C29 UNL A   1      56.190  -7.736  19.067  1.00  0.00    +0.000 C 
ATOM    139  H34 UNL A   1      57.316 -10.025  16.897  1.00  0.00    +0.000 H 
ATOM    140  H35 UNL A   1      57.136  -8.137  15.381  1.00  0.00    +0.000 H 
ATOM    141  H36 UNL A   1      55.753  -5.737  18.535  1.00  0.00    +0.000 H 
ATOM    142  H37 UNL A   1      55.943  -7.617  20.062  1.00  0.00    +0.000 H 
ENDBRANCH   34   36
ENDBRANCH   33   34
ENDBRANCH   25   33
ENDBRANCH   23   25
ENDBRANCH   22   23
ENDBRANCH   19   22
ENDBRANCH   17   19
ENDBRANCH   16   17
ENDBRANCH   13   16
ENDBRANCH   11   13
ENDBRANCH   10   11
ENDBRANCH    9   10
ENDBRANCH    8    9
ENDBRANCH    7    8
ENDBRANCH    6    7
ENDBRANCH    5    6
ENDBRANCH    4    5
ENDBRANCH    3    4
ENDBRANCH    2    3
ENDBRANCH   43    2
ENDBRANCH   47   46
BRANCH   51   52
ATOM     52  C38 UNL A   1      56.858  -1.141  11.825  1.00  0.00    +0.000 C 
ATOM     53  C39 UNL A   1      56.344   0.050  11.292  1.00  0.00    +0.000 C 
ATOM     54  F2  UNL A   1      55.549   0.835  12.035  1.00  0.00    +0.000 F 
ATOM     55  C40 UNL A   1      56.623   0.427   9.981  1.00  0.00    +0.000 C 
ATOM     56  F3  UNL A   1      56.093   1.552   9.481  1.00  0.00    +0.000 F 
ATOM     57  C41 UNL A   1      57.440  -0.365   9.186  1.00  0.00    +0.000 C 
ATOM     58  F4  UNL A   1      57.712   0.003   7.927  1.00  0.00    +0.000 F 
ATOM     59  C42 UNL A   1      57.968  -1.541   9.697  1.00  0.00    +0.000 C 
ATOM     60  F5  UNL A   1      58.765  -2.302   8.934  1.00  0.00    +0.000 F 
ATOM     61  C43 UNL A   1      57.674  -1.931  11.001  1.00  0.00    +0.000 C 
ATOM     62  F6  UNL A   1      58.193  -3.078  11.464  1.00  0.00    +0.000 F 
ENDBRANCH   51   52
BRANCH   68   69
ATOM     69  C49 UNL A   1      51.972  -4.941  15.523  1.00  0.00    +0.000 C 
ATOM     70  C50 UNL A   1      50.729  -4.317  15.340  1.00  0.00    +0.000 C 
ATOM     71  F7  UNL A   1      50.621  -2.984  15.450  1.00  0.00    +0.000 F 
ATOM     72  C51 UNL A   1      49.584  -5.067  15.087  1.00  0.00    +0.000 C 
ATOM     73  F8  UNL A   1      48.399  -4.455  14.960  1.00  0.00    +0.000 F 
ATOM     74  C52 UNL A   1      49.667  -6.447  14.983  1.00  0.00    +0.000 C 
ATOM     75  F9  UNL A   1      48.563  -7.168  14.740  1.00  0.00    +0.000 F 
ATOM     76  C53 UNL A   1      50.889  -7.082  15.141  1.00  0.00    +0.000 C 
ATOM     77  F10 UNL A   1      50.970  -8.416  15.034  1.00  0.00    +0.000 F 
ATOM     78  C54 UNL A   1      52.031  -6.338  15.418  1.00  0.00    +0.000 C 
ATOM     79  F11 UNL A   1      53.199  -6.979  15.582  1.00  0.00    +0.000 F 
ENDBRANCH   68   69
BRANCH   83   84
ATOM     84  C58 UNL A   1      55.341  -3.446  21.425  1.00  0.00    +0.000 C 
ATOM     85  C59 UNL A   1      55.939  -4.581  21.991  1.00  0.00    +0.000 C 
ATOM     86  F12 UNL A   1      56.683  -5.395  21.230  1.00  0.00    +0.000 F 
ATOM     87  C60 UNL A   1      55.752  -4.894  23.336  1.00  0.00    +0.000 C 
ATOM     88  F13 UNL A   1      56.309  -6.001  23.846  1.00  0.00    +0.000 F 
ATOM     89  C61 UNL A   1      54.984  -4.067  24.143  1.00  0.00    +0.000 C 
ATOM     90  F14 UNL A   1      54.814  -4.363  25.439  1.00  0.00    +0.000 F 
ATOM     91  C62 UNL A   1      54.391  -2.935  23.605  1.00  0.00    +0.000 C 
ATOM     92  F15 UNL A   1      53.662  -2.126  24.386  1.00  0.00    +0.000 F 
ATOM     93  C63 UNL A   1      54.556  -2.635  22.256  1.00  0.00    +0.000 C 
ATOM     94  F16 UNL A   1      53.969  -1.535  21.760  1.00  0.00    +0.000 F 
ENDBRANCH   83   84
TORSDOF 30
ENDMDL
MODEL 4
REMARK VINA RESULT:      -8.2      4.746      8.810
ROOT
ATOM    145  H40 UNL A   1      24.498  12.996   4.814  1.00  0.00    +0.000 H 
ATOM    146  H41 UNL A   1      24.391  14.753   6.738  1.00  0.00    +0.000 H 
ATOM    147  H42 UNL A   1      20.997  15.172   4.403  1.00  0.00    +0.000 H 
ATOM    148  H43 UNL A   1      15.565  18.245   3.101  1.00  0.00    +0.000 H 
ATOM    149  H44 UNL A   1      15.586  16.423   1.333  1.00  0.00    +0.000 H 
ATOM    150  H45 UNL A   1      19.014  15.986   3.642  1.00  0.00    +0.000 H 
ATOM    151  H46 UNL A   1      18.707  19.489   7.226  1.00  0.00    +0.000 H 
ATOM    152  H47 UNL A   1      20.985  18.656   8.046  1.00  0.00    +0.000 H 
ATOM    153  H48 UNL A   1      21.156  11.661   0.823  1.00  0.00    +0.000 H 
ATOM    154  H49 UNL A   1      19.009  12.642  -0.169  1.00  0.00    +0.000 H 
ATOM     47  C34 UNL A   1      17.918  14.790   1.359  1.00  0.00    +0.000 C 
ATOM     48  C35 UNL A   1      19.192  14.038   1.608  1.00  0.00    +0.000 C 
ATOM     49  N6  UNL A   1      20.074  14.206   2.561  1.00  0.00    +0.000 N 
ATOM     50  C36 UNL A   1      21.048  13.239   2.354  1.00  0.00    +0.000 C 
ATOM     51  C37 UNL A   1      22.181  13.019   3.065  1.00  0.00    +0.000 C 
ATOM     63  C44 UNL A   1      22.589  13.797   4.207  1.00  0.00    +0.000 C 
ATOM     64  C45 UNL A   1      23.735  13.674   4.972  1.00  0.00    +0.000 C 
ATOM     65  C46 UNL A   1      23.684  14.625   5.997  1.00  0.00    +0.000 C 
ATOM     66  C47 UNL A   1      22.524  15.367   5.848  1.00  0.00    +0.000 C 
ATOM     67  N7  UNL A   1      21.859  14.846   4.749  1.00  0.00    +0.000 N 
ATOM     68  C48 UNL A   1      22.055  16.468   6.649  1.00  0.00    +0.000 C 
ATOM     80  C55 UNL A   1      20.913  17.165   6.428  1.00  0.00    +0.000 C 
ATOM     81  N8  UNL A   1      19.963  16.986   5.435  1.00  0.00    +0.000 N 
ATOM     82  C56 UNL A   1      19.036  17.885   5.659  1.00  0.00    +0.000 C 
ATOM     83  C57 UNL A   1      17.775  18.153   4.891  1.00  0.00    +0.000 C 
ATOM     95  C64 UNL A   1      17.483  17.386   3.827  1.00  0.00    +0.000 C 
ATOM     96  C65 UNL A   1      16.298  17.528   2.987  1.00  0.00    +0.000 C 
ATOM     97  C66 UNL A   1      16.318  16.576   2.043  1.00  0.00    +0.000 C 
ATOM     98  C67 UNL A   1      17.546  15.789   2.181  1.00  0.00    +0.000 C 
ATOM     99  N9  UNL A   1      18.165  16.326   3.280  1.00  0.00    +0.000 N 
ATOM    100  C68 UNL A   1      19.289  18.733   6.831  1.00  0.00    +0.000 C 
ATOM    101  C69 UNL A   1      20.461  18.273   7.244  1.00  0.00    +0.000 C 
ATOM    102  C70 UNL A   1      20.641  12.473   1.195  1.00  0.00    +0.000 C 
ATOM    103  C71 UNL A   1      19.518  12.952   0.673  1.00  0.00    +0.000 C 
ENDROOT
BRANCH   47   46
ATOM    104  C72 UNL A   1      15.960  13.604   0.316  1.00  0.00    +0.000 C 
ATOM    105  C73 UNL A   1      15.141  13.348  -0.787  1.00  0.00    +0.000 C 
ATOM     43  C30 UNL A   1      15.391  13.993  -2.001  1.00  0.00    +0.000 C 
ATOM     44  C31 UNL A   1      16.432  14.921  -2.105  1.00  0.00    +0.000 C 
ATOM     45  C32 UNL A   1      17.291  15.119  -1.029  1.00  0.00    +0.000 C 
ATOM     46  C33 UNL A   1      17.053  14.475   0.196  1.00  0.00    +0.000 C 
ATOM    143  H38 UNL A   1      16.564  15.457  -2.976  1.00  0.00    +0.000 H 
ATOM    144  H39 UNL A   1      18.107  15.742  -1.132  1.00  0.00    +0.000 H 
ATOM    155  H50 UNL A   1      15.761  13.150   1.221  1.00  0.00    +0.000 H 
ATOM    156  H51 UNL A   1      14.355  12.685  -0.705  1.00  0.00    +0.000 H 
BRANCH   43    2
ATOM      1  O1  UNL A   1      15.042  13.438  -4.254  1.00  0.00    +0.000 O 
ATOM      2  C1  UNL A   1      14.533  13.693  -3.168  1.00  0.00    +0.000 C 
BRANCH    2    3
ATOM    106  H1  UNL A   1      12.730  12.834  -2.967  1.00  0.00    +0.000 H 
ATOM      3  N1  UNL A   1      13.169  13.713  -3.026  1.00  0.00    +0.000 N 
BRANCH    3    4
ATOM    108  H3  UNL A   1      11.333  14.580  -3.335  1.00  0.00    +0.000 H 
ATOM    107  H2  UNL A   1      12.218  15.184  -1.932  1.00  0.00    +0.000 H 
ATOM      4  C2  UNL A   1      12.290  14.868  -2.952  1.00  0.00    +0.000 C 
BRANCH    4    5
ATOM    109  H4  UNL A   1      12.036  16.309  -4.482  1.00  0.00    +0.000 H 
ATOM      5  C3  UNL A   1      12.804  16.028  -3.792  1.00  0.00    +0.000 C 
ATOM    110  H5  UNL A   1      13.693  15.685  -4.277  1.00  0.00    +0.000 H 
BRANCH    5    6
ATOM      6  C4  UNL A   1      13.196  17.265  -2.983  1.00  0.00    +0.000 C 
ATOM    111  H6  UNL A   1      13.157  17.009  -1.944  1.00  0.00    +0.000 H 
ATOM    112  H7  UNL A   1      12.505  18.033  -3.257  1.00  0.00    +0.000 H 
BRANCH    6    7
ATOM    113  H8  UNL A   1      15.128  17.084  -3.847  1.00  0.00    +0.000 H 
ATOM    114  H9  UNL A   1      15.037  18.035  -2.332  1.00  0.00    +0.000 H 
ATOM      7  C5  UNL A   1      14.594  17.819  -3.282  1.00  0.00    +0.000 C 
BRANCH    7    8
ATOM    115  H10 UNL A   1      13.611  19.457  -4.226  1.00  0.00    +0.000 H 
ATOM    116  H11 UNL A   1      15.132  18.938  -4.990  1.00  0.00    +0.000 H 
ATOM      8  C6  UNL A   1      14.620  19.136  -4.072  1.00  0.00    +0.000 C 
BRANCH    8    9
ATOM      9  C7  UNL A   1      15.382  20.262  -3.372  1.00  0.00    +0.000 C 
ATOM    117  H12 UNL A   1      16.090  20.684  -4.053  1.00  0.00    +0.000 H 
ATOM    118  H13 UNL A   1      15.884  19.857  -2.518  1.00  0.00    +0.000 H 
BRANCH    9   10
ATOM     10  N2  UNL A   1      14.472  21.298  -2.930  1.00  0.00    +0.000 N 
ATOM    119  H14 UNL A   1      13.688  20.995  -2.417  1.00  0.00    +0.000 H 
BRANCH   10   11
ATOM     11  C8  UNL A   1      14.572  22.641  -3.138  1.00  0.00    +0.000 C 
ATOM     12  O2  UNL A   1      14.463  23.057  -4.293  1.00  0.00    +0.000 O 
BRANCH   11   13
ATOM     13  C9  UNL A   1      14.818  23.607  -1.970  1.00  0.00    +0.000 C 
ATOM    120  H15 UNL A   1      15.579  24.294  -2.278  1.00  0.00    +0.000 H 
BRANCH   13   14
ATOM    121  H16 UNL A   1      15.846  21.967  -1.047  1.00  0.00    +0.000 H 
ATOM    122  H17 UNL A   1      14.568  22.660  -0.067  1.00  0.00    +0.000 H 
ATOM     14  C10 UNL A   1      15.374  22.877  -0.737  1.00  0.00    +0.000 C 
BRANCH   14   15
ATOM    123  H18 UNL A   1      17.104  23.831  -0.637  1.00  0.00    +0.000 H 
ATOM     15  O3  UNL A   1      16.333  23.700  -0.065  1.00  0.00    +0.000 O 
ENDBRANCH   14   15
ENDBRANCH   13   14
BRANCH   13   16
ATOM    124  H19 UNL A   1      12.795  23.923  -1.631  1.00  0.00    +0.000 H 
ATOM     16  N3  UNL A   1      13.642  24.424  -1.674  1.00  0.00    +0.000 N 
BRANCH   16   17
ATOM     17  C11 UNL A   1      13.519  25.761  -1.450  1.00  0.00    +0.000 C 
ATOM     18  O4  UNL A   1      13.283  26.055  -0.270  1.00  0.00    +0.000 O 
BRANCH   17   19
ATOM     19  C12 UNL A   1      13.914  26.859  -2.479  1.00  0.00    +0.000 C 
ATOM    125  H20 UNL A   1      13.380  27.728  -2.153  1.00  0.00    +0.000 H 
BRANCH   19   20
ATOM     20  C13 UNL A   1      13.484  26.410  -3.899  1.00  0.00    +0.000 C 
ATOM    126  H21 UNL A   1      13.514  25.341  -3.936  1.00  0.00    +0.000 H 
ATOM    127  H22 UNL A   1      14.167  26.864  -4.586  1.00  0.00    +0.000 H 
BRANCH   20   21
ATOM     21  S1  UNL A   1      11.807  26.958  -4.377  1.00  0.00    +0.000 S 
ATOM    128  H23 UNL A   1      11.631  26.766  -5.713  1.00  0.00    +0.000 H 
ENDBRANCH   20   21
ENDBRANCH   19   20
BRANCH   19   22
ATOM    129  H24 UNL A   1      15.944  26.587  -2.652  1.00  0.00    +0.000 H 
ATOM     22  N4  UNL A   1      15.307  27.318  -2.481  1.00  0.00    +0.000 N 
BRANCH   22   23
ATOM     23  C14 UNL A   1      15.926  28.514  -2.300  1.00  0.00    +0.000 C 
ATOM     24  O5  UNL A   1      17.136  28.448  -2.530  1.00  0.00    +0.000 O 
BRANCH   23   25
ATOM     25  C15 UNL A   1      15.227  29.874  -2.007  1.00  0.00    +0.000 C 
ATOM    130  H25 UNL A   1      16.015  30.593  -1.908  1.00  0.00    +0.000 H 
BRANCH   25   26
ATOM     26  C16 UNL A   1      14.384  29.842  -0.694  1.00  0.00    +0.000 C 
ATOM    131  H26 UNL A   1      14.873  29.143  -0.049  1.00  0.00    +0.000 H 
ATOM    132  H27 UNL A   1      13.407  29.631  -1.076  1.00  0.00    +0.000 H 
BRANCH   26   27
ATOM    133  H28 UNL A   1      15.982  32.021  -0.079  1.00  0.00    +0.000 H 
ATOM    134  H29 UNL A   1      15.591  33.777   1.533  1.00  0.00    +0.000 H 
ATOM    135  H30 UNL A   1      13.502  33.868   2.757  1.00  0.00    +0.000 H 
ATOM    136  H31 UNL A   1      11.785  32.213   2.318  1.00  0.00    +0.000 H 
ATOM    137  H32 UNL A   1      12.165  30.462   0.691  1.00  0.00    +0.000 H 
ATOM     27  C17 UNL A   1      14.115  31.076   0.154  1.00  0.00    +0.000 C 
ATOM     28  C18 UNL A   1      15.082  32.052   0.426  1.00  0.00    +0.000 C 
ATOM     29  C19 UNL A   1      14.861  33.068   1.361  1.00  0.00    +0.000 C 
ATOM     30  C20 UNL A   1      13.663  33.125   2.059  1.00  0.00    +0.000 C 
ATOM     31  C21 UNL A   1      12.681  32.173   1.808  1.00  0.00    +0.000 C 
ATOM     32  C22 UNL A   1      12.904  31.161   0.867  1.00  0.00    +0.000 C 
ENDBRANCH   26   27
ENDBRANCH   25   26
BRANCH   25   33
ATOM     33  N5  UNL A   1      14.306  30.228  -3.102  1.00  0.00    +0.000 N 
ATOM    138  H33 UNL A   1      14.103  29.475  -3.702  1.00  0.00    +0.000 H 
BRANCH   33   34
ATOM     34  C23 UNL A   1      13.676  31.392  -3.452  1.00  0.00    +0.000 C 
ATOM     35  O6  UNL A   1      14.132  32.011  -4.412  1.00  0.00    +0.000 O 
BRANCH   34   36
ATOM     36  C24 UNL A   1      12.534  31.980  -2.699  1.00  0.00    +0.000 C 
ATOM     37  C25 UNL A   1      11.321  31.269  -2.721  1.00  0.00    +0.000 C 
ATOM     38  C26 UNL A   1      10.166  31.808  -2.148  1.00  0.00    +0.000 C 
ATOM     39  C27 UNL A   1      10.219  33.062  -1.556  1.00  0.00    +0.000 C 
ATOM     40  F1  UNL A   1       9.111  33.591  -1.023  1.00  0.00    +0.000 F 
ATOM     41  C28 UNL A   1      11.404  33.786  -1.531  1.00  0.00    +0.000 C 
ATOM     42  C29 UNL A   1      12.560  33.249  -2.109  1.00  0.00    +0.000 C 
ATOM    139  H34 UNL A   1      11.283  30.339  -3.165  1.00  0.00    +0.000 H 
ATOM    140  H35 UNL A   1       9.280  31.277  -2.164  1.00  0.00    +0.000 H 
ATOM    141  H36 UNL A   1      11.432  34.717  -1.088  1.00  0.00    +0.000 H 
ATOM    142  H37 UNL A   1      13.437  33.791  -2.099  1.00  0.00    +0.000 H 
ENDBRANCH   34   36
ENDBRANCH   33   34
ENDBRANCH   25   33
ENDBRANCH   23   25
ENDBRANCH   22   23
ENDBRANCH   19   22
ENDBRANCH   17   19
ENDBRANCH   16   17
ENDBRANCH   13   16
ENDBRANCH   11   13
ENDBRANCH   10   11
ENDBRANCH    9   10
ENDBRANCH    8    9
ENDBRANCH    7    8
ENDBRANCH    6    7
ENDBRANCH    5    6
ENDBRANCH    4    5
ENDBRANCH    3    4
ENDBRANCH    2    3
ENDBRANCH   43    2
ENDBRANCH   47   46
BRANCH   51   52
ATOM     52  C38 UNL A   1      23.058  11.879   2.639  1.00  0.00    +0.000 C 
ATOM     53  C39 UNL A   1      22.802  10.563   3.046  1.00  0.00    +0.000 C 
ATOM     54  F2  UNL A   1      21.787  10.300   3.884  1.00  0.00    +0.000 F 
ATOM     55  C40 UNL A   1      23.607   9.510   2.617  1.00  0.00    +0.000 C 
ATOM     56  F3  UNL A   1      23.365   8.264   3.047  1.00  0.00    +0.000 F 
ATOM     57  C41 UNL A   1      24.665   9.750   1.753  1.00  0.00    +0.000 C 
ATOM     58  F4  UNL A   1      25.434   8.735   1.335  1.00  0.00    +0.000 F 
ATOM     59  C42 UNL A   1      24.929  11.043   1.327  1.00  0.00    +0.000 C 
ATOM     60  F5  UNL A   1      25.945  11.275   0.484  1.00  0.00    +0.000 F 
ATOM     61  C43 UNL A   1      24.139  12.100   1.772  1.00  0.00    +0.000 C 
ATOM     62  F6  UNL A   1      24.424  13.341   1.349  1.00  0.00    +0.000 F 
ENDBRANCH   51   52
BRANCH   68   69
ATOM     69  C49 UNL A   1      22.895  16.900   7.811  1.00  0.00    +0.000 C 
ATOM     70  C50 UNL A   1      22.737  16.322   9.080  1.00  0.00    +0.000 C 
ATOM     71  F7  UNL A   1      21.795  15.389   9.284  1.00  0.00    +0.000 F 
ATOM     72  C51 UNL A   1      23.521  16.735  10.154  1.00  0.00    +0.000 C 
ATOM     73  F8  UNL A   1      23.324  16.204  11.368  1.00  0.00    +0.000 F 
ATOM     74  C52 UNL A   1      24.492  17.709   9.972  1.00  0.00    +0.000 C 
ATOM     75  F9  UNL A   1      25.245  18.105  11.008  1.00  0.00    +0.000 F 
ATOM     76  C53 UNL A   1      24.677  18.278   8.722  1.00  0.00    +0.000 C 
ATOM     77  F10 UNL A   1      25.620  19.214   8.545  1.00  0.00    +0.000 F 
ATOM     78  C54 UNL A   1      23.880  17.885   7.651  1.00  0.00    +0.000 C 
ATOM     79  F11 UNL A   1      24.069  18.463   6.455  1.00  0.00    +0.000 F 
ENDBRANCH   68   69
BRANCH   83   84
ATOM     84  C58 UNL A   1      16.855  19.250   5.279  1.00  0.00    +0.000 C 
ATOM     85  C59 UNL A   1      16.957  20.517   4.688  1.00  0.00    +0.000 C 
ATOM     86  F12 UNL A   1      17.926  20.763   3.795  1.00  0.00    +0.000 F 
ATOM     87  C60 UNL A   1      16.080  21.542   5.034  1.00  0.00    +0.000 C 
ATOM     88  F13 UNL A   1      16.218  22.754   4.478  1.00  0.00    +0.000 F 
ATOM     89  C61 UNL A   1      15.069  21.313   5.957  1.00  0.00    +0.000 C 
ATOM     90  F14 UNL A   1      14.219  22.296   6.280  1.00  0.00    +0.000 F 
ATOM     91  C62 UNL A   1      14.945  20.064   6.547  1.00  0.00    +0.000 C 
ATOM     92  F15 UNL A   1      13.961  19.834   7.427  1.00  0.00    +0.000 F 
ATOM     93  C63 UNL A   1      15.837  19.047   6.222  1.00  0.00    +0.000 C 
ATOM     94  F16 UNL A   1      15.696  17.849   6.809  1.00  0.00    +0.000 F 
ENDBRANCH   83   84
TORSDOF 30
ENDMDL
MODEL 5
REMARK VINA RESULT:      -8.2     51.834     55.669
ROOT
ATOM    145  H40 UNL A   1      45.820  14.246  43.788  1.00  0.00    +0.000 H 
ATOM    146  H41 UNL A   1      47.700  16.022  43.446  1.00  0.00    +0.000 H 
ATOM    147  H42 UNL A   1      45.337  17.224  46.627  1.00  0.00    +0.000 H 
ATOM    148  H43 UNL A   1      43.931  21.533  51.110  1.00  0.00    +0.000 H 
ATOM    149  H44 UNL A   1      42.209  19.721  51.552  1.00  0.00    +0.000 H 
ATOM    150  H45 UNL A   1      44.546  18.492  48.342  1.00  0.00    +0.000 H 
ATOM    151  H46 UNL A   1      48.040  22.049  47.750  1.00  0.00    +0.000 H 
ATOM    152  H47 UNL A   1      48.892  20.690  45.754  1.00  0.00    +0.000 H 
ATOM    153  H48 UNL A   1      41.847  13.695  47.364  1.00  0.00    +0.000 H 
ATOM    154  H49 UNL A   1      40.820  15.161  49.196  1.00  0.00    +0.000 H 
ATOM     47  C34 UNL A   1      42.288  17.553  49.707  1.00  0.00    +0.000 C 
ATOM     48  C35 UNL A   1      42.562  16.510  48.664  1.00  0.00    +0.000 C 
ATOM     49  N6  UNL A   1      43.515  16.475  47.766  1.00  0.00    +0.000 N 
ATOM     50  C36 UNL A   1      43.337  15.289  47.068  1.00  0.00    +0.000 C 
ATOM     51  C37 UNL A   1      44.060  14.808  46.027  1.00  0.00    +0.000 C 
ATOM     63  C44 UNL A   1      45.184  15.487  45.434  1.00  0.00    +0.000 C 
ATOM     64  C45 UNL A   1      45.957  15.098  44.355  1.00  0.00    +0.000 C 
ATOM     65  C46 UNL A   1      46.958  16.058  44.163  1.00  0.00    +0.000 C 
ATOM     66  C47 UNL A   1      46.785  17.064  45.098  1.00  0.00    +0.000 C 
ATOM     67  N7  UNL A   1      45.695  16.700  45.874  1.00  0.00    +0.000 N 
ATOM     68  C48 UNL A   1      47.555  18.268  45.274  1.00  0.00    +0.000 C 
ATOM     80  C55 UNL A   1      47.311  19.224  46.203  1.00  0.00    +0.000 C 
ATOM     81  N8  UNL A   1      46.318  19.266  47.169  1.00  0.00    +0.000 N 
ATOM     82  C56 UNL A   1      46.514  20.375  47.838  1.00  0.00    +0.000 C 
ATOM     83  C57 UNL A   1      45.734  20.933  48.992  1.00  0.00    +0.000 C 
ATOM     95  C64 UNL A   1      44.688  20.237  49.470  1.00  0.00    +0.000 C 
ATOM     96  C65 UNL A   1      43.838  20.652  50.581  1.00  0.00    +0.000 C 
ATOM     97  C66 UNL A   1      42.919  19.702  50.803  1.00  0.00    +0.000 C 
ATOM     98  C67 UNL A   1      43.083  18.635  49.814  1.00  0.00    +0.000 C 
ATOM     99  N9  UNL A   1      44.171  19.026  49.078  1.00  0.00    +0.000 N 
ATOM    100  C68 UNL A   1      47.666  21.162  47.378  1.00  0.00    +0.000 C 
ATOM    101  C69 UNL A   1      48.097  20.431  46.359  1.00  0.00    +0.000 C 
ATOM    102  C70 UNL A   1      42.196  14.621  47.657  1.00  0.00    +0.000 C 
ATOM    103  C71 UNL A   1      41.657  15.354  48.623  1.00  0.00    +0.000 C 
ENDROOT
BRANCH   47   46
ATOM    104  C72 UNL A   1      39.863  17.924  50.264  1.00  0.00    +0.000 C 
ATOM    105  C73 UNL A   1      38.779  17.775  51.134  1.00  0.00    +0.000 C 
ATOM     43  C30 UNL A   1      38.951  17.104  52.348  1.00  0.00    +0.000 C 
ATOM     44  C31 UNL A   1      40.192  16.550  52.677  1.00  0.00    +0.000 C 
ATOM     45  C32 UNL A   1      41.286  16.763  51.846  1.00  0.00    +0.000 C 
ATOM     46  C33 UNL A   1      41.128  17.437  50.625  1.00  0.00    +0.000 C 
ATOM    143  H38 UNL A   1      40.296  15.985  53.534  1.00  0.00    +0.000 H 
ATOM    144  H39 UNL A   1      42.219  16.424  52.128  1.00  0.00    +0.000 H 
ATOM    155  H50 UNL A   1      39.732  18.394  49.355  1.00  0.00    +0.000 H 
ATOM    156  H51 UNL A   1      37.855  18.158  50.880  1.00  0.00    +0.000 H 
BRANCH   43    2
ATOM      1  O1  UNL A   1      36.663  16.893  52.823  1.00  0.00    +0.000 O 
ATOM      2  C1  UNL A   1      37.802  16.977  53.270  1.00  0.00    +0.000 C 
BRANCH    2    3
ATOM    106  H1  UNL A   1      38.960  17.047  54.909  1.00  0.00    +0.000 H 
ATOM      3  N1  UNL A   1      38.020  16.967  54.625  1.00  0.00    +0.000 N 
BRANCH    3    4
ATOM    108  H3  UNL A   1      36.103  16.589  55.254  1.00  0.00    +0.000 H 
ATOM    107  H2  UNL A   1      37.369  16.101  56.382  1.00  0.00    +0.000 H 
ATOM      4  C2  UNL A   1      37.042  16.851  55.693  1.00  0.00    +0.000 C 
BRANCH    4    5
ATOM    109  H4  UNL A   1      37.800  18.426  56.887  1.00  0.00    +0.000 H 
ATOM      5  C3  UNL A   1      36.863  18.162  56.443  1.00  0.00    +0.000 C 
ATOM    110  H5  UNL A   1      36.092  17.998  57.167  1.00  0.00    +0.000 H 
BRANCH    5    6
ATOM      6  C4  UNL A   1      36.401  19.330  55.570  1.00  0.00    +0.000 C 
ATOM    111  H6  UNL A   1      37.044  19.380  54.716  1.00  0.00    +0.000 H 
ATOM    112  H7  UNL A   1      36.447  20.202  56.187  1.00  0.00    +0.000 H 
BRANCH    6    7
ATOM    113  H8  UNL A   1      34.352  18.859  55.871  1.00  0.00    +0.000 H 
ATOM    114  H9  UNL A   1      34.978  18.592  54.215  1.00  0.00    +0.000 H 
ATOM      7  C5  UNL A   1      34.955  19.234  55.070  1.00  0.00    +0.000 C 
BRANCH    7    8
ATOM    115  H10 UNL A   1      33.856  20.384  53.653  1.00  0.00    +0.000 H 
ATOM    116  H11 UNL A   1      35.139  21.264  54.518  1.00  0.00    +0.000 H 
ATOM      8  C6  UNL A   1      34.339  20.558  54.592  1.00  0.00    +0.000 C 
BRANCH    8    9
ATOM      9  C7  UNL A   1      33.314  21.148  55.560  1.00  0.00    +0.000 C 
ATOM    117  H12 UNL A   1      32.646  20.375  55.879  1.00  0.00    +0.000 H 
ATOM    118  H13 UNL A   1      32.772  21.922  55.058  1.00  0.00    +0.000 H 
BRANCH    9   10
ATOM     10  N2  UNL A   1      33.971  21.715  56.718  1.00  0.00    +0.000 N 
ATOM    119  H14 UNL A   1      34.588  22.462  56.544  1.00  0.00    +0.000 H 
BRANCH   10   11
ATOM     11  C8  UNL A   1      33.837  21.340  58.022  1.00  0.00    +0.000 C 
ATOM     12  O2  UNL A   1      34.811  21.474  58.766  1.00  0.00    +0.000 O 
BRANCH   11   13
ATOM     13  C9  UNL A   1      32.516  20.761  58.547  1.00  0.00    +0.000 C 
ATOM    120  H15 UNL A   1      31.846  20.685  57.715  1.00  0.00    +0.000 H 
BRANCH   13   14
ATOM    121  H16 UNL A   1      32.352  21.647  60.492  1.00  0.00    +0.000 H 
ATOM    122  H17 UNL A   1      30.819  21.416  59.674  1.00  0.00    +0.000 H 
ATOM     14  C10 UNL A   1      31.842  21.707  59.553  1.00  0.00    +0.000 C 
BRANCH   14   15
ATOM    123  H18 UNL A   1      31.510  23.648  59.740  1.00  0.00    +0.000 H 
ATOM     15  O3  UNL A   1      31.891  23.055  59.074  1.00  0.00    +0.000 O 
ENDBRANCH   14   15
ENDBRANCH   13   14
BRANCH   13   16
ATOM    124  H19 UNL A   1      33.550  19.213  59.466  1.00  0.00    +0.000 H 
ATOM     16  N3  UNL A   1      32.675  19.398  59.054  1.00  0.00    +0.000 N 
BRANCH   16   17
ATOM     17  C11 UNL A   1      31.817  18.341  59.052  1.00  0.00    +0.000 C 
ATOM     18  O4  UNL A   1      32.361  17.249  59.262  1.00  0.00    +0.000 O 
BRANCH   17   19
ATOM     19  C12 UNL A   1      30.267  18.474  59.078  1.00  0.00    +0.000 C 
ATOM    125  H20 UNL A   1      30.090  19.393  59.599  1.00  0.00    +0.000 H 
BRANCH   19   20
ATOM     20  C13 UNL A   1      29.659  17.257  59.820  1.00  0.00    +0.000 C 
ATOM    126  H21 UNL A   1      30.289  16.409  59.646  1.00  0.00    +0.000 H 
ATOM    127  H22 UNL A   1      28.671  17.121  59.432  1.00  0.00    +0.000 H 
BRANCH   20   21
ATOM     21  S1  UNL A   1      29.493  17.493  61.625  1.00  0.00    +0.000 S 
ATOM    128  H23 UNL A   1      29.885  16.360  62.268  1.00  0.00    +0.000 H 
ENDBRANCH   20   21
ENDBRANCH   19   20
BRANCH   19   22
ATOM    129  H24 UNL A   1      29.151  17.878  57.457  1.00  0.00    +0.000 H 
ATOM     22  N4  UNL A   1      29.584  18.694  57.798  1.00  0.00    +0.000 N 
BRANCH   22   23
ATOM     23  C14 UNL A   1      29.409  19.757  56.971  1.00  0.00    +0.000 C 
ATOM     24  O5  UNL A   1      30.138  19.696  55.977  1.00  0.00    +0.000 O 
BRANCH   23   25
ATOM     25  C15 UNL A   1      28.321  20.862  57.114  1.00  0.00    +0.000 C 
ATOM    130  H25 UNL A   1      28.730  21.591  57.783  1.00  0.00    +0.000 H 
BRANCH   25   26
ATOM     26  C16 UNL A   1      26.984  20.311  57.700  1.00  0.00    +0.000 C 
ATOM    131  H26 UNL A   1      27.258  19.520  58.365  1.00  0.00    +0.000 H 
ATOM    132  H27 UNL A   1      26.434  20.097  56.807  1.00  0.00    +0.000 H 
BRANCH   26   27
ATOM    133  H28 UNL A   1      24.287  20.797  57.284  1.00  0.00    +0.000 H 
ATOM    134  H29 UNL A   1      22.861  22.429  58.350  1.00  0.00    +0.000 H 
ATOM    135  H30 UNL A   1      23.717  23.809  60.148  1.00  0.00    +0.000 H 
ATOM    136  H31 UNL A   1      26.002  23.507  60.905  1.00  0.00    +0.000 H 
ATOM    137  H32 UNL A   1      27.428  21.860  59.851  1.00  0.00    +0.000 H 
ATOM     27  C17 UNL A   1      25.990  21.174  58.463  1.00  0.00    +0.000 C 
ATOM     28  C18 UNL A   1      24.664  21.368  58.056  1.00  0.00    +0.000 C 
ATOM     29  C19 UNL A   1      23.837  22.315  58.669  1.00  0.00    +0.000 C 
ATOM     30  C20 UNL A   1      24.323  23.103  59.702  1.00  0.00    +0.000 C 
ATOM     31  C21 UNL A   1      25.634  22.931  60.132  1.00  0.00    +0.000 C 
ATOM     32  C22 UNL A   1      26.458  21.977  59.520  1.00  0.00    +0.000 C 
ENDBRANCH   26   27
ENDBRANCH   25   26
BRANCH   25   33
ATOM     33  N5  UNL A   1      28.006  21.450  55.800  1.00  0.00    +0.000 N 
ATOM    138  H33 UNL A   1      27.826  20.779  55.103  1.00  0.00    +0.000 H 
BRANCH   33   34
ATOM     34  C23 UNL A   1      27.913  22.741  55.353  1.00  0.00    +0.000 C 
ATOM     35  O6  UNL A   1      28.819  23.152  54.630  1.00  0.00    +0.000 O 
BRANCH   34   36
ATOM     36  C24 UNL A   1      26.831  23.683  55.750  1.00  0.00    +0.000 C 
ATOM     37  C25 UNL A   1      27.096  24.540  56.833  1.00  0.00    +0.000 C 
ATOM     38  C26 UNL A   1      26.096  25.368  57.351  1.00  0.00    +0.000 C 
ATOM     39  C27 UNL A   1      24.827  25.337  56.791  1.00  0.00    +0.000 C 
ATOM     40  F1  UNL A   1      23.860  26.113  57.296  1.00  0.00    +0.000 F 
ATOM     41  C28 UNL A   1      24.540  24.492  55.726  1.00  0.00    +0.000 C 
ATOM     42  C29 UNL A   1      25.540  23.660  55.210  1.00  0.00    +0.000 C 
ATOM    139  H34 UNL A   1      28.039  24.559  57.251  1.00  0.00    +0.000 H 
ATOM    140  H35 UNL A   1      26.300  25.998  58.144  1.00  0.00    +0.000 H 
ATOM    141  H36 UNL A   1      23.593  24.477  55.318  1.00  0.00    +0.000 H 
ATOM    142  H37 UNL A   1      25.323  23.024  54.427  1.00  0.00    +0.000 H 
ENDBRANCH   34   36
ENDBRANCH   33   34
ENDBRANCH   25   33
ENDBRANCH   23   25
ENDBRANCH   22   23
ENDBRANCH   19   22
ENDBRANCH   17   19
ENDBRANCH   16   17
ENDBRANCH   13   16
ENDBRANCH   11   13
ENDBRANCH   10   11
ENDBRANCH    9   10
ENDBRANCH    8    9
ENDBRANCH    7    8
ENDBRANCH    6    7
ENDBRANCH    5    6
ENDBRANCH    4    5
ENDBRANCH    3    4
ENDBRANCH    2    3
ENDBRANCH   43    2
ENDBRANCH   47   46
BRANCH   51   52
ATOM     52  C38 UNL A   1      43.667  13.473  45.466  1.00  0.00    +0.000 C 
ATOM     53  C39 UNL A   1      42.812  13.364  44.360  1.00  0.00    +0.000 C 
ATOM     54  F2  UNL A   1      42.274  14.463  43.811  1.00  0.00    +0.000 F 
ATOM     55  C40 UNL A   1      42.481  12.119  43.831  1.00  0.00    +0.000 C 
ATOM     56  F3  UNL A   1      41.634  12.035  42.796  1.00  0.00    +0.000 F 
ATOM     57  C41 UNL A   1      43.018  10.963  44.379  1.00  0.00    +0.000 C 
ATOM     58  F4  UNL A   1      42.705   9.767  43.865  1.00  0.00    +0.000 F 
ATOM     59  C42 UNL A   1      43.876  11.049  45.466  1.00  0.00    +0.000 C 
ATOM     60  F5  UNL A   1      44.404   9.935  45.991  1.00  0.00    +0.000 F 
ATOM     61  C43 UNL A   1      44.192  12.292  46.011  1.00  0.00    +0.000 C 
ATOM     62  F6  UNL A   1      45.017  12.342  47.067  1.00  0.00    +0.000 F 
ENDBRANCH   51   52
BRANCH   68   69
ATOM     69  C49 UNL A   1      48.711  18.503  44.350  1.00  0.00    +0.000 C 
ATOM     70  C50 UNL A   1      50.035  18.334  44.780  1.00  0.00    +0.000 C 
ATOM     71  F7  UNL A   1      50.293  17.990  46.051  1.00  0.00    +0.000 F 
ATOM     72  C51 UNL A   1      51.101  18.560  43.914  1.00  0.00    +0.000 C 
ATOM     73  F8  UNL A   1      52.359  18.437  44.357  1.00  0.00    +0.000 F 
ATOM     74  C52 UNL A   1      50.862  18.931  42.599  1.00  0.00    +0.000 C 
ATOM     75  F9  UNL A   1      51.889  19.149  41.767  1.00  0.00    +0.000 F 
ATOM     76  C53 UNL A   1      49.560  19.085  42.148  1.00  0.00    +0.000 C 
ATOM     77  F10 UNL A   1      49.328  19.436  40.876  1.00  0.00    +0.000 F 
ATOM     78  C54 UNL A   1      48.492  18.883  43.018  1.00  0.00    +0.000 C 
ATOM     79  F11 UNL A   1      47.242  19.053  42.561  1.00  0.00    +0.000 F 
ENDBRANCH   68   69
BRANCH   83   84
ATOM     84  C58 UNL A   1      46.089  22.236  49.605  1.00  0.00    +0.000 C 
ATOM     85  C59 UNL A   1      45.483  23.423  49.172  1.00  0.00    +0.000 C 
ATOM     86  F12 UNL A   1      44.605  23.396  48.160  1.00  0.00    +0.000 F 
ATOM     87  C60 UNL A   1      45.798  24.646  49.762  1.00  0.00    +0.000 C 
ATOM     88  F13 UNL A   1      45.229  25.771  49.310  1.00  0.00    +0.000 F 
ATOM     89  C61 UNL A   1      46.706  24.700  50.811  1.00  0.00    +0.000 C 
ATOM     90  F14 UNL A   1      46.999  25.874  51.385  1.00  0.00    +0.000 F 
ATOM     91  C62 UNL A   1      47.310  23.536  51.260  1.00  0.00    +0.000 C 
ATOM     92  F15 UNL A   1      48.175  23.582  52.283  1.00  0.00    +0.000 F 
ATOM     93  C63 UNL A   1      47.015  22.317  50.654  1.00  0.00    +0.000 C 
ATOM     94  F16 UNL A   1      47.616  21.206  51.107  1.00  0.00    +0.000 F 
ENDBRANCH   83   84
TORSDOF 30
ENDMDL
MODEL 6
REMARK VINA RESULT:      -8.2     27.104     36.015
ROOT
ATOM    145  H40 UNL A   1      11.601  53.494   5.314  1.00  0.00    +0.000 H 
ATOM    146  H41 UNL A   1      11.102  50.956   4.976  1.00  0.00    +0.000 H 
ATOM    147  H42 UNL A   1      14.302  51.986   2.558  1.00  0.00    +0.000 H 
ATOM    148  H43 UNL A   1      18.608  50.357  -1.851  1.00  0.00    +0.000 H 
ATOM    149  H44 UNL A   1      19.203  52.782  -1.394  1.00  0.00    +0.000 H 
ATOM    150  H45 UNL A   1      15.977  51.790   1.032  1.00  0.00    +0.000 H 
ATOM    151  H46 UNL A   1      15.081  46.921   0.195  1.00  0.00    +0.000 H 
ATOM    152  H47 UNL A   1      13.127  47.138   1.836  1.00  0.00    +0.000 H 
ATOM    153  H48 UNL A   1      15.342  56.827   3.371  1.00  0.00    +0.000 H 
ATOM    154  H49 UNL A   1      17.133  56.700   1.545  1.00  0.00    +0.000 H 
ATOM     47  C34 UNL A   1      17.469  54.088   0.449  1.00  0.00    +0.000 C 
ATOM     48  C35 UNL A   1      16.471  54.533   1.477  1.00  0.00    +0.000 C 
ATOM     49  N6  UNL A   1      15.542  53.833   2.080  1.00  0.00    +0.000 N 
ATOM     50  C36 UNL A   1      14.912  54.709   2.953  1.00  0.00    +0.000 C 
ATOM     51  C37 UNL A   1      13.871  54.464   3.786  1.00  0.00    +0.000 C 
ATOM     63  C44 UNL A   1      13.204  53.192   3.902  1.00  0.00    +0.000 C 
ATOM     64  C45 UNL A   1      12.119  52.854   4.691  1.00  0.00    +0.000 C 
ATOM     65  C46 UNL A   1      11.843  51.495   4.500  1.00  0.00    +0.000 C 
ATOM     66  C47 UNL A   1      12.732  50.995   3.563  1.00  0.00    +0.000 C 
ATOM     67  N7  UNL A   1      13.564  52.045   3.207  1.00  0.00    +0.000 N 
ATOM     68  C48 UNL A   1      12.818  49.660   3.032  1.00  0.00    +0.000 C 
ATOM     80  C55 UNL A   1      13.706  49.246   2.094  1.00  0.00    +0.000 C 
ATOM     81  N8  UNL A   1      14.703  49.971   1.461  1.00  0.00    +0.000 N 
ATOM     82  C56 UNL A   1      15.308  49.127   0.662  1.00  0.00    +0.000 C 
ATOM     83  C57 UNL A   1      16.460  49.368  -0.269  1.00  0.00    +0.000 C 
ATOM     95  C64 UNL A   1      17.010  50.593  -0.324  1.00  0.00    +0.000 C 
ATOM     96  C65 UNL A   1      18.129  50.976  -1.180  1.00  0.00    +0.000 C 
ATOM     97  C66 UNL A   1      18.432  52.261  -0.949  1.00  0.00    +0.000 C 
ATOM     98  C67 UNL A   1      17.492  52.807   0.033  1.00  0.00    +0.000 C 
ATOM     99  N9  UNL A   1      16.699  51.740   0.365  1.00  0.00    +0.000 N 
ATOM    100  C68 UNL A   1      14.768  47.762   0.705  1.00  0.00    +0.000 C 
ATOM    101  C69 UNL A   1      13.773  47.898   1.570  1.00  0.00    +0.000 C 
ATOM    102  C70 UNL A   1      15.575  55.988   2.818  1.00  0.00    +0.000 C 
ATOM    103  C71 UNL A   1      16.522  55.943   1.888  1.00  0.00    +0.000 C 
ENDROOT
BRANCH   47   46
ATOM    104  C72 UNL A   1      18.203  55.611  -1.413  1.00  0.00    +0.000 C 
ATOM    105  C73 UNL A   1      19.111  56.531  -1.945  1.00  0.00    +0.000 C 
ATOM     43  C30 UNL A   1      20.229  56.913  -1.198  1.00  0.00    +0.000 C 
ATOM     44  C31 UNL A   1      20.421  56.407   0.091  1.00  0.00    +0.000 C 
ATOM     45  C32 UNL A   1      19.558  55.436   0.589  1.00  0.00    +0.000 C 
ATOM     46  C33 UNL A   1      18.433  55.042  -0.152  1.00  0.00    +0.000 C 
ATOM    143  H38 UNL A   1      21.201  56.751   0.672  1.00  0.00    +0.000 H 
ATOM    144  H39 UNL A   1      19.747  55.003   1.506  1.00  0.00    +0.000 H 
ATOM    155  H50 UNL A   1      17.362  55.349  -1.951  1.00  0.00    +0.000 H 
ATOM    156  H51 UNL A   1      18.955  56.928  -2.885  1.00  0.00    +0.000 H 
BRANCH   43    2
ATOM      1  O1  UNL A   1      21.179  58.094  -2.988  1.00  0.00    +0.000 O 
ATOM      2  C1  UNL A   1      21.195  57.867  -1.783  1.00  0.00    +0.000 C 
BRANCH    2    3
ATOM    106  H1  UNL A   1      21.742  59.035  -0.245  1.00  0.00    +0.000 H 
ATOM      3  N1  UNL A   1      22.113  58.483  -0.971  1.00  0.00    +0.000 N 
BRANCH    3    4
ATOM    108  H3  UNL A   1      23.886  57.547  -0.527  1.00  0.00    +0.000 H 
ATOM    107  H2  UNL A   1      23.856  58.396  -2.075  1.00  0.00    +0.000 H 
ATOM      4  C2  UNL A   1      23.563  58.425  -1.046  1.00  0.00    +0.000 C 
BRANCH    4    5
ATOM    109  H4  UNL A   1      24.589  59.326   0.572  1.00  0.00    +0.000 H 
ATOM      5  C3  UNL A   1      24.215  59.629  -0.384  1.00  0.00    +0.000 C 
ATOM    110  H5  UNL A   1      23.462  60.386  -0.313  1.00  0.00    +0.000 H 
BRANCH    5    6
ATOM      6  C4  UNL A   1      25.372  60.236  -1.180  1.00  0.00    +0.000 C 
ATOM    111  H6  UNL A   1      25.004  61.100  -1.693  1.00  0.00    +0.000 H 
ATOM    112  H7  UNL A   1      25.718  59.467  -1.837  1.00  0.00    +0.000 H 
BRANCH    6    7
ATOM    113  H8  UNL A   1      27.037  59.778   0.057  1.00  0.00    +0.000 H 
ATOM    114  H9  UNL A   1      26.207  61.325   0.408  1.00  0.00    +0.000 H 
ATOM      7  C5  UNL A   1      26.583  60.661  -0.342  1.00  0.00    +0.000 C 
BRANCH    7    8
ATOM    115  H10 UNL A   1      27.221  61.850  -1.991  1.00  0.00    +0.000 H 
ATOM    116  H11 UNL A   1      28.455  60.762  -1.313  1.00  0.00    +0.000 H 
ATOM      8  C6  UNL A   1      27.662  61.447  -1.103  1.00  0.00    +0.000 C 
BRANCH    8    9
ATOM      9  C7  UNL A   1      28.269  62.599  -0.301  1.00  0.00    +0.000 C 
ATOM    117  H12 UNL A   1      27.536  62.976   0.381  1.00  0.00    +0.000 H 
ATOM    118  H13 UNL A   1      28.574  63.367  -0.980  1.00  0.00    +0.000 H 
BRANCH    9   10
ATOM     10  N2  UNL A   1      29.425  62.149   0.445  1.00  0.00    +0.000 N 
ATOM    119  H14 UNL A   1      29.310  61.319   0.963  1.00  0.00    +0.000 H 
BRANCH   10   11
ATOM     11  C8  UNL A   1      30.653  62.736   0.516  1.00  0.00    +0.000 C 
ATOM     12  O2  UNL A   1      31.179  63.106  -0.535  1.00  0.00    +0.000 O 
BRANCH   11   13
ATOM     13  C9  UNL A   1      31.362  62.926   1.864  1.00  0.00    +0.000 C 
ATOM    120  H15 UNL A   1      32.416  62.928   1.674  1.00  0.00    +0.000 H 
BRANCH   13   14
ATOM    121  H16 UNL A   1      30.373  61.095   2.378  1.00  0.00    +0.000 H 
ATOM    122  H17 UNL A   1      30.740  62.125   3.748  1.00  0.00    +0.000 H 
ATOM     14  C10 UNL A   1      31.101  61.747   2.815  1.00  0.00    +0.000 C 
BRANCH   14   15
ATOM    123  H18 UNL A   1      32.109  60.073   3.120  1.00  0.00    +0.000 H 
ATOM     15  O3  UNL A   1      32.312  61.017   3.042  1.00  0.00    +0.000 O 
ENDBRANCH   14   15
ENDBRANCH   13   14
BRANCH   13   16
ATOM    124  H19 UNL A   1      31.747  64.552   3.096  1.00  0.00    +0.000 H 
ATOM     16  N3  UNL A   1      31.065  64.227   2.464  1.00  0.00    +0.000 N 
BRANCH   16   17
ATOM     17  C11 UNL A   1      30.006  65.064   2.296  1.00  0.00    +0.000 C 
ATOM     18  O4  UNL A   1      29.071  64.861   3.083  1.00  0.00    +0.000 O 
BRANCH   17   19
ATOM     19  C12 UNL A   1      30.036  66.345   1.413  1.00  0.00    +0.000 C 
ATOM    125  H20 UNL A   1      29.682  66.015   0.458  1.00  0.00    +0.000 H 
BRANCH   19   20
ATOM     20  C13 UNL A   1      31.487  66.885   1.342  1.00  0.00    +0.000 C 
ATOM    126  H21 UNL A   1      32.151  66.052   1.246  1.00  0.00    +0.000 H 
ATOM    127  H22 UNL A   1      31.654  67.442   2.241  1.00  0.00    +0.000 H 
BRANCH   20   21
ATOM     21  S1  UNL A   1      31.788  68.028  -0.053  1.00  0.00    +0.000 S 
ATOM    128  H23 UNL A   1      30.700  68.041  -0.871  1.00  0.00    +0.000 H 
ENDBRANCH   20   21
ENDBRANCH   19   20
BRANCH   19   22
ATOM    129  H24 UNL A   1      28.365  67.500   1.096  1.00  0.00    +0.000 H 
ATOM     22  N4  UNL A   1      29.098  67.423   1.749  1.00  0.00    +0.000 N 
BRANCH   22   23
ATOM     23  C14 UNL A   1      29.004  68.339   2.747  1.00  0.00    +0.000 C 
ATOM     24  O5  UNL A   1      29.596  69.386   2.472  1.00  0.00    +0.000 O 
BRANCH   23   25
ATOM     25  C15 UNL A   1      28.132  68.212   4.031  1.00  0.00    +0.000 C 
ATOM    130  H25 UNL A   1      28.702  67.617   4.714  1.00  0.00    +0.000 H 
BRANCH   25   26
ATOM     26  C16 UNL A   1      26.761  67.518   3.755  1.00  0.00    +0.000 C 
ATOM    131  H26 UNL A   1      26.929  66.852   2.935  1.00  0.00    +0.000 H 
ATOM    132  H27 UNL A   1      26.116  68.364   3.638  1.00  0.00    +0.000 H 
BRANCH   26   27
ATOM    133  H28 UNL A   1      24.209  67.801   4.798  1.00  0.00    +0.000 H 
ATOM    134  H29 UNL A   1      23.213  66.673   6.687  1.00  0.00    +0.000 H 
ATOM    135  H30 UNL A   1      24.428  64.927   7.847  1.00  0.00    +0.000 H 
ATOM    136  H31 UNL A   1      26.633  64.284   7.068  1.00  0.00    +0.000 H 
ATOM    137  H32 UNL A   1      27.628  65.399   5.164  1.00  0.00    +0.000 H 
ATOM     27  C17 UNL A   1      26.010  66.710   4.803  1.00  0.00    +0.000 C 
ATOM     28  C18 UNL A   1      24.736  67.052   5.274  1.00  0.00    +0.000 C 
ATOM     29  C19 UNL A   1      24.157  66.403   6.369  1.00  0.00    +0.000 C 
ATOM     30  C20 UNL A   1      24.849  65.400   7.032  1.00  0.00    +0.000 C 
ATOM     31  C21 UNL A   1      26.115  65.034   6.585  1.00  0.00    +0.000 C 
ATOM     32  C22 UNL A   1      26.688  65.682   5.484  1.00  0.00    +0.000 C 
ENDBRANCH   26   27
ENDBRANCH   25   26
BRANCH   25   33
ATOM     33  N5  UNL A   1      27.836  69.543   4.588  1.00  0.00    +0.000 N 
ATOM    138  H33 UNL A   1      27.528  70.191   3.914  1.00  0.00    +0.000 H 
BRANCH   33   34
ATOM     34  C23 UNL A   1      27.903  70.061   5.853  1.00  0.00    +0.000 C 
ATOM     35  O6  UNL A   1      28.496  71.130   5.993  1.00  0.00    +0.000 O 
BRANCH   34   36
ATOM     36  C24 UNL A   1      27.372  69.375   7.064  1.00  0.00    +0.000 C 
ATOM     37  C25 UNL A   1      28.164  68.354   7.618  1.00  0.00    +0.000 C 
ATOM     38  C26 UNL A   1      27.688  67.575   8.677  1.00  0.00    +0.000 C 
ATOM     39  C27 UNL A   1      26.416  67.811   9.179  1.00  0.00    +0.000 C 
ATOM     40  F1  UNL A   1      25.948  67.055  10.180  1.00  0.00    +0.000 F 
ATOM     41  C28 UNL A   1      25.613  68.809   8.641  1.00  0.00    +0.000 C 
ATOM     42  C29 UNL A   1      26.088  69.586   7.578  1.00  0.00    +0.000 C 
ATOM    139  H34 UNL A   1      29.107  68.177   7.240  1.00  0.00    +0.000 H 
ATOM    140  H35 UNL A   1      28.277  66.830   9.081  1.00  0.00    +0.000 H 
ATOM    141  H36 UNL A   1      24.669  68.975   9.023  1.00  0.00    +0.000 H 
ATOM    142  H37 UNL A   1      25.487  70.319   7.172  1.00  0.00    +0.000 H 
ENDBRANCH   34   36
ENDBRANCH   33   34
ENDBRANCH   25   33
ENDBRANCH   23   25
ENDBRANCH   22   23
ENDBRANCH   19   22
ENDBRANCH   17   19
ENDBRANCH   16   17
ENDBRANCH   13   16
ENDBRANCH   11   13
ENDBRANCH   10   11
ENDBRANCH    9   10
ENDBRANCH    8    9
ENDBRANCH    7    8
ENDBRANCH    6    7
ENDBRANCH    5    6
ENDBRANCH    4    5
ENDBRANCH    3    4
ENDBRANCH    2    3
ENDBRANCH   43    2
ENDBRANCH   47   46
BRANCH   51   52
ATOM     52  C38 UNL A   1      13.393  55.592   4.651  1.00  0.00    +0.000 C 
ATOM     53  C39 UNL A   1      13.961  55.845   5.907  1.00  0.00    +0.000 C 
ATOM     54  F2  UNL A   1      14.916  55.038   6.392  1.00  0.00    +0.000 F 
ATOM     55  C40 UNL A   1      13.528  56.916   6.686  1.00  0.00    +0.000 C 
ATOM     56  F3  UNL A   1      14.061  57.119   7.899  1.00  0.00    +0.000 F 
ATOM     57  C41 UNL A   1      12.540  57.767   6.214  1.00  0.00    +0.000 C 
ATOM     58  F4  UNL A   1      12.130  58.801   6.961  1.00  0.00    +0.000 F 
ATOM     59  C42 UNL A   1      11.973  57.542   4.968  1.00  0.00    +0.000 C 
ATOM     60  F5  UNL A   1      11.025  58.369   4.506  1.00  0.00    +0.000 F 
ATOM     61  C43 UNL A   1      12.389  56.459   4.196  1.00  0.00    +0.000 C 
ATOM     62  F6  UNL A   1      11.815  56.263   3.000  1.00  0.00    +0.000 F 
ENDBRANCH   51   52
BRANCH   68   69
ATOM     69  C49 UNL A   1      11.842  48.639   3.534  1.00  0.00    +0.000 C 
ATOM     70  C50 UNL A   1      12.098  47.895   4.695  1.00  0.00    +0.000 C 
ATOM     71  F7  UNL A   1      13.250  48.060   5.362  1.00  0.00    +0.000 F 
ATOM     72  C51 UNL A   1      11.186  46.946   5.149  1.00  0.00    +0.000 C 
ATOM     73  F8  UNL A   1      11.469  46.213   6.234  1.00  0.00    +0.000 F 
ATOM     74  C52 UNL A   1       9.994  46.746   4.469  1.00  0.00    +0.000 C 
ATOM     75  F9  UNL A   1       9.117  45.832   4.907  1.00  0.00    +0.000 F 
ATOM     76  C53 UNL A   1       9.713  47.486   3.330  1.00  0.00    +0.000 C 
ATOM     77  F10 UNL A   1       8.558  47.298   2.676  1.00  0.00    +0.000 F 
ATOM     78  C54 UNL A   1      10.633  48.418   2.859  1.00  0.00    +0.000 C 
ATOM     79  F11 UNL A   1      10.344  49.110   1.746  1.00  0.00    +0.000 F 
ENDBRANCH   68   69
BRANCH   83   84
ATOM     84  C58 UNL A   1      16.993  48.286  -1.132  1.00  0.00    +0.000 C 
ATOM     85  C59 UNL A   1      16.361  47.949  -2.337  1.00  0.00    +0.000 C 
ATOM     86  F12 UNL A   1      15.233  48.576  -2.699  1.00  0.00    +0.000 F 
ATOM     87  C60 UNL A   1      16.872  46.949  -3.160  1.00  0.00    +0.000 C 
ATOM     88  F13 UNL A   1      16.233  46.624  -4.292  1.00  0.00    +0.000 F 
ATOM     89  C61 UNL A   1      18.038  46.284  -2.806  1.00  0.00    +0.000 C 
ATOM     90  F14 UNL A   1      18.536  45.330  -3.604  1.00  0.00    +0.000 F 
ATOM     91  C62 UNL A   1      18.684  46.607  -1.623  1.00  0.00    +0.000 C 
ATOM     92  F15 UNL A   1      19.818  45.978  -1.285  1.00  0.00    +0.000 F 
ATOM     93  C63 UNL A   1      18.159  47.589  -0.787  1.00  0.00    +0.000 C 
ATOM     94  F16 UNL A   1      18.803  47.881   0.354  1.00  0.00    +0.000 F 
ENDBRANCH   83   84
TORSDOF 30
ENDMDL
MODEL 7
REMARK VINA RESULT:      -8.2     24.892     33.165
ROOT
ATOM    145  H40 UNL A   1      14.973  46.693   0.733  1.00  0.00    +0.000 H 
ATOM    146  H41 UNL A   1      13.271  46.377   2.684  1.00  0.00    +0.000 H 
ATOM    147  H42 UNL A   1      14.753  50.239   2.863  1.00  0.00    +0.000 H 
ATOM    148  H43 UNL A   1      15.021  55.893   5.796  1.00  0.00    +0.000 H 
ATOM    149  H44 UNL A   1      16.546  56.254   3.797  1.00  0.00    +0.000 H 
ATOM    150  H45 UNL A   1      15.095  52.364   3.598  1.00  0.00    +0.000 H 
ATOM    151  H46 UNL A   1      11.923  51.885   7.460  1.00  0.00    +0.000 H 
ATOM    152  H47 UNL A   1      11.593  49.458   6.712  1.00  0.00    +0.000 H 
ATOM    153  H48 UNL A   1      17.885  50.860  -1.007  1.00  0.00    +0.000 H 
ATOM    154  H49 UNL A   1      18.428  53.205  -0.130  1.00  0.00    +0.000 H 
ATOM     47  C34 UNL A   1      16.912  53.947   2.170  1.00  0.00    +0.000 C 
ATOM     48  C35 UNL A   1      16.900  52.634   1.445  1.00  0.00    +0.000 C 
ATOM     49  N6  UNL A   1      16.209  51.553   1.710  1.00  0.00    +0.000 N 
ATOM     50  C36 UNL A   1      16.544  50.635   0.725  1.00  0.00    +0.000 C 
ATOM     51  C37 UNL A   1      16.107  49.361   0.578  1.00  0.00    +0.000 C 
ATOM     63  C44 UNL A   1      15.183  48.709   1.471  1.00  0.00    +0.000 C 
ATOM     64  C45 UNL A   1      14.707  47.411   1.426  1.00  0.00    +0.000 C 
ATOM     65  C46 UNL A   1      13.803  47.237   2.481  1.00  0.00    +0.000 C 
ATOM     66  C47 UNL A   1      13.745  48.416   3.206  1.00  0.00    +0.000 C 
ATOM     67  N7  UNL A   1      14.593  49.312   2.573  1.00  0.00    +0.000 N 
ATOM     68  C48 UNL A   1      12.973  48.705   4.386  1.00  0.00    +0.000 C 
ATOM     80  C55 UNL A   1      12.983  49.881   5.059  1.00  0.00    +0.000 C 
ATOM     81  N8  UNL A   1      13.696  51.037   4.779  1.00  0.00    +0.000 N 
ATOM     82  C56 UNL A   1      13.350  51.904   5.699  1.00  0.00    +0.000 C 
ATOM     83  C57 UNL A   1      13.815  53.318   5.888  1.00  0.00    +0.000 C 
ATOM     95  C64 UNL A   1      14.693  53.839   5.013  1.00  0.00    +0.000 C 
ATOM     96  C65 UNL A   1      15.234  55.193   5.069  1.00  0.00    +0.000 C 
ATOM     97  C66 UNL A   1      16.052  55.377   4.023  1.00  0.00    +0.000 C 
ATOM     98  C67 UNL A   1      16.132  54.135   3.252  1.00  0.00    +0.000 C 
ATOM     99  N9  UNL A   1      15.276  53.283   3.900  1.00  0.00    +0.000 N 
ATOM    100  C68 UNL A   1      12.366  51.397   6.665  1.00  0.00    +0.000 C 
ATOM    101  C69 UNL A   1      12.202  50.150   6.248  1.00  0.00    +0.000 C 
ATOM    102  C70 UNL A   1      17.485  51.290  -0.159  1.00  0.00    +0.000 C 
ATOM    103  C71 UNL A   1      17.769  52.516   0.265  1.00  0.00    +0.000 C 
ENDROOT
BRANCH   47   46
ATOM    104  C72 UNL A   1      19.053  55.259   2.323  1.00  0.00    +0.000 C 
ATOM    105  C73 UNL A   1      19.879  56.294   1.876  1.00  0.00    +0.000 C 
ATOM     43  C30 UNL A   1      19.464  57.103   0.815  1.00  0.00    +0.000 C 
ATOM     44  C31 UNL A   1      18.245  56.857   0.177  1.00  0.00    +0.000 C 
ATOM     45  C32 UNL A   1      17.392  55.876   0.670  1.00  0.00    +0.000 C 
ATOM     46  C33 UNL A   1      17.795  55.058   1.737  1.00  0.00    +0.000 C 
ATOM    143  H38 UNL A   1      17.978  57.402  -0.657  1.00  0.00    +0.000 H 
ATOM    144  H39 UNL A   1      16.458  55.750   0.250  1.00  0.00    +0.000 H 
ATOM    155  H50 UNL A   1      19.369  54.642   3.088  1.00  0.00    +0.000 H 
ATOM    156  H51 UNL A   1      20.793  56.458   2.328  1.00  0.00    +0.000 H 
BRANCH   43    2
ATOM      1  O1  UNL A   1      21.547  58.037   0.275  1.00  0.00    +0.000 O 
ATOM      2  C1  UNL A   1      20.337  58.211   0.370  1.00  0.00    +0.000 C 
BRANCH    2    3
ATOM    106  H1  UNL A   1      18.800  59.464   0.059  1.00  0.00    +0.000 H 
ATOM      3  N1  UNL A   1      19.783  59.432   0.078  1.00  0.00    +0.000 N 
BRANCH    3    4
ATOM    108  H3  UNL A   1      19.876  61.479   0.199  1.00  0.00    +0.000 H 
ATOM    107  H2  UNL A   1      21.438  60.657   0.237  1.00  0.00    +0.000 H 
ATOM      4  C2  UNL A   1      20.464  60.683  -0.207  1.00  0.00    +0.000 C 
BRANCH    4    5
ATOM    109  H4  UNL A   1      20.548  61.975  -1.882  1.00  0.00    +0.000 H 
ATOM      5  C3  UNL A   1      20.613  60.922  -1.702  1.00  0.00    +0.000 C 
ATOM    110  H5  UNL A   1      19.830  60.371  -2.180  1.00  0.00    +0.000 H 
BRANCH    5    6
ATOM      6  C4  UNL A   1      21.929  60.414  -2.293  1.00  0.00    +0.000 C 
ATOM    111  H6  UNL A   1      22.455  59.885  -1.525  1.00  0.00    +0.000 H 
ATOM    112  H7  UNL A   1      22.451  61.278  -2.647  1.00  0.00    +0.000 H 
BRANCH    6    7
ATOM    113  H8  UNL A   1      22.715  58.976  -3.644  1.00  0.00    +0.000 H 
ATOM    114  H9  UNL A   1      21.497  60.100  -4.322  1.00  0.00    +0.000 H 
ATOM      7  C5  UNL A   1      21.782  59.479  -3.499  1.00  0.00    +0.000 C 
BRANCH    7    8
ATOM    115  H10 UNL A   1      19.732  58.899  -3.451  1.00  0.00    +0.000 H 
ATOM    116  H11 UNL A   1      20.821  57.938  -2.421  1.00  0.00    +0.000 H 
ATOM      8  C6  UNL A   1      20.683  58.414  -3.370  1.00  0.00    +0.000 C 
BRANCH    8    9
ATOM      9  C7  UNL A   1      20.758  57.317  -4.432  1.00  0.00    +0.000 C 
ATOM    117  H12 UNL A   1      20.955  57.764  -5.384  1.00  0.00    +0.000 H 
ATOM    118  H13 UNL A   1      19.824  56.795  -4.453  1.00  0.00    +0.000 H 
BRANCH    9   10
ATOM     10  N2  UNL A   1      21.812  56.375  -4.122  1.00  0.00    +0.000 N 
ATOM    119  H14 UNL A   1      21.730  55.900  -3.264  1.00  0.00    +0.000 H 
BRANCH   10   11
ATOM     11  C8  UNL A   1      22.906  56.068  -4.876  1.00  0.00    +0.000 C 
ATOM     12  O2  UNL A   1      22.737  55.386  -5.888  1.00  0.00    +0.000 O 
BRANCH   11   13
ATOM     13  C9  UNL A   1      24.306  56.553  -4.473  1.00  0.00    +0.000 C 
ATOM    120  H15 UNL A   1      25.016  55.911  -4.951  1.00  0.00    +0.000 H 
BRANCH   13   14
ATOM    121  H16 UNL A   1      25.519  55.995  -2.796  1.00  0.00    +0.000 H 
ATOM    122  H17 UNL A   1      23.800  55.756  -2.553  1.00  0.00    +0.000 H 
ATOM     14  C10 UNL A   1      24.545  56.406  -2.962  1.00  0.00    +0.000 C 
BRANCH   14   15
ATOM    123  H18 UNL A   1      24.713  58.377  -2.947  1.00  0.00    +0.000 H 
ATOM     15  O3  UNL A   1      24.455  57.683  -2.321  1.00  0.00    +0.000 O 
ENDBRANCH   14   15
ENDBRANCH   13   14
BRANCH   13   16
ATOM    124  H19 UNL A   1      24.551  58.606  -4.290  1.00  0.00    +0.000 H 
ATOM     16  N3  UNL A   1      24.588  57.898  -4.974  1.00  0.00    +0.000 N 
BRANCH   16   17
ATOM     17  C11 UNL A   1      24.892  58.337  -6.226  1.00  0.00    +0.000 C 
ATOM     18  O4  UNL A   1      23.979  58.969  -6.775  1.00  0.00    +0.000 O 
BRANCH   17   19
ATOM     19  C12 UNL A   1      26.324  58.322  -6.833  1.00  0.00    +0.000 C 
ATOM    125  H20 UNL A   1      26.217  58.820  -7.774  1.00  0.00    +0.000 H 
BRANCH   19   20
ATOM     20  C13 UNL A   1      26.794  56.855  -7.001  1.00  0.00    +0.000 C 
ATOM    126  H21 UNL A   1      26.853  56.407  -6.031  1.00  0.00    +0.000 H 
ATOM    127  H22 UNL A   1      27.743  56.889  -7.496  1.00  0.00    +0.000 H 
BRANCH   20   21
ATOM     21  S1  UNL A   1      25.690  55.834  -8.041  1.00  0.00    +0.000 S 
ATOM    128  H23 UNL A   1      26.407  55.283  -9.058  1.00  0.00    +0.000 H 
ENDBRANCH   20   21
ENDBRANCH   19   20
BRANCH   19   22
ATOM    129  H24 UNL A   1      28.187  58.616  -6.015  1.00  0.00    +0.000 H 
ATOM     22  N4  UNL A   1      27.355  59.121  -6.161  1.00  0.00    +0.000 N 
BRANCH   22   23
ATOM     23  C14 UNL A   1      27.431  60.394  -5.691  1.00  0.00    +0.000 C 
ATOM     24  O5  UNL A   1      27.468  61.222  -6.604  1.00  0.00    +0.000 O 
BRANCH   23   25
ATOM     25  C15 UNL A   1      27.317  60.831  -4.201  1.00  0.00    +0.000 C 
ATOM    130  H25 UNL A   1      27.691  60.010  -3.626  1.00  0.00    +0.000 H 
BRANCH   25   26
ATOM     26  C16 UNL A   1      25.845  61.134  -3.778  1.00  0.00    +0.000 C 
ATOM    131  H26 UNL A   1      25.276  60.273  -4.059  1.00  0.00    +0.000 H 
ATOM    132  H27 UNL A   1      25.675  62.072  -4.263  1.00  0.00    +0.000 H 
BRANCH   26   27
ATOM    133  H28 UNL A   1      24.598  63.357  -2.691  1.00  0.00    +0.000 H 
ATOM    134  H29 UNL A   1      24.279  63.927  -0.365  1.00  0.00    +0.000 H 
ATOM    135  H30 UNL A   1      24.957  62.382   1.374  1.00  0.00    +0.000 H 
ATOM    136  H31 UNL A   1      25.913  60.238   0.765  1.00  0.00    +0.000 H 
ATOM    137  H32 UNL A   1      26.218  59.656  -1.564  1.00  0.00    +0.000 H 
ATOM     27  C17 UNL A   1      25.438  61.457  -2.348  1.00  0.00    +0.000 C 
ATOM     28  C18 UNL A   1      24.882  62.683  -1.962  1.00  0.00    +0.000 C 
ATOM     29  C19 UNL A   1      24.699  63.017  -0.617  1.00  0.00    +0.000 C 
ATOM     30  C20 UNL A   1      25.081  62.133   0.381  1.00  0.00    +0.000 C 
ATOM     31  C21 UNL A   1      25.633  60.905   0.030  1.00  0.00    +0.000 C 
ATOM     32  C22 UNL A   1      25.809  60.571  -1.319  1.00  0.00    +0.000 C 
ENDBRANCH   26   27
ENDBRANCH   25   26
BRANCH   25   33
ATOM     33  N5  UNL A   1      28.094  62.059  -3.963  1.00  0.00    +0.000 N 
ATOM    138  H33 UNL A   1      27.823  62.813  -4.534  1.00  0.00    +0.000 H 
BRANCH   33   34
ATOM     34  C23 UNL A   1      29.119  62.363  -3.106  1.00  0.00    +0.000 C 
ATOM     35  O6  UNL A   1      30.263  62.131  -3.493  1.00  0.00    +0.000 O 
BRANCH   34   36
ATOM     36  C24 UNL A   1      28.923  62.881  -1.724  1.00  0.00    +0.000 C 
ATOM     37  C25 UNL A   1      29.301  62.036  -0.666  1.00  0.00    +0.000 C 
ATOM     38  C26 UNL A   1      29.038  62.390   0.661  1.00  0.00    +0.000 C 
ATOM     39  C27 UNL A   1      28.391  63.587   0.932  1.00  0.00    +0.000 C 
ATOM     40  F1  UNL A   1      28.119  63.921   2.199  1.00  0.00    +0.000 F 
ATOM     41  C28 UNL A   1      28.000  64.433  -0.098  1.00  0.00    +0.000 C 
ATOM     42  C29 UNL A   1      28.260  64.077  -1.427  1.00  0.00    +0.000 C 
ATOM    139  H34 UNL A   1      29.778  61.145  -0.870  1.00  0.00    +0.000 H 
ATOM    140  H35 UNL A   1      29.323  61.766   1.432  1.00  0.00    +0.000 H 
ATOM    141  H36 UNL A   1      27.520  65.321   0.115  1.00  0.00    +0.000 H 
ATOM    142  H37 UNL A   1      27.960  64.701  -2.192  1.00  0.00    +0.000 H 
ENDBRANCH   34   36
ENDBRANCH   33   34
ENDBRANCH   25   33
ENDBRANCH   23   25
ENDBRANCH   22   23
ENDBRANCH   19   22
ENDBRANCH   17   19
ENDBRANCH   16   17
ENDBRANCH   13   16
ENDBRANCH   11   13
ENDBRANCH   10   11
ENDBRANCH    9   10
ENDBRANCH    8    9
ENDBRANCH    7    8
ENDBRANCH    6    7
ENDBRANCH    5    6
ENDBRANCH    4    5
ENDBRANCH    3    4
ENDBRANCH    2    3
ENDBRANCH   43    2
ENDBRANCH   47   46
BRANCH   51   52
ATOM     52  C38 UNL A   1      16.611  48.585  -0.603  1.00  0.00    +0.000 C 
ATOM     53  C39 UNL A   1      17.882  47.992  -0.604  1.00  0.00    +0.000 C 
ATOM     54  F2  UNL A   1      18.706  48.158   0.442  1.00  0.00    +0.000 F 
ATOM     55  C40 UNL A   1      18.324  47.248  -1.695  1.00  0.00    +0.000 C 
ATOM     56  F3  UNL A   1      19.556  46.720  -1.690  1.00  0.00    +0.000 F 
ATOM     57  C41 UNL A   1      17.497  47.061  -2.793  1.00  0.00    +0.000 C 
ATOM     58  F4  UNL A   1      17.921  46.339  -3.839  1.00  0.00    +0.000 F 
ATOM     59  C42 UNL A   1      16.231  47.628  -2.808  1.00  0.00    +0.000 C 
ATOM     60  F5  UNL A   1      15.427  47.441  -3.863  1.00  0.00    +0.000 F 
ATOM     61  C43 UNL A   1      15.794  48.391  -1.727  1.00  0.00    +0.000 C 
ATOM     62  F6  UNL A   1      14.569  48.934  -1.775  1.00  0.00    +0.000 F 
ENDBRANCH   51   52
BRANCH   68   69
ATOM     69  C49 UNL A   1      12.097  47.620   4.936  1.00  0.00    +0.000 C 
ATOM     70  C50 UNL A   1      10.767  47.475   4.517  1.00  0.00    +0.000 C 
ATOM     71  F7  UNL A   1      10.239  48.336   3.634  1.00  0.00    +0.000 F 
ATOM     72  C51 UNL A   1       9.961  46.466   5.039  1.00  0.00    +0.000 C 
ATOM     73  F8  UNL A   1       8.679  46.372   4.659  1.00  0.00    +0.000 F 
ATOM     74  C52 UNL A   1      10.478  45.572   5.964  1.00  0.00    +0.000 C 
ATOM     75  F9  UNL A   1       9.701  44.602   6.465  1.00  0.00    +0.000 F 
ATOM     76  C53 UNL A   1      11.796  45.687   6.377  1.00  0.00    +0.000 C 
ATOM     77  F10 UNL A   1      12.299  44.819   7.266  1.00  0.00    +0.000 F 
ATOM     78  C54 UNL A   1      12.598  46.708   5.875  1.00  0.00    +0.000 C 
ATOM     79  F11 UNL A   1      13.866  46.807   6.303  1.00  0.00    +0.000 F 
ENDBRANCH   68   69
BRANCH   83   84
ATOM     84  C58 UNL A   1      13.333  54.144   7.022  1.00  0.00    +0.000 C 
ATOM     85  C59 UNL A   1      13.986  54.113   8.262  1.00  0.00    +0.000 C 
ATOM     86  F12 UNL A   1      15.031  53.295   8.448  1.00  0.00    +0.000 F 
ATOM     87  C60 UNL A   1      13.548  54.904   9.322  1.00  0.00    +0.000 C 
ATOM     88  F13 UNL A   1      14.170  54.835  10.506  1.00  0.00    +0.000 F 
ATOM     89  C61 UNL A   1      12.467  55.758   9.154  1.00  0.00    +0.000 C 
ATOM     90  F14 UNL A   1      12.056  56.528  10.170  1.00  0.00    +0.000 F 
ATOM     91  C62 UNL A   1      11.813  55.810   7.933  1.00  0.00    +0.000 C 
ATOM     92  F15 UNL A   1      10.778  56.645   7.762  1.00  0.00    +0.000 F 
ATOM     93  C63 UNL A   1      12.233  55.000   6.881  1.00  0.00    +0.000 C 
ATOM     94  F16 UNL A   1      11.580  55.068   5.711  1.00  0.00    +0.000 F 
ENDBRANCH   83   84
TORSDOF 30
ENDMDL
MODEL 8
REMARK VINA RESULT:      -8.1     36.795     43.301
ROOT
ATOM    145  H40 UNL A   1      31.032  65.976   2.611  1.00  0.00    +0.000 H 
ATOM    146  H41 UNL A   1      29.680  67.419   4.312  1.00  0.00    +0.000 H 
ATOM    147  H42 UNL A   1      27.088  64.708   2.557  1.00  0.00    +0.000 H 
ATOM    148  H43 UNL A   1      21.184  62.410   1.856  1.00  0.00    +0.000 H 
ATOM    149  H44 UNL A   1      22.532  60.893   0.330  1.00  0.00    +0.000 H 
ATOM    150  H45 UNL A   1      25.158  63.613   2.056  1.00  0.00    +0.000 H 
ATOM    151  H46 UNL A   1      22.396  66.369   5.216  1.00  0.00    +0.000 H 
ATOM    152  H47 UNL A   1      24.534  67.682   5.725  1.00  0.00    +0.000 H 
ATOM    153  H48 UNL A   1      29.761  61.838  -0.573  1.00  0.00    +0.000 H 
ATOM    154  H49 UNL A   1      27.591  60.682  -1.291  1.00  0.00    +0.000 H 
ATOM     47  C34 UNL A   1      25.292  61.570   0.145  1.00  0.00    +0.000 C 
ATOM     48  C35 UNL A   1      26.699  62.077   0.258  1.00  0.00    +0.000 C 
ATOM     49  N6  UNL A   1      27.171  63.031   1.021  1.00  0.00    +0.000 N 
ATOM     50  C36 UNL A   1      28.534  63.086   0.763  1.00  0.00    +0.000 C 
ATOM     51  C37 UNL A   1      29.458  63.925   1.291  1.00  0.00    +0.000 C 
ATOM     63  C44 UNL A   1      29.164  64.959   2.251  1.00  0.00    +0.000 C 
ATOM     64  C45 UNL A   1      30.025  65.881   2.818  1.00  0.00    +0.000 C 
ATOM     65  C46 UNL A   1      29.297  66.665   3.722  1.00  0.00    +0.000 C 
ATOM     66  C47 UNL A   1      27.974  66.255   3.689  1.00  0.00    +0.000 C 
ATOM     67  N7  UNL A   1      27.907  65.205   2.785  1.00  0.00    +0.000 N 
ATOM     68  C48 UNL A   1      26.854  66.780   4.426  1.00  0.00    +0.000 C 
ATOM     80  C55 UNL A   1      25.576  66.340   4.325  1.00  0.00    +0.000 C 
ATOM     81  N8  UNL A   1      25.066  65.322   3.535  1.00  0.00    +0.000 N 
ATOM     82  C56 UNL A   1      23.786  65.262   3.808  1.00  0.00    +0.000 C 
ATOM     83  C57 UNL A   1      22.740  64.347   3.242  1.00  0.00    +0.000 C 
ATOM     95  C64 UNL A   1      23.104  63.420   2.338  1.00  0.00    +0.000 C 
ATOM     96  C65 UNL A   1      22.202  62.467   1.700  1.00  0.00    +0.000 C 
ATOM     97  C66 UNL A   1      22.912  61.677   0.883  1.00  0.00    +0.000 C 
ATOM     98  C67 UNL A   1      24.312  62.105   0.899  1.00  0.00    +0.000 C 
ATOM     99  N9  UNL A   1      24.337  63.131   1.807  1.00  0.00    +0.000 N 
ATOM    100  C68 UNL A   1      23.338  66.232   4.816  1.00  0.00    +0.000 C 
ATOM    101  C69 UNL A   1      24.462  66.885   5.073  1.00  0.00    +0.000 C 
ATOM    102  C70 UNL A   1      28.819  62.056  -0.214  1.00  0.00    +0.000 C 
ATOM    103  C71 UNL A   1      27.711  61.429  -0.588  1.00  0.00    +0.000 C 
ENDROOT
BRANCH   47   46
ATOM    104  C72 UNL A   1      24.650  59.192  -0.368  1.00  0.00    +0.000 C 
ATOM    105  C73 UNL A   1      24.287  58.201  -1.284  1.00  0.00    +0.000 C 
ATOM     43  C30 UNL A   1      24.171  58.520  -2.640  1.00  0.00    +0.000 C 
ATOM     44  C31 UNL A   1      24.380  59.832  -3.075  1.00  0.00    +0.000 C 
ATOM     45  C32 UNL A   1      24.813  60.799  -2.175  1.00  0.00    +0.000 C 
ATOM     46  C33 UNL A   1      24.936  60.492  -0.810  1.00  0.00    +0.000 C 
ATOM    143  H38 UNL A   1      24.214  60.083  -4.062  1.00  0.00    +0.000 H 
ATOM    144  H39 UNL A   1      25.045  61.747  -2.511  1.00  0.00    +0.000 H 
ATOM    155  H50 UNL A   1      24.709  58.966   0.638  1.00  0.00    +0.000 H 
ATOM    156  H51 UNL A   1      24.104  57.239  -0.960  1.00  0.00    +0.000 H 
BRANCH   43    2
ATOM      1  O1  UNL A   1      23.024  56.575  -3.276  1.00  0.00    +0.000 O 
ATOM      2  C1  UNL A   1      23.812  57.456  -3.602  1.00  0.00    +0.000 C 
BRANCH    2    3
ATOM    106  H1  UNL A   1      24.538  58.344  -5.250  1.00  0.00    +0.000 H 
ATOM      3  N1  UNL A   1      24.376  57.458  -4.853  1.00  0.00    +0.000 N 
BRANCH    3    4
ATOM    108  H3  UNL A   1      23.903  55.696  -5.796  1.00  0.00    +0.000 H 
ATOM    107  H2  UNL A   1      25.131  56.672  -6.607  1.00  0.00    +0.000 H 
ATOM      4  C2  UNL A   1      24.764  56.318  -5.666  1.00  0.00    +0.000 C 
BRANCH    4    5
ATOM    109  H4  UNL A   1      25.592  54.453  -5.103  1.00  0.00    +0.000 H 
ATOM      5  C3  UNL A   1      25.849  55.486  -4.998  1.00  0.00    +0.000 C 
ATOM    110  H5  UNL A   1      25.893  55.802  -3.977  1.00  0.00    +0.000 H 
BRANCH    5    6
ATOM      6  C4  UNL A   1      27.249  55.693  -5.580  1.00  0.00    +0.000 C 
ATOM    111  H6  UNL A   1      27.514  54.812  -6.126  1.00  0.00    +0.000 H 
ATOM    112  H7  UNL A   1      27.892  55.887  -4.748  1.00  0.00    +0.000 H 
BRANCH    6    7
ATOM    113  H8  UNL A   1      26.787  57.691  -6.133  1.00  0.00    +0.000 H 
ATOM    114  H9  UNL A   1      27.080  56.555  -7.486  1.00  0.00    +0.000 H 
ATOM      7  C5  UNL A   1      27.389  56.896  -6.520  1.00  0.00    +0.000 C 
BRANCH    7    8
ATOM    115  H10 UNL A   1      29.325  56.803  -7.404  1.00  0.00    +0.000 H 
ATOM    116  H11 UNL A   1      29.280  57.404  -5.729  1.00  0.00    +0.000 H 
ATOM      8  C6  UNL A   1      28.821  57.425  -6.695  1.00  0.00    +0.000 C 
BRANCH    8    9
ATOM      9  C7  UNL A   1      28.888  58.871  -7.188  1.00  0.00    +0.000 C 
ATOM    117  H12 UNL A   1      28.717  58.891  -8.244  1.00  0.00    +0.000 H 
ATOM    118  H13 UNL A   1      29.856  59.266  -6.961  1.00  0.00    +0.000 H 
BRANCH    9   10
ATOM     10  N2  UNL A   1      27.887  59.683  -6.530  1.00  0.00    +0.000 N 
ATOM    119  H14 UNL A   1      26.949  59.441  -6.705  1.00  0.00    +0.000 H 
BRANCH   10   11
ATOM     11  C8  UNL A   1      28.088  60.744  -5.697  1.00  0.00    +0.000 C 
ATOM     12  O2  UNL A   1      28.114  60.529  -4.484  1.00  0.00    +0.000 O 
BRANCH   11   13
ATOM     13  C9  UNL A   1      28.271  62.163  -6.253  1.00  0.00    +0.000 C 
ATOM    120  H15 UNL A   1      27.792  62.837  -5.573  1.00  0.00    +0.000 H 
BRANCH   13   14
ATOM    121  H16 UNL A   1      26.984  63.243  -7.584  1.00  0.00    +0.000 H 
ATOM    122  H17 UNL A   1      26.918  61.501  -7.772  1.00  0.00    +0.000 H 
ATOM     14  C10 UNL A   1      27.560  62.340  -7.604  1.00  0.00    +0.000 C 
BRANCH   14   15
ATOM    123  H18 UNL A   1      28.457  63.281  -9.095  1.00  0.00    +0.000 H 
ATOM     15  O3  UNL A   1      28.520  62.415  -8.662  1.00  0.00    +0.000 O 
ENDBRANCH   14   15
ENDBRANCH   13   14
BRANCH   13   16
ATOM    124  H19 UNL A   1      30.239  62.041  -6.902  1.00  0.00    +0.000 H 
ATOM     16  N3  UNL A   1      29.678  62.564  -6.285  1.00  0.00    +0.000 N 
BRANCH   16   17
ATOM     17  C11 UNL A   1      30.342  63.538  -5.605  1.00  0.00    +0.000 C 
ATOM     18  O4  UNL A   1      30.572  64.554  -6.275  1.00  0.00    +0.000 O 
BRANCH   17   19
ATOM     19  C12 UNL A   1      30.554  63.538  -4.064  1.00  0.00    +0.000 C 
ATOM    125  H20 UNL A   1      31.222  64.357  -3.890  1.00  0.00    +0.000 H 
BRANCH   19   20
ATOM     20  C13 UNL A   1      31.169  62.183  -3.631  1.00  0.00    +0.000 C 
ATOM    126  H21 UNL A   1      30.823  61.426  -4.303  1.00  0.00    +0.000 H 
ATOM    127  H22 UNL A   1      30.856  62.010  -2.622  1.00  0.00    +0.000 H 
BRANCH   20   21
ATOM     21  S1  UNL A   1      32.997  62.162  -3.630  1.00  0.00    +0.000 S 
ATOM    128  H23 UNL A   1      33.443  61.499  -4.731  1.00  0.00    +0.000 H 
ENDBRANCH   20   21
ENDBRANCH   19   20
BRANCH   19   22
ATOM    129  H24 UNL A   1      29.309  63.270  -2.450  1.00  0.00    +0.000 H 
ATOM     22  N4  UNL A   1      29.403  63.877  -3.220  1.00  0.00    +0.000 N 
BRANCH   22   23
ATOM     23  C14 UNL A   1      28.435  64.830  -3.251  1.00  0.00    +0.000 C 
ATOM     24  O5  UNL A   1      28.899  65.964  -3.106  1.00  0.00    +0.000 O 
BRANCH   23   25
ATOM     25  C15 UNL A   1      26.933  64.603  -3.592  1.00  0.00    +0.000 C 
ATOM    130  H25 UNL A   1      26.917  63.849  -4.351  1.00  0.00    +0.000 H 
BRANCH   25   26
ATOM     26  C16 UNL A   1      26.240  65.895  -4.127  1.00  0.00    +0.000 C 
ATOM    131  H26 UNL A   1      27.009  66.636  -4.190  1.00  0.00    +0.000 H 
ATOM    132  H27 UNL A   1      25.439  66.011  -3.427  1.00  0.00    +0.000 H 
BRANCH   26   27
ATOM    133  H28 UNL A   1      26.977  66.911  -6.597  1.00  0.00    +0.000 H 
ATOM    134  H29 UNL A   1      25.613  67.253  -8.561  1.00  0.00    +0.000 H 
ATOM    135  H30 UNL A   1      23.300  66.530  -8.582  1.00  0.00    +0.000 H 
ATOM    136  H31 UNL A   1      22.377  65.415  -6.636  1.00  0.00    +0.000 H 
ATOM    137  H32 UNL A   1      23.746  65.055  -4.673  1.00  0.00    +0.000 H 
ATOM     27  C17 UNL A   1      25.493  65.954  -5.451  1.00  0.00    +0.000 C 
ATOM     28  C18 UNL A   1      25.997  66.587  -6.594  1.00  0.00    +0.000 C 
ATOM     29  C19 UNL A   1      25.209  66.789  -7.731  1.00  0.00    +0.000 C 
ATOM     30  C20 UNL A   1      23.887  66.372  -7.748  1.00  0.00    +0.000 C 
ATOM     31  C21 UNL A   1      23.358  65.736  -6.630  1.00  0.00    +0.000 C 
ATOM     32  C22 UNL A   1      24.152  65.529  -5.495  1.00  0.00    +0.000 C 
ENDBRANCH   26   27
ENDBRANCH   25   26
BRANCH   25   33
ATOM     33  N5  UNL A   1      26.190  64.181  -2.393  1.00  0.00    +0.000 N 
ATOM    138  H33 UNL A   1      26.604  63.423  -1.921  1.00  0.00    +0.000 H 
BRANCH   33   34
ATOM     34  C23 UNL A   1      25.039  64.630  -1.802  1.00  0.00    +0.000 C 
ATOM     35  O6  UNL A   1      23.975  64.197  -2.242  1.00  0.00    +0.000 O 
BRANCH   34   36
ATOM     36  C24 UNL A   1      25.002  65.656  -0.723  1.00  0.00    +0.000 C 
ATOM     37  C25 UNL A   1      23.733  66.055  -0.266  1.00  0.00    +0.000 C 
ATOM     38  C26 UNL A   1      23.601  67.100   0.654  1.00  0.00    +0.000 C 
ATOM     39  C27 UNL A   1      24.737  67.751   1.113  1.00  0.00    +0.000 C 
ATOM     40  F1  UNL A   1      24.615  68.765   1.979  1.00  0.00    +0.000 F 
ATOM     41  C28 UNL A   1      25.999  67.379   0.668  1.00  0.00    +0.000 C 
ATOM     42  C29 UNL A   1      26.131  66.337  -0.255  1.00  0.00    +0.000 C 
ATOM    139  H34 UNL A   1      22.890  65.572  -0.612  1.00  0.00    +0.000 H 
ATOM    140  H35 UNL A   1      22.667  67.384   0.988  1.00  0.00    +0.000 H 
ATOM    141  H36 UNL A   1      26.836  67.871   1.017  1.00  0.00    +0.000 H 
ATOM    142  H37 UNL A   1      27.068  66.068  -0.594  1.00  0.00    +0.000 H 
ENDBRANCH   34   36
ENDBRANCH   33   34
ENDBRANCH   25   33
ENDBRANCH   23   25
ENDBRANCH   22   23
ENDBRANCH   19   22
ENDBRANCH   17   19
ENDBRANCH   16   17
ENDBRANCH   13   16
ENDBRANCH   11   13
ENDBRANCH   10   11
ENDBRANCH    9   10
ENDBRANCH    8    9
ENDBRANCH    7    8
ENDBRANCH    6    7
ENDBRANCH    5    6
ENDBRANCH    4    5
ENDBRANCH    3    4
ENDBRANCH    2    3
ENDBRANCH   43    2
ENDBRANCH   47   46
BRANCH   51   52
ATOM     52  C38 UNL A   1      30.883  63.752   0.855  1.00  0.00    +0.000 C 
ATOM     53  C39 UNL A   1      31.709  62.770   1.418  1.00  0.00    +0.000 C 
ATOM     54  F2  UNL A   1      31.255  61.992   2.412  1.00  0.00    +0.000 F 
ATOM     55  C40 UNL A   1      33.021  62.601   0.980  1.00  0.00    +0.000 C 
ATOM     56  F3  UNL A   1      33.805  61.679   1.556  1.00  0.00    +0.000 F 
ATOM     57  C41 UNL A   1      33.522  63.392  -0.044  1.00  0.00    +0.000 C 
ATOM     58  F4  UNL A   1      34.781  63.223  -0.468  1.00  0.00    +0.000 F 
ATOM     59  C42 UNL A   1      32.717  64.362  -0.623  1.00  0.00    +0.000 C 
ATOM     60  F5  UNL A   1      33.196  65.120  -1.618  1.00  0.00    +0.000 F 
ATOM     61  C43 UNL A   1      31.412  64.547  -0.172  1.00  0.00    +0.000 C 
ATOM     62  F6  UNL A   1      30.661  65.499  -0.747  1.00  0.00    +0.000 F 
ENDBRANCH   51   52
BRANCH   68   69
ATOM     69  C49 UNL A   1      27.105  67.915   5.371  1.00  0.00    +0.000 C 
ATOM     70  C50 UNL A   1      27.097  69.246   4.931  1.00  0.00    +0.000 C 
ATOM     71  F7  UNL A   1      26.900  69.526   3.634  1.00  0.00    +0.000 F 
ATOM     72  C51 UNL A   1      27.337  70.292   5.817  1.00  0.00    +0.000 C 
ATOM     73  F8  UNL A   1      27.370  71.554   5.368  1.00  0.00    +0.000 F 
ATOM     74  C52 UNL A   1      27.558  70.028   7.161  1.00  0.00    +0.000 C 
ATOM     75  F9  UNL A   1      27.789  71.036   8.013  1.00  0.00    +0.000 F 
ATOM     76  C53 UNL A   1      27.551  68.720   7.620  1.00  0.00    +0.000 C 
ATOM     77  F10 UNL A   1      27.758  68.465   8.920  1.00  0.00    +0.000 F 
ATOM     78  C54 UNL A   1      27.336  67.670   6.733  1.00  0.00    +0.000 C 
ATOM     79  F11 UNL A   1      27.348  66.412   7.200  1.00  0.00    +0.000 F 
ENDBRANCH   68   69
BRANCH   83   84
ATOM     84  C58 UNL A   1      21.318  64.452   3.652  1.00  0.00    +0.000 C 
ATOM     85  C59 UNL A   1      20.886  63.942   4.884  1.00  0.00    +0.000 C 
ATOM     86  F12 UNL A   1      21.752  63.309   5.688  1.00  0.00    +0.000 F 
ATOM     87  C60 UNL A   1      19.556  64.060   5.281  1.00  0.00    +0.000 C 
ATOM     88  F13 UNL A   1      19.161  63.538   6.450  1.00  0.00    +0.000 F 
ATOM     89  C61 UNL A   1      18.640  64.710   4.466  1.00  0.00    +0.000 C 
ATOM     90  F14 UNL A   1      17.364  64.832   4.854  1.00  0.00    +0.000 F 
ATOM     91  C62 UNL A   1      19.049  65.228   3.247  1.00  0.00    +0.000 C 
ATOM     92  F15 UNL A   1      18.171  65.869   2.463  1.00  0.00    +0.000 F 
ATOM     93  C63 UNL A   1      20.372  65.088   2.837  1.00  0.00    +0.000 C 
ATOM     94  F16 UNL A   1      20.741  65.597   1.652  1.00  0.00    +0.000 F 
ENDBRANCH   83   84
TORSDOF 30
ENDMDL
MODEL 9
REMARK VINA RESULT:      -8.1     25.083     30.902
ROOT
ATOM    145  H40 UNL A   1      13.586  46.722   2.593  1.00  0.00    +0.000 H 
ATOM    146  H41 UNL A   1      15.268  46.942   0.612  1.00  0.00    +0.000 H 
ATOM    147  H42 UNL A   1      14.989  50.619   2.496  1.00  0.00    +0.000 H 
ATOM    148  H43 UNL A   1      16.600  56.780   2.794  1.00  0.00    +0.000 H 
ATOM    149  H44 UNL A   1      15.096  56.522   4.823  1.00  0.00    +0.000 H 
ATOM    150  H45 UNL A   1      15.336  52.821   2.946  1.00  0.00    +0.000 H 
ATOM    151  H46 UNL A   1      18.521  53.434  -0.887  1.00  0.00    +0.000 H 
ATOM    152  H47 UNL A   1      18.074  50.982  -1.474  1.00  0.00    +0.000 H 
ATOM    153  H48 UNL A   1      11.883  50.107   6.404  1.00  0.00    +0.000 H 
ATOM    154  H49 UNL A   1      12.113  52.618   6.855  1.00  0.00    +0.000 H 
ATOM     47  C34 UNL A   1      13.951  53.931   5.113  1.00  0.00    +0.000 C 
ATOM     48  C35 UNL A   1      13.526  52.492   5.086  1.00  0.00    +0.000 C 
ATOM     49  N6  UNL A   1      13.892  51.541   4.264  1.00  0.00    +0.000 N 
ATOM     50  C36 UNL A   1      13.230  50.397   4.686  1.00  0.00    +0.000 C 
ATOM     51  C37 UNL A   1      13.266  49.155   4.145  1.00  0.00    +0.000 C 
ATOM     63  C44 UNL A   1      14.027  48.799   2.974  1.00  0.00    +0.000 C 
ATOM     64  C45 UNL A   1      14.101  47.577   2.329  1.00  0.00    +0.000 C 
ATOM     65  C46 UNL A   1      14.994  47.698   1.258  1.00  0.00    +0.000 C 
ATOM     66  C47 UNL A   1      15.448  49.006   1.213  1.00  0.00    +0.000 C 
ATOM     67  N7  UNL A   1      14.850  49.670   2.273  1.00  0.00    +0.000 N 
ATOM     68  C48 UNL A   1      16.359  49.607   0.274  1.00  0.00    +0.000 C 
ATOM     80  C55 UNL A   1      16.742  50.907   0.278  1.00  0.00    +0.000 C 
ATOM     81  N8  UNL A   1      16.377  51.919   1.152  1.00  0.00    +0.000 N 
ATOM     82  C56 UNL A   1      17.029  52.986   0.759  1.00  0.00    +0.000 C 
ATOM     83  C57 UNL A   1      17.010  54.371   1.337  1.00  0.00    +0.000 C 
ATOM     95  C64 UNL A   1      16.256  54.615   2.423  1.00  0.00    +0.000 C 
ATOM     96  C65 UNL A   1      16.137  55.907   3.091  1.00  0.00    +0.000 C 
ATOM     97  C66 UNL A   1      15.330  55.774   4.153  1.00  0.00    +0.000 C 
ATOM     98  C67 UNL A   1      14.834  54.397   4.208  1.00  0.00    +0.000 C 
ATOM     99  N9  UNL A   1      15.453  53.776   3.156  1.00  0.00    +0.000 N 
ATOM    100  C68 UNL A   1      17.895  52.768  -0.407  1.00  0.00    +0.000 C 
ATOM    101  C69 UNL A   1      17.658  51.493  -0.679  1.00  0.00    +0.000 C 
ATOM    102  C70 UNL A   1      12.454  50.765   5.851  1.00  0.00    +0.000 C 
ATOM    103  C71 UNL A   1      12.572  52.060   6.117  1.00  0.00    +0.000 C 
ENDROOT
BRANCH   47   46
ATOM    104  C72 UNL A   1      12.192  55.557   5.880  1.00  0.00    +0.000 C 
ATOM    105  C73 UNL A   1      11.676  56.421   6.849  1.00  0.00    +0.000 C 
ATOM     43  C30 UNL A   1      12.345  56.578   8.066  1.00  0.00    +0.000 C 
ATOM     44  C31 UNL A   1      13.506  55.846   8.331  1.00  0.00    +0.000 C 
ATOM     45  C32 UNL A   1      14.059  55.044   7.338  1.00  0.00    +0.000 C 
ATOM     46  C33 UNL A   1      13.398  54.879   6.111  1.00  0.00    +0.000 C 
ATOM    143  H38 UNL A   1      13.953  55.901   9.259  1.00  0.00    +0.000 H 
ATOM    144  H39 UNL A   1      14.959  54.567   7.505  1.00  0.00    +0.000 H 
ATOM    155  H50 UNL A   1      11.685  55.418   4.993  1.00  0.00    +0.000 H 
ATOM    156  H51 UNL A   1      10.803  56.941   6.667  1.00  0.00    +0.000 H 
BRANCH   43    2
ATOM      1  O1  UNL A   1      11.352  57.089  10.130  1.00  0.00    +0.000 O 
ATOM      2  C1  UNL A   1      11.802  57.517   9.072  1.00  0.00    +0.000 C 
BRANCH    2    3
ATOM    106  H1  UNL A   1      10.970  59.215   8.399  1.00  0.00    +0.000 H 
ATOM      3  N1  UNL A   1      11.794  58.862   8.806  1.00  0.00    +0.000 N 
BRANCH    3    4
ATOM    108  H3  UNL A   1      12.407  60.808   9.041  1.00  0.00    +0.000 H 
ATOM    107  H2  UNL A   1      13.305  59.621   9.991  1.00  0.00    +0.000 H 
ATOM      4  C2  UNL A   1      12.848  59.833   9.047  1.00  0.00    +0.000 C 
BRANCH    4    5
ATOM    109  H4  UNL A   1      14.606  59.010   8.202  1.00  0.00    +0.000 H 
ATOM      5  C3  UNL A   1      13.916  59.793   7.964  1.00  0.00    +0.000 C 
ATOM    110  H5  UNL A   1      14.374  60.759   7.949  1.00  0.00    +0.000 H 
BRANCH    5    6
ATOM      6  C4  UNL A   1      13.376  59.542   6.555  1.00  0.00    +0.000 C 
ATOM    111  H6  UNL A   1      12.312  59.661   6.582  1.00  0.00    +0.000 H 
ATOM    112  H7  UNL A   1      13.686  58.555   6.287  1.00  0.00    +0.000 H 
BRANCH    6    7
ATOM    113  H8  UNL A   1      14.258  59.870   4.651  1.00  0.00    +0.000 H 
ATOM    114  H9  UNL A   1      14.719  61.031   5.935  1.00  0.00    +0.000 H 
ATOM      7  C5  UNL A   1      13.931  60.474   5.472  1.00  0.00    +0.000 C 
BRANCH    7    8
ATOM    115  H10 UNL A   1      13.364  62.486   5.061  1.00  0.00    +0.000 H 
ATOM    116  H11 UNL A   1      12.027  61.387   5.478  1.00  0.00    +0.000 H 
ATOM      8  C6  UNL A   1      12.938  61.513   4.931  1.00  0.00    +0.000 C 
BRANCH    8    9
ATOM      9  C7  UNL A   1      12.597  61.330   3.452  1.00  0.00    +0.000 C 
ATOM    117  H12 UNL A   1      11.627  60.887   3.367  1.00  0.00    +0.000 H 
ATOM    118  H13 UNL A   1      13.335  60.698   3.005  1.00  0.00    +0.000 H 
BRANCH    9   10
ATOM     10  N2  UNL A   1      12.597  62.605   2.765  1.00  0.00    +0.000 N 
ATOM    119  H14 UNL A   1      11.931  63.261   3.070  1.00  0.00    +0.000 H 
BRANCH   10   11
ATOM     11  C8  UNL A   1      13.410  63.004   1.746  1.00  0.00    +0.000 C 
ATOM     12  O2  UNL A   1      13.082  64.001   1.101  1.00  0.00    +0.000 O 
BRANCH   11   13
ATOM     13  C9  UNL A   1      14.694  62.232   1.410  1.00  0.00    +0.000 C 
ATOM    120  H15 UNL A   1      14.887  61.562   2.222  1.00  0.00    +0.000 H 
BRANCH   13   14
ATOM    121  H16 UNL A   1      15.650  64.041   0.771  1.00  0.00    +0.000 H 
ATOM    122  H17 UNL A   1      16.714  62.649   0.839  1.00  0.00    +0.000 H 
ATOM     14  C10 UNL A   1      15.912  63.165   1.327  1.00  0.00    +0.000 C 
BRANCH   14   15
ATOM    123  H18 UNL A   1      17.186  64.005   2.586  1.00  0.00    +0.000 H 
ATOM     15  O3  UNL A   1      16.333  63.547   2.640  1.00  0.00    +0.000 O 
ENDBRANCH   14   15
ENDBRANCH   13   14
BRANCH   13   16
ATOM    124  H19 UNL A   1      14.266  61.868  -0.588  1.00  0.00    +0.000 H 
ATOM     16  N3  UNL A   1      14.534  61.386   0.227  1.00  0.00    +0.000 N 
BRANCH   16   17
ATOM     17  C11 UNL A   1      14.692  60.044   0.063  1.00  0.00    +0.000 C 
ATOM     18  O4  UNL A   1      15.867  59.661   0.138  1.00  0.00    +0.000 O 
BRANCH   17   19
ATOM     19  C12 UNL A   1      13.521  59.019   0.069  1.00  0.00    +0.000 C 
ATOM    125  H20 UNL A   1      13.669  58.446  -0.823  1.00  0.00    +0.000 H 
BRANCH   19   20
ATOM     20  C13 UNL A   1      12.172  59.782   0.055  1.00  0.00    +0.000 C 
ATOM    126  H21 UNL A   1      12.378  60.829  -0.025  1.00  0.00    +0.000 H 
ATOM    127  H22 UNL A   1      11.665  59.531   0.963  1.00  0.00    +0.000 H 
BRANCH   20   21
ATOM     21  S1  UNL A   1      11.063  59.306  -1.319  1.00  0.00    +0.000 S 
ATOM    128  H23 UNL A   1      10.285  60.369  -1.663  1.00  0.00    +0.000 H 
ENDBRANCH   20   21
ENDBRANCH   19   20
BRANCH   19   22
ATOM    129  H24 UNL A   1      14.419  57.847   1.499  1.00  0.00    +0.000 H 
ATOM     22  N4  UNL A   1      13.523  57.992   1.116  1.00  0.00    +0.000 N 
BRANCH   22   23
ATOM     23  C14 UNL A   1      12.582  57.192   1.681  1.00  0.00    +0.000 C 
ATOM     24  O5  UNL A   1      12.152  57.659   2.739  1.00  0.00    +0.000 O 
BRANCH   23   25
ATOM     25  C15 UNL A   1      11.955  55.918   1.040  1.00  0.00    +0.000 C 
ATOM    130  H25 UNL A   1      10.916  55.944   1.294  1.00  0.00    +0.000 H 
BRANCH   25   26
ATOM     26  C16 UNL A   1      12.591  54.601   1.585  1.00  0.00    +0.000 C 
ATOM    131  H26 UNL A   1      13.214  54.893   2.405  1.00  0.00    +0.000 H 
ATOM    132  H27 UNL A   1      13.027  54.194   0.697  1.00  0.00    +0.000 H 
BRANCH   26   27
ATOM    133  H28 UNL A   1      12.460  51.971   0.725  1.00  0.00    +0.000 H 
ATOM    134  H29 UNL A   1      10.894  50.246   1.363  1.00  0.00    +0.000 H 
ATOM    135  H30 UNL A   1       9.241  50.673   3.083  1.00  0.00    +0.000 H 
ATOM    136  H31 UNL A   1       9.202  52.828   4.196  1.00  0.00    +0.000 H 
ATOM    137  H32 UNL A   1      10.781  54.552   3.572  1.00  0.00    +0.000 H 
ATOM     27  C17 UNL A   1      11.769  53.422   2.084  1.00  0.00    +0.000 C 
ATOM     28  C18 UNL A   1      11.770  52.165   1.467  1.00  0.00    +0.000 C 
ATOM     29  C19 UNL A   1      10.862  51.166   1.832  1.00  0.00    +0.000 C 
ATOM     30  C20 UNL A   1       9.919  51.406   2.820  1.00  0.00    +0.000 C 
ATOM     31  C21 UNL A   1       9.895  52.643   3.455  1.00  0.00    +0.000 C 
ATOM     32  C22 UNL A   1      10.810  53.640   3.091  1.00  0.00    +0.000 C 
ENDBRANCH   26   27
ENDBRANCH   25   26
BRANCH   25   33
ATOM     33  N5  UNL A   1      12.157  55.922  -0.419  1.00  0.00    +0.000 N 
ATOM    138  H33 UNL A   1      12.616  56.727  -0.750  1.00  0.00    +0.000 H 
BRANCH   33   34
ATOM     34  C23 UNL A   1      11.834  55.031  -1.407  1.00  0.00    +0.000 C 
ATOM     35  O6  UNL A   1      10.640  54.894  -1.673  1.00  0.00    +0.000 O 
BRANCH   34   36
ATOM     36  C24 UNL A   1      12.826  54.177  -2.116  1.00  0.00    +0.000 C 
ATOM     37  C25 UNL A   1      12.658  54.019  -3.503  1.00  0.00    +0.000 C 
ATOM     38  C26 UNL A   1      13.467  53.138  -4.226  1.00  0.00    +0.000 C 
ATOM     39  C27 UNL A   1      14.442  52.406  -3.562  1.00  0.00    +0.000 C 
ATOM     40  F1  UNL A   1      15.206  51.546  -4.246  1.00  0.00    +0.000 F 
ATOM     41  C28 UNL A   1      14.619  52.539  -2.190  1.00  0.00    +0.000 C 
ATOM     42  C29 UNL A   1      13.807  53.418  -1.466  1.00  0.00    +0.000 C 
ATOM    139  H34 UNL A   1      11.930  54.561  -3.994  1.00  0.00    +0.000 H 
ATOM    140  H35 UNL A   1      13.341  53.031  -5.245  1.00  0.00    +0.000 H 
ATOM    141  H36 UNL A   1      15.347  51.990  -1.708  1.00  0.00    +0.000 H 
ATOM    142  H37 UNL A   1      13.932  53.508  -0.446  1.00  0.00    +0.000 H 
ENDBRANCH   34   36
ENDBRANCH   33   34
ENDBRANCH   25   33
ENDBRANCH   23   25
ENDBRANCH   22   23
ENDBRANCH   19   22
ENDBRANCH   17   19
ENDBRANCH   16   17
ENDBRANCH   13   16
ENDBRANCH   11   13
ENDBRANCH   10   11
ENDBRANCH    9   10
ENDBRANCH    8    9
ENDBRANCH    7    8
ENDBRANCH    6    7
ENDBRANCH    5    6
ENDBRANCH    4    5
ENDBRANCH    3    4
ENDBRANCH    2    3
ENDBRANCH   43    2
ENDBRANCH   47   46
BRANCH   51   52
ATOM     52  C38 UNL A   1      12.469  48.079   4.821  1.00  0.00    +0.000 C 
ATOM     53  C39 UNL A   1      11.229  47.659   4.319  1.00  0.00    +0.000 C 
ATOM     54  F2  UNL A   1      10.696  48.259   3.244  1.00  0.00    +0.000 F 
ATOM     55  C40 UNL A   1      10.515  46.637   4.940  1.00  0.00    +0.000 C 
ATOM     56  F3  UNL A   1       9.314  46.275   4.464  1.00  0.00    +0.000 F 
ATOM     57  C41 UNL A   1      11.037  45.998   6.055  1.00  0.00    +0.000 C 
ATOM     58  F4  UNL A   1      10.352  45.010   6.646  1.00  0.00    +0.000 F 
ATOM     59  C42 UNL A   1      12.268  46.389   6.560  1.00  0.00    +0.000 C 
ATOM     60  F5  UNL A   1      12.779  45.768   7.632  1.00  0.00    +0.000 F 
ATOM     61  C43 UNL A   1      12.974  47.426   5.955  1.00  0.00    +0.000 C 
ATOM     62  F6  UNL A   1      14.158  47.787   6.472  1.00  0.00    +0.000 F 
ENDBRANCH   51   52
BRANCH   68   69
ATOM     69  C49 UNL A   1      16.922  48.741  -0.811  1.00  0.00    +0.000 C 
ATOM     70  C50 UNL A   1      18.119  48.032  -0.631  1.00  0.00    +0.000 C 
ATOM     71  F7  UNL A   1      18.807  48.149   0.515  1.00  0.00    +0.000 F 
ATOM     72  C51 UNL A   1      18.636  47.234  -1.649  1.00  0.00    +0.000 C 
ATOM     73  F8  UNL A   1      19.804  46.602  -1.473  1.00  0.00    +0.000 F 
ATOM     74  C52 UNL A   1      17.952  47.109  -2.848  1.00  0.00    +0.000 C 
ATOM     75  F9  UNL A   1      18.451  46.340  -3.827  1.00  0.00    +0.000 F 
ATOM     76  C53 UNL A   1      16.757  47.785  -3.039  1.00  0.00    +0.000 C 
ATOM     77  F10 UNL A   1      16.092  47.658  -4.196  1.00  0.00    +0.000 F 
ATOM     78  C54 UNL A   1      16.250  48.602  -2.033  1.00  0.00    +0.000 C 
ATOM     79  F11 UNL A   1      15.099  49.259  -2.249  1.00  0.00    +0.000 F 
ENDBRANCH   68   69
BRANCH   83   84
ATOM     84  C58 UNL A   1      17.797  55.471   0.728  1.00  0.00    +0.000 C 
ATOM     85  C59 UNL A   1      19.062  55.811   1.226  1.00  0.00    +0.000 C 
ATOM     86  F12 UNL A   1      19.555  55.171   2.295  1.00  0.00    +0.000 F 
ATOM     87  C60 UNL A   1      19.812  56.829   0.642  1.00  0.00    +0.000 C 
ATOM     88  F13 UNL A   1      21.006  57.157   1.155  1.00  0.00    +0.000 F 
ATOM     89  C61 UNL A   1      19.322  57.508  -0.465  1.00  0.00    +0.000 C 
ATOM     90  F14 UNL A   1      20.050  58.479  -1.033  1.00  0.00    +0.000 F 
ATOM     91  C62 UNL A   1      18.077  57.182  -0.979  1.00  0.00    +0.000 C 
ATOM     92  F15 UNL A   1      17.607  57.825  -2.057  1.00  0.00    +0.000 F 
ATOM     93  C63 UNL A   1      17.315  56.182  -0.380  1.00  0.00    +0.000 C 
ATOM     94  F16 UNL A   1      16.112  55.888  -0.896  1.00  0.00    +0.000 F 
ENDBRANCH   83   84
TORSDOF 30
ENDMDL
MODEL 10
REMARK VINA RESULT:      -8.1     25.879     35.005
ROOT
ATOM    145  H40 UNL A   1      11.970  53.487   5.399  1.00  0.00    +0.000 H 
ATOM    146  H41 UNL A   1      11.472  50.946   5.086  1.00  0.00    +0.000 H 
ATOM    147  H42 UNL A   1      14.523  52.003   2.494  1.00  0.00    +0.000 H 
ATOM    148  H43 UNL A   1      18.589  50.411  -2.152  1.00  0.00    +0.000 H 
ATOM    149  H44 UNL A   1      19.190  52.841  -1.725  1.00  0.00    +0.000 H 
ATOM    150  H45 UNL A   1      16.112  51.821   0.876  1.00  0.00    +0.000 H 
ATOM    151  H46 UNL A   1      15.208  46.946   0.084  1.00  0.00    +0.000 H 
ATOM    152  H47 UNL A   1      13.347  47.146   1.832  1.00  0.00    +0.000 H 
ATOM    153  H48 UNL A   1      15.570  56.851   3.254  1.00  0.00    +0.000 H 
ATOM    154  H49 UNL A   1      17.257  56.740   1.330  1.00  0.00    +0.000 H 
ATOM     47  C34 UNL A   1      17.551  54.131   0.214  1.00  0.00    +0.000 C 
ATOM     48  C35 UNL A   1      16.609  54.567   1.297  1.00  0.00    +0.000 C 
ATOM     49  N6  UNL A   1      15.721  53.860   1.949  1.00  0.00    +0.000 N 
ATOM     50  C36 UNL A   1      15.133  54.730   2.858  1.00  0.00    +0.000 C 
ATOM     51  C37 UNL A   1      14.143  54.476   3.747  1.00  0.00    +0.000 C 
ATOM     63  C44 UNL A   1      13.494  53.198   3.899  1.00  0.00    +0.000 C 
ATOM     64  C45 UNL A   1      12.457  52.851   4.747  1.00  0.00    +0.000 C 
ATOM     65  C46 UNL A   1      12.181  51.490   4.570  1.00  0.00    +0.000 C 
ATOM     66  C47 UNL A   1      13.020  50.998   3.584  1.00  0.00    +0.000 C 
ATOM     67  N7  UNL A   1      13.823  52.056   3.183  1.00  0.00    +0.000 N 
ATOM     68  C48 UNL A   1      13.086  49.664   3.047  1.00  0.00    +0.000 C 
ATOM     80  C55 UNL A   1      13.923  49.259   2.060  1.00  0.00    +0.000 C 
ATOM     81  N8  UNL A   1      14.878  49.992   1.374  1.00  0.00    +0.000 N 
ATOM     82  C56 UNL A   1      15.444  49.154   0.541  1.00  0.00    +0.000 C 
ATOM     83  C57 UNL A   1      16.540  49.404  -0.453  1.00  0.00    +0.000 C 
ATOM     95  C64 UNL A   1      17.077  50.634  -0.537  1.00  0.00    +0.000 C 
ATOM     96  C65 UNL A   1      18.143  51.026  -1.453  1.00  0.00    +0.000 C 
ATOM     97  C66 UNL A   1      18.448  52.313  -1.239  1.00  0.00    +0.000 C 
ATOM     98  C67 UNL A   1      17.561  52.851  -0.205  1.00  0.00    +0.000 C 
ATOM     99  N9  UNL A   1      16.796  51.778   0.170  1.00  0.00    +0.000 N 
ATOM    100  C68 UNL A   1      14.917  47.785   0.612  1.00  0.00    +0.000 C 
ATOM    101  C69 UNL A   1      13.971  47.911   1.531  1.00  0.00    +0.000 C 
ATOM    102  C70 UNL A   1      15.778  56.015   2.687  1.00  0.00    +0.000 C 
ATOM    103  C71 UNL A   1      16.672  55.977   1.706  1.00  0.00    +0.000 C 
ENDROOT
BRANCH   47   46
ATOM    104  C72 UNL A   1      18.132  55.724  -1.645  1.00  0.00    +0.000 C 
ATOM    105  C73 UNL A   1      19.004  56.650  -2.224  1.00  0.00    +0.000 C 
ATOM     43  C30 UNL A   1      20.199  56.975  -1.577  1.00  0.00    +0.000 C 
ATOM     44  C31 UNL A   1      20.506  56.408  -0.337  1.00  0.00    +0.000 C 
ATOM     45  C32 UNL A   1      19.675  55.432   0.201  1.00  0.00    +0.000 C 
ATOM     46  C33 UNL A   1      18.473  55.093  -0.439  1.00  0.00    +0.000 C 
ATOM    143  H38 UNL A   1      21.348  56.711   0.177  1.00  0.00    +0.000 H 
ATOM    144  H39 UNL A   1      19.943  54.954   1.076  1.00  0.00    +0.000 H 
ATOM    155  H50 UNL A   1      17.236  55.502  -2.106  1.00  0.00    +0.000 H 
ATOM    156  H51 UNL A   1      18.765  57.092  -3.126  1.00  0.00    +0.000 H 
BRANCH   43    2
ATOM      1  O1  UNL A   1      20.946  58.280  -3.379  1.00  0.00    +0.000 O 
ATOM      2  C1  UNL A   1      21.124  57.937  -2.215  1.00  0.00    +0.000 C 
BRANCH    2    3
ATOM    106  H1  UNL A   1      21.957  58.965  -0.705  1.00  0.00    +0.000 H 
ATOM      3  N1  UNL A   1      22.186  58.429  -1.499  1.00  0.00    +0.000 N 
BRANCH    3    4
ATOM    108  H3  UNL A   1      23.811  57.213  -1.806  1.00  0.00    +0.000 H 
ATOM    107  H2  UNL A   1      23.843  58.741  -2.690  1.00  0.00    +0.000 H 
ATOM      4  C2  UNL A   1      23.605  58.262  -1.763  1.00  0.00    +0.000 C 
BRANCH    4    5
ATOM    109  H4  UNL A   1      25.299  58.220  -0.496  1.00  0.00    +0.000 H 
ATOM      5  C3  UNL A   1      24.464  58.867  -0.663  1.00  0.00    +0.000 C 
ATOM    110  H5  UNL A   1      23.836  58.965   0.198  1.00  0.00    +0.000 H 
BRANCH    5    6
ATOM      6  C4  UNL A   1      24.996  60.266  -0.977  1.00  0.00    +0.000 C 
ATOM    111  H6  UNL A   1      24.363  60.979  -0.490  1.00  0.00    +0.000 H 
ATOM    112  H7  UNL A   1      24.993  60.355  -2.043  1.00  0.00    +0.000 H 
BRANCH    6    7
ATOM    113  H8  UNL A   1      27.068  59.799  -0.997  1.00  0.00    +0.000 H 
ATOM    114  H9  UNL A   1      26.433  60.467   0.538  1.00  0.00    +0.000 H 
ATOM      7  C5  UNL A   1      26.438  60.527  -0.530  1.00  0.00    +0.000 C 
BRANCH    7    8
ATOM    115  H10 UNL A   1      26.177  62.526  -1.220  1.00  0.00    +0.000 H 
ATOM    116  H11 UNL A   1      27.744  61.781  -1.618  1.00  0.00    +0.000 H 
ATOM      8  C6  UNL A   1      26.988  61.920  -0.874  1.00  0.00    +0.000 C 
BRANCH    8    9
ATOM      9  C7  UNL A   1      27.652  62.631   0.306  1.00  0.00    +0.000 C 
ATOM    117  H12 UNL A   1      27.117  62.398   1.203  1.00  0.00    +0.000 H 
ATOM    118  H13 UNL A   1      27.634  63.685   0.126  1.00  0.00    +0.000 H 
BRANCH    9   10
ATOM     10  N2  UNL A   1      29.028  62.206   0.451  1.00  0.00    +0.000 N 
ATOM    119  H14 UNL A   1      29.173  61.240   0.568  1.00  0.00    +0.000 H 
BRANCH   10   11
ATOM     11  C8  UNL A   1      30.147  62.984   0.444  1.00  0.00    +0.000 C 
ATOM     12  O2  UNL A   1      30.441  63.567  -0.602  1.00  0.00    +0.000 O 
BRANCH   11   13
ATOM     13  C9  UNL A   1      31.019  63.128   1.699  1.00  0.00    +0.000 C 
ATOM    120  H15 UNL A   1      32.042  63.106   1.383  1.00  0.00    +0.000 H 
BRANCH   13   14
ATOM    121  H16 UNL A   1      30.711  61.041   2.081  1.00  0.00    +0.000 H 
ATOM    122  H17 UNL A   1      29.981  62.106   3.267  1.00  0.00    +0.000 H 
ATOM     14  C10 UNL A   1      30.841  61.936   2.653  1.00  0.00    +0.000 C 
BRANCH   14   15
ATOM    123  H18 UNL A   1      32.165  60.856   3.650  1.00  0.00    +0.000 H 
ATOM     15  O3  UNL A   1      31.993  61.797   3.492  1.00  0.00    +0.000 O 
ENDBRANCH   14   15
ENDBRANCH   13   14
BRANCH   13   16
ATOM    124  H19 UNL A   1      31.670  64.877   2.607  1.00  0.00    +0.000 H 
ATOM     16  N3  UNL A   1      30.834  64.423   2.353  1.00  0.00    +0.000 N 
BRANCH   16   17
ATOM     17  C11 UNL A   1      29.701  65.108   2.670  1.00  0.00    +0.000 C 
ATOM     18  O4  UNL A   1      28.904  64.469   3.370  1.00  0.00    +0.000 O 
BRANCH   17   19
ATOM     19  C12 UNL A   1      29.511  66.635   2.442  1.00  0.00    +0.000 C 
ATOM    125  H20 UNL A   1      29.794  66.786   1.420  1.00  0.00    +0.000 H 
BRANCH   19   20
ATOM     20  C13 UNL A   1      30.423  67.417   3.421  1.00  0.00    +0.000 C 
ATOM    126  H21 UNL A   1      31.440  67.276   3.118  1.00  0.00    +0.000 H 
ATOM    127  H22 UNL A   1      30.229  67.032   4.400  1.00  0.00    +0.000 H 
BRANCH   20   21
ATOM     21  S1  UNL A   1      30.083  69.212   3.481  1.00  0.00    +0.000 S 
ATOM    128  H23 UNL A   1      29.194  69.538   2.503  1.00  0.00    +0.000 H 
ENDBRANCH   20   21
ENDBRANCH   19   20
BRANCH   19   22
ATOM    129  H24 UNL A   1      28.014  67.921   1.865  1.00  0.00    +0.000 H 
ATOM     22  N4  UNL A   1      28.142  67.161   2.479  1.00  0.00    +0.000 N 
BRANCH   22   23
ATOM     23  C14 UNL A   1      27.009  66.848   3.160  1.00  0.00    +0.000 C 
ATOM     24  O5  UNL A   1      26.924  67.465   4.225  1.00  0.00    +0.000 O 
BRANCH   23   25
ATOM     25  C15 UNL A   1      25.841  65.959   2.641  1.00  0.00    +0.000 C 
ATOM    130  H25 UNL A   1      26.260  64.987   2.485  1.00  0.00    +0.000 H 
BRANCH   25   26
ATOM     26  C16 UNL A   1      25.239  66.487   1.301  1.00  0.00    +0.000 C 
ATOM    131  H26 UNL A   1      26.068  66.619   0.638  1.00  0.00    +0.000 H 
ATOM    132  H27 UNL A   1      24.681  67.335   1.640  1.00  0.00    +0.000 H 
BRANCH   26   27
ATOM    133  H28 UNL A   1      22.498  66.847   1.100  1.00  0.00    +0.000 H 
ATOM    134  H29 UNL A   1      20.855  65.407   0.071  1.00  0.00    +0.000 H 
ATOM    135  H30 UNL A   1      21.550  63.410  -1.112  1.00  0.00    +0.000 H 
ATOM    136  H31 UNL A   1      23.912  62.892  -1.300  1.00  0.00    +0.000 H 
ATOM    137  H32 UNL A   1      25.563  64.342  -0.286  1.00  0.00    +0.000 H 
ATOM     27  C17 UNL A   1      24.183  65.732   0.507  1.00  0.00    +0.000 C 
ATOM     28  C18 UNL A   1      22.812  66.006   0.590  1.00  0.00    +0.000 C 
ATOM     29  C19 UNL A   1      21.858  65.173  -0.001  1.00  0.00    +0.000 C 
ATOM     30  C20 UNL A   1      22.254  64.032  -0.684  1.00  0.00    +0.000 C 
ATOM     31  C21 UNL A   1      23.608  63.735  -0.787  1.00  0.00    +0.000 C 
ATOM     32  C22 UNL A   1      24.562  64.575  -0.199  1.00  0.00    +0.000 C 
ENDBRANCH   26   27
ENDBRANCH   25   26
BRANCH   25   33
ATOM     33  N5  UNL A   1      24.743  65.924   3.623  1.00  0.00    +0.000 N 
ATOM    138  H33 UNL A   1      24.401  66.815   3.860  1.00  0.00    +0.000 H 
BRANCH   33   34
ATOM     34  C23 UNL A   1      24.103  64.901   4.270  1.00  0.00    +0.000 C 
ATOM     35  O6  UNL A   1      24.008  64.984   5.494  1.00  0.00    +0.000 O 
BRANCH   34   36
ATOM     36  C24 UNL A   1      23.591  63.678   3.594  1.00  0.00    +0.000 C 
ATOM     37  C25 UNL A   1      24.546  62.750   3.142  1.00  0.00    +0.000 C 
ATOM     38  C26 UNL A   1      24.162  61.637   2.389  1.00  0.00    +0.000 C 
ATOM     39  C27 UNL A   1      22.822  61.453   2.079  1.00  0.00    +0.000 C 
ATOM     40  F1  UNL A   1      22.451  60.400   1.341  1.00  0.00    +0.000 F 
ATOM     41  C28 UNL A   1      21.862  62.362   2.508  1.00  0.00    +0.000 C 
ATOM     42  C29 UNL A   1      22.247  63.478   3.258  1.00  0.00    +0.000 C 
ATOM    139  H34 UNL A   1      25.542  62.892   3.370  1.00  0.00    +0.000 H 
ATOM    140  H35 UNL A   1      24.869  60.959   2.065  1.00  0.00    +0.000 H 
ATOM    141  H36 UNL A   1      20.868  62.214   2.272  1.00  0.00    +0.000 H 
ATOM    142  H37 UNL A   1      21.535  64.158   3.566  1.00  0.00    +0.000 H 
ENDBRANCH   34   36
ENDBRANCH   33   34
ENDBRANCH   25   33
ENDBRANCH   23   25
ENDBRANCH   22   23
ENDBRANCH   19   22
ENDBRANCH   17   19
ENDBRANCH   16   17
ENDBRANCH   13   16
ENDBRANCH   11   13
ENDBRANCH   10   11
ENDBRANCH    9   10
ENDBRANCH    8    9
ENDBRANCH    7    8
ENDBRANCH    6    7
ENDBRANCH    5    6
ENDBRANCH    4    5
ENDBRANCH    3    4
ENDBRANCH    2    3
ENDBRANCH   43    2
ENDBRANCH   47   46
BRANCH   51   52
ATOM     52  C38 UNL A   1      13.705  55.599   4.639  1.00  0.00    +0.000 C 
ATOM     53  C39 UNL A   1      14.291  55.810   5.895  1.00  0.00    +0.000 C 
ATOM     54  F2  UNL A   1      15.225  54.965   6.356  1.00  0.00    +0.000 F 
ATOM     55  C40 UNL A   1      13.896  56.877   6.699  1.00  0.00    +0.000 C 
ATOM     56  F3  UNL A   1      14.444  57.039   7.912  1.00  0.00    +0.000 F 
ATOM     57  C41 UNL A   1      12.930  57.766   6.253  1.00  0.00    +0.000 C 
ATOM     58  F4  UNL A   1      12.556  58.796   7.025  1.00  0.00    +0.000 F 
ATOM     59  C42 UNL A   1      12.346  57.584   5.008  1.00  0.00    +0.000 C 
ATOM     60  F5  UNL A   1      11.419  58.447   4.571  1.00  0.00    +0.000 F 
ATOM     61  C43 UNL A   1      12.724  56.505   4.211  1.00  0.00    +0.000 C 
ATOM     62  F6  UNL A   1      12.135  56.350   3.016  1.00  0.00    +0.000 F 
ENDBRANCH   51   52
BRANCH   68   69
ATOM     69  C49 UNL A   1      12.148  48.636   3.601  1.00  0.00    +0.000 C 
ATOM     70  C50 UNL A   1      10.921  48.358   2.980  1.00  0.00    +0.000 C 
ATOM     71  F7  UNL A   1      10.547  49.042   1.889  1.00  0.00    +0.000 F 
ATOM     72  C51 UNL A   1      10.056  47.404   3.507  1.00  0.00    +0.000 C 
ATOM     73  F8  UNL A   1       8.869  47.186   2.925  1.00  0.00    +0.000 F 
ATOM     74  C52 UNL A   1      10.412  46.693   4.643  1.00  0.00    +0.000 C 
ATOM     75  F9  UNL A   1       9.577  45.775   5.149  1.00  0.00    +0.000 F 
ATOM     76  C53 UNL A   1      11.629  46.939   5.261  1.00  0.00    +0.000 C 
ATOM     77  F10 UNL A   1      11.977  46.247   6.355  1.00  0.00    +0.000 F 
ATOM     78  C54 UNL A   1      12.487  47.909   4.751  1.00  0.00    +0.000 C 
ATOM     79  F11 UNL A   1      13.652  48.138   5.376  1.00  0.00    +0.000 F 
ENDBRANCH   68   69
BRANCH   83   84
ATOM     84  C58 UNL A   1      17.033  48.327  -1.347  1.00  0.00    +0.000 C 
ATOM     85  C59 UNL A   1      16.401  48.061  -2.569  1.00  0.00    +0.000 C 
ATOM     86  F12 UNL A   1      15.308  48.754  -2.922  1.00  0.00    +0.000 F 
ATOM     87  C60 UNL A   1      16.875  47.065  -3.419  1.00  0.00    +0.000 C 
ATOM     88  F13 UNL A   1      16.235  46.810  -4.569  1.00  0.00    +0.000 F 
ATOM     89  C61 UNL A   1      18.003  46.334  -3.075  1.00  0.00    +0.000 C 
ATOM     90  F14 UNL A   1      18.465  45.385  -3.899  1.00  0.00    +0.000 F 
ATOM     91  C62 UNL A   1      18.648  46.587  -1.874  1.00  0.00    +0.000 C 
ATOM     92  F15 UNL A   1      19.747  45.893  -1.545  1.00  0.00    +0.000 F 
ATOM     93  C63 UNL A   1      18.160  47.564  -1.011  1.00  0.00    +0.000 C 
ATOM     94  F16 UNL A   1      18.802  47.787   0.145  1.00  0.00    +0.000 F 
ENDBRANCH   83   84
TORSDOF 30
ENDMDL
