MODEL 1
REMARK VINA RESULT:      -9.9      0.000      0.000
ROOT
ATOM    129  H38 UNL A   1      39.715  27.532  26.958  1.00  0.00    +0.000 H 
ATOM    130  H39 UNL A   1      37.878  29.280  27.309  1.00  0.00    +0.000 H 
ATOM     33  C24 UNL A   1      37.856  30.408  29.927  1.00  0.00    +0.000 C 
ATOM     34  C25 UNL A   1      38.865  29.458  29.344  1.00  0.00    +0.000 C 
ATOM     35  N5  UNL A   1      39.939  28.949  29.894  1.00  0.00    +0.000 N 
ATOM     36  C26 UNL A   1      40.484  28.096  28.942  1.00  0.00    +0.000 C 
ATOM     37  C27 UNL A   1      41.629  27.377  29.009  1.00  0.00    +0.000 C 
ATOM     49  C34 UNL A   1      42.525  27.380  30.135  1.00  0.00    +0.000 C 
ATOM     50  C35 UNL A   1      43.740  26.730  30.273  1.00  0.00    +0.000 C 
ATOM     51  C36 UNL A   1      44.234  26.993  31.554  1.00  0.00    +0.000 C 
ATOM     52  C37 UNL A   1      43.352  27.847  32.196  1.00  0.00    +0.000 C 
ATOM     53  N6  UNL A   1      42.305  28.071  31.316  1.00  0.00    +0.000 N 
ATOM     54  C38 UNL A   1      43.456  28.417  33.515  1.00  0.00    +0.000 C 
ATOM     66  C45 UNL A   1      42.542  29.246  34.076  1.00  0.00    +0.000 C 
ATOM     67  N7  UNL A   1      41.362  29.736  33.536  1.00  0.00    +0.000 N 
ATOM     68  C46 UNL A   1      40.826  30.490  34.465  1.00  0.00    +0.000 C 
ATOM     69  C47 UNL A   1      39.557  31.300  34.417  1.00  0.00    +0.000 C 
ATOM     81  C54 UNL A   1      38.828  31.317  33.285  1.00  0.00    +0.000 C 
ATOM     82  C55 UNL A   1      37.581  32.051  33.093  1.00  0.00    +0.000 C 
ATOM     83  C56 UNL A   1      37.100  31.785  31.868  1.00  0.00    +0.000 C 
ATOM     84  C57 UNL A   1      38.026  30.889  31.173  1.00  0.00    +0.000 C 
ATOM     85  N8  UNL A   1      39.031  30.680  32.085  1.00  0.00    +0.000 N 
ATOM     86  C58 UNL A   1      41.596  30.536  35.716  1.00  0.00    +0.000 C 
ATOM     87  C59 UNL A   1      42.652  29.796  35.411  1.00  0.00    +0.000 C 
ATOM     88  C60 UNL A   1      39.599  28.120  27.797  1.00  0.00    +0.000 C 
ATOM     89  C61 UNL A   1      38.620  28.997  27.969  1.00  0.00    +0.000 C 
ATOM    121  H30 UNL A   1      44.200  26.149  29.554  1.00  0.00    +0.000 H 
ATOM    122  H31 UNL A   1      45.108  26.616  31.953  1.00  0.00    +0.000 H 
ATOM    123  H32 UNL A   1      41.521  28.637  31.503  1.00  0.00    +0.000 H 
ATOM    124  H33 UNL A   1      37.141  32.675  33.787  1.00  0.00    +0.000 H 
ATOM    125  H34 UNL A   1      36.218  32.152  31.479  1.00  0.00    +0.000 H 
ATOM    126  H35 UNL A   1      39.823  30.127  31.896  1.00  0.00    +0.000 H 
ATOM    127  H36 UNL A   1      41.371  31.017  36.601  1.00  0.00    +0.000 H 
ATOM    128  H37 UNL A   1      43.450  29.632  36.044  1.00  0.00    +0.000 H 
ENDROOT
BRANCH   33   32
ATOM    131  H40 UNL A   1      35.773  28.829  29.342  1.00  0.00    +0.000 H 
ATOM    132  H41 UNL A   1      33.801  29.340  28.029  1.00  0.00    +0.000 H 
ATOM    119  H28 UNL A   1      35.102  33.317  27.609  1.00  0.00    +0.000 H 
ATOM    120  H29 UNL A   1      37.180  32.752  28.729  1.00  0.00    +0.000 H 
ATOM     90  C62 UNL A   1      35.642  29.778  28.958  1.00  0.00    +0.000 C 
ATOM     91  C63 UNL A   1      34.486  30.082  28.241  1.00  0.00    +0.000 C 
ATOM     29  C20 UNL A   1      34.257  31.390  27.809  1.00  0.00    +0.000 C 
ATOM     30  C21 UNL A   1      35.248  32.363  27.973  1.00  0.00    +0.000 C 
ATOM     31  C22 UNL A   1      36.439  32.040  28.631  1.00  0.00    +0.000 C 
ATOM     32  C23 UNL A   1      36.630  30.754  29.161  1.00  0.00    +0.000 C 
BRANCH   29   27
ATOM     27  C19 UNL A   1      32.982  31.772  27.162  1.00  0.00    +0.000 C 
ATOM     28  O5  UNL A   1      32.653  32.954  27.125  1.00  0.00    +0.000 O 
BRANCH   27   26
ATOM     26  N4  UNL A   1      32.160  30.809  26.629  1.00  0.00    +0.000 N 
ATOM    118  H27 UNL A   1      31.196  30.973  26.741  1.00  0.00    +0.000 H 
BRANCH   26   25
ATOM     25  C18 UNL A   1      32.501  29.583  25.922  1.00  0.00    +0.000 C 
ATOM    116  H25 UNL A   1      32.361  29.743  24.873  1.00  0.00    +0.000 H 
ATOM    117  H26 UNL A   1      33.518  29.349  26.156  1.00  0.00    +0.000 H 
BRANCH   25   24
ATOM    114  H23 UNL A   1      31.150  28.658  27.263  1.00  0.00    +0.000 H 
ATOM    115  H24 UNL A   1      30.975  28.204  25.540  1.00  0.00    +0.000 H 
ATOM     24  C17 UNL A   1      31.646  28.396  26.352  1.00  0.00    +0.000 C 
BRANCH   24   23
ATOM    113  H22 UNL A   1      31.839  26.330  26.101  1.00  0.00    +0.000 H 
ATOM     23  C16 UNL A   1      32.408  27.094  26.588  1.00  0.00    +0.000 C 
ATOM    112  H21 UNL A   1      32.505  26.956  27.646  1.00  0.00    +0.000 H 
BRANCH   23   22
ATOM    110  H19 UNL A   1      34.019  27.978  25.537  1.00  0.00    +0.000 H 
ATOM     22  C15 UNL A   1      33.808  27.025  25.975  1.00  0.00    +0.000 C 
ATOM    111  H20 UNL A   1      34.458  26.755  26.780  1.00  0.00    +0.000 H 
BRANCH   22   21
ATOM    109  H18 UNL A   1      34.527  26.446  24.087  1.00  0.00    +0.000 H 
ATOM    108  H17 UNL A   1      33.071  25.559  24.625  1.00  0.00    +0.000 H 
ATOM     21  C14 UNL A   1      34.026  25.956  24.896  1.00  0.00    +0.000 C 
BRANCH   21   20
ATOM    106  H15 UNL A   1      35.766  24.758  24.653  1.00  0.00    +0.000 H 
ATOM    107  H16 UNL A   1      35.216  24.962  26.328  1.00  0.00    +0.000 H 
ATOM     20  C13 UNL A   1      34.924  24.792  25.313  1.00  0.00    +0.000 C 
BRANCH   20   19
ATOM    105  H14 UNL A   1      34.011  23.071  26.115  1.00  0.00    +0.000 H 
ATOM     19  N3  UNL A   1      34.251  23.508  25.267  1.00  0.00    +0.000 N 
BRANCH   19    2
ATOM      1  O1  UNL A   1      34.558  23.040  23.040  1.00  0.00    +0.000 O 
ATOM      2  C1  UNL A   1      33.936  22.873  24.086  1.00  0.00    +0.000 C 
BRANCH    2    3
ATOM      3  C2  UNL A   1      32.687  21.982  24.135  1.00  0.00    +0.000 C 
ATOM     92  H1  UNL A   1      32.579  21.611  25.134  1.00  0.00    +0.000 H 
ATOM     93  H2  UNL A   1      32.837  21.202  23.419  1.00  0.00    +0.000 H 
BRANCH    3    4
ATOM      4  N1  UNL A   1      31.450  22.659  23.764  1.00  0.00    +0.000 N 
ATOM     94  H3  UNL A   1      30.838  22.142  23.192  1.00  0.00    +0.000 H 
BRANCH    4    5
ATOM      5  C3  UNL A   1      31.022  23.912  24.097  1.00  0.00    +0.000 C 
ATOM      6  O2  UNL A   1      30.804  24.155  25.284  1.00  0.00    +0.000 O 
BRANCH    5    7
ATOM     95  H4  UNL A   1      30.062  24.726  22.364  1.00  0.00    +0.000 H 
ATOM      7  C4  UNL A   1      30.865  24.987  23.021  1.00  0.00    +0.000 C 
ATOM     96  H5  UNL A   1      31.766  25.068  22.449  1.00  0.00    +0.000 H 
BRANCH    7    8
ATOM     97  H6  UNL A   1      31.329  26.703  24.110  1.00  0.00    +0.000 H 
ATOM      8  N2  UNL A   1      30.575  26.249  23.670  1.00  0.00    +0.000 N 
BRANCH    8    9
ATOM      9  C5  UNL A   1      29.369  26.872  23.734  1.00  0.00    +0.000 C 
ATOM     10  O3  UNL A   1      28.388  26.278  24.158  1.00  0.00    +0.000 O 
BRANCH    9   11
ATOM     11  O4  UNL A   1      29.400  28.159  23.319  1.00  0.00    +0.000 O 
BRANCH   11   12
ATOM     98  H7  UNL A   1      27.377  28.460  23.471  1.00  0.00    +0.000 H 
ATOM     99  H8  UNL A   1      27.990  28.155  21.845  1.00  0.00    +0.000 H 
ATOM     12  C6  UNL A   1      28.165  28.654  22.775  1.00  0.00    +0.000 C 
BRANCH   12   13
ATOM    100  H9  UNL A   1      27.794  29.971  20.442  1.00  0.00    +0.000 H 
ATOM    101  H10 UNL A   1      28.019  32.331  19.960  1.00  0.00    +0.000 H 
ATOM    102  H11 UNL A   1      28.527  33.890  21.748  1.00  0.00    +0.000 H 
ATOM    103  H12 UNL A   1      28.820  33.079  24.014  1.00  0.00    +0.000 H 
ATOM    104  H13 UNL A   1      28.659  30.707  24.492  1.00  0.00    +0.000 H 
ATOM     13  C7  UNL A   1      28.222  30.138  22.504  1.00  0.00    +0.000 C 
ATOM     14  C8  UNL A   1      28.028  30.627  21.203  1.00  0.00    +0.000 C 
ATOM     15  C9  UNL A   1      28.148  31.988  20.925  1.00  0.00    +0.000 C 
ATOM     16  C10 UNL A   1      28.441  32.881  21.950  1.00  0.00    +0.000 C 
ATOM     17  C11 UNL A   1      28.616  32.413  23.253  1.00  0.00    +0.000 C 
ATOM     18  C12 UNL A   1      28.516  31.047  23.528  1.00  0.00    +0.000 C 
ENDBRANCH   12   13
ENDBRANCH   11   12
ENDBRANCH    9   11
ENDBRANCH    8    9
ENDBRANCH    7    8
ENDBRANCH    5    7
ENDBRANCH    4    5
ENDBRANCH    3    4
ENDBRANCH    2    3
ENDBRANCH   19    2
ENDBRANCH   20   19
ENDBRANCH   21   20
ENDBRANCH   22   21
ENDBRANCH   23   22
ENDBRANCH   24   23
ENDBRANCH   25   24
ENDBRANCH   26   25
ENDBRANCH   27   26
ENDBRANCH   29   27
ENDBRANCH   33   32
BRANCH   37   38
ATOM     38  C28 UNL A   1      41.985  26.525  27.826  1.00  0.00    +0.000 C 
ATOM     39  C29 UNL A   1      42.899  26.961  26.854  1.00  0.00    +0.000 C 
ATOM     40  F1  UNL A   1      43.438  28.188  26.937  1.00  0.00    +0.000 F 
ATOM     41  C30 UNL A   1      43.239  26.151  25.774  1.00  0.00    +0.000 C 
ATOM     42  F2  UNL A   1      44.080  26.606  24.836  1.00  0.00    +0.000 F 
ATOM     43  C31 UNL A   1      42.699  24.879  25.662  1.00  0.00    +0.000 C 
ATOM     44  F3  UNL A   1      43.034  24.096  24.626  1.00  0.00    +0.000 F 
ATOM     45  C32 UNL A   1      41.808  24.419  26.620  1.00  0.00    +0.000 C 
ATOM     46  F4  UNL A   1      41.297  23.184  26.520  1.00  0.00    +0.000 F 
ATOM     47  C33 UNL A   1      41.444  25.237  27.686  1.00  0.00    +0.000 C 
ATOM     48  F5  UNL A   1      40.571  24.769  28.590  1.00  0.00    +0.000 F 
ENDBRANCH   37   38
BRANCH   54   55
ATOM     65  F10 UNL A   1      43.606  26.176  35.252  1.00  0.00    +0.000 F 
ATOM     55  C39 UNL A   1      44.678  28.088  34.322  1.00  0.00    +0.000 C 
ATOM     56  C40 UNL A   1      45.824  28.894  34.288  1.00  0.00    +0.000 C 
ATOM     57  F6  UNL A   1      45.875  29.960  33.474  1.00  0.00    +0.000 F 
ATOM     58  C41 UNL A   1      46.939  28.585  35.063  1.00  0.00    +0.000 C 
ATOM     59  F7  UNL A   1      48.040  29.345  34.981  1.00  0.00    +0.000 F 
ATOM     60  C42 UNL A   1      46.916  27.487  35.910  1.00  0.00    +0.000 C 
ATOM     61  F8  UNL A   1      47.986  27.197  36.662  1.00  0.00    +0.000 F 
ATOM     62  C43 UNL A   1      45.785  26.686  35.972  1.00  0.00    +0.000 C 
ATOM     63  F9  UNL A   1      45.757  25.632  36.800  1.00  0.00    +0.000 F 
ATOM     64  C44 UNL A   1      44.681  26.975  35.177  1.00  0.00    +0.000 C 
ENDBRANCH   54   55
BRANCH   69   70
ATOM     70  C48 UNL A   1      39.122  32.094  35.596  1.00  0.00    +0.000 C 
ATOM     71  C49 UNL A   1      39.520  33.430  35.748  1.00  0.00    +0.000 C 
ATOM     72  F11 UNL A   1      40.307  34.002  34.825  1.00  0.00    +0.000 F 
ATOM     73  C50 UNL A   1      39.148  34.169  36.868  1.00  0.00    +0.000 C 
ATOM     74  F12 UNL A   1      39.584  35.427  37.012  1.00  0.00    +0.000 F 
ATOM     75  C51 UNL A   1      38.348  33.597  37.845  1.00  0.00    +0.000 C 
ATOM     76  F13 UNL A   1      37.991  34.307  38.923  1.00  0.00    +0.000 F 
ATOM     77  C52 UNL A   1      37.924  32.283  37.707  1.00  0.00    +0.000 C 
ATOM     78  F14 UNL A   1      37.139  31.731  38.641  1.00  0.00    +0.000 F 
ATOM     79  C53 UNL A   1      38.319  31.534  36.599  1.00  0.00    +0.000 C 
ATOM     80  F15 UNL A   1      37.908  30.261  36.500  1.00  0.00    +0.000 F 
ENDBRANCH   69   70
TORSDOF 23
ENDMDL
MODEL 2
REMARK VINA RESULT:      -9.8     20.298     26.016
ROOT
ATOM    129  H38 UNL A   1      51.080  22.297  15.025  1.00  0.00    +0.000 H 
ATOM    130  H39 UNL A   1      50.828  21.188  12.732  1.00  0.00    +0.000 H 
ATOM     33  C24 UNL A   1      53.244  20.047  11.739  1.00  0.00    +0.000 C 
ATOM     34  C25 UNL A   1      53.004  20.658  13.092  1.00  0.00    +0.000 C 
ATOM     35  N5  UNL A   1      53.831  20.796  14.098  1.00  0.00    +0.000 N 
ATOM     36  C26 UNL A   1      53.118  21.467  15.084  1.00  0.00    +0.000 C 
ATOM     37  C27 UNL A   1      53.514  21.798  16.335  1.00  0.00    +0.000 C 
ATOM     49  C34 UNL A   1      54.807  21.488  16.887  1.00  0.00    +0.000 C 
ATOM     50  C35 UNL A   1      55.281  21.729  18.165  1.00  0.00    +0.000 C 
ATOM     51  C36 UNL A   1      56.607  21.290  18.230  1.00  0.00    +0.000 C 
ATOM     52  C37 UNL A   1      56.943  20.730  17.009  1.00  0.00    +0.000 C 
ATOM     53  N6  UNL A   1      55.832  20.864  16.192  1.00  0.00    +0.000 N 
ATOM     54  C38 UNL A   1      58.186  20.118  16.614  1.00  0.00    +0.000 C 
ATOM     66  C45 UNL A   1      58.439  19.593  15.391  1.00  0.00    +0.000 C 
ATOM     67  N7  UNL A   1      57.600  19.506  14.289  1.00  0.00    +0.000 N 
ATOM     68  C46 UNL A   1      58.302  18.926  13.346  1.00  0.00    +0.000 C 
ATOM     69  C47 UNL A   1      57.887  18.547  11.949  1.00  0.00    +0.000 C 
ATOM     81  C54 UNL A   1      56.624  18.787  11.548  1.00  0.00    +0.000 C 
ATOM     82  C55 UNL A   1      56.081  18.477  10.228  1.00  0.00    +0.000 C 
ATOM     83  C56 UNL A   1      54.814  18.914  10.162  1.00  0.00    +0.000 C 
ATOM     84  C57 UNL A   1      54.441  19.501  11.450  1.00  0.00    +0.000 C 
ATOM     85  N8  UNL A   1      55.572  19.364  12.216  1.00  0.00    +0.000 N 
ATOM     86  C58 UNL A   1      59.683  18.610  13.737  1.00  0.00    +0.000 C 
ATOM     87  C59 UNL A   1      59.701  18.998  15.004  1.00  0.00    +0.000 C 
ATOM     88  C60 UNL A   1      51.807  21.749  14.540  1.00  0.00    +0.000 C 
ATOM     89  C61 UNL A   1      51.663  21.211  13.337  1.00  0.00    +0.000 C 
ATOM    121  H30 UNL A   1      54.748  22.161  18.936  1.00  0.00    +0.000 H 
ATOM    122  H31 UNL A   1      57.229  21.369  19.050  1.00  0.00    +0.000 H 
ATOM    123  H32 UNL A   1      55.778  20.561  15.256  1.00  0.00    +0.000 H 
ATOM    124  H33 UNL A   1      56.591  17.999   9.469  1.00  0.00    +0.000 H 
ATOM    125  H34 UNL A   1      54.200  18.846   9.335  1.00  0.00    +0.000 H 
ATOM    126  H35 UNL A   1      55.625  19.653  13.156  1.00  0.00    +0.000 H 
ATOM    127  H36 UNL A   1      60.440  18.196  13.172  1.00  0.00    +0.000 H 
ATOM    128  H37 UNL A   1      60.511  18.891  15.634  1.00  0.00    +0.000 H 
ENDROOT
BRANCH   33   32
ATOM    131  H40 UNL A   1      51.371  18.222  11.160  1.00  0.00    +0.000 H 
ATOM    132  H41 UNL A   1      49.694  18.269   9.412  1.00  0.00    +0.000 H 
ATOM    119  H28 UNL A   1      50.936  22.134   8.313  1.00  0.00    +0.000 H 
ATOM    120  H29 UNL A   1      52.759  21.998   9.911  1.00  0.00    +0.000 H 
ATOM     90  C62 UNL A   1      51.294  19.046  10.543  1.00  0.00    +0.000 C 
ATOM     91  C63 UNL A   1      50.300  19.090   9.568  1.00  0.00    +0.000 C 
ATOM     29  C20 UNL A   1      50.125  20.244   8.801  1.00  0.00    +0.000 C 
ATOM     30  C21 UNL A   1      51.033  21.302   8.915  1.00  0.00    +0.000 C 
ATOM     31  C22 UNL A   1      52.074  21.229   9.846  1.00  0.00    +0.000 C 
ATOM     32  C23 UNL A   1      52.191  20.116  10.693  1.00  0.00    +0.000 C 
BRANCH   29   27
ATOM     27  C19 UNL A   1      48.998  20.370   7.851  1.00  0.00    +0.000 C 
ATOM     28  O5  UNL A   1      48.444  21.456   7.709  1.00  0.00    +0.000 O 
BRANCH   27   26
ATOM     26  N4  UNL A   1      48.557  19.274   7.149  1.00  0.00    +0.000 N 
ATOM    118  H27 UNL A   1      49.149  18.489   7.184  1.00  0.00    +0.000 H 
BRANCH   26   25
ATOM     25  C18 UNL A   1      47.344  19.100   6.363  1.00  0.00    +0.000 C 
ATOM    116  H25 UNL A   1      46.500  19.331   6.981  1.00  0.00    +0.000 H 
ATOM    117  H26 UNL A   1      47.410  19.755   5.520  1.00  0.00    +0.000 H 
BRANCH   25   24
ATOM    114  H23 UNL A   1      48.069  17.429   5.285  1.00  0.00    +0.000 H 
ATOM    115  H24 UNL A   1      47.020  17.059   6.688  1.00  0.00    +0.000 H 
ATOM     24  C17 UNL A   1      47.184  17.679   5.831  1.00  0.00    +0.000 C 
BRANCH   24   23
ATOM    113  H22 UNL A   1      45.158  17.940   5.391  1.00  0.00    +0.000 H 
ATOM     23  C16 UNL A   1      45.985  17.458   4.912  1.00  0.00    +0.000 C 
ATOM    112  H21 UNL A   1      45.858  16.403   4.785  1.00  0.00    +0.000 H 
BRANCH   23   22
ATOM    110  H19 UNL A   1      47.031  18.595   3.464  1.00  0.00    +0.000 H 
ATOM     22  C15 UNL A   1      46.088  18.090   3.523  1.00  0.00    +0.000 C 
ATOM    111  H20 UNL A   1      45.977  17.281   2.833  1.00  0.00    +0.000 H 
BRANCH   22   21
ATOM    109  H18 UNL A   1      45.468  19.844   2.547  1.00  0.00    +0.000 H 
ATOM    108  H17 UNL A   1      44.579  19.488   4.057  1.00  0.00    +0.000 H 
ATOM     21  C14 UNL A   1      44.994  19.099   3.151  1.00  0.00    +0.000 C 
BRANCH   21   20
ATOM    106  H15 UNL A   1      43.976  18.856   1.300  1.00  0.00    +0.000 H 
ATOM    107  H16 UNL A   1      43.890  17.465   2.399  1.00  0.00    +0.000 H 
ATOM     20  C13 UNL A   1      43.850  18.531   2.312  1.00  0.00    +0.000 C 
BRANCH   20   19
ATOM    105  H14 UNL A   1      42.373  18.995   3.740  1.00  0.00    +0.000 H 
ATOM     19  N3  UNL A   1      42.541  18.952   2.771  1.00  0.00    +0.000 N 
BRANCH   19    2
ATOM      1  O1  UNL A   1      40.363  18.914   2.046  1.00  0.00    +0.000 O 
ATOM      2  C1  UNL A   1      41.523  19.294   1.909  1.00  0.00    +0.000 C 
BRANCH    2    3
ATOM      3  C2  UNL A   1      41.946  20.137   0.698  1.00  0.00    +0.000 C 
ATOM     92  H1  UNL A   1      42.364  19.481  -0.038  1.00  0.00    +0.000 H 
ATOM     93  H2  UNL A   1      42.649  20.859   1.057  1.00  0.00    +0.000 H 
BRANCH    3    4
ATOM      4  N1  UNL A   1      40.857  20.885   0.078  1.00  0.00    +0.000 N 
ATOM     94  H3  UNL A   1      40.663  21.763   0.479  1.00  0.00    +0.000 H 
BRANCH    4    5
ATOM      5  C3  UNL A   1      40.070  20.537  -0.982  1.00  0.00    +0.000 C 
ATOM      6  O2  UNL A   1      40.195  19.407  -1.453  1.00  0.00    +0.000 O 
BRANCH    5    7
ATOM     95  H4  UNL A   1      38.371  21.010  -2.198  1.00  0.00    +0.000 H 
ATOM      7  C4  UNL A   1      39.033  21.519  -1.529  1.00  0.00    +0.000 C 
ATOM     96  H5  UNL A   1      39.521  22.309  -2.061  1.00  0.00    +0.000 H 
BRANCH    7    8
ATOM     97  H6  UNL A   1      38.802  22.470   0.311  1.00  0.00    +0.000 H 
ATOM      8  N2  UNL A   1      38.281  22.061  -0.417  1.00  0.00    +0.000 N 
BRANCH    8    9
ATOM      9  C5  UNL A   1      36.929  22.065  -0.273  1.00  0.00    +0.000 C 
ATOM     10  O3  UNL A   1      36.254  22.934  -0.805  1.00  0.00    +0.000 O 
BRANCH    9   11
ATOM     11  O4  UNL A   1      36.458  21.033   0.464  1.00  0.00    +0.000 O 
BRANCH   11   12
ATOM     98  H7  UNL A   1      38.284  21.072   1.396  1.00  0.00    +0.000 H 
ATOM     99  H8  UNL A   1      37.586  19.472   1.137  1.00  0.00    +0.000 H 
ATOM     12  C6  UNL A   1      37.390  20.487   1.413  1.00  0.00    +0.000 C 
BRANCH   12   13
ATOM    100  H9  UNL A   1      36.641  18.389   2.947  1.00  0.00    +0.000 H 
ATOM    101  H10 UNL A   1      35.616  18.379   5.138  1.00  0.00    +0.000 H 
ATOM    102  H11 UNL A   1      35.254  20.468   6.316  1.00  0.00    +0.000 H 
ATOM    103  H12 UNL A   1      35.908  22.565   5.290  1.00  0.00    +0.000 H 
ATOM    104  H13 UNL A   1      36.877  22.586   3.067  1.00  0.00    +0.000 H 
ATOM     13  C7  UNL A   1      36.831  20.489   2.815  1.00  0.00    +0.000 C 
ATOM     14  C8  UNL A   1      36.472  19.281   3.435  1.00  0.00    +0.000 C 
ATOM     15  C9  UNL A   1      35.891  19.273   4.702  1.00  0.00    +0.000 C 
ATOM     16  C10 UNL A   1      35.682  20.471   5.377  1.00  0.00    +0.000 C 
ATOM     17  C11 UNL A   1      36.052  21.678   4.783  1.00  0.00    +0.000 C 
ATOM     18  C12 UNL A   1      36.617  21.689   3.505  1.00  0.00    +0.000 C 
ENDBRANCH   12   13
ENDBRANCH   11   12
ENDBRANCH    9   11
ENDBRANCH    8    9
ENDBRANCH    7    8
ENDBRANCH    5    7
ENDBRANCH    4    5
ENDBRANCH    3    4
ENDBRANCH    2    3
ENDBRANCH   19    2
ENDBRANCH   20   19
ENDBRANCH   21   20
ENDBRANCH   22   21
ENDBRANCH   23   22
ENDBRANCH   24   23
ENDBRANCH   25   24
ENDBRANCH   26   25
ENDBRANCH   27   26
ENDBRANCH   29   27
ENDBRANCH   33   32
BRANCH   37   38
ATOM     38  C28 UNL A   1      52.535  22.533  17.204  1.00  0.00    +0.000 C 
ATOM     39  C29 UNL A   1      52.374  23.924  17.115  1.00  0.00    +0.000 C 
ATOM     40  F1  UNL A   1      53.142  24.641  16.279  1.00  0.00    +0.000 F 
ATOM     41  C30 UNL A   1      51.446  24.591  17.910  1.00  0.00    +0.000 C 
ATOM     42  F2  UNL A   1      51.341  25.925  17.838  1.00  0.00    +0.000 F 
ATOM     43  C31 UNL A   1      50.638  23.879  18.782  1.00  0.00    +0.000 C 
ATOM     44  F3  UNL A   1      49.737  24.521  19.540  1.00  0.00    +0.000 F 
ATOM     45  C32 UNL A   1      50.766  22.500  18.873  1.00  0.00    +0.000 C 
ATOM     46  F4  UNL A   1      49.976  21.809  19.706  1.00  0.00    +0.000 F 
ATOM     47  C33 UNL A   1      51.713  21.834  18.101  1.00  0.00    +0.000 C 
ATOM     48  F5  UNL A   1      51.822  20.502  18.221  1.00  0.00    +0.000 F 
ENDBRANCH   37   38
BRANCH   54   55
ATOM     65  F10 UNL A   1      59.795  22.339  17.352  1.00  0.00    +0.000 F 
ATOM     55  C39 UNL A   1      59.277  20.033  17.641  1.00  0.00    +0.000 C 
ATOM     56  C40 UNL A   1      59.590  18.828  18.287  1.00  0.00    +0.000 C 
ATOM     57  F6  UNL A   1      58.870  17.723  18.039  1.00  0.00    +0.000 F 
ATOM     58  C41 UNL A   1      60.623  18.764  19.219  1.00  0.00    +0.000 C 
ATOM     59  F7  UNL A   1      60.877  17.613  19.856  1.00  0.00    +0.000 F 
ATOM     60  C42 UNL A   1      61.381  19.892  19.497  1.00  0.00    +0.000 C 
ATOM     61  F8  UNL A   1      62.380  19.826  20.388  1.00  0.00    +0.000 F 
ATOM     62  C43 UNL A   1      61.099  21.090  18.858  1.00  0.00    +0.000 C 
ATOM     63  F9  UNL A   1      61.839  22.177  19.117  1.00  0.00    +0.000 F 
ATOM     64  C44 UNL A   1      60.049  21.164  17.948  1.00  0.00    +0.000 C 
ENDBRANCH   54   55
BRANCH   69   70
ATOM     70  C48 UNL A   1      58.850  17.891  11.026  1.00  0.00    +0.000 C 
ATOM     71  C49 UNL A   1      58.994  16.497  11.011  1.00  0.00    +0.000 C 
ATOM     72  F11 UNL A   1      58.261  15.740  11.841  1.00  0.00    +0.000 F 
ATOM     73  C50 UNL A   1      59.921  15.877  10.177  1.00  0.00    +0.000 C 
ATOM     74  F12 UNL A   1      60.073  14.547  10.219  1.00  0.00    +0.000 F 
ATOM     75  C51 UNL A   1      60.703  16.637   9.320  1.00  0.00    +0.000 C 
ATOM     76  F13 UNL A   1      61.595  16.041   8.518  1.00  0.00    +0.000 F 
ATOM     77  C52 UNL A   1      60.563  18.016   9.301  1.00  0.00    +0.000 C 
ATOM     78  F14 UNL A   1      61.306  18.753   8.465  1.00  0.00    +0.000 F 
ATOM     79  C53 UNL A   1      59.655  18.639  10.156  1.00  0.00    +0.000 C 
ATOM     80  F15 UNL A   1      59.553  19.976  10.128  1.00  0.00    +0.000 F 
ENDBRANCH   69   70
TORSDOF 23
ENDMDL
MODEL 3
REMARK VINA RESULT:      -9.8     35.043     41.404
ROOT
ATOM    129  H38 UNL A   1       6.115   8.977  38.859  1.00  0.00    +0.000 H 
ATOM    130  H39 UNL A   1       4.592  11.009  39.187  1.00  0.00    +0.000 H 
ATOM     33  C24 UNL A   1       2.030  10.728  37.970  1.00  0.00    +0.000 C 
ATOM     34  C25 UNL A   1       3.113   9.691  38.081  1.00  0.00    +0.000 C 
ATOM     35  N5  UNL A   1       3.122   8.453  37.658  1.00  0.00    +0.000 N 
ATOM     36  C26 UNL A   1       4.380   7.954  37.972  1.00  0.00    +0.000 C 
ATOM     37  C27 UNL A   1       4.862   6.702  37.790  1.00  0.00    +0.000 C 
ATOM     49  C34 UNL A   1       4.110   5.617  37.215  1.00  0.00    +0.000 C 
ATOM     50  C35 UNL A   1       4.491   4.298  37.043  1.00  0.00    +0.000 C 
ATOM     51  C36 UNL A   1       3.448   3.620  36.407  1.00  0.00    +0.000 C 
ATOM     52  C37 UNL A   1       2.396   4.504  36.227  1.00  0.00    +0.000 C 
ATOM     53  N6  UNL A   1       2.819   5.728  36.721  1.00  0.00    +0.000 N 
ATOM     54  C38 UNL A   1       1.103   4.253  35.646  1.00  0.00    +0.000 C 
ATOM     66  C45 UNL A   1       0.124   5.179  35.502  1.00  0.00    +0.000 C 
ATOM     67  N7  UNL A   1       0.125   6.515  35.877  1.00  0.00    +0.000 N 
ATOM     68  C46 UNL A   1      -1.044   6.990  35.521  1.00  0.00    +0.000 C 
ATOM     69  C47 UNL A   1      -1.605   8.374  35.711  1.00  0.00    +0.000 C 
ATOM     81  C54 UNL A   1      -0.867   9.303  36.349  1.00  0.00    +0.000 C 
ATOM     82  C55 UNL A   1      -1.276  10.681  36.604  1.00  0.00    +0.000 C 
ATOM     83  C56 UNL A   1      -0.267  11.335  37.201  1.00  0.00    +0.000 C 
ATOM     84  C57 UNL A   1       0.849  10.411  37.406  1.00  0.00    +0.000 C 
ATOM     85  N8  UNL A   1       0.395   9.223  36.886  1.00  0.00    +0.000 N 
ATOM     86  C58 UNL A   1      -1.908   6.011  34.846  1.00  0.00    +0.000 C 
ATOM     87  C59 UNL A   1      -1.166   4.914  34.899  1.00  0.00    +0.000 C 
ATOM     88  C60 UNL A   1       5.123   9.036  38.581  1.00  0.00    +0.000 C 
ATOM     89  C61 UNL A   1       4.364  10.111  38.732  1.00  0.00    +0.000 C 
ATOM    121  H30 UNL A   1       5.393   3.886  37.333  1.00  0.00    +0.000 H 
ATOM    122  H31 UNL A   1       3.458   2.628  36.120  1.00  0.00    +0.000 H 
ATOM    123  H32 UNL A   1       2.281   6.553  36.722  1.00  0.00    +0.000 H 
ATOM    124  H33 UNL A   1      -2.195  11.086  36.364  1.00  0.00    +0.000 H 
ATOM    125  H34 UNL A   1      -0.277  12.330  37.472  1.00  0.00    +0.000 H 
ATOM    126  H35 UNL A   1       0.924   8.393  36.896  1.00  0.00    +0.000 H 
ATOM    127  H36 UNL A   1      -2.846   6.144  34.438  1.00  0.00    +0.000 H 
ATOM    128  H37 UNL A   1      -1.468   3.990  34.554  1.00  0.00    +0.000 H 
ENDROOT
BRANCH   33   32
ATOM    131  H40 UNL A   1       1.556  11.819  40.370  1.00  0.00    +0.000 H 
ATOM    132  H41 UNL A   1       1.889  14.109  41.091  1.00  0.00    +0.000 H 
ATOM    119  H28 UNL A   1       3.573  15.048  37.353  1.00  0.00    +0.000 H 
ATOM    120  H29 UNL A   1       3.035  12.819  36.555  1.00  0.00    +0.000 H 
ATOM     90  C62 UNL A   1       1.967  12.509  39.720  1.00  0.00    +0.000 C 
ATOM     91  C63 UNL A   1       2.198  13.813  40.151  1.00  0.00    +0.000 C 
ATOM     29  C20 UNL A   1       2.848  14.720  39.311  1.00  0.00    +0.000 C 
ATOM     30  C21 UNL A   1       3.140  14.362  37.991  1.00  0.00    +0.000 C 
ATOM     31  C22 UNL A   1       2.843  13.074  37.536  1.00  0.00    +0.000 C 
ATOM     32  C23 UNL A   1       2.287  12.125  38.409  1.00  0.00    +0.000 C 
BRANCH   29   27
ATOM     27  C19 UNL A   1       3.225  16.070  39.785  1.00  0.00    +0.000 C 
ATOM     28  O5  UNL A   1       2.681  17.057  39.298  1.00  0.00    +0.000 O 
BRANCH   27   26
ATOM     26  N4  UNL A   1       4.196  16.221  40.745  1.00  0.00    +0.000 N 
ATOM    118  H27 UNL A   1       3.878  16.165  41.674  1.00  0.00    +0.000 H 
BRANCH   26   25
ATOM     25  C18 UNL A   1       5.626  16.449  40.593  1.00  0.00    +0.000 C 
ATOM    116  H25 UNL A   1       5.775  17.200  39.844  1.00  0.00    +0.000 H 
ATOM    117  H26 UNL A   1       6.005  16.757  41.545  1.00  0.00    +0.000 H 
BRANCH   25   24
ATOM    114  H23 UNL A   1       6.228  14.449  40.935  1.00  0.00    +0.000 H 
ATOM    115  H24 UNL A   1       5.998  14.915  39.221  1.00  0.00    +0.000 H 
ATOM     24  C17 UNL A   1       6.384  15.192  40.180  1.00  0.00    +0.000 C 
BRANCH   24   23
ATOM    113  H22 UNL A   1       8.092  15.099  38.981  1.00  0.00    +0.000 H 
ATOM     23  C16 UNL A   1       7.889  15.369  39.995  1.00  0.00    +0.000 C 
ATOM    112  H21 UNL A   1       8.384  14.750  40.717  1.00  0.00    +0.000 H 
BRANCH   23   22
ATOM    110  H19 UNL A   1       7.721  17.456  39.680  1.00  0.00    +0.000 H 
ATOM     22  C15 UNL A   1       8.414  16.796  40.160  1.00  0.00    +0.000 C 
ATOM    111  H20 UNL A   1       8.507  16.945  41.215  1.00  0.00    +0.000 H 
BRANCH   22   21
ATOM    109  H18 UNL A   1       9.652  17.386  38.569  1.00  0.00    +0.000 H 
ATOM    108  H17 UNL A   1      10.391  16.188  39.672  1.00  0.00    +0.000 H 
ATOM     21  C14 UNL A   1       9.807  17.079  39.582  1.00  0.00    +0.000 C 
BRANCH   21   20
ATOM    106  H15 UNL A   1      10.204  19.147  39.879  1.00  0.00    +0.000 H 
ATOM    107  H16 UNL A   1      10.406  18.125  41.315  1.00  0.00    +0.000 H 
ATOM     20  C13 UNL A   1      10.569  18.217  40.262  1.00  0.00    +0.000 C 
BRANCH   20   19
ATOM    105  H14 UNL A   1      12.427  17.274  39.954  1.00  0.00    +0.000 H 
ATOM     19  N3  UNL A   1      12.000  18.157  40.040  1.00  0.00    +0.000 N 
BRANCH   19    2
ATOM      1  O1  UNL A   1      13.442  19.571  38.947  1.00  0.00    +0.000 O 
ATOM      2  C1  UNL A   1      12.788  19.282  39.946  1.00  0.00    +0.000 C 
BRANCH    2    3
ATOM      3  C2  UNL A   1      12.862  20.137  41.219  1.00  0.00    +0.000 C 
ATOM     92  H1  UNL A   1      13.763  19.885  41.741  1.00  0.00    +0.000 H 
ATOM     93  H2  UNL A   1      11.981  19.921  41.786  1.00  0.00    +0.000 H 
BRANCH    3    4
ATOM      4  N1  UNL A   1      12.862  21.576  40.977  1.00  0.00    +0.000 N 
ATOM     94  H3  UNL A   1      12.018  21.948  40.634  1.00  0.00    +0.000 H 
BRANCH    4    5
ATOM      5  C3  UNL A   1      13.870  22.479  41.160  1.00  0.00    +0.000 C 
ATOM      6  O2  UNL A   1      14.471  22.887  40.166  1.00  0.00    +0.000 O 
BRANCH    5    7
ATOM     95  H4  UNL A   1      15.258  23.144  42.649  1.00  0.00    +0.000 H 
ATOM      7  C4  UNL A   1      14.203  22.992  42.561  1.00  0.00    +0.000 C 
ATOM     96  H5  UNL A   1      13.894  22.278  43.296  1.00  0.00    +0.000 H 
BRANCH    7    8
ATOM     97  H6  UNL A   1      12.594  24.193  43.122  1.00  0.00    +0.000 H 
ATOM      8  N2  UNL A   1      13.511  24.248  42.767  1.00  0.00    +0.000 N 
BRANCH    8    9
ATOM      9  C5  UNL A   1      13.995  25.494  42.522  1.00  0.00    +0.000 C 
ATOM     10  O3  UNL A   1      13.971  25.954  41.390  1.00  0.00    +0.000 O 
BRANCH    9   11
ATOM     11  O4  UNL A   1      14.452  26.126  43.627  1.00  0.00    +0.000 O 
BRANCH   11   12
ATOM     98  H7  UNL A   1      16.325  25.692  42.915  1.00  0.00    +0.000 H 
ATOM     99  H8  UNL A   1      16.192  25.890  44.664  1.00  0.00    +0.000 H 
ATOM     12  C6  UNL A   1      15.881  26.256  43.708  1.00  0.00    +0.000 C 
BRANCH   12   13
ATOM    100  H9  UNL A   1      18.306  27.335  44.228  1.00  0.00    +0.000 H 
ATOM    101  H10 UNL A   1      18.995  29.653  44.182  1.00  0.00    +0.000 H 
ATOM    102  H11 UNL A   1      17.436  31.367  43.467  1.00  0.00    +0.000 H 
ATOM    103  H12 UNL A   1      15.182  30.756  42.811  1.00  0.00    +0.000 H 
ATOM    104  H13 UNL A   1      14.466  28.442  42.917  1.00  0.00    +0.000 H 
ATOM     13  C7  UNL A   1      16.324  27.694  43.591  1.00  0.00    +0.000 C 
ATOM     14  C8  UNL A   1      17.632  28.061  43.941  1.00  0.00    +0.000 C 
ATOM     15  C9  UNL A   1      18.035  29.396  43.906  1.00  0.00    +0.000 C 
ATOM     16  C10 UNL A   1      17.139  30.379  43.497  1.00  0.00    +0.000 C 
ATOM     17  C11 UNL A   1      15.841  30.027  43.126  1.00  0.00    +0.000 C 
ATOM     18  C12 UNL A   1      15.432  28.693  43.181  1.00  0.00    +0.000 C 
ENDBRANCH   12   13
ENDBRANCH   11   12
ENDBRANCH    9   11
ENDBRANCH    8    9
ENDBRANCH    7    8
ENDBRANCH    5    7
ENDBRANCH    4    5
ENDBRANCH    3    4
ENDBRANCH    2    3
ENDBRANCH   19    2
ENDBRANCH   20   19
ENDBRANCH   21   20
ENDBRANCH   22   21
ENDBRANCH   23   22
ENDBRANCH   24   23
ENDBRANCH   25   24
ENDBRANCH   26   25
ENDBRANCH   27   26
ENDBRANCH   29   27
ENDBRANCH   33   32
BRANCH   37   38
ATOM     38  C28 UNL A   1       6.273   6.430  38.222  1.00  0.00    +0.000 C 
ATOM     39  C29 UNL A   1       6.559   5.734  39.406  1.00  0.00    +0.000 C 
ATOM     40  F1  UNL A   1       5.562   5.340  40.214  1.00  0.00    +0.000 F 
ATOM     41  C30 UNL A   1       7.873   5.468  39.783  1.00  0.00    +0.000 C 
ATOM     42  F2  UNL A   1       8.121   4.840  40.940  1.00  0.00    +0.000 F 
ATOM     43  C31 UNL A   1       8.923   5.862  38.969  1.00  0.00    +0.000 C 
ATOM     44  F3  UNL A   1      10.187   5.597  39.328  1.00  0.00    +0.000 F 
ATOM     45  C32 UNL A   1       8.664   6.535  37.784  1.00  0.00    +0.000 C 
ATOM     46  F4  UNL A   1       9.679   6.904  36.989  1.00  0.00    +0.000 F 
ATOM     47  C33 UNL A   1       7.353   6.828  37.418  1.00  0.00    +0.000 C 
ATOM     48  F5  UNL A   1       7.136   7.491  36.273  1.00  0.00    +0.000 F 
ENDBRANCH   37   38
BRANCH   54   55
ATOM     65  F10 UNL A   1      -0.349   2.384  37.216  1.00  0.00    +0.000 F 
ATOM     55  C39 UNL A   1       0.805   2.855  35.187  1.00  0.00    +0.000 C 
ATOM     56  C40 UNL A   1       1.255   2.373  33.950  1.00  0.00    +0.000 C 
ATOM     57  F6  UNL A   1       1.922   3.183  33.112  1.00  0.00    +0.000 F 
ATOM     58  C41 UNL A   1       0.988   1.066  33.552  1.00  0.00    +0.000 C 
ATOM     59  F7  UNL A   1       1.390   0.639  32.347  1.00  0.00    +0.000 F 
ATOM     60  C42 UNL A   1       0.298   0.208  34.396  1.00  0.00    +0.000 C 
ATOM     61  F8  UNL A   1       0.051  -1.053  34.015  1.00  0.00    +0.000 F 
ATOM     62  C43 UNL A   1      -0.142   0.659  35.631  1.00  0.00    +0.000 C 
ATOM     63  F9  UNL A   1      -0.797  -0.173  36.452  1.00  0.00    +0.000 F 
ATOM     64  C44 UNL A   1       0.098   1.974  36.019  1.00  0.00    +0.000 C 
ENDBRANCH   54   55
BRANCH   69   70
ATOM     70  C48 UNL A   1      -2.968   8.712  35.225  1.00  0.00    +0.000 C 
ATOM     71  C49 UNL A   1      -3.149   9.389  34.011  1.00  0.00    +0.000 C 
ATOM     72  F11 UNL A   1      -2.084   9.745  33.278  1.00  0.00    +0.000 F 
ATOM     73  C50 UNL A   1      -4.422   9.743  33.566  1.00  0.00    +0.000 C 
ATOM     74  F12 UNL A   1      -4.562  10.434  32.428  1.00  0.00    +0.000 F 
ATOM     75  C51 UNL A   1      -5.539   9.401  34.312  1.00  0.00    +0.000 C 
ATOM     76  F13 UNL A   1      -6.762   9.742  33.886  1.00  0.00    +0.000 F 
ATOM     77  C52 UNL A   1      -5.386   8.711  35.506  1.00  0.00    +0.000 C 
ATOM     78  F14 UNL A   1      -6.464   8.367  36.223  1.00  0.00    +0.000 F 
ATOM     79  C53 UNL A   1      -4.112   8.381  35.965  1.00  0.00    +0.000 C 
ATOM     80  F15 UNL A   1      -3.993   7.730  37.131  1.00  0.00    +0.000 F 
ENDBRANCH   69   70
TORSDOF 23
ENDMDL
MODEL 4
REMARK VINA RESULT:      -9.8     38.052     43.805
ROOT
ATOM    129  H38 UNL A   1      29.216 -15.550  36.020  1.00  0.00    +0.000 H 
ATOM    130  H39 UNL A   1      30.412 -15.493  33.756  1.00  0.00    +0.000 H 
ATOM     33  C24 UNL A   1      28.903 -14.229  31.695  1.00  0.00    +0.000 C 
ATOM     34  C25 UNL A   1      28.563 -14.323  33.157  1.00  0.00    +0.000 C 
ATOM     35  N5  UNL A   1      27.523 -13.854  33.798  1.00  0.00    +0.000 N 
ATOM     36  C26 UNL A   1      27.675 -14.263  35.117  1.00  0.00    +0.000 C 
ATOM     37  C27 UNL A   1      26.891 -13.983  36.184  1.00  0.00    +0.000 C 
ATOM     49  C34 UNL A   1      25.707 -13.165  36.130  1.00  0.00    +0.000 C 
ATOM     50  C35 UNL A   1      24.879 -12.775  37.168  1.00  0.00    +0.000 C 
ATOM     51  C36 UNL A   1      23.833 -12.017  36.634  1.00  0.00    +0.000 C 
ATOM     52  C37 UNL A   1      24.036 -11.893  35.269  1.00  0.00    +0.000 C 
ATOM     53  N6  UNL A   1      25.186 -12.608  34.973  1.00  0.00    +0.000 N 
ATOM     54  C38 UNL A   1      23.241 -11.177  34.306  1.00  0.00    +0.000 C 
ATOM     66  C45 UNL A   1      23.506 -11.106  32.979  1.00  0.00    +0.000 C 
ATOM     67  N7  UNL A   1      24.563 -11.661  32.270  1.00  0.00    +0.000 N 
ATOM     68  C46 UNL A   1      24.376 -11.319  31.018  1.00  0.00    +0.000 C 
ATOM     69  C47 UNL A   1      25.230 -11.616  29.815  1.00  0.00    +0.000 C 
ATOM     81  C54 UNL A   1      26.375 -12.307  29.973  1.00  0.00    +0.000 C 
ATOM     82  C55 UNL A   1      27.300 -12.669  28.903  1.00  0.00    +0.000 C 
ATOM     83  C56 UNL A   1      28.296 -13.410  29.416  1.00  0.00    +0.000 C 
ATOM     84  C57 UNL A   1      28.100 -13.543  30.860  1.00  0.00    +0.000 C 
ATOM     85  N8  UNL A   1      26.945 -12.840  31.103  1.00  0.00    +0.000 N 
ATOM     86  C58 UNL A   1      23.155 -10.534  30.787  1.00  0.00    +0.000 C 
ATOM     87  C59 UNL A   1      22.686 -10.397  32.020  1.00  0.00    +0.000 C 
ATOM     88  C60 UNL A   1      28.883 -15.057  35.177  1.00  0.00    +0.000 C 
ATOM     89  C61 UNL A   1      29.505 -15.069  34.006  1.00  0.00    +0.000 C 
ATOM    121  H30 UNL A   1      25.010 -13.006  38.166  1.00  0.00    +0.000 H 
ATOM    122  H31 UNL A   1      23.044 -11.618  37.165  1.00  0.00    +0.000 H 
ATOM    123  H32 UNL A   1      25.575 -12.705  34.073  1.00  0.00    +0.000 H 
ATOM    124  H33 UNL A   1      27.204 -12.398  27.911  1.00  0.00    +0.000 H 
ATOM    125  H34 UNL A   1      29.074 -13.820  28.877  1.00  0.00    +0.000 H 
ATOM    126  H35 UNL A   1      26.561 -12.729  32.003  1.00  0.00    +0.000 H 
ATOM    127  H36 UNL A   1      22.765 -10.183  29.899  1.00  0.00    +0.000 H 
ATOM    128  H37 UNL A   1      21.842  -9.855  32.264  1.00  0.00    +0.000 H 
ENDROOT
BRANCH   33   32
ATOM    131  H40 UNL A   1      28.951 -16.597  30.445  1.00  0.00    +0.000 H 
ATOM    132  H41 UNL A   1      30.861 -17.845  29.628  1.00  0.00    +0.000 H 
ATOM    119  H28 UNL A   1      33.409 -14.692  30.747  1.00  0.00    +0.000 H 
ATOM    120  H29 UNL A   1      31.532 -13.541  31.768  1.00  0.00    +0.000 H 
ATOM     90  C62 UNL A   1      29.900 -16.199  30.529  1.00  0.00    +0.000 C 
ATOM     91  C63 UNL A   1      30.991 -16.898  30.018  1.00  0.00    +0.000 C 
ATOM     29  C20 UNL A   1      32.261 -16.318  30.035  1.00  0.00    +0.000 C 
ATOM     30  C21 UNL A   1      32.463 -15.098  30.688  1.00  0.00    +0.000 C 
ATOM     31  C22 UNL A   1      31.378 -14.429  31.263  1.00  0.00    +0.000 C 
ATOM     32  C23 UNL A   1      30.081 -14.956  31.156  1.00  0.00    +0.000 C 
BRANCH   29   27
ATOM     27  C19 UNL A   1      33.415 -16.978  29.384  1.00  0.00    +0.000 C 
ATOM     28  O5  UNL A   1      34.022 -17.863  29.980  1.00  0.00    +0.000 O 
BRANCH   27   26
ATOM     26  N4  UNL A   1      33.821 -16.586  28.131  1.00  0.00    +0.000 N 
ATOM    118  H27 UNL A   1      34.733 -16.220  28.082  1.00  0.00    +0.000 H 
BRANCH   26   25
ATOM     25  C18 UNL A   1      33.104 -16.633  26.865  1.00  0.00    +0.000 C 
ATOM    116  H25 UNL A   1      33.771 -16.989  26.107  1.00  0.00    +0.000 H 
ATOM    117  H26 UNL A   1      32.265 -17.284  26.994  1.00  0.00    +0.000 H 
BRANCH   25   24
ATOM    114  H23 UNL A   1      32.342 -15.315  25.395  1.00  0.00    +0.000 H 
ATOM    115  H24 UNL A   1      31.709 -15.085  27.054  1.00  0.00    +0.000 H 
ATOM     24  C17 UNL A   1      32.566 -15.270  26.440  1.00  0.00    +0.000 C 
BRANCH   24   23
ATOM    113  H22 UNL A   1      33.581 -13.587  25.731  1.00  0.00    +0.000 H 
ATOM     23  C16 UNL A   1      33.514 -14.095  26.670  1.00  0.00    +0.000 C 
ATOM    112  H21 UNL A   1      34.446 -14.488  27.019  1.00  0.00    +0.000 H 
BRANCH   23   22
ATOM    110  H19 UNL A   1      33.520 -13.250  28.612  1.00  0.00    +0.000 H 
ATOM     22  C15 UNL A   1      33.038 -13.047  27.678  1.00  0.00    +0.000 C 
ATOM    111  H20 UNL A   1      33.291 -12.102  27.247  1.00  0.00    +0.000 H 
BRANCH   22   21
ATOM    109  H18 UNL A   1      31.405 -12.992  28.999  1.00  0.00    +0.000 H 
ATOM    108  H17 UNL A   1      31.075 -13.829  27.454  1.00  0.00    +0.000 H 
ATOM     21  C14 UNL A   1      31.527 -12.988  27.936  1.00  0.00    +0.000 C 
BRANCH   21   20
ATOM    106  H15 UNL A   1      30.102 -11.424  28.151  1.00  0.00    +0.000 H 
ATOM    107  H16 UNL A   1      31.591 -10.978  27.295  1.00  0.00    +0.000 H 
ATOM     20  C13 UNL A   1      30.834 -11.723  27.431  1.00  0.00    +0.000 C 
BRANCH   20   19
ATOM    105  H14 UNL A   1      30.201 -12.795  25.732  1.00  0.00    +0.000 H 
ATOM     19  N3  UNL A   1      30.175 -11.905  26.152  1.00  0.00    +0.000 N 
BRANCH   19    2
ATOM      1  O1  UNL A   1      28.324 -10.927  25.209  1.00  0.00    +0.000 O 
ATOM      2  C1  UNL A   1      29.517 -10.886  25.501  1.00  0.00    +0.000 C 
BRANCH    2    3
ATOM      3  C2  UNL A   1      30.397  -9.699  25.085  1.00  0.00    +0.000 C 
ATOM     92  H1  UNL A   1      30.152  -9.437  24.076  1.00  0.00    +0.000 H 
ATOM     93  H2  UNL A   1      31.413 -10.016  25.196  1.00  0.00    +0.000 H 
BRANCH    3    4
ATOM      4  N1  UNL A   1      30.236  -8.511  25.917  1.00  0.00    +0.000 N 
ATOM     94  H3  UNL A   1      29.482  -7.925  25.677  1.00  0.00    +0.000 H 
BRANCH    4    5
ATOM      5  C3  UNL A   1      30.985  -8.098  26.981  1.00  0.00    +0.000 C 
ATOM      6  O2  UNL A   1      32.132  -8.533  27.088  1.00  0.00    +0.000 O 
BRANCH    5    7
ATOM     95  H4  UNL A   1      29.355  -7.203  28.043  1.00  0.00    +0.000 H 
ATOM      7  C4  UNL A   1      30.417  -7.090  27.980  1.00  0.00    +0.000 C 
ATOM     96  H5  UNL A   1      30.640  -6.093  27.663  1.00  0.00    +0.000 H 
BRANCH    7    8
ATOM     97  H6  UNL A   1      31.830  -6.840  29.492  1.00  0.00    +0.000 H 
ATOM      8  N2  UNL A   1      31.012  -7.343  29.277  1.00  0.00    +0.000 N 
BRANCH    8    9
ATOM      9  C5  UNL A   1      30.558  -8.202  30.227  1.00  0.00    +0.000 C 
ATOM     10  O3  UNL A   1      31.264  -8.497  31.180  1.00  0.00    +0.000 O 
BRANCH    9   11
ATOM     11  O4  UNL A   1      29.296  -8.637  30.009  1.00  0.00    +0.000 O 
BRANCH   11   12
ATOM     98  H7  UNL A   1      29.834 -10.317  31.053  1.00  0.00    +0.000 H 
ATOM     99  H8  UNL A   1      28.425 -10.481  30.004  1.00  0.00    +0.000 H 
ATOM     12  C6  UNL A   1      28.942  -9.849  30.695  1.00  0.00    +0.000 C 
BRANCH   12   13
ATOM    100  H9  UNL A   1      28.960 -10.974  33.154  1.00  0.00    +0.000 H 
ATOM    101  H10 UNL A   1      27.416 -10.670  34.992  1.00  0.00    +0.000 H 
ATOM    102  H11 UNL A   1      25.606  -9.067  34.801  1.00  0.00    +0.000 H 
ATOM    103  H12 UNL A   1      25.339  -7.779  32.763  1.00  0.00    +0.000 H 
ATOM    104  H13 UNL A   1      26.845  -8.126  30.895  1.00  0.00    +0.000 H 
ATOM     13  C7  UNL A   1      28.024  -9.587  31.864  1.00  0.00    +0.000 C 
ATOM     14  C8  UNL A   1      28.181 -10.304  33.060  1.00  0.00    +0.000 C 
ATOM     15  C9  UNL A   1      27.298 -10.124  34.124  1.00  0.00    +0.000 C 
ATOM     16  C10 UNL A   1      26.259  -9.205  34.014  1.00  0.00    +0.000 C 
ATOM     17  C11 UNL A   1      26.102  -8.470  32.839  1.00  0.00    +0.000 C 
ATOM     18  C12 UNL A   1      26.975  -8.665  31.765  1.00  0.00    +0.000 C 
ENDBRANCH   12   13
ENDBRANCH   11   12
ENDBRANCH    9   11
ENDBRANCH    8    9
ENDBRANCH    7    8
ENDBRANCH    5    7
ENDBRANCH    4    5
ENDBRANCH    3    4
ENDBRANCH    2    3
ENDBRANCH   19    2
ENDBRANCH   20   19
ENDBRANCH   21   20
ENDBRANCH   22   21
ENDBRANCH   23   22
ENDBRANCH   24   23
ENDBRANCH   25   24
ENDBRANCH   26   25
ENDBRANCH   27   26
ENDBRANCH   29   27
ENDBRANCH   33   32
BRANCH   37   38
ATOM     38  C28 UNL A   1      27.287 -14.562  37.511  1.00  0.00    +0.000 C 
ATOM     39  C29 UNL A   1      28.299 -13.984  38.292  1.00  0.00    +0.000 C 
ATOM     40  F1  UNL A   1      28.978 -12.919  37.837  1.00  0.00    +0.000 F 
ATOM     41  C30 UNL A   1      28.642 -14.518  39.532  1.00  0.00    +0.000 C 
ATOM     42  F2  UNL A   1      29.641 -13.974  40.240  1.00  0.00    +0.000 F 
ATOM     43  C31 UNL A   1      27.958 -15.617  40.029  1.00  0.00    +0.000 C 
ATOM     44  F3  UNL A   1      28.282 -16.124  41.227  1.00  0.00    +0.000 F 
ATOM     45  C32 UNL A   1      26.941 -16.194  39.282  1.00  0.00    +0.000 C 
ATOM     46  F4  UNL A   1      26.271 -17.248  39.768  1.00  0.00    +0.000 F 
ATOM     47  C33 UNL A   1      26.616 -15.680  38.030  1.00  0.00    +0.000 C 
ATOM     48  F5  UNL A   1      25.636 -16.268  37.327  1.00  0.00    +0.000 F 
ENDBRANCH   37   38
BRANCH   54   55
ATOM     65  F10 UNL A   1      20.639 -12.312  34.394  1.00  0.00    +0.000 F 
ATOM     55  C39 UNL A   1      22.039 -10.432  34.810  1.00  0.00    +0.000 C 
ATOM     56  C40 UNL A   1      22.125  -9.103  35.249  1.00  0.00    +0.000 C 
ATOM     57  F6  UNL A   1      23.314  -8.479  35.283  1.00  0.00    +0.000 F 
ATOM     58  C41 UNL A   1      20.995  -8.421  35.690  1.00  0.00    +0.000 C 
ATOM     59  F7  UNL A   1      21.107  -7.166  36.146  1.00  0.00    +0.000 F 
ATOM     60  C42 UNL A   1      19.754  -9.042  35.670  1.00  0.00    +0.000 C 
ATOM     61  F8  UNL A   1      18.666  -8.380  36.086  1.00  0.00    +0.000 F 
ATOM     62  C43 UNL A   1      19.644 -10.351  35.224  1.00  0.00    +0.000 C 
ATOM     63  F9  UNL A   1      18.444 -10.947  35.192  1.00  0.00    +0.000 F 
ATOM     64  C44 UNL A   1      20.777 -11.044  34.810  1.00  0.00    +0.000 C 
ENDBRANCH   54   55
BRANCH   69   70
ATOM     70  C48 UNL A   1      24.832 -11.132  28.466  1.00  0.00    +0.000 C 
ATOM     71  C49 UNL A   1      25.462 -10.021  27.888  1.00  0.00    +0.000 C 
ATOM     72  F11 UNL A   1      26.432  -9.379  28.556  1.00  0.00    +0.000 F 
ATOM     73  C50 UNL A   1      25.069  -9.538  26.642  1.00  0.00    +0.000 C 
ATOM     74  F12 UNL A   1      25.653  -8.445  26.135  1.00  0.00    +0.000 F 
ATOM     75  C51 UNL A   1      24.058 -10.173  25.937  1.00  0.00    +0.000 C 
ATOM     76  F13 UNL A   1      23.679  -9.709  24.739  1.00  0.00    +0.000 F 
ATOM     77  C52 UNL A   1      23.435 -11.287  26.480  1.00  0.00    +0.000 C 
ATOM     78  F14 UNL A   1      22.467 -11.913  25.795  1.00  0.00    +0.000 F 
ATOM     79  C53 UNL A   1      23.809 -11.755  27.738  1.00  0.00    +0.000 C 
ATOM     80  F15 UNL A   1      23.177 -12.824  28.246  1.00  0.00    +0.000 F 
ENDBRANCH   69   70
TORSDOF 23
ENDMDL
MODEL 5
REMARK VINA RESULT:      -9.8      7.971     14.831
ROOT
ATOM    129  H38 UNL A   1      43.946  26.133  29.594  1.00  0.00    +0.000 H 
ATOM    130  H39 UNL A   1      44.582  26.093  32.074  1.00  0.00    +0.000 H 
ATOM     33  C24 UNL A   1      43.123  27.956  33.662  1.00  0.00    +0.000 C 
ATOM     34  C25 UNL A   1      42.918  27.628  32.209  1.00  0.00    +0.000 C 
ATOM     35  N5  UNL A   1      42.040  28.110  31.366  1.00  0.00    +0.000 N 
ATOM     36  C26 UNL A   1      42.317  27.507  30.145  1.00  0.00    +0.000 C 
ATOM     37  C27 UNL A   1      41.654  27.633  28.971  1.00  0.00    +0.000 C 
ATOM     49  C34 UNL A   1      40.485  28.452  28.782  1.00  0.00    +0.000 C 
ATOM     50  C35 UNL A   1      39.709  28.598  27.646  1.00  0.00    +0.000 C 
ATOM     51  C36 UNL A   1      38.701  29.528  27.921  1.00  0.00    +0.000 C 
ATOM     52  C37 UNL A   1      38.819  29.923  29.243  1.00  0.00    +0.000 C 
ATOM     53  N6  UNL A   1      39.922  29.260  29.758  1.00  0.00    +0.000 N 
ATOM     54  C38 UNL A   1      37.989  30.838  29.983  1.00  0.00    +0.000 C 
ATOM     66  C45 UNL A   1      38.175  31.177  31.282  1.00  0.00    +0.000 C 
ATOM     67  N7  UNL A   1      39.145  30.733  32.169  1.00  0.00    +0.000 N 
ATOM     68  C46 UNL A   1      38.911  31.354  33.300  1.00  0.00    +0.000 C 
ATOM     69  C47 UNL A   1      39.630  31.233  34.617  1.00  0.00    +0.000 C 
ATOM     81  C54 UNL A   1      40.655  30.367  34.732  1.00  0.00    +0.000 C 
ATOM     82  C55 UNL A   1      41.444  30.144  35.940  1.00  0.00    +0.000 C 
ATOM     83  C56 UNL A   1      42.420  29.263  35.670  1.00  0.00    +0.000 C 
ATOM     84  C57 UNL A   1      42.303  28.830  34.277  1.00  0.00    +0.000 C 
ATOM     85  N8  UNL A   1      41.216  29.523  33.805  1.00  0.00    +0.000 N 
ATOM     86  C58 UNL A   1      37.780  32.292  33.245  1.00  0.00    +0.000 C 
ATOM     87  C59 UNL A   1      37.342  32.113  32.007  1.00  0.00    +0.000 C 
ATOM     88  C60 UNL A   1      43.472  26.658  30.345  1.00  0.00    +0.000 C 
ATOM     89  C61 UNL A   1      43.841  26.646  31.618  1.00  0.00    +0.000 C 
ATOM    121  H30 UNL A   1      39.851  28.108  26.749  1.00  0.00    +0.000 H 
ATOM    122  H31 UNL A   1      37.989  29.862  27.252  1.00  0.00    +0.000 H 
ATOM    123  H32 UNL A   1      40.256  29.350  30.680  1.00  0.00    +0.000 H 
ATOM    124  H33 UNL A   1      41.276  30.592  36.855  1.00  0.00    +0.000 H 
ATOM    125  H34 UNL A   1      43.139  28.943  36.338  1.00  0.00    +0.000 H 
ATOM    126  H35 UNL A   1      40.871  29.425  32.887  1.00  0.00    +0.000 H 
ATOM    127  H36 UNL A   1      37.423  32.923  33.978  1.00  0.00    +0.000 H 
ATOM    128  H37 UNL A   1      36.513  32.582  31.610  1.00  0.00    +0.000 H 
ENDROOT
BRANCH   33   32
ATOM    131  H40 UNL A   1      45.634  28.880  33.782  1.00  0.00    +0.000 H 
ATOM    132  H41 UNL A   1      47.554  27.920  34.909  1.00  0.00    +0.000 H 
ATOM    119  H28 UNL A   1      45.118  24.870  36.476  1.00  0.00    +0.000 H 
ATOM    120  H29 UNL A   1      43.247  25.698  35.170  1.00  0.00    +0.000 H 
ATOM     90  C62 UNL A   1      45.526  28.016  34.338  1.00  0.00    +0.000 C 
ATOM     91  C63 UNL A   1      46.621  27.491  35.021  1.00  0.00    +0.000 C 
ATOM     29  C20 UNL A   1      46.457  26.384  35.856  1.00  0.00    +0.000 C 
ATOM     30  C21 UNL A   1      45.228  25.719  35.899  1.00  0.00    +0.000 C 
ATOM     31  C22 UNL A   1      44.146  26.205  35.158  1.00  0.00    +0.000 C 
ATOM     32  C23 UNL A   1      44.277  27.379  34.400  1.00  0.00    +0.000 C 
BRANCH   29   27
ATOM     27  C19 UNL A   1      47.569  25.884  36.695  1.00  0.00    +0.000 C 
ATOM     28  O5  UNL A   1      47.777  26.396  37.792  1.00  0.00    +0.000 O 
BRANCH   27   26
ATOM     26  N4  UNL A   1      48.379  24.872  36.241  1.00  0.00    +0.000 N 
ATOM    118  H27 UNL A   1      48.987  24.489  36.913  1.00  0.00    +0.000 H 
BRANCH   26   25
ATOM     25  C18 UNL A   1      48.473  24.281  34.914  1.00  0.00    +0.000 C 
ATOM    116  H25 UNL A   1      47.888  24.869  34.236  1.00  0.00    +0.000 H 
ATOM    117  H26 UNL A   1      49.506  24.269  34.639  1.00  0.00    +0.000 H 
BRANCH   25   24
ATOM    114  H23 UNL A   1      48.521  22.321  34.118  1.00  0.00    +0.000 H 
ATOM    115  H24 UNL A   1      48.113  22.449  35.857  1.00  0.00    +0.000 H 
ATOM     24  C17 UNL A   1      47.969  22.842  34.872  1.00  0.00    +0.000 C 
BRANCH   24   23
ATOM    113  H22 UNL A   1      46.431  22.164  33.629  1.00  0.00    +0.000 H 
ATOM     23  C16 UNL A   1      46.482  22.680  34.565  1.00  0.00    +0.000 C 
ATOM    112  H21 UNL A   1      46.042  23.656  34.547  1.00  0.00    +0.000 H 
BRANCH   23   22
ATOM    110  H19 UNL A   1      44.663  21.840  35.251  1.00  0.00    +0.000 H 
ATOM     22  C15 UNL A   1      45.689  21.826  35.556  1.00  0.00    +0.000 C 
ATOM    111  H20 UNL A   1      46.145  20.859  35.526  1.00  0.00    +0.000 H 
BRANCH   22   21
ATOM    109  H18 UNL A   1      44.736  22.249  37.379  1.00  0.00    +0.000 H 
ATOM    108  H17 UNL A   1      46.199  23.228  37.069  1.00  0.00    +0.000 H 
ATOM     21  C14 UNL A   1      45.746  22.260  37.026  1.00  0.00    +0.000 C 
BRANCH   21   20
ATOM    106  H15 UNL A   1      47.477  21.780  38.164  1.00  0.00    +0.000 H 
ATOM    107  H16 UNL A   1      45.944  21.179  38.828  1.00  0.00    +0.000 H 
ATOM     20  C13 UNL A   1      46.532  21.327  37.946  1.00  0.00    +0.000 C 
BRANCH   20   19
ATOM    105  H14 UNL A   1      47.580  19.889  36.817  1.00  0.00    +0.000 H 
ATOM     19  N3  UNL A   1      46.771  20.021  37.363  1.00  0.00    +0.000 N 
BRANCH   19    2
ATOM      1  O1  UNL A   1      45.230  18.482  36.637  1.00  0.00    +0.000 O 
ATOM      2  C1  UNL A   1      45.914  18.958  37.539  1.00  0.00    +0.000 C 
BRANCH    2    3
ATOM      3  C2  UNL A   1      45.805  18.436  38.979  1.00  0.00    +0.000 C 
ATOM     92  H1  UNL A   1      45.048  19.001  39.483  1.00  0.00    +0.000 H 
ATOM     93  H2  UNL A   1      46.772  18.551  39.421  1.00  0.00    +0.000 H 
BRANCH    3    4
ATOM      4  N1  UNL A   1      45.464  17.021  39.081  1.00  0.00    +0.000 N 
ATOM     94  H3  UNL A   1      46.218  16.415  39.259  1.00  0.00    +0.000 H 
BRANCH    4    5
ATOM      5  C3  UNL A   1      44.243  16.420  38.962  1.00  0.00    +0.000 C 
ATOM      6  O2  UNL A   1      43.946  15.917  37.879  1.00  0.00    +0.000 O 
BRANCH    5    7
ATOM     95  H4  UNL A   1      42.792  17.278  40.284  1.00  0.00    +0.000 H 
ATOM      7  C4  UNL A   1      43.300  16.344  40.163  1.00  0.00    +0.000 C 
ATOM     96  H5  UNL A   1      43.856  16.136  41.054  1.00  0.00    +0.000 H 
BRANCH    7    8
ATOM     97  H6  UNL A   1      41.948  15.244  39.020  1.00  0.00    +0.000 H 
ATOM      8  N2  UNL A   1      42.335  15.291  39.924  1.00  0.00    +0.000 N 
BRANCH    8    9
ATOM      9  C5  UNL A   1      41.908  14.360  40.817  1.00  0.00    +0.000 C 
ATOM     10  O3  UNL A   1      40.993  13.601  40.528  1.00  0.00    +0.000 O 
BRANCH    9   11
ATOM     11  O4  UNL A   1      42.600  14.363  41.978  1.00  0.00    +0.000 O 
BRANCH   11   12
ATOM     98  H7  UNL A   1      40.848  13.734  42.839  1.00  0.00    +0.000 H 
ATOM     99  H8  UNL A   1      41.913  14.690  43.872  1.00  0.00    +0.000 H 
ATOM     12  C6  UNL A   1      41.860  13.922  43.129  1.00  0.00    +0.000 C 
BRANCH   12   13
ATOM    100  H9  UNL A   1      41.708  11.384  42.205  1.00  0.00    +0.000 H 
ATOM    101  H10 UNL A   1      42.510   9.335  43.210  1.00  0.00    +0.000 H 
ATOM    102  H11 UNL A   1      43.759   9.412  45.288  1.00  0.00    +0.000 H 
ATOM    103  H12 UNL A   1      44.192  11.543  46.362  1.00  0.00    +0.000 H 
ATOM    104  H13 UNL A   1      43.335  13.594  45.393  1.00  0.00    +0.000 H 
ATOM     13  C7  UNL A   1      42.441  12.660  43.722  1.00  0.00    +0.000 C 
ATOM     14  C8  UNL A   1      42.223  11.422  43.098  1.00  0.00    +0.000 C 
ATOM     15  C9  UNL A   1      42.693  10.240  43.671  1.00  0.00    +0.000 C 
ATOM     16  C10 UNL A   1      43.408  10.285  44.863  1.00  0.00    +0.000 C 
ATOM     17  C11 UNL A   1      43.650  11.510  45.484  1.00  0.00    +0.000 C 
ATOM     18  C12 UNL A   1      43.162  12.692  44.921  1.00  0.00    +0.000 C 
ENDBRANCH   12   13
ENDBRANCH   11   12
ENDBRANCH    9   11
ENDBRANCH    8    9
ENDBRANCH    7    8
ENDBRANCH    5    7
ENDBRANCH    4    5
ENDBRANCH    3    4
ENDBRANCH    2    3
ENDBRANCH   19    2
ENDBRANCH   20   19
ENDBRANCH   21   20
ENDBRANCH   22   21
ENDBRANCH   23   22
ENDBRANCH   24   23
ENDBRANCH   25   24
ENDBRANCH   26   25
ENDBRANCH   27   26
ENDBRANCH   29   27
ENDBRANCH   33   32
BRANCH   37   38
ATOM     38  C28 UNL A   1      42.174  26.863  27.793  1.00  0.00    +0.000 C 
ATOM     39  C29 UNL A   1      41.717  25.569  27.501  1.00  0.00    +0.000 C 
ATOM     40  F1  UNL A   1      40.834  24.965  28.313  1.00  0.00    +0.000 F 
ATOM     41  C30 UNL A   1      42.190  24.874  26.391  1.00  0.00    +0.000 C 
ATOM     42  F2  UNL A   1      41.771  23.622  26.158  1.00  0.00    +0.000 F 
ATOM     43  C31 UNL A   1      43.101  25.471  25.533  1.00  0.00    +0.000 C 
ATOM     44  F3  UNL A   1      43.549  24.805  24.460  1.00  0.00    +0.000 F 
ATOM     45  C32 UNL A   1      43.553  26.757  25.791  1.00  0.00    +0.000 C 
ATOM     46  F4  UNL A   1      44.424  27.339  24.956  1.00  0.00    +0.000 F 
ATOM     47  C33 UNL A   1      43.104  27.442  26.916  1.00  0.00    +0.000 C 
ATOM     48  F5  UNL A   1      43.569  28.680  27.145  1.00  0.00    +0.000 F 
ENDBRANCH   37   38
BRANCH   54   55
ATOM     65  F10 UNL A   1      37.872  33.578  29.249  1.00  0.00    +0.000 F 
ATOM     55  C39 UNL A   1      36.815  31.445  29.272  1.00  0.00    +0.000 C 
ATOM     56  C40 UNL A   1      35.678  30.691  28.947  1.00  0.00    +0.000 C 
ATOM     57  F6  UNL A   1      35.641  29.377  29.218  1.00  0.00    +0.000 F 
ATOM     58  C41 UNL A   1      34.589  31.278  28.309  1.00  0.00    +0.000 C 
ATOM     59  F7  UNL A   1      33.531  30.530  27.969  1.00  0.00    +0.000 F 
ATOM     60  C42 UNL A   1      34.602  32.634  28.014  1.00  0.00    +0.000 C 
ATOM     61  F8  UNL A   1      33.549  33.199  27.408  1.00  0.00    +0.000 F 
ATOM     62  C43 UNL A   1      35.710  33.402  28.342  1.00  0.00    +0.000 C 
ATOM     63  F9  UNL A   1      35.718  34.714  28.069  1.00  0.00    +0.000 F 
ATOM     64  C44 UNL A   1      36.812  32.811  28.953  1.00  0.00    +0.000 C 
ENDBRANCH   54   55
BRANCH   69   70
ATOM     70  C48 UNL A   1      39.201  32.039  35.790  1.00  0.00    +0.000 C 
ATOM     71  C49 UNL A   1      38.333  31.502  36.751  1.00  0.00    +0.000 C 
ATOM     72  F11 UNL A   1      37.876  30.249  36.614  1.00  0.00    +0.000 F 
ATOM     73  C50 UNL A   1      37.896  32.264  37.833  1.00  0.00    +0.000 C 
ATOM     74  F12 UNL A   1      37.027  31.743  38.708  1.00  0.00    +0.000 F 
ATOM     75  C51 UNL A   1      38.341  33.568  37.990  1.00  0.00    +0.000 C 
ATOM     76  F13 UNL A   1      37.920  34.301  39.029  1.00  0.00    +0.000 F 
ATOM     77  C52 UNL A   1      39.217  34.113  37.064  1.00  0.00    +0.000 C 
ATOM     78  F14 UNL A   1      39.660  35.368  37.220  1.00  0.00    +0.000 F 
ATOM     79  C53 UNL A   1      39.633  33.361  35.967  1.00  0.00    +0.000 C 
ATOM     80  F15 UNL A   1      40.467  33.920  35.077  1.00  0.00    +0.000 F 
ENDBRANCH   69   70
TORSDOF 23
ENDMDL
MODEL 6
REMARK VINA RESULT:      -9.7     20.183     25.896
ROOT
ATOM    129  H38 UNL A   1      50.908  22.651  15.055  1.00  0.00    +0.000 H 
ATOM    130  H39 UNL A   1      50.530  21.612  12.745  1.00  0.00    +0.000 H 
ATOM     33  C24 UNL A   1      52.857  20.389  11.644  1.00  0.00    +0.000 C 
ATOM     34  C25 UNL A   1      52.691  20.975  13.019  1.00  0.00    +0.000 C 
ATOM     35  N5  UNL A   1      53.555  21.051  13.999  1.00  0.00    +0.000 N 
ATOM     36  C26 UNL A   1      52.907  21.729  15.024  1.00  0.00    +0.000 C 
ATOM     37  C27 UNL A   1      53.359  22.010  16.269  1.00  0.00    +0.000 C 
ATOM     49  C34 UNL A   1      54.654  21.628  16.768  1.00  0.00    +0.000 C 
ATOM     50  C35 UNL A   1      55.181  21.816  18.034  1.00  0.00    +0.000 C 
ATOM     51  C36 UNL A   1      56.486  21.316  18.044  1.00  0.00    +0.000 C 
ATOM     52  C37 UNL A   1      56.756  20.772  16.799  1.00  0.00    +0.000 C 
ATOM     53  N6  UNL A   1      55.625  20.977  16.024  1.00  0.00    +0.000 N 
ATOM     54  C38 UNL A   1      57.956  20.116  16.349  1.00  0.00    +0.000 C 
ATOM     66  C45 UNL A   1      58.144  19.611  15.105  1.00  0.00    +0.000 C 
ATOM     67  N7  UNL A   1      57.265  19.589  14.031  1.00  0.00    +0.000 N 
ATOM     68  C46 UNL A   1      57.909  19.002  13.051  1.00  0.00    +0.000 C 
ATOM     69  C47 UNL A   1      57.431  18.677  11.661  1.00  0.00    +0.000 C 
ATOM     81  C54 UNL A   1      56.168  18.984  11.308  1.00  0.00    +0.000 C 
ATOM     82  C55 UNL A   1      55.569  18.732  10.001  1.00  0.00    +0.000 C 
ATOM     83  C56 UNL A   1      54.321  19.226   9.989  1.00  0.00    +0.000 C 
ATOM     84  C57 UNL A   1      54.018  19.797  11.301  1.00  0.00    +0.000 C 
ATOM     85  N8  UNL A   1      55.166  19.591  12.026  1.00  0.00    +0.000 N 
ATOM     86  C58 UNL A   1      59.287  18.615  13.387  1.00  0.00    +0.000 C 
ATOM     87  C59 UNL A   1      59.364  18.970  14.661  1.00  0.00    +0.000 C 
ATOM     88  C60 UNL A   1      51.593  22.083  14.532  1.00  0.00    +0.000 C 
ATOM     89  C61 UNL A   1      51.385  21.582  13.323  1.00  0.00    +0.000 C 
ATOM    121  H30 UNL A   1      54.693  22.252  18.834  1.00  0.00    +0.000 H 
ATOM    122  H31 UNL A   1      57.138  21.347  18.844  1.00  0.00    +0.000 H 
ATOM    123  H32 UNL A   1      55.527  20.700  15.084  1.00  0.00    +0.000 H 
ATOM    124  H33 UNL A   1      56.031  18.250   9.214  1.00  0.00    +0.000 H 
ATOM    125  H34 UNL A   1      53.678  19.207   9.182  1.00  0.00    +0.000 H 
ATOM    126  H35 UNL A   1      55.263  19.853  12.970  1.00  0.00    +0.000 H 
ATOM    127  H36 UNL A   1      60.005  18.181  12.787  1.00  0.00    +0.000 H 
ATOM    128  H37 UNL A   1      60.188  18.811  15.261  1.00  0.00    +0.000 H 
ENDROOT
BRANCH   33   32
ATOM    131  H40 UNL A   1      52.401  22.445   9.990  1.00  0.00    +0.000 H 
ATOM    132  H41 UNL A   1      50.600  22.741   8.396  1.00  0.00    +0.000 H 
ATOM    119  H28 UNL A   1      49.160  18.893   9.297  1.00  0.00    +0.000 H 
ATOM    120  H29 UNL A   1      50.825  18.685  11.050  1.00  0.00    +0.000 H 
ATOM     90  C62 UNL A   1      51.702  21.696   9.858  1.00  0.00    +0.000 C 
ATOM     91  C63 UNL A   1      50.693  21.850   8.910  1.00  0.00    +0.000 C 
ATOM     29  C20 UNL A   1      49.808  20.800   8.656  1.00  0.00    +0.000 C 
ATOM     30  C21 UNL A   1      49.846  19.648   9.449  1.00  0.00    +0.000 C 
ATOM     31  C22 UNL A   1      50.815  19.523  10.449  1.00  0.00    +0.000 C 
ATOM     32  C23 UNL A   1      51.774  20.531  10.637  1.00  0.00    +0.000 C 
BRANCH   29   27
ATOM     27  C19 UNL A   1      48.811  20.884   7.566  1.00  0.00    +0.000 C 
ATOM     28  O5  UNL A   1      48.367  21.979   7.234  1.00  0.00    +0.000 O 
BRANCH   27   26
ATOM     26  N4  UNL A   1      48.366  19.742   6.944  1.00  0.00    +0.000 N 
ATOM    118  H27 UNL A   1      48.838  18.917   7.197  1.00  0.00    +0.000 H 
BRANCH   26   25
ATOM     25  C18 UNL A   1      47.300  19.571   5.968  1.00  0.00    +0.000 C 
ATOM    116  H25 UNL A   1      46.568  18.904   6.375  1.00  0.00    +0.000 H 
ATOM    117  H26 UNL A   1      46.888  20.538   5.768  1.00  0.00    +0.000 H 
BRANCH   25   24
ATOM    114  H23 UNL A   1      47.116  19.303   3.877  1.00  0.00    +0.000 H 
ATOM    115  H24 UNL A   1      48.789  19.382   4.511  1.00  0.00    +0.000 H 
ATOM     24  C17 UNL A   1      47.798  19.000   4.644  1.00  0.00    +0.000 C 
BRANCH   24   23
ATOM    113  H22 UNL A   1      47.947  17.155   5.613  1.00  0.00    +0.000 H 
ATOM     23  C16 UNL A   1      47.920  17.479   4.594  1.00  0.00    +0.000 C 
ATOM    112  H21 UNL A   1      48.802  17.238   4.038  1.00  0.00    +0.000 H 
BRANCH   23   22
ATOM    110  H19 UNL A   1      46.503  17.242   3.038  1.00  0.00    +0.000 H 
ATOM     22  C15 UNL A   1      46.744  16.740   3.953  1.00  0.00    +0.000 C 
ATOM    111  H20 UNL A   1      47.075  15.731   3.828  1.00  0.00    +0.000 H 
BRANCH   22   21
ATOM    109  H18 UNL A   1      45.674  17.137   5.717  1.00  0.00    +0.000 H 
ATOM    108  H17 UNL A   1      45.207  15.617   4.898  1.00  0.00    +0.000 H 
ATOM     21  C14 UNL A   1      45.460  16.650   4.788  1.00  0.00    +0.000 C 
BRANCH   21   20
ATOM    106  H15 UNL A   1      43.564  16.642   3.825  1.00  0.00    +0.000 H 
ATOM    107  H16 UNL A   1      43.823  17.970   4.973  1.00  0.00    +0.000 H 
ATOM     20  C13 UNL A   1      44.251  17.374   4.194  1.00  0.00    +0.000 C 
BRANCH   20   19
ATOM    105  H14 UNL A   1      45.183  17.933   2.389  1.00  0.00    +0.000 H 
ATOM     19  N3  UNL A   1      44.600  18.268   3.107  1.00  0.00    +0.000 N 
BRANCH   19    2
ATOM      1  O1  UNL A   1      44.497  20.448   3.822  1.00  0.00    +0.000 O 
ATOM      2  C1  UNL A   1      44.150  19.568   3.038  1.00  0.00    +0.000 C 
BRANCH    2    3
ATOM      3  C2  UNL A   1      43.108  19.843   1.945  1.00  0.00    +0.000 C 
ATOM     92  H1  UNL A   1      43.595  19.779   0.994  1.00  0.00    +0.000 H 
ATOM     93  H2  UNL A   1      42.706  20.815   2.140  1.00  0.00    +0.000 H 
BRANCH    3    4
ATOM      4  N1  UNL A   1      41.981  18.917   1.943  1.00  0.00    +0.000 N 
ATOM     94  H3  UNL A   1      42.013  18.211   1.258  1.00  0.00    +0.000 H 
BRANCH    4    5
ATOM      5  C3  UNL A   1      40.886  18.893   2.759  1.00  0.00    +0.000 C 
ATOM      6  O2  UNL A   1      40.962  18.265   3.816  1.00  0.00    +0.000 O 
BRANCH    5    7
ATOM     95  H4  UNL A   1      39.195  19.245   1.492  1.00  0.00    +0.000 H 
ATOM      7  C4  UNL A   1      39.622  19.665   2.379  1.00  0.00    +0.000 C 
ATOM     96  H5  UNL A   1      39.861  20.692   2.194  1.00  0.00    +0.000 H 
BRANCH    7    8
ATOM     97  H6  UNL A   1      38.998  19.136   4.296  1.00  0.00    +0.000 H 
ATOM      8  N2  UNL A   1      38.676  19.565   3.471  1.00  0.00    +0.000 N 
BRANCH    8    9
ATOM      9  C5  UNL A   1      37.390  20.004   3.476  1.00  0.00    +0.000 C 
ATOM     10  O3  UNL A   1      36.550  19.445   4.167  1.00  0.00    +0.000 O 
BRANCH    9   11
ATOM     11  O4  UNL A   1      37.181  21.084   2.690  1.00  0.00    +0.000 O 
BRANCH   11   12
ATOM     98  H7  UNL A   1      35.181  21.281   2.283  1.00  0.00    +0.000 H 
ATOM     99  H8  UNL A   1      36.004  19.950   1.468  1.00  0.00    +0.000 H 
ATOM     12  C6  UNL A   1      36.072  20.970   1.781  1.00  0.00    +0.000 C 
BRANCH   12   13
ATOM    100  H9  UNL A   1      38.301  21.329   0.291  1.00  0.00    +0.000 H 
ATOM    101  H10 UNL A   1      38.663  22.797  -1.598  1.00  0.00    +0.000 H 
ATOM    102  H11 UNL A   1      36.827  24.113  -2.480  1.00  0.00    +0.000 H 
ATOM    103  H12 UNL A   1      34.632  23.965  -1.460  1.00  0.00    +0.000 H 
ATOM    104  H13 UNL A   1      34.278  22.544   0.473  1.00  0.00    +0.000 H 
ATOM     13  C7  UNL A   1      36.263  21.824   0.551  1.00  0.00    +0.000 C 
ATOM     14  C8  UNL A   1      37.520  21.900  -0.068  1.00  0.00    +0.000 C 
ATOM     15  C9  UNL A   1      37.729  22.738  -1.163  1.00  0.00    +0.000 C 
ATOM     16  C10 UNL A   1      36.676  23.494  -1.668  1.00  0.00    +0.000 C 
ATOM     17  C11 UNL A   1      35.415  23.413  -1.076  1.00  0.00    +0.000 C 
ATOM     18  C12 UNL A   1      35.210  22.589   0.033  1.00  0.00    +0.000 C 
ENDBRANCH   12   13
ENDBRANCH   11   12
ENDBRANCH    9   11
ENDBRANCH    8    9
ENDBRANCH    7    8
ENDBRANCH    5    7
ENDBRANCH    4    5
ENDBRANCH    3    4
ENDBRANCH    2    3
ENDBRANCH   19    2
ENDBRANCH   20   19
ENDBRANCH   21   20
ENDBRANCH   22   21
ENDBRANCH   23   22
ENDBRANCH   24   23
ENDBRANCH   25   24
ENDBRANCH   26   25
ENDBRANCH   27   26
ENDBRANCH   29   27
ENDBRANCH   33   32
BRANCH   37   38
ATOM     38  C28 UNL A   1      52.444  22.766  17.187  1.00  0.00    +0.000 C 
ATOM     39  C29 UNL A   1      52.348  24.165  17.140  1.00  0.00    +0.000 C 
ATOM     40  F1  UNL A   1      53.124  24.868  16.300  1.00  0.00    +0.000 F 
ATOM     41  C30 UNL A   1      51.478  24.853  17.982  1.00  0.00    +0.000 C 
ATOM     42  F2  UNL A   1      51.436  26.192  17.950  1.00  0.00    +0.000 F 
ATOM     43  C31 UNL A   1      50.663  24.156  18.861  1.00  0.00    +0.000 C 
ATOM     44  F3  UNL A   1      49.818  24.819  19.663  1.00  0.00    +0.000 F 
ATOM     45  C32 UNL A   1      50.727  22.771  18.911  1.00  0.00    +0.000 C 
ATOM     46  F4  UNL A   1      49.930  22.095  19.750  1.00  0.00    +0.000 F 
ATOM     47  C33 UNL A   1      51.617  22.083  18.091  1.00  0.00    +0.000 C 
ATOM     48  F5  UNL A   1      51.664  20.744  18.172  1.00  0.00    +0.000 F 
ENDBRANCH   37   38
BRANCH   54   55
ATOM     65  F10 UNL A   1      59.691  22.242  17.080  1.00  0.00    +0.000 F 
ATOM     55  C39 UNL A   1      59.075  19.956  17.335  1.00  0.00    +0.000 C 
ATOM     56  C40 UNL A   1      59.353  18.723  17.943  1.00  0.00    +0.000 C 
ATOM     57  F6  UNL A   1      58.574  17.658  17.696  1.00  0.00    +0.000 F 
ATOM     58  C41 UNL A   1      60.411  18.589  18.838  1.00  0.00    +0.000 C 
ATOM     59  F7  UNL A   1      60.632  17.413  19.440  1.00  0.00    +0.000 F 
ATOM     60  C42 UNL A   1      61.231  19.674  19.115  1.00  0.00    +0.000 C 
ATOM     61  F8  UNL A   1      62.255  19.541  19.969  1.00  0.00    +0.000 F 
ATOM     62  C43 UNL A   1      60.984  20.898  18.512  1.00  0.00    +0.000 C 
ATOM     63  F9  UNL A   1      61.783  21.943  18.769  1.00  0.00    +0.000 F 
ATOM     64  C44 UNL A   1      59.909  21.042  17.640  1.00  0.00    +0.000 C 
ENDBRANCH   54   55
BRANCH   69   70
ATOM     70  C48 UNL A   1      58.333  18.002  10.690  1.00  0.00    +0.000 C 
ATOM     71  C49 UNL A   1      59.138  18.750   9.820  1.00  0.00    +0.000 C 
ATOM     72  F11 UNL A   1      59.096  20.090   9.854  1.00  0.00    +0.000 F 
ATOM     73  C50 UNL A   1      59.957  18.126   8.880  1.00  0.00    +0.000 C 
ATOM     74  F12 UNL A   1      60.678  18.864   8.028  1.00  0.00    +0.000 F 
ATOM     75  C51 UNL A   1      60.007  16.741   8.813  1.00  0.00    +0.000 C 
ATOM     76  F13 UNL A   1      60.793  16.141   7.909  1.00  0.00    +0.000 F 
ATOM     77  C52 UNL A   1      59.235  15.981   9.678  1.00  0.00    +0.000 C 
ATOM     78  F14 UNL A   1      59.292  14.643   9.625  1.00  0.00    +0.000 F 
ATOM     79  C53 UNL A   1      58.396  16.605  10.599  1.00  0.00    +0.000 C 
ATOM     80  F15 UNL A   1      57.648  15.844  11.412  1.00  0.00    +0.000 F 
ENDBRANCH   69   70
TORSDOF 23
ENDMDL
MODEL 7
REMARK VINA RESULT:      -9.6     20.672     25.864
ROOT
ATOM    129  H38 UNL A   1      20.806  34.341  47.405  1.00  0.00    +0.000 H 
ATOM    130  H39 UNL A   1      19.435  36.084  48.685  1.00  0.00    +0.000 H 
ATOM     33  C24 UNL A   1      20.927  38.399  49.421  1.00  0.00    +0.000 C 
ATOM     34  C25 UNL A   1      21.378  37.249  48.563  1.00  0.00    +0.000 C 
ATOM     35  N5  UNL A   1      22.530  37.059  47.971  1.00  0.00    +0.000 N 
ATOM     36  C26 UNL A   1      22.436  35.819  47.351  1.00  0.00    +0.000 C 
ATOM     37  C27 UNL A   1      23.346  35.197  46.565  1.00  0.00    +0.000 C 
ATOM     49  C34 UNL A   1      24.630  35.747  46.215  1.00  0.00    +0.000 C 
ATOM     50  C35 UNL A   1      25.596  35.219  45.377  1.00  0.00    +0.000 C 
ATOM     51  C36 UNL A   1      26.692  36.087  45.371  1.00  0.00    +0.000 C 
ATOM     52  C37 UNL A   1      26.389  37.180  46.166  1.00  0.00    +0.000 C 
ATOM     53  N6  UNL A   1      25.123  36.955  46.683  1.00  0.00    +0.000 N 
ATOM     54  C38 UNL A   1      27.194  38.343  46.436  1.00  0.00    +0.000 C 
ATOM     66  C45 UNL A   1      26.825  39.375  47.233  1.00  0.00    +0.000 C 
ATOM     67  N7  UNL A   1      25.638  39.557  47.928  1.00  0.00    +0.000 N 
ATOM     68  C46 UNL A   1      25.761  40.701  48.558  1.00  0.00    +0.000 C 
ATOM     69  C47 UNL A   1      24.768  41.415  49.435  1.00  0.00    +0.000 C 
ATOM     81  C54 UNL A   1      23.551  40.873  49.631  1.00  0.00    +0.000 C 
ATOM     82  C55 UNL A   1      22.490  41.446  50.454  1.00  0.00    +0.000 C 
ATOM     83  C56 UNL A   1      21.445  40.604  50.471  1.00  0.00    +0.000 C 
ATOM     84  C57 UNL A   1      21.747  39.447  49.628  1.00  0.00    +0.000 C 
ATOM     85  N8  UNL A   1      23.011  39.702  49.156  1.00  0.00    +0.000 N 
ATOM     86  C58 UNL A   1      27.061  41.358  48.357  1.00  0.00    +0.000 C 
ATOM     87  C59 UNL A   1      27.654  40.529  47.509  1.00  0.00    +0.000 C 
ATOM     88  C60 UNL A   1      21.133  35.281  47.676  1.00  0.00    +0.000 C 
ATOM     89  C61 UNL A   1      20.414  36.155  48.367  1.00  0.00    +0.000 C 
ATOM    121  H30 UNL A   1      25.521  34.335  44.849  1.00  0.00    +0.000 H 
ATOM    122  H31 UNL A   1      27.577  35.938  44.861  1.00  0.00    +0.000 H 
ATOM    123  H32 UNL A   1      24.645  37.564  47.292  1.00  0.00    +0.000 H 
ATOM    124  H33 UNL A   1      22.537  42.354  50.943  1.00  0.00    +0.000 H 
ATOM    125  H34 UNL A   1      20.568  40.750  50.995  1.00  0.00    +0.000 H 
ATOM    126  H35 UNL A   1      23.486  39.103  48.535  1.00  0.00    +0.000 H 
ATOM    127  H36 UNL A   1      27.418  42.233  48.769  1.00  0.00    +0.000 H 
ATOM    128  H37 UNL A   1      28.587  40.686  47.098  1.00  0.00    +0.000 H 
ENDROOT
BRANCH   33   32
ATOM    131  H40 UNL A   1      18.595  39.427  48.598  1.00  0.00    +0.000 H 
ATOM    132  H41 UNL A   1      16.451  39.426  49.728  1.00  0.00    +0.000 H 
ATOM    119  H28 UNL A   1      18.082  37.108  52.836  1.00  0.00    +0.000 H 
ATOM    120  H29 UNL A   1      20.278  37.299  51.820  1.00  0.00    +0.000 H 
ATOM     90  C62 UNL A   1      18.493  38.951  49.509  1.00  0.00    +0.000 C 
ATOM     91  C63 UNL A   1      17.249  38.913  50.135  1.00  0.00    +0.000 C 
ATOM     29  C20 UNL A   1      17.084  38.182  51.313  1.00  0.00    +0.000 C 
ATOM     30  C21 UNL A   1      18.193  37.604  51.938  1.00  0.00    +0.000 C 
ATOM     31  C22 UNL A   1      19.456  37.702  51.345  1.00  0.00    +0.000 C 
ATOM     32  C23 UNL A   1      19.609  38.345  50.106  1.00  0.00    +0.000 C 
BRANCH   29   27
ATOM     27  C19 UNL A   1      15.749  38.014  51.931  1.00  0.00    +0.000 C 
ATOM     28  O5  UNL A   1      15.392  38.784  52.818  1.00  0.00    +0.000 O 
BRANCH   27   26
ATOM     26  N4  UNL A   1      14.925  36.990  51.532  1.00  0.00    +0.000 N 
ATOM    118  H27 UNL A   1      15.196  36.093  51.834  1.00  0.00    +0.000 H 
BRANCH   26   25
ATOM     25  C18 UNL A   1      13.709  37.033  50.733  1.00  0.00    +0.000 C 
ATOM    116  H25 UNL A   1      13.278  36.053  50.714  1.00  0.00    +0.000 H 
ATOM    117  H26 UNL A   1      13.053  37.748  51.183  1.00  0.00    +0.000 H 
BRANCH   25   24
ATOM    114  H23 UNL A   1      13.092  38.000  48.954  1.00  0.00    +0.000 H 
ATOM    115  H24 UNL A   1      14.840  38.094  49.328  1.00  0.00    +0.000 H 
ATOM     24  C17 UNL A   1      13.963  37.482  49.297  1.00  0.00    +0.000 C 
BRANCH   24   23
ATOM    113  H22 UNL A   1      13.780  36.637  47.394  1.00  0.00    +0.000 H 
ATOM     23  C16 UNL A   1      14.265  36.359  48.307  1.00  0.00    +0.000 C 
ATOM    112  H21 UNL A   1      13.905  35.443  48.728  1.00  0.00    +0.000 H 
BRANCH   23   22
ATOM    110  H19 UNL A   1      16.294  36.138  48.868  1.00  0.00    +0.000 H 
ATOM     22  C15 UNL A   1      15.740  36.166  47.953  1.00  0.00    +0.000 C 
ATOM    111  H20 UNL A   1      15.781  35.261  47.385  1.00  0.00    +0.000 H 
BRANCH   22   21
ATOM    109  H18 UNL A   1      17.192  37.646  47.612  1.00  0.00    +0.000 H 
ATOM    108  H17 UNL A   1      15.618  37.964  46.826  1.00  0.00    +0.000 H 
ATOM     21  C14 UNL A   1      16.371  37.241  47.058  1.00  0.00    +0.000 C 
BRANCH   21   20
ATOM    106  H15 UNL A   1      16.368  37.109  44.935  1.00  0.00    +0.000 H 
ATOM    107  H16 UNL A   1      17.971  37.057  45.694  1.00  0.00    +0.000 H 
ATOM     20  C13 UNL A   1      16.955  36.725  45.743  1.00  0.00    +0.000 C 
BRANCH   20   19
ATOM    105  H14 UNL A   1      17.046  34.756  46.486  1.00  0.00    +0.000 H 
ATOM     19  N3  UNL A   1      16.970  35.278  45.655  1.00  0.00    +0.000 N 
BRANCH   19    2
ATOM      1  O1  UNL A   1      16.068  34.876  43.582  1.00  0.00    +0.000 O 
ATOM      2  C1  UNL A   1      16.885  34.603  44.457  1.00  0.00    +0.000 C 
BRANCH    2    3
ATOM      3  C2  UNL A   1      17.844  33.413  44.307  1.00  0.00    +0.000 C 
ATOM     92  H1  UNL A   1      18.721  33.615  44.887  1.00  0.00    +0.000 H 
ATOM     93  H2  UNL A   1      18.051  33.316  43.262  1.00  0.00    +0.000 H 
BRANCH    3    4
ATOM      4  N1  UNL A   1      17.290  32.137  44.745  1.00  0.00    +0.000 N 
ATOM     94  H3  UNL A   1      16.667  32.183  45.506  1.00  0.00    +0.000 H 
BRANCH    4    5
ATOM      5  C3  UNL A   1      17.516  30.885  44.248  1.00  0.00    +0.000 C 
ATOM      6  O2  UNL A   1      18.676  30.474  44.212  1.00  0.00    +0.000 O 
BRANCH    5    7
ATOM     95  H4  UNL A   1      15.859  30.468  42.956  1.00  0.00    +0.000 H 
ATOM      7  C4  UNL A   1      16.346  30.012  43.792  1.00  0.00    +0.000 C 
ATOM     96  H5  UNL A   1      15.637  29.905  44.587  1.00  0.00    +0.000 H 
BRANCH    7    8
ATOM     97  H6  UNL A   1      17.797  28.522  43.651  1.00  0.00    +0.000 H 
ATOM      8  N2  UNL A   1      16.862  28.715  43.409  1.00  0.00    +0.000 N 
BRANCH    8    9
ATOM      9  C5  UNL A   1      16.191  27.734  42.750  1.00  0.00    +0.000 C 
ATOM     10  O3  UNL A   1      15.839  27.899  41.590  1.00  0.00    +0.000 O 
BRANCH    9   11
ATOM     11  O4  UNL A   1      15.999  26.617  43.486  1.00  0.00    +0.000 O 
BRANCH   11   12
ATOM     98  H7  UNL A   1      14.021  27.154  43.529  1.00  0.00    +0.000 H 
ATOM     99  H8  UNL A   1      14.556  26.083  44.825  1.00  0.00    +0.000 H 
ATOM     12  C6  UNL A   1      14.626  26.310  43.782  1.00  0.00    +0.000 C 
BRANCH   12   13
ATOM    100  H9  UNL A   1      16.058  24.276  42.721  1.00  0.00    +0.000 H 
ATOM    101  H10 UNL A   1      15.312  22.419  41.362  1.00  0.00    +0.000 H 
ATOM    102  H11 UNL A   1      12.948  22.131  40.897  1.00  0.00    +0.000 H 
ATOM    103  H12 UNL A   1      11.339  23.713  41.784  1.00  0.00    +0.000 H 
ATOM    104  H13 UNL A   1      12.088  25.612  43.093  1.00  0.00    +0.000 H 
ATOM     13  C7  UNL A   1      14.138  25.109  43.009  1.00  0.00    +0.000 C 
ATOM     14  C8  UNL A   1      15.054  24.169  42.511  1.00  0.00    +0.000 C 
ATOM     15  C9  UNL A   1      14.625  23.093  41.736  1.00  0.00    +0.000 C 
ATOM     16  C10 UNL A   1      13.270  22.929  41.468  1.00  0.00    +0.000 C 
ATOM     17  C11 UNL A   1      12.345  23.843  41.973  1.00  0.00    +0.000 C 
ATOM     18  C12 UNL A   1      12.776  24.933  42.733  1.00  0.00    +0.000 C 
ENDBRANCH   12   13
ENDBRANCH   11   12
ENDBRANCH    9   11
ENDBRANCH    8    9
ENDBRANCH    7    8
ENDBRANCH    5    7
ENDBRANCH    4    5
ENDBRANCH    3    4
ENDBRANCH    2    3
ENDBRANCH   19    2
ENDBRANCH   20   19
ENDBRANCH   21   20
ENDBRANCH   22   21
ENDBRANCH   23   22
ENDBRANCH   24   23
ENDBRANCH   25   24
ENDBRANCH   26   25
ENDBRANCH   27   26
ENDBRANCH   29   27
ENDBRANCH   33   32
BRANCH   37   38
ATOM     38  C28 UNL A   1      22.987  33.845  46.021  1.00  0.00    +0.000 C 
ATOM     39  C29 UNL A   1      23.446  32.664  46.623  1.00  0.00    +0.000 C 
ATOM     40  F1  UNL A   1      24.273  32.722  47.679  1.00  0.00    +0.000 F 
ATOM     41  C30 UNL A   1      23.086  31.415  46.122  1.00  0.00    +0.000 C 
ATOM     42  F2  UNL A   1      23.574  30.303  46.687  1.00  0.00    +0.000 F 
ATOM     43  C31 UNL A   1      22.234  31.323  45.032  1.00  0.00    +0.000 C 
ATOM     44  F3  UNL A   1      21.880  30.121  44.557  1.00  0.00    +0.000 F 
ATOM     45  C32 UNL A   1      21.751  32.477  44.432  1.00  0.00    +0.000 C 
ATOM     46  F4  UNL A   1      20.916  32.388  43.388  1.00  0.00    +0.000 F 
ATOM     47  C33 UNL A   1      22.133  33.726  44.913  1.00  0.00    +0.000 C 
ATOM     48  F5  UNL A   1      21.659  34.824  44.304  1.00  0.00    +0.000 F 
ENDBRANCH   37   38
BRANCH   54   55
ATOM     65  F10 UNL A   1      27.729  40.109  44.278  1.00  0.00    +0.000 F 
ATOM     55  C39 UNL A   1      28.534  38.434  45.765  1.00  0.00    +0.000 C 
ATOM     56  C40 UNL A   1      29.609  37.621  46.152  1.00  0.00    +0.000 C 
ATOM     57  F6  UNL A   1      29.477  36.774  47.185  1.00  0.00    +0.000 F 
ATOM     58  C41 UNL A   1      30.838  37.703  45.501  1.00  0.00    +0.000 C 
ATOM     59  F7  UNL A   1      31.864  36.948  45.916  1.00  0.00    +0.000 F 
ATOM     60  C42 UNL A   1      31.003  38.573  44.433  1.00  0.00    +0.000 C 
ATOM     61  F8  UNL A   1      32.184  38.644  43.803  1.00  0.00    +0.000 F 
ATOM     62  C43 UNL A   1      29.948  39.374  44.024  1.00  0.00    +0.000 C 
ATOM     63  F9  UNL A   1      30.103  40.205  42.984  1.00  0.00    +0.000 F 
ATOM     64  C44 UNL A   1      28.728  39.315  44.691  1.00  0.00    +0.000 C 
ENDBRANCH   54   55
BRANCH   69   70
ATOM     70  C48 UNL A   1      25.112  42.718  50.063  1.00  0.00    +0.000 C 
ATOM     71  C49 UNL A   1      25.000  43.914  49.341  1.00  0.00    +0.000 C 
ATOM     72  F11 UNL A   1      24.583  43.890  48.067  1.00  0.00    +0.000 F 
ATOM     73  C50 UNL A   1      25.357  45.135  49.910  1.00  0.00    +0.000 C 
ATOM     74  F12 UNL A   1      25.287  46.256  49.181  1.00  0.00    +0.000 F 
ATOM     75  C51 UNL A   1      25.806  45.187  51.220  1.00  0.00    +0.000 C 
ATOM     76  F13 UNL A   1      26.151  46.360  51.767  1.00  0.00    +0.000 F 
ATOM     77  C52 UNL A   1      25.906  44.019  51.961  1.00  0.00    +0.000 C 
ATOM     78  F14 UNL A   1      26.326  44.066  53.233  1.00  0.00    +0.000 F 
ATOM     79  C53 UNL A   1      25.574  42.794  51.384  1.00  0.00    +0.000 C 
ATOM     80  F15 UNL A   1      25.697  41.678  52.119  1.00  0.00    +0.000 F 
ENDBRANCH   69   70
TORSDOF 23
ENDMDL
MODEL 8
REMARK VINA RESULT:      -9.5     23.829     29.451
ROOT
ATOM    129  H38 UNL A   1      54.623  20.105  14.067  1.00  0.00    +0.000 H 
ATOM    130  H39 UNL A   1      53.171  19.779  11.984  1.00  0.00    +0.000 H 
ATOM     33  C24 UNL A   1      54.415  18.214   9.953  1.00  0.00    +0.000 C 
ATOM     34  C25 UNL A   1      54.925  18.493  11.340  1.00  0.00    +0.000 C 
ATOM     35  N5  UNL A   1      56.028  18.086  11.915  1.00  0.00    +0.000 N 
ATOM     36  C26 UNL A   1      56.035  18.671  13.176  1.00  0.00    +0.000 C 
ATOM     37  C27 UNL A   1      56.936  18.515  14.174  1.00  0.00    +0.000 C 
ATOM     49  C34 UNL A   1      58.097  17.667  14.096  1.00  0.00    +0.000 C 
ATOM     50  C35 UNL A   1      59.037  17.397  15.075  1.00  0.00    +0.000 C 
ATOM     51  C36 UNL A   1      60.005  16.548  14.531  1.00  0.00    +0.000 C 
ATOM     52  C37 UNL A   1      59.643  16.249  13.228  1.00  0.00    +0.000 C 
ATOM     53  N6  UNL A   1      58.473  16.947  12.972  1.00  0.00    +0.000 N 
ATOM     54  C38 UNL A   1      60.313  15.392  12.286  1.00  0.00    +0.000 C 
ATOM     66  C45 UNL A   1      59.893  15.152  11.019  1.00  0.00    +0.000 C 
ATOM     67  N7  UNL A   1      58.767  15.635  10.368  1.00  0.00    +0.000 N 
ATOM     68  C46 UNL A   1      58.803  15.125   9.161  1.00  0.00    +0.000 C 
ATOM     69  C47 UNL A   1      57.817  15.281   8.034  1.00  0.00    +0.000 C 
ATOM     81  C54 UNL A   1      56.705  16.016   8.227  1.00  0.00    +0.000 C 
ATOM     82  C55 UNL A   1      55.665  16.257   7.231  1.00  0.00    +0.000 C 
ATOM     83  C56 UNL A   1      54.744  17.084   7.750  1.00  0.00    +0.000 C 
ATOM     84  C57 UNL A   1      55.109  17.403   9.131  1.00  0.00    +0.000 C 
ATOM     85  N8  UNL A   1      56.277  16.710   9.333  1.00  0.00    +0.000 N 
ATOM     86  C58 UNL A   1      59.981  14.285   8.900  1.00  0.00    +0.000 C 
ATOM     87  C59 UNL A   1      60.589  14.301  10.077  1.00  0.00    +0.000 C 
ATOM     88  C60 UNL A   1      54.850  19.497  13.265  1.00  0.00    +0.000 C 
ATOM     89  C61 UNL A   1      54.096  19.369  12.183  1.00  0.00    +0.000 C 
ATOM    121  H30 UNL A   1      59.025  17.762  16.041  1.00  0.00    +0.000 H 
ATOM    122  H31 UNL A   1      60.847  16.203  15.018  1.00  0.00    +0.000 H 
ATOM    123  H32 UNL A   1      57.983  16.934  12.118  1.00  0.00    +0.000 H 
ATOM    124  H33 UNL A   1      55.642  15.855   6.281  1.00  0.00    +0.000 H 
ATOM    125  H34 UNL A   1      53.912  17.439   7.254  1.00  0.00    +0.000 H 
ATOM    126  H35 UNL A   1      56.762  16.709  10.190  1.00  0.00    +0.000 H 
ATOM    127  H36 UNL A   1      60.260  13.809   8.029  1.00  0.00    +0.000 H 
ATOM    128  H37 UNL A   1      61.450  13.774  10.295  1.00  0.00    +0.000 H 
ENDROOT
BRANCH   33   32
ATOM    131  H40 UNL A   1      54.220  20.601   8.754  1.00  0.00    +0.000 H 
ATOM    132  H41 UNL A   1      52.232  21.770   8.011  1.00  0.00    +0.000 H 
ATOM    119  H28 UNL A   1      49.868  18.476   9.129  1.00  0.00    +0.000 H 
ATOM    120  H29 UNL A   1      51.826  17.398  10.078  1.00  0.00    +0.000 H 
ATOM     90  C62 UNL A   1      53.294  20.156   8.853  1.00  0.00    +0.000 C 
ATOM     91  C63 UNL A   1      52.157  20.811   8.385  1.00  0.00    +0.000 C 
ATOM     29  C20 UNL A   1      50.918  20.169   8.423  1.00  0.00    +0.000 C 
ATOM     30  C21 UNL A   1      50.792  18.928   9.055  1.00  0.00    +0.000 C 
ATOM     31  C22 UNL A   1      51.923  18.301   9.588  1.00  0.00    +0.000 C 
ATOM     32  C23 UNL A   1      53.190  18.893   9.459  1.00  0.00    +0.000 C 
BRANCH   29   27
ATOM     27  C19 UNL A   1      49.717  20.784   7.814  1.00  0.00    +0.000 C 
ATOM     28  O5  UNL A   1      49.084  21.627   8.444  1.00  0.00    +0.000 O 
BRANCH   27   26
ATOM     26  N4  UNL A   1      49.297  20.398   6.564  1.00  0.00    +0.000 N 
ATOM    118  H27 UNL A   1      48.401  20.711   6.308  1.00  0.00    +0.000 H 
BRANCH   26   25
ATOM     25  C18 UNL A   1      49.982  19.595   5.561  1.00  0.00    +0.000 C 
ATOM    116  H25 UNL A   1      50.139  20.198   4.690  1.00  0.00    +0.000 H 
ATOM    117  H26 UNL A   1      50.907  19.267   5.988  1.00  0.00    +0.000 H 
BRANCH   25   24
ATOM    114  H23 UNL A   1      48.434  18.653   4.469  1.00  0.00    +0.000 H 
ATOM    115  H24 UNL A   1      49.907  17.672   4.743  1.00  0.00    +0.000 H 
ATOM     24  C17 UNL A   1      49.194  18.353   5.160  1.00  0.00    +0.000 C 
BRANCH   24   23
ATOM    113  H22 UNL A   1      48.492  18.298   7.127  1.00  0.00    +0.000 H 
ATOM     23  C16 UNL A   1      48.520  17.608   6.310  1.00  0.00    +0.000 C 
ATOM    112  H21 UNL A   1      49.089  16.723   6.507  1.00  0.00    +0.000 H 
BRANCH   23   22
ATOM    110  H19 UNL A   1      46.870  16.334   6.681  1.00  0.00    +0.000 H 
ATOM     22  C15 UNL A   1      47.068  17.190   6.069  1.00  0.00    +0.000 C 
ATOM    111  H20 UNL A   1      46.480  18.050   6.309  1.00  0.00    +0.000 H 
BRANCH   22   21
ATOM    109  H18 UNL A   1      46.415  15.796   4.639  1.00  0.00    +0.000 H 
ATOM    108  H17 UNL A   1      47.542  17.030   4.003  1.00  0.00    +0.000 H 
ATOM     21  C14 UNL A   1      46.696  16.829   4.625  1.00  0.00    +0.000 C 
BRANCH   21   20
ATOM    106  H15 UNL A   1      44.990  16.955   3.362  1.00  0.00    +0.000 H 
ATOM    107  H16 UNL A   1      44.873  17.862   4.883  1.00  0.00    +0.000 H 
ATOM     20  C13 UNL A   1      45.498  17.590   4.058  1.00  0.00    +0.000 C 
BRANCH   20   19
ATOM    105  H14 UNL A   1      46.255  18.752   2.472  1.00  0.00    +0.000 H 
ATOM     19  N3  UNL A   1      45.871  18.814   3.377  1.00  0.00    +0.000 N 
BRANCH   19    2
ATOM      1  O1  UNL A   1      46.361  20.452   4.910  1.00  0.00    +0.000 O 
ATOM      2  C1  UNL A   1      45.714  20.060   3.943  1.00  0.00    +0.000 C 
BRANCH    2    3
ATOM      3  C2  UNL A   1      44.604  20.923   3.326  1.00  0.00    +0.000 C 
ATOM     92  H1  UNL A   1      44.969  21.927   3.240  1.00  0.00    +0.000 H 
ATOM     93  H2  UNL A   1      43.757  20.845   3.974  1.00  0.00    +0.000 H 
BRANCH    3    4
ATOM      4  N1  UNL A   1      44.163  20.483   2.007  1.00  0.00    +0.000 N 
ATOM     94  H3  UNL A   1      44.836  20.550   1.291  1.00  0.00    +0.000 H 
BRANCH    4    5
ATOM      5  C3  UNL A   1      42.948  19.991   1.626  1.00  0.00    +0.000 C 
ATOM      6  O2  UNL A   1      42.715  18.798   1.825  1.00  0.00    +0.000 O 
BRANCH    5    7
ATOM     95  H4  UNL A   1      42.337  21.870   0.799  1.00  0.00    +0.000 H 
ATOM      7  C4  UNL A   1      41.899  20.916   1.010  1.00  0.00    +0.000 C 
ATOM     96  H5  UNL A   1      41.085  21.054   1.691  1.00  0.00    +0.000 H 
BRANCH    7    8
ATOM     97  H6  UNL A   1      42.104  20.055  -0.877  1.00  0.00    +0.000 H 
ATOM      8  N2  UNL A   1      41.421  20.317  -0.219  1.00  0.00    +0.000 N 
BRANCH    8    9
ATOM      9  C5  UNL A   1      40.127  20.077  -0.558  1.00  0.00    +0.000 C 
ATOM     10  O3  UNL A   1      39.606  19.005  -0.287  1.00  0.00    +0.000 O 
BRANCH    9   11
ATOM     11  O4  UNL A   1      39.524  21.121  -1.171  1.00  0.00    +0.000 O 
BRANCH   11   12
ATOM     98  H7  UNL A   1      39.564  23.051  -0.480  1.00  0.00    +0.000 H 
ATOM     99  H8  UNL A   1      39.180  21.813   0.717  1.00  0.00    +0.000 H 
ATOM     12  C6  UNL A   1      39.031  22.144  -0.289  1.00  0.00    +0.000 C 
BRANCH   12   13
ATOM    100  H9  UNL A   1      37.809  23.905  -1.938  1.00  0.00    +0.000 H 
ATOM    101  H10 UNL A   1      35.456  24.417  -2.164  1.00  0.00    +0.000 H 
ATOM    102  H11 UNL A   1      33.816  23.170  -0.882  1.00  0.00    +0.000 H 
ATOM    103  H12 UNL A   1      34.540  21.420   0.633  1.00  0.00    +0.000 H 
ATOM    104  H13 UNL A   1      36.902  20.946   0.911  1.00  0.00    +0.000 H 
ATOM     13  C7  UNL A   1      37.555  22.393  -0.484  1.00  0.00    +0.000 C 
ATOM     14  C8  UNL A   1      37.118  23.384  -1.377  1.00  0.00    +0.000 C 
ATOM     15  C9  UNL A   1      35.761  23.674  -1.516  1.00  0.00    +0.000 C 
ATOM     16  C10 UNL A   1      34.822  22.960  -0.779  1.00  0.00    +0.000 C 
ATOM     17  C11 UNL A   1      35.239  21.958   0.097  1.00  0.00    +0.000 C 
ATOM     18  C12 UNL A   1      36.600  21.681   0.251  1.00  0.00    +0.000 C 
ENDBRANCH   12   13
ENDBRANCH   11   12
ENDBRANCH    9   11
ENDBRANCH    8    9
ENDBRANCH    7    8
ENDBRANCH    5    7
ENDBRANCH    4    5
ENDBRANCH    3    4
ENDBRANCH    2    3
ENDBRANCH   19    2
ENDBRANCH   20   19
ENDBRANCH   21   20
ENDBRANCH   22   21
ENDBRANCH   23   22
ENDBRANCH   24   23
ENDBRANCH   25   24
ENDBRANCH   26   25
ENDBRANCH   27   26
ENDBRANCH   29   27
ENDBRANCH   33   32
BRANCH   37   38
ATOM     38  C28 UNL A   1      56.703  19.275  15.447  1.00  0.00    +0.000 C 
ATOM     39  C29 UNL A   1      57.223  20.564  15.639  1.00  0.00    +0.000 C 
ATOM     40  F1  UNL A   1      57.995  21.128  14.697  1.00  0.00    +0.000 F 
ATOM     41  C30 UNL A   1      56.979  21.268  16.815  1.00  0.00    +0.000 C 
ATOM     42  F2  UNL A   1      57.523  22.480  16.994  1.00  0.00    +0.000 F 
ATOM     43  C31 UNL A   1      56.185  20.713  17.807  1.00  0.00    +0.000 C 
ATOM     44  F3  UNL A   1      55.943  21.395  18.935  1.00  0.00    +0.000 F 
ATOM     45  C32 UNL A   1      55.644  19.447  17.631  1.00  0.00    +0.000 C 
ATOM     46  F4  UNL A   1      54.865  18.915  18.582  1.00  0.00    +0.000 F 
ATOM     47  C33 UNL A   1      55.910  18.729  16.468  1.00  0.00    +0.000 C 
ATOM     48  F5  UNL A   1      55.383  17.503  16.333  1.00  0.00    +0.000 F 
ENDBRANCH   37   38
BRANCH   54   55
ATOM     65  F10 UNL A   1      62.922  16.432  11.868  1.00  0.00    +0.000 F 
ATOM     55  C39 UNL A   1      61.558  14.689  12.745  1.00  0.00    +0.000 C 
ATOM     56  C40 UNL A   1      61.508  13.447  13.393  1.00  0.00    +0.000 C 
ATOM     57  F6  UNL A   1      60.324  12.879  13.673  1.00  0.00    +0.000 F 
ATOM     58  C41 UNL A   1      62.675  12.800  13.790  1.00  0.00    +0.000 C 
ATOM     59  F7  UNL A   1      62.602  11.634  14.446  1.00  0.00    +0.000 F 
ATOM     60  C42 UNL A   1      63.912  13.365  13.517  1.00  0.00    +0.000 C 
ATOM     61  F8  UNL A   1      65.035  12.736  13.892  1.00  0.00    +0.000 F 
ATOM     62  C43 UNL A   1      63.985  14.586  12.862  1.00  0.00    +0.000 C 
ATOM     63  F9  UNL A   1      65.180  15.127  12.587  1.00  0.00    +0.000 F 
ATOM     64  C44 UNL A   1      62.819  15.249  12.491  1.00  0.00    +0.000 C 
ENDBRANCH   54   55
BRANCH   69   70
ATOM     70  C48 UNL A   1      58.049  14.613   6.727  1.00  0.00    +0.000 C 
ATOM     71  C49 UNL A   1      58.652  15.303   5.666  1.00  0.00    +0.000 C 
ATOM     72  F11 UNL A   1      59.020  16.583   5.823  1.00  0.00    +0.000 F 
ATOM     73  C50 UNL A   1      58.839  14.696   4.425  1.00  0.00    +0.000 C 
ATOM     74  F12 UNL A   1      59.371  15.394   3.414  1.00  0.00    +0.000 F 
ATOM     75  C51 UNL A   1      58.454  13.378   4.231  1.00  0.00    +0.000 C 
ATOM     76  F13 UNL A   1      58.632  12.795   3.038  1.00  0.00    +0.000 F 
ATOM     77  C52 UNL A   1      57.875  12.669   5.273  1.00  0.00    +0.000 C 
ATOM     78  F14 UNL A   1      57.514  11.391   5.093  1.00  0.00    +0.000 F 
ATOM     79  C53 UNL A   1      57.663  13.284   6.505  1.00  0.00    +0.000 C 
ATOM     80  F15 UNL A   1      57.085  12.579   7.489  1.00  0.00    +0.000 F 
ENDBRANCH   69   70
TORSDOF 23
ENDMDL
MODEL 9
REMARK VINA RESULT:      -9.4     18.035     23.944
ROOT
ATOM    129  H38 UNL A   1      23.110  34.458  47.171  1.00  0.00    +0.000 H 
ATOM    130  H39 UNL A   1      22.810  36.698  48.373  1.00  0.00    +0.000 H 
ATOM     33  C24 UNL A   1      25.165  38.303  48.412  1.00  0.00    +0.000 C 
ATOM     34  C25 UNL A   1      24.952  37.000  47.690  1.00  0.00    +0.000 C 
ATOM     35  N5  UNL A   1      25.780  36.328  46.932  1.00  0.00    +0.000 N 
ATOM     36  C26 UNL A   1      25.100  35.175  46.559  1.00  0.00    +0.000 C 
ATOM     37  C27 UNL A   1      25.507  34.184  45.731  1.00  0.00    +0.000 C 
ATOM     49  C34 UNL A   1      26.779  34.160  45.057  1.00  0.00    +0.000 C 
ATOM     50  C35 UNL A   1      27.259  33.229  44.152  1.00  0.00    +0.000 C 
ATOM     51  C36 UNL A   1      28.558  33.598  43.792  1.00  0.00    +0.000 C 
ATOM     52  C37 UNL A   1      28.870  34.786  44.433  1.00  0.00    +0.000 C 
ATOM     53  N6  UNL A   1      27.771  35.116  45.211  1.00  0.00    +0.000 N 
ATOM     54  C38 UNL A   1      30.079  35.562  44.345  1.00  0.00    +0.000 C 
ATOM     66  C45 UNL A   1      30.309  36.720  45.012  1.00  0.00    +0.000 C 
ATOM     67  N7  UNL A   1      29.472  37.407  45.878  1.00  0.00    +0.000 N 
ATOM     68  C46 UNL A   1      30.146  38.461  46.271  1.00  0.00    +0.000 C 
ATOM     69  C47 UNL A   1      29.718  39.576  47.187  1.00  0.00    +0.000 C 
ATOM     81  C54 UNL A   1      28.472  39.569  47.699  1.00  0.00    +0.000 C 
ATOM     82  C55 UNL A   1      27.920  40.577  48.599  1.00  0.00    +0.000 C 
ATOM     83  C56 UNL A   1      26.678  40.213  48.956  1.00  0.00    +0.000 C 
ATOM     84  C57 UNL A   1      26.331  38.963  48.279  1.00  0.00    +0.000 C 
ATOM     85  N8  UNL A   1      27.450  38.665  47.539  1.00  0.00    +0.000 N 
ATOM     86  C58 UNL A   1      31.506  38.541  45.719  1.00  0.00    +0.000 C 
ATOM     87  C59 UNL A   1      31.538  37.479  44.926  1.00  0.00    +0.000 C 
ATOM     88  C60 UNL A   1      23.808  35.216  47.212  1.00  0.00    +0.000 C 
ATOM     89  C61 UNL A   1      23.642  36.355  47.868  1.00  0.00    +0.000 C 
ATOM    121  H30 UNL A   1      26.746  32.403  43.805  1.00  0.00    +0.000 H 
ATOM    122  H31 UNL A   1      29.180  33.075  43.155  1.00  0.00    +0.000 H 
ATOM    123  H32 UNL A   1      27.706  35.912  45.788  1.00  0.00    +0.000 H 
ATOM    124  H33 UNL A   1      28.407  41.432  48.910  1.00  0.00    +0.000 H 
ATOM    125  H34 UNL A   1      26.066  40.731  49.605  1.00  0.00    +0.000 H 
ATOM    126  H35 UNL A   1      27.513  37.878  46.950  1.00  0.00    +0.000 H 
ATOM    127  H36 UNL A   1      32.242  39.240  45.902  1.00  0.00    +0.000 H 
ATOM    128  H37 UNL A   1      32.338  37.226  44.325  1.00  0.00    +0.000 H 
ENDROOT
BRANCH   33   32
ATOM    131  H40 UNL A   1      23.150  39.975  47.849  1.00  0.00    +0.000 H 
ATOM    132  H41 UNL A   1      21.484  40.904  49.344  1.00  0.00    +0.000 H 
ATOM    119  H28 UNL A   1      23.040  38.616  52.511  1.00  0.00    +0.000 H 
ATOM    120  H29 UNL A   1      24.843  37.858  51.073  1.00  0.00    +0.000 H 
ATOM     90  C62 UNL A   1      23.141  39.700  48.844  1.00  0.00    +0.000 C 
ATOM     91  C63 UNL A   1      22.155  40.201  49.692  1.00  0.00    +0.000 C 
ATOM     29  C20 UNL A   1      22.077  39.752  51.012  1.00  0.00    +0.000 C 
ATOM     30  C21 UNL A   1      23.068  38.907  51.522  1.00  0.00    +0.000 C 
ATOM     31  C22 UNL A   1      24.098  38.460  50.689  1.00  0.00    +0.000 C 
ATOM     32  C23 UNL A   1      24.122  38.823  49.333  1.00  0.00    +0.000 C 
BRANCH   29   27
ATOM     27  C19 UNL A   1      20.965  40.164  51.897  1.00  0.00    +0.000 C 
ATOM     28  O5  UNL A   1      21.132  41.086  52.690  1.00  0.00    +0.000 O 
BRANCH   27   26
ATOM     26  N4  UNL A   1      19.761  39.504  51.851  1.00  0.00    +0.000 N 
ATOM    118  H27 UNL A   1      19.823  38.528  51.741  1.00  0.00    +0.000 H 
BRANCH   26   25
ATOM     25  C18 UNL A   1      18.407  40.032  51.942  1.00  0.00    +0.000 C 
ATOM    116  H25 UNL A   1      17.850  39.428  52.628  1.00  0.00    +0.000 H 
ATOM    117  H26 UNL A   1      18.480  41.047  52.274  1.00  0.00    +0.000 H 
BRANCH   25   24
ATOM    114  H23 UNL A   1      16.951  40.816  50.622  1.00  0.00    +0.000 H 
ATOM    115  H24 UNL A   1      18.441  40.184  49.856  1.00  0.00    +0.000 H 
ATOM     24  C17 UNL A   1      17.684  40.038  50.599  1.00  0.00    +0.000 C 
BRANCH   24   23
ATOM    113  H22 UNL A   1      17.295  38.016  50.960  1.00  0.00    +0.000 H 
ATOM     23  C16 UNL A   1      16.978  38.734  50.233  1.00  0.00    +0.000 C 
ATOM    112  H21 UNL A   1      17.251  38.484  49.228  1.00  0.00    +0.000 H 
BRANCH   23   22
ATOM    110  H19 UNL A   1      15.178  38.723  51.348  1.00  0.00    +0.000 H 
ATOM     22  C15 UNL A   1      15.451  38.762  50.313  1.00  0.00    +0.000 C 
ATOM    111  H20 UNL A   1      15.156  39.660  49.813  1.00  0.00    +0.000 H 
BRANCH   22   21
ATOM    109  H18 UNL A   1      14.099  38.096  48.849  1.00  0.00    +0.000 H 
ATOM    108  H17 UNL A   1      14.150  37.081  50.320  1.00  0.00    +0.000 H 
ATOM     21  C14 UNL A   1      14.711  37.628  49.592  1.00  0.00    +0.000 C 
BRANCH   21   20
ATOM    106  H15 UNL A   1      16.600  37.047  48.806  1.00  0.00    +0.000 H 
ATOM    107  H16 UNL A   1      15.576  35.715  49.380  1.00  0.00    +0.000 H 
ATOM     20  C13 UNL A   1      15.610  36.642  48.847  1.00  0.00    +0.000 C 
BRANCH   20   19
ATOM    105  H14 UNL A   1      14.202  36.262  47.326  1.00  0.00    +0.000 H 
ATOM     19  N3  UNL A   1      15.165  36.377  47.492  1.00  0.00    +0.000 N 
BRANCH   19    2
ATOM      1  O1  UNL A   1      16.832  37.159  46.120  1.00  0.00    +0.000 O 
ATOM      2  C1  UNL A   1      16.034  36.277  46.428  1.00  0.00    +0.000 C 
BRANCH    2    3
ATOM      3  C2  UNL A   1      15.893  35.002  45.586  1.00  0.00    +0.000 C 
ATOM     92  H1  UNL A   1      14.858  34.873  45.343  1.00  0.00    +0.000 H 
ATOM     93  H2  UNL A   1      16.284  34.199  46.175  1.00  0.00    +0.000 H 
BRANCH    3    4
ATOM      4  N1  UNL A   1      16.655  35.017  44.342  1.00  0.00    +0.000 N 
ATOM     94  H3  UNL A   1      17.264  35.782  44.227  1.00  0.00    +0.000 H 
BRANCH    4    5
ATOM      5  C3  UNL A   1      16.642  34.118  43.314  1.00  0.00    +0.000 C 
ATOM      6  O2  UNL A   1      15.869  34.319  42.377  1.00  0.00    +0.000 O 
BRANCH    5    7
ATOM     95  H4  UNL A   1      18.565  33.234  42.983  1.00  0.00    +0.000 H 
ATOM      7  C4  UNL A   1      17.597  32.925  43.319  1.00  0.00    +0.000 C 
ATOM     96  H5  UNL A   1      17.233  32.161  42.664  1.00  0.00    +0.000 H 
BRANCH    7    8
ATOM     97  H6  UNL A   1      16.845  32.322  45.167  1.00  0.00    +0.000 H 
ATOM      8  N2  UNL A   1      17.690  32.415  44.672  1.00  0.00    +0.000 N 
BRANCH    8    9
ATOM      9  C5  UNL A   1      18.823  32.052  45.328  1.00  0.00    +0.000 C 
ATOM     10  O3  UNL A   1      19.349  30.972  45.100  1.00  0.00    +0.000 O 
BRANCH    9   11
ATOM     11  O4  UNL A   1      19.277  32.990  46.190  1.00  0.00    +0.000 O 
BRANCH   11   12
ATOM     98  H7  UNL A   1      19.348  34.375  44.680  1.00  0.00    +0.000 H 
ATOM     99  H8  UNL A   1      20.904  33.902  45.365  1.00  0.00    +0.000 H 
ATOM     12  C6  UNL A   1      19.883  34.139  45.576  1.00  0.00    +0.000 C 
BRANCH   12   13
ATOM    100  H9  UNL A   1      20.692  36.670  45.070  1.00  0.00    +0.000 H 
ATOM    101  H10 UNL A   1      20.797  38.574  46.558  1.00  0.00    +0.000 H 
ATOM    102  H11 UNL A   1      19.980  38.379  48.834  1.00  0.00    +0.000 H 
ATOM    103  H12 UNL A   1      19.071  36.272  49.618  1.00  0.00    +0.000 H 
ATOM    104  H13 UNL A   1      19.022  34.343  48.150  1.00  0.00    +0.000 H 
ATOM     13  C7  UNL A   1      19.862  35.342  46.488  1.00  0.00    +0.000 C 
ATOM     14  C8  UNL A   1      20.360  36.576  46.042  1.00  0.00    +0.000 C 
ATOM     15  C9  UNL A   1      20.413  37.677  46.895  1.00  0.00    +0.000 C 
ATOM     16  C10 UNL A   1      19.946  37.565  48.201  1.00  0.00    +0.000 C 
ATOM     17  C11 UNL A   1      19.429  36.350  48.653  1.00  0.00    +0.000 C 
ATOM     18  C12 UNL A   1      19.394  35.241  47.804  1.00  0.00    +0.000 C 
ENDBRANCH   12   13
ENDBRANCH   11   12
ENDBRANCH    9   11
ENDBRANCH    8    9
ENDBRANCH    7    8
ENDBRANCH    5    7
ENDBRANCH    4    5
ENDBRANCH    3    4
ENDBRANCH    2    3
ENDBRANCH   19    2
ENDBRANCH   20   19
ENDBRANCH   21   20
ENDBRANCH   22   21
ENDBRANCH   23   22
ENDBRANCH   24   23
ENDBRANCH   25   24
ENDBRANCH   26   25
ENDBRANCH   27   26
ENDBRANCH   29   27
ENDBRANCH   33   32
BRANCH   37   38
ATOM     38  C28 UNL A   1      24.566  33.038  45.502  1.00  0.00    +0.000 C 
ATOM     39  C29 UNL A   1      23.541  33.109  44.546  1.00  0.00    +0.000 C 
ATOM     40  F1  UNL A   1      23.347  34.239  43.847  1.00  0.00    +0.000 F 
ATOM     41  C30 UNL A   1      22.689  32.030  44.326  1.00  0.00    +0.000 C 
ATOM     42  F2  UNL A   1      21.690  32.137  43.439  1.00  0.00    +0.000 F 
ATOM     43  C31 UNL A   1      22.865  30.849  45.031  1.00  0.00    +0.000 C 
ATOM     44  F3  UNL A   1      22.050  29.808  44.812  1.00  0.00    +0.000 F 
ATOM     45  C32 UNL A   1      23.883  30.750  45.968  1.00  0.00    +0.000 C 
ATOM     46  F4  UNL A   1      24.063  29.604  46.640  1.00  0.00    +0.000 F 
ATOM     47  C33 UNL A   1      24.718  31.837  46.211  1.00  0.00    +0.000 C 
ATOM     48  F5  UNL A   1      25.686  31.713  47.132  1.00  0.00    +0.000 F 
ENDBRANCH   37   38
BRANCH   54   55
ATOM     65  F10 UNL A   1      32.007  33.629  45.123  1.00  0.00    +0.000 F 
ATOM     55  C39 UNL A   1      31.159  35.068  43.427  1.00  0.00    +0.000 C 
ATOM     56  C40 UNL A   1      31.299  35.558  42.121  1.00  0.00    +0.000 C 
ATOM     57  F6  UNL A   1      30.420  36.450  41.637  1.00  0.00    +0.000 F 
ATOM     58  C41 UNL A   1      32.322  35.105  41.293  1.00  0.00    +0.000 C 
ATOM     59  F7  UNL A   1      32.411  35.555  40.034  1.00  0.00    +0.000 F 
ATOM     60  C42 UNL A   1      33.243  34.180  41.765  1.00  0.00    +0.000 C 
ATOM     61  F8  UNL A   1      34.232  33.752  40.969  1.00  0.00    +0.000 F 
ATOM     62  C43 UNL A   1      33.132  33.695  43.060  1.00  0.00    +0.000 C 
ATOM     63  F9  UNL A   1      34.028  32.811  43.521  1.00  0.00    +0.000 F 
ATOM     64  C44 UNL A   1      32.093  34.124  43.879  1.00  0.00    +0.000 C 
ENDBRANCH   54   55
BRANCH   69   70
ATOM     70  C48 UNL A   1      30.649  40.690  47.509  1.00  0.00    +0.000 C 
ATOM     71  C49 UNL A   1      31.544  40.589  48.583  1.00  0.00    +0.000 C 
ATOM     72  F11 UNL A   1      31.562  39.480  49.337  1.00  0.00    +0.000 F 
ATOM     73  C50 UNL A   1      32.392  41.643  48.916  1.00  0.00    +0.000 C 
ATOM     74  F12 UNL A   1      33.202  41.539  49.977  1.00  0.00    +0.000 F 
ATOM     75  C51 UNL A   1      32.383  42.808  48.163  1.00  0.00    +0.000 C 
ATOM     76  F13 UNL A   1      33.197  43.821  48.482  1.00  0.00    +0.000 F 
ATOM     77  C52 UNL A   1      31.521  42.922  47.082  1.00  0.00    +0.000 C 
ATOM     78  F14 UNL A   1      31.518  44.040  46.343  1.00  0.00    +0.000 F 
ATOM     79  C53 UNL A   1      30.652  41.879  46.766  1.00  0.00    +0.000 C 
ATOM     80  F15 UNL A   1      29.818  42.024  45.726  1.00  0.00    +0.000 F 
ENDBRANCH   69   70
TORSDOF 23
ENDMDL
MODEL 10
REMARK VINA RESULT:      -9.4     17.497     22.529
ROOT
ATOM    129  H38 UNL A   1      29.331  34.034  42.862  1.00  0.00    +0.000 H 
ATOM    130  H39 UNL A   1      26.905  33.696  43.606  1.00  0.00    +0.000 H 
ATOM     33  C24 UNL A   1      26.086  35.467  45.683  1.00  0.00    +0.000 C 
ATOM     34  C25 UNL A   1      27.388  35.473  44.930  1.00  0.00    +0.000 C 
ATOM     35  N5  UNL A   1      28.413  36.277  45.054  1.00  0.00    +0.000 N 
ATOM     36  C26 UNL A   1      29.368  35.813  44.157  1.00  0.00    +0.000 C 
ATOM     37  C27 UNL A   1      30.582  36.339  43.868  1.00  0.00    +0.000 C 
ATOM     49  C34 UNL A   1      31.113  37.534  44.470  1.00  0.00    +0.000 C 
ATOM     50  C35 UNL A   1      32.308  38.178  44.200  1.00  0.00    +0.000 C 
ATOM     51  C36 UNL A   1      32.417  39.277  45.057  1.00  0.00    +0.000 C 
ATOM     52  C37 UNL A   1      31.267  39.347  45.827  1.00  0.00    +0.000 C 
ATOM     53  N6  UNL A   1      30.479  38.267  45.461  1.00  0.00    +0.000 N 
ATOM     54  C38 UNL A   1      30.914  40.324  46.824  1.00  0.00    +0.000 C 
ATOM     66  C45 UNL A   1      29.764  40.320  47.541  1.00  0.00    +0.000 C 
ATOM     67  N7  UNL A   1      28.699  39.432  47.476  1.00  0.00    +0.000 N 
ATOM     68  C46 UNL A   1      27.831  39.844  48.369  1.00  0.00    +0.000 C 
ATOM     69  C47 UNL A   1      26.478  39.281  48.709  1.00  0.00    +0.000 C 
ATOM     81  C54 UNL A   1      26.016  38.215  48.027  1.00  0.00    +0.000 C 
ATOM     82  C55 UNL A   1      24.729  37.562  48.246  1.00  0.00    +0.000 C 
ATOM     83  C56 UNL A   1      24.633  36.498  47.432  1.00  0.00    +0.000 C 
ATOM     84  C57 UNL A   1      25.838  36.416  46.606  1.00  0.00    +0.000 C 
ATOM     85  N8  UNL A   1      26.594  37.487  47.015  1.00  0.00    +0.000 N 
ATOM     86  C58 UNL A   1      28.267  41.026  49.126  1.00  0.00    +0.000 C 
ATOM     87  C59 UNL A   1      29.431  41.300  48.553  1.00  0.00    +0.000 C 
ATOM     88  C60 UNL A   1      28.819  34.631  43.528  1.00  0.00    +0.000 C 
ATOM     89  C61 UNL A   1      27.571  34.417  43.923  1.00  0.00    +0.000 C 
ATOM    121  H30 UNL A   1      33.001  37.895  43.489  1.00  0.00    +0.000 H 
ATOM    122  H31 UNL A   1      33.217  39.927  45.108  1.00  0.00    +0.000 H 
ATOM    123  H32 UNL A   1      29.599  38.053  45.848  1.00  0.00    +0.000 H 
ATOM    124  H33 UNL A   1      24.009  37.870  48.918  1.00  0.00    +0.000 H 
ATOM    125  H34 UNL A   1      23.837  35.843  47.396  1.00  0.00    +0.000 H 
ATOM    126  H35 UNL A   1      27.468  37.712  46.621  1.00  0.00    +0.000 H 
ATOM    127  H36 UNL A   1      27.792  41.514  49.901  1.00  0.00    +0.000 H 
ATOM    128  H37 UNL A   1      30.024  42.108  48.798  1.00  0.00    +0.000 H 
ENDROOT
BRANCH   33   32
ATOM    131  H40 UNL A   1      24.086  35.364  43.905  1.00  0.00    +0.000 H 
ATOM    132  H41 UNL A   1      22.425  33.628  43.586  1.00  0.00    +0.000 H 
ATOM    119  H28 UNL A   1      24.301  31.282  46.530  1.00  0.00    +0.000 H 
ATOM    120  H29 UNL A   1      25.826  33.109  47.008  1.00  0.00    +0.000 H 
ATOM     90  C62 UNL A   1      24.122  34.505  44.478  1.00  0.00    +0.000 C 
ATOM     91  C63 UNL A   1      23.193  33.490  44.262  1.00  0.00    +0.000 C 
ATOM     29  C20 UNL A   1      23.300  32.286  44.962  1.00  0.00    +0.000 C 
ATOM     30  C21 UNL A   1      24.253  32.151  45.977  1.00  0.00    +0.000 C 
ATOM     31  C22 UNL A   1      25.141  33.198  46.242  1.00  0.00    +0.000 C 
ATOM     32  C23 UNL A   1      25.107  34.370  45.469  1.00  0.00    +0.000 C 
BRANCH   29   27
ATOM     27  C19 UNL A   1      22.411  31.142  44.662  1.00  0.00    +0.000 C 
ATOM     28  O5  UNL A   1      22.893  30.022  44.518  1.00  0.00    +0.000 O 
BRANCH   27   26
ATOM     26  N4  UNL A   1      21.058  31.335  44.519  1.00  0.00    +0.000 N 
ATOM    118  H27 UNL A   1      20.744  31.424  43.591  1.00  0.00    +0.000 H 
BRANCH   26   25
ATOM     25  C18 UNL A   1      20.020  31.424  45.536  1.00  0.00    +0.000 C 
ATOM    116  H25 UNL A   1      19.196  30.809  45.238  1.00  0.00    +0.000 H 
ATOM    117  H26 UNL A   1      20.447  31.096  46.461  1.00  0.00    +0.000 H 
BRANCH   25   24
ATOM    114  H23 UNL A   1      18.521  32.794  46.132  1.00  0.00    +0.000 H 
ATOM    115  H24 UNL A   1      20.212  33.316  46.407  1.00  0.00    +0.000 H 
ATOM     24  C17 UNL A   1      19.516  32.849  45.741  1.00  0.00    +0.000 C 
BRANCH   24   23
ATOM    113  H22 UNL A   1      18.938  33.154  43.756  1.00  0.00    +0.000 H 
ATOM     23  C16 UNL A   1      19.483  33.716  44.485  1.00  0.00    +0.000 C 
ATOM    112  H21 UNL A   1      20.495  33.926  44.204  1.00  0.00    +0.000 H 
BRANCH   23   22
ATOM    110  H19 UNL A   1      19.408  35.741  45.101  1.00  0.00    +0.000 H 
ATOM     22  C15 UNL A   1      18.746  35.050  44.619  1.00  0.00    +0.000 C 
ATOM    111  H20 UNL A   1      18.471  35.325  43.624  1.00  0.00    +0.000 H 
BRANCH   22   21
ATOM    109  H18 UNL A   1      17.226  36.042  45.677  1.00  0.00    +0.000 H 
ATOM    108  H17 UNL A   1      17.574  34.390  46.264  1.00  0.00    +0.000 H 
ATOM     21  C14 UNL A   1      17.435  35.026  45.415  1.00  0.00    +0.000 C 
BRANCH   21   20
ATOM    106  H15 UNL A   1      15.895  33.600  45.072  1.00  0.00    +0.000 H 
ATOM    107  H16 UNL A   1      15.465  35.282  44.704  1.00  0.00    +0.000 H 
ATOM     20  C13 UNL A   1      16.218  34.524  44.640  1.00  0.00    +0.000 C 
BRANCH   20   19
ATOM    105  H14 UNL A   1      17.052  34.955  42.753  1.00  0.00    +0.000 H 
ATOM     19  N3  UNL A   1      16.490  34.304  43.232  1.00  0.00    +0.000 N 
BRANCH   19    2
ATOM      1  O1  UNL A   1      16.172  33.051  41.335  1.00  0.00    +0.000 O 
ATOM      2  C1  UNL A   1      15.993  33.224  42.537  1.00  0.00    +0.000 C 
BRANCH    2    3
ATOM      3  C2  UNL A   1      15.119  32.264  43.357  1.00  0.00    +0.000 C 
ATOM     92  H1  UNL A   1      14.357  31.873  42.714  1.00  0.00    +0.000 H 
ATOM     93  H2  UNL A   1      14.721  32.831  44.172  1.00  0.00    +0.000 H 
BRANCH    3    4
ATOM      4  N1  UNL A   1      15.844  31.142  43.941  1.00  0.00    +0.000 N 
ATOM     94  H3  UNL A   1      15.882  31.127  44.925  1.00  0.00    +0.000 H 
BRANCH    4    5
ATOM      5  C3  UNL A   1      16.481  30.109  43.314  1.00  0.00    +0.000 C 
ATOM      6  O2  UNL A   1      17.684  29.955  43.523  1.00  0.00    +0.000 O 
BRANCH    5    7
ATOM     95  H4  UNL A   1      15.758  29.480  41.399  1.00  0.00    +0.000 H 
ATOM      7  C4  UNL A   1      15.698  29.151  42.415  1.00  0.00    +0.000 C 
ATOM     96  H5  UNL A   1      14.670  29.129  42.710  1.00  0.00    +0.000 H 
BRANCH    7    8
ATOM     97  H6  UNL A   1      17.100  27.659  42.022  1.00  0.00    +0.000 H 
ATOM      8  N2  UNL A   1      16.278  27.830  42.537  1.00  0.00    +0.000 N 
BRANCH    8    9
ATOM      9  C5  UNL A   1      15.806  26.800  43.288  1.00  0.00    +0.000 C 
ATOM     10  O3  UNL A   1      16.448  26.388  44.243  1.00  0.00    +0.000 O 
BRANCH    9   11
ATOM     11  O4  UNL A   1      14.602  26.339  42.882  1.00  0.00    +0.000 O 
BRANCH   11   12
ATOM     98  H7  UNL A   1      15.536  25.915  41.107  1.00  0.00    +0.000 H 
ATOM     99  H8  UNL A   1      13.811  26.274  41.003  1.00  0.00    +0.000 H 
ATOM     12  C6  UNL A   1      14.577  25.777  41.560  1.00  0.00    +0.000 C 
BRANCH   12   13
ATOM    100  H9  UNL A   1      14.361  24.056  39.484  1.00  0.00    +0.000 H 
ATOM    101  H10 UNL A   1      13.712  21.725  39.485  1.00  0.00    +0.000 H 
ATOM    102  H11 UNL A   1      13.277  20.589  41.583  1.00  0.00    +0.000 H 
ATOM    103  H12 UNL A   1      13.482  21.794  43.677  1.00  0.00    +0.000 H 
ATOM    104  H13 UNL A   1      14.070  24.146  43.679  1.00  0.00    +0.000 H 
ATOM     13  C7  UNL A   1      14.256  24.302  41.580  1.00  0.00    +0.000 C 
ATOM     14  C8  UNL A   1      14.160  23.583  40.378  1.00  0.00    +0.000 C 
ATOM     15  C9  UNL A   1      13.795  22.237  40.377  1.00  0.00    +0.000 C 
ATOM     16  C10 UNL A   1      13.544  21.586  41.581  1.00  0.00    +0.000 C 
ATOM     17  C11 UNL A   1      13.656  22.282  42.785  1.00  0.00    +0.000 C 
ATOM     18  C12 UNL A   1      14.002  23.635  42.785  1.00  0.00    +0.000 C 
ENDBRANCH   12   13
ENDBRANCH   11   12
ENDBRANCH    9   11
ENDBRANCH    8    9
ENDBRANCH    7    8
ENDBRANCH    5    7
ENDBRANCH    4    5
ENDBRANCH    3    4
ENDBRANCH    2    3
ENDBRANCH   19    2
ENDBRANCH   20   19
ENDBRANCH   21   20
ENDBRANCH   22   21
ENDBRANCH   23   22
ENDBRANCH   24   23
ENDBRANCH   25   24
ENDBRANCH   26   25
ENDBRANCH   27   26
ENDBRANCH   29   27
ENDBRANCH   33   32
BRANCH   37   38
ATOM     38  C28 UNL A   1      31.424  35.627  42.850  1.00  0.00    +0.000 C 
ATOM     39  C29 UNL A   1      32.187  34.499  43.186  1.00  0.00    +0.000 C 
ATOM     40  F1  UNL A   1      32.222  34.061  44.455  1.00  0.00    +0.000 F 
ATOM     41  C30 UNL A   1      32.946  33.834  42.227  1.00  0.00    +0.000 C 
ATOM     42  F2  UNL A   1      33.701  32.785  42.581  1.00  0.00    +0.000 F 
ATOM     43  C31 UNL A   1      32.930  34.262  40.908  1.00  0.00    +0.000 C 
ATOM     44  F3  UNL A   1      33.653  33.615  39.983  1.00  0.00    +0.000 F 
ATOM     45  C32 UNL A   1      32.168  35.364  40.548  1.00  0.00    +0.000 C 
ATOM     46  F4  UNL A   1      32.141  35.770  39.272  1.00  0.00    +0.000 F 
ATOM     47  C33 UNL A   1      31.431  36.048  41.511  1.00  0.00    +0.000 C 
ATOM     48  F5  UNL A   1      30.714  37.117  41.134  1.00  0.00    +0.000 F 
ENDBRANCH   37   38
BRANCH   54   55
ATOM     65  F10 UNL A   1      30.525  42.951  45.820  1.00  0.00    +0.000 F 
ATOM     55  C39 UNL A   1      31.879  41.446  47.073  1.00  0.00    +0.000 C 
ATOM     56  C40 UNL A   1      33.060  41.255  47.803  1.00  0.00    +0.000 C 
ATOM     57  F6  UNL A   1      33.328  40.061  48.353  1.00  0.00    +0.000 F 
ATOM     58  C41 UNL A   1      33.955  42.304  48.003  1.00  0.00    +0.000 C 
ATOM     59  F7  UNL A   1      35.056  42.110  48.740  1.00  0.00    +0.000 F 
ATOM     60  C42 UNL A   1      33.702  43.550  47.448  1.00  0.00    +0.000 C 
ATOM     61  F8  UNL A   1      34.569  44.555  47.634  1.00  0.00    +0.000 F 
ATOM     62  C43 UNL A   1      32.547  43.756  46.708  1.00  0.00    +0.000 C 
ATOM     63  F9  UNL A   1      32.309  44.957  46.162  1.00  0.00    +0.000 F 
ATOM     64  C44 UNL A   1      31.637  42.718  46.532  1.00  0.00    +0.000 C 
ENDBRANCH   54   55
BRANCH   69   70
ATOM     70  C48 UNL A   1      25.643  39.904  49.770  1.00  0.00    +0.000 C 
ATOM     71  C49 UNL A   1      24.771  40.960  49.468  1.00  0.00    +0.000 C 
ATOM     72  F11 UNL A   1      24.688  41.421  48.212  1.00  0.00    +0.000 F 
ATOM     73  C50 UNL A   1      24.015  41.576  50.463  1.00  0.00    +0.000 C 
ATOM     74  F12 UNL A   1      23.228  42.615  50.156  1.00  0.00    +0.000 F 
ATOM     75  C51 UNL A   1      24.093  41.129  51.774  1.00  0.00    +0.000 C 
ATOM     76  F13 UNL A   1      23.367  41.721  52.730  1.00  0.00    +0.000 F 
ATOM     77  C52 UNL A   1      24.933  40.072  52.092  1.00  0.00    +0.000 C 
ATOM     78  F14 UNL A   1      25.001  39.628  53.354  1.00  0.00    +0.000 F 
ATOM     79  C53 UNL A   1      25.711  39.473  51.102  1.00  0.00    +0.000 C 
ATOM     80  F15 UNL A   1      26.526  38.465  51.442  1.00  0.00    +0.000 F 
ENDBRANCH   69   70
TORSDOF 23
ENDMDL
