MODEL 1
REMARK VINA RESULT:     -10.8      0.000      0.000
ROOT
ATOM    129  H39 UNL A   1      38.444  27.204  31.124  1.00  0.00    +0.000 H 
ATOM     28  C23 UNL A   1      39.878  28.771  29.170  1.00  0.00    +0.000 C 
ATOM     29  C24 UNL A   1      40.192  28.552  30.604  1.00  0.00    +0.000 C 
ATOM     30  N3  UNL A   1      41.131  29.123  31.281  1.00  0.00    +0.000 N 
ATOM     31  C25 UNL A   1      41.055  28.601  32.568  1.00  0.00    +0.000 C 
ATOM     32  C26 UNL A   1      42.139  28.638  33.391  1.00  0.00    +0.000 C 
ATOM     44  C33 UNL A   1      43.125  29.572  32.899  1.00  0.00    +0.000 C 
ATOM     45  C34 UNL A   1      43.131  30.931  32.655  1.00  0.00    +0.000 C 
ATOM     46  C35 UNL A   1      43.879  31.085  31.450  1.00  0.00    +0.000 C 
ATOM     47  C36 UNL A   1      44.345  29.825  31.073  1.00  0.00    +0.000 C 
ATOM     48  N4  UNL A   1      44.202  29.069  32.208  1.00  0.00    +0.000 N 
ATOM     49  C37 UNL A   1      44.807  29.292  29.813  1.00  0.00    +0.000 C 
ATOM     61  C44 UNL A   1      44.771  27.969  29.477  1.00  0.00    +0.000 C 
ATOM     62  N5  UNL A   1      44.798  27.561  28.151  1.00  0.00    +0.000 N 
ATOM     63  C45 UNL A   1      44.182  26.408  28.144  1.00  0.00    +0.000 C 
ATOM     64  C46 UNL A   1      43.237  26.003  27.068  1.00  0.00    +0.000 C 
ATOM     76  C53 UNL A   1      42.163  26.825  27.172  1.00  0.00    +0.000 C 
ATOM     77  C54 UNL A   1      41.170  27.196  26.191  1.00  0.00    +0.000 C 
ATOM     78  C55 UNL A   1      40.328  28.083  26.760  1.00  0.00    +0.000 C 
ATOM     79  C56 UNL A   1      40.609  28.188  28.195  1.00  0.00    +0.000 C 
ATOM     80  N6  UNL A   1      41.779  27.486  28.351  1.00  0.00    +0.000 N 
ATOM     81  C57 UNL A   1      44.057  25.756  29.437  1.00  0.00    +0.000 C 
ATOM     82  C58 UNL A   1      44.348  26.789  30.230  1.00  0.00    +0.000 C 
ATOM     83  C59 UNL A   1      39.805  27.888  32.634  1.00  0.00    +0.000 C 
ATOM     84  C60 UNL A   1      39.274  27.742  31.416  1.00  0.00    +0.000 C 
ATOM    120  H30 UNL A   1      42.690  31.674  33.220  1.00  0.00    +0.000 H 
ATOM    121  H31 UNL A   1      44.047  31.971  30.947  1.00  0.00    +0.000 H 
ATOM    122  H32 UNL A   1      44.766  28.309  32.478  1.00  0.00    +0.000 H 
ATOM    123  H33 UNL A   1      41.114  26.846  25.222  1.00  0.00    +0.000 H 
ATOM    124  H34 UNL A   1      39.595  28.611  26.259  1.00  0.00    +0.000 H 
ATOM    125  H35 UNL A   1      42.289  27.450  29.194  1.00  0.00    +0.000 H 
ATOM    126  H36 UNL A   1      43.814  24.780  29.672  1.00  0.00    +0.000 H 
ATOM    127  H37 UNL A   1      44.282  26.759  31.260  1.00  0.00    +0.000 H 
ATOM    128  H38 UNL A   1      39.377  27.536  33.504  1.00  0.00    +0.000 H 
ENDROOT
BRANCH   28   27
ATOM    130  H40 UNL A   1      39.648  31.384  29.181  1.00  0.00    +0.000 H 
ATOM    131  H41 UNL A   1      37.577  32.635  29.226  1.00  0.00    +0.000 H 
ATOM     27  C22 UNL A   1      38.669  29.540  28.920  1.00  0.00    +0.000 C 
ATOM     85  C61 UNL A   1      38.741  30.918  29.023  1.00  0.00    +0.000 C 
ATOM     86  C62 UNL A   1      37.591  31.652  28.913  1.00  0.00    +0.000 C 
ATOM    118  H28 UNL A   1      35.489  29.254  27.879  1.00  0.00    +0.000 H 
ATOM     24  C19 UNL A   1      36.443  31.077  28.382  1.00  0.00    +0.000 C 
ATOM     25  C20 UNL A   1      36.359  29.692  28.223  1.00  0.00    +0.000 C 
ATOM     26  C21 UNL A   1      37.470  28.911  28.539  1.00  0.00    +0.000 C 
ATOM    119  H29 UNL A   1      37.413  27.882  28.493  1.00  0.00    +0.000 H 
BRANCH   24   22
ATOM     22  C18 UNL A   1      35.327  31.965  27.980  1.00  0.00    +0.000 C 
ATOM     23  O3  UNL A   1      35.535  33.118  27.702  1.00  0.00    +0.000 O 
BRANCH   22   21
ATOM    117  H27 UNL A   1      33.552  31.430  28.798  1.00  0.00    +0.000 H 
ATOM     21  N2  UNL A   1      34.037  31.438  27.941  1.00  0.00    +0.000 N 
BRANCH   21   20
ATOM    116  H26 UNL A   1      34.030  30.400  26.178  1.00  0.00    +0.000 H 
ATOM    115  H25 UNL A   1      32.825  31.707  26.290  1.00  0.00    +0.000 H 
ATOM     20  C17 UNL A   1      33.309  30.896  26.793  1.00  0.00    +0.000 C 
BRANCH   20   19
ATOM    113  H23 UNL A   1      31.838  30.137  28.104  1.00  0.00    +0.000 H 
ATOM    114  H24 UNL A   1      31.554  29.868  26.347  1.00  0.00    +0.000 H 
ATOM     19  C16 UNL A   1      32.254  29.859  27.158  1.00  0.00    +0.000 C 
BRANCH   19   18
ATOM     18  C15 UNL A   1      32.737  28.401  27.267  1.00  0.00    +0.000 C 
ATOM    111  H21 UNL A   1      33.058  28.253  28.276  1.00  0.00    +0.000 H 
ATOM    112  H22 UNL A   1      31.892  27.831  26.939  1.00  0.00    +0.000 H 
BRANCH   18   17
ATOM     17  C14 UNL A   1      33.881  27.910  26.355  1.00  0.00    +0.000 C 
ATOM    109  H19 UNL A   1      34.079  28.690  25.651  1.00  0.00    +0.000 H 
ATOM    110  H20 UNL A   1      34.671  27.673  27.035  1.00  0.00    +0.000 H 
BRANCH   17   16
ATOM    107  H17 UNL A   1      34.572  26.438  24.984  1.00  0.00    +0.000 H 
ATOM    108  H18 UNL A   1      33.461  25.857  26.273  1.00  0.00    +0.000 H 
ATOM     16  C13 UNL A   1      33.680  26.613  25.549  1.00  0.00    +0.000 C 
BRANCH   16   15
ATOM    105  H15 UNL A   1      31.668  27.147  24.995  1.00  0.00    +0.000 H 
ATOM    106  H16 UNL A   1      32.834  27.029  23.640  1.00  0.00    +0.000 H 
ATOM     15  C12 UNL A   1      32.471  26.597  24.550  1.00  0.00    +0.000 C 
BRANCH   15   14
ATOM     14  N1  UNL A   1      31.941  25.196  24.175  1.00  0.00    +0.000 N 
ATOM    104  H14 UNL A   1      32.026  25.169  23.195  1.00  0.00    +0.000 H 
BRANCH   14   12
ATOM     12  C11 UNL A   1      31.414  23.970  24.489  1.00  0.00    +0.000 C 
ATOM     13  O2  UNL A   1      30.524  23.699  23.649  1.00  0.00    +0.000 O 
BRANCH   12   11
ATOM     11  C10 UNL A   1      31.509  22.892  25.715  1.00  0.00    +0.000 C 
ATOM    102  H12 UNL A   1      30.927  23.368  26.477  1.00  0.00    +0.000 H 
ATOM    103  H13 UNL A   1      31.355  22.047  25.077  1.00  0.00    +0.000 H 
BRANCH   11   10
ATOM     10  C9  UNL A   1      32.668  22.171  26.572  1.00  0.00    +0.000 C 
ATOM    100  H10 UNL A   1      33.370  22.961  26.740  1.00  0.00    +0.000 H 
ATOM    101  H11 UNL A   1      32.004  21.675  27.248  1.00  0.00    +0.000 H 
BRANCH   10    9
ATOM      9  C8  UNL A   1      33.601  20.907  26.318  1.00  0.00    +0.000 C 
ATOM     98  H8  UNL A   1      34.388  20.989  27.038  1.00  0.00    +0.000 H 
ATOM     99  H9  UNL A   1      32.870  20.126  26.355  1.00  0.00    +0.000 H 
BRANCH    9    8
ATOM      8  O1  UNL A   1      34.252  20.582  25.079  1.00  0.00    +0.000 O 
BRANCH    8    7
ATOM      2  C2  UNL A   1      38.116  23.562  26.148  1.00  0.00    +0.000 C 
ATOM      3  C3  UNL A   1      37.000  24.051  25.472  1.00  0.00    +0.000 C 
ATOM      4  C4  UNL A   1      36.177  23.193  24.716  1.00  0.00    +0.000 C 
ATOM      6  C6  UNL A   1      36.414  21.851  24.930  1.00  0.00    +0.000 C 
ATOM      7  C7  UNL A   1      35.590  20.705  24.878  1.00  0.00    +0.000 C 
ATOM     87  N7  UNL A   1      36.238  19.546  24.762  1.00  0.00    +0.000 N 
ATOM     88  S1  UNL A   1      37.864  19.837  25.057  1.00  0.00    +0.000 S 
ATOM     89  C63 UNL A   1      37.669  21.493  25.393  1.00  0.00    +0.000 C 
ATOM     90  N8  UNL A   1      38.574  22.304  25.977  1.00  0.00    +0.000 N 
ATOM     94  H4  UNL A   1      36.773  25.056  25.527  1.00  0.00    +0.000 H 
BRANCH    2    1
ATOM      1  C1  UNL A   1      38.851  24.455  27.112  1.00  0.00    +0.000 C 
ATOM     91  H1  UNL A   1      39.134  23.890  27.976  1.00  0.00    +0.000 H 
ATOM     92  H2  UNL A   1      38.213  25.262  27.407  1.00  0.00    +0.000 H 
ATOM     93  H3  UNL A   1      39.727  24.846  26.639  1.00  0.00    +0.000 H 
ENDBRANCH    2    1
BRANCH    4    5
ATOM     97  H7  UNL A   1      35.486  23.825  22.840  1.00  0.00    +0.000 H 
ATOM      5  C5  UNL A   1      35.076  23.521  23.781  1.00  0.00    +0.000 C 
ATOM     95  H5  UNL A   1      34.487  24.316  24.187  1.00  0.00    +0.000 H 
ATOM     96  H6  UNL A   1      34.460  22.658  23.637  1.00  0.00    +0.000 H 
ENDBRANCH    4    5
ENDBRANCH    8    7
ENDBRANCH    9    8
ENDBRANCH   10    9
ENDBRANCH   11   10
ENDBRANCH   12   11
ENDBRANCH   14   12
ENDBRANCH   15   14
ENDBRANCH   16   15
ENDBRANCH   17   16
ENDBRANCH   18   17
ENDBRANCH   19   18
ENDBRANCH   20   19
ENDBRANCH   21   20
ENDBRANCH   22   21
ENDBRANCH   24   22
ENDBRANCH   28   27
BRANCH   32   33
ATOM     33  C27 UNL A   1      42.489  27.585  34.415  1.00  0.00    +0.000 C 
ATOM     34  C28 UNL A   1      43.104  26.393  33.976  1.00  0.00    +0.000 C 
ATOM     35  F1  UNL A   1      43.645  26.311  32.750  1.00  0.00    +0.000 F 
ATOM     36  C29 UNL A   1      43.087  25.225  34.741  1.00  0.00    +0.000 C 
ATOM     37  F2  UNL A   1      43.553  24.082  34.219  1.00  0.00    +0.000 F 
ATOM     38  C30 UNL A   1      42.521  25.223  36.001  1.00  0.00    +0.000 C 
ATOM     39  F3  UNL A   1      42.434  24.089  36.707  1.00  0.00    +0.000 F 
ATOM     40  C31 UNL A   1      42.001  26.394  36.508  1.00  0.00    +0.000 C 
ATOM     41  F4  UNL A   1      41.439  26.410  37.725  1.00  0.00    +0.000 F 
ATOM     42  C32 UNL A   1      41.970  27.549  35.727  1.00  0.00    +0.000 C 
ATOM     43  F5  UNL A   1      41.318  28.583  36.269  1.00  0.00    +0.000 F 
ENDBRANCH   32   33
BRANCH   49   50
ATOM     50  C38 UNL A   1      45.110  30.296  28.735  1.00  0.00    +0.000 C 
ATOM     51  C39 UNL A   1      44.148  30.807  27.848  1.00  0.00    +0.000 C 
ATOM     52  F6  UNL A   1      42.889  30.347  27.860  1.00  0.00    +0.000 F 
ATOM     53  C40 UNL A   1      44.449  31.854  26.977  1.00  0.00    +0.000 C 
ATOM     54  F7  UNL A   1      43.511  32.324  26.140  1.00  0.00    +0.000 F 
ATOM     55  C41 UNL A   1      45.703  32.441  27.006  1.00  0.00    +0.000 C 
ATOM     56  F8  UNL A   1      45.978  33.483  26.208  1.00  0.00    +0.000 F 
ATOM     57  C42 UNL A   1      46.663  31.969  27.886  1.00  0.00    +0.000 C 
ATOM     58  F9  UNL A   1      47.861  32.565  27.953  1.00  0.00    +0.000 F 
ATOM     59  C43 UNL A   1      46.375  30.899  28.729  1.00  0.00    +0.000 C 
ATOM     60  F10 UNL A   1      47.318  30.489  29.591  1.00  0.00    +0.000 F 
ENDBRANCH   49   50
BRANCH   64   65
ATOM     65  C47 UNL A   1      43.317  24.698  26.371  1.00  0.00    +0.000 C 
ATOM     66  C48 UNL A   1      44.225  24.503  25.318  1.00  0.00    +0.000 C 
ATOM     67  F11 UNL A   1      44.858  25.552  24.773  1.00  0.00    +0.000 F 
ATOM     68  C49 UNL A   1      44.555  23.223  24.862  1.00  0.00    +0.000 C 
ATOM     69  F12 UNL A   1      45.479  23.072  23.902  1.00  0.00    +0.000 F 
ATOM     70  C50 UNL A   1      43.980  22.104  25.440  1.00  0.00    +0.000 C 
ATOM     71  F13 UNL A   1      44.347  20.874  25.051  1.00  0.00    +0.000 F 
ATOM     72  C51 UNL A   1      43.051  22.263  26.451  1.00  0.00    +0.000 C 
ATOM     73  F14 UNL A   1      42.511  21.186  27.041  1.00  0.00    +0.000 F 
ATOM     74  C52 UNL A   1      42.723  23.539  26.910  1.00  0.00    +0.000 C 
ATOM     75  F15 UNL A   1      41.887  23.614  27.954  1.00  0.00    +0.000 F 
ENDBRANCH   64   65
TORSDOF 21
ENDMDL
MODEL 2
REMARK VINA RESULT:     -10.6      1.194      2.254
ROOT
ATOM    129  H39 UNL A   1      38.324  27.484  31.001  1.00  0.00    +0.000 H 
ATOM     28  C23 UNL A   1      39.876  28.940  29.051  1.00  0.00    +0.000 C 
ATOM     29  C24 UNL A   1      40.152  28.726  30.493  1.00  0.00    +0.000 C 
ATOM     30  N3  UNL A   1      41.110  29.254  31.178  1.00  0.00    +0.000 N 
ATOM     31  C25 UNL A   1      40.983  28.757  32.471  1.00  0.00    +0.000 C 
ATOM     32  C26 UNL A   1      42.054  28.746  33.313  1.00  0.00    +0.000 C 
ATOM     44  C33 UNL A   1      43.098  29.616  32.825  1.00  0.00    +0.000 C 
ATOM     45  C34 UNL A   1      43.184  30.970  32.562  1.00  0.00    +0.000 C 
ATOM     46  C35 UNL A   1      43.960  31.064  31.368  1.00  0.00    +0.000 C 
ATOM     47  C36 UNL A   1      44.361  29.774  31.018  1.00  0.00    +0.000 C 
ATOM     48  N4  UNL A   1      44.157  29.044  32.160  1.00  0.00    +0.000 N 
ATOM     49  C37 UNL A   1      44.814  29.197  29.774  1.00  0.00    +0.000 C 
ATOM     61  C44 UNL A   1      44.710  27.873  29.457  1.00  0.00    +0.000 C 
ATOM     62  N5  UNL A   1      44.737  27.444  28.137  1.00  0.00    +0.000 N 
ATOM     63  C45 UNL A   1      44.059  26.327  28.136  1.00  0.00    +0.000 C 
ATOM     64  C46 UNL A   1      43.110  25.959  27.049  1.00  0.00    +0.000 C 
ATOM     76  C53 UNL A   1      42.083  26.840  27.122  1.00  0.00    +0.000 C 
ATOM     77  C54 UNL A   1      41.129  27.251  26.118  1.00  0.00    +0.000 C 
ATOM     78  C55 UNL A   1      40.327  28.192  26.659  1.00  0.00    +0.000 C 
ATOM     79  C56 UNL A   1      40.590  28.303  28.098  1.00  0.00    +0.000 C 
ATOM     80  N6  UNL A   1      41.716  27.539  28.285  1.00  0.00    +0.000 N 
ATOM     81  C57 UNL A   1      43.875  25.702  29.435  1.00  0.00    +0.000 C 
ATOM     82  C58 UNL A   1      44.210  26.730  30.219  1.00  0.00    +0.000 C 
ATOM     83  C59 UNL A   1      39.695  28.115  32.525  1.00  0.00    +0.000 C 
ATOM     84  C60 UNL A   1      39.178  27.980  31.300  1.00  0.00    +0.000 C 
ATOM    120  H30 UNL A   1      42.775  31.745  33.108  1.00  0.00    +0.000 H 
ATOM    121  H31 UNL A   1      44.185  31.931  30.856  1.00  0.00    +0.000 H 
ATOM    122  H32 UNL A   1      44.673  28.258  32.451  1.00  0.00    +0.000 H 
ATOM    123  H33 UNL A   1      41.070  26.889  25.153  1.00  0.00    +0.000 H 
ATOM    124  H34 UNL A   1      39.634  28.751  26.138  1.00  0.00    +0.000 H 
ATOM    125  H35 UNL A   1      42.208  27.488  29.136  1.00  0.00    +0.000 H 
ATOM    126  H36 UNL A   1      43.574  24.746  29.680  1.00  0.00    +0.000 H 
ATOM    127  H37 UNL A   1      44.125  26.720  31.247  1.00  0.00    +0.000 H 
ATOM    128  H38 UNL A   1      39.233  27.800  33.392  1.00  0.00    +0.000 H 
ENDROOT
BRANCH   28   27
ATOM    130  H40 UNL A   1      37.618  28.165  27.961  1.00  0.00    +0.000 H 
ATOM    131  H41 UNL A   1      35.891  29.610  27.076  1.00  0.00    +0.000 H 
ATOM     27  C22 UNL A   1      38.715  29.770  28.768  1.00  0.00    +0.000 C 
ATOM     85  C61 UNL A   1      37.632  29.182  28.138  1.00  0.00    +0.000 C 
ATOM     86  C62 UNL A   1      36.581  29.970  27.752  1.00  0.00    +0.000 C 
ATOM    118  H28 UNL A   1      37.427  32.827  29.288  1.00  0.00    +0.000 H 
ATOM     24  C19 UNL A   1      36.443  31.252  28.268  1.00  0.00    +0.000 C 
ATOM     25  C20 UNL A   1      37.504  31.855  28.949  1.00  0.00    +0.000 C 
ATOM     26  C21 UNL A   1      38.670  31.119  29.161  1.00  0.00    +0.000 C 
ATOM    119  H29 UNL A   1      39.490  31.561  29.602  1.00  0.00    +0.000 H 
BRANCH   24   22
ATOM     22  C18 UNL A   1      35.150  31.952  28.090  1.00  0.00    +0.000 C 
ATOM     23  O3  UNL A   1      35.119  33.145  27.932  1.00  0.00    +0.000 O 
BRANCH   22   21
ATOM    117  H27 UNL A   1      33.714  30.850  29.002  1.00  0.00    +0.000 H 
ATOM     21  N2  UNL A   1      33.975  31.201  28.120  1.00  0.00    +0.000 N 
BRANCH   21   20
ATOM    116  H26 UNL A   1      33.687  30.804  26.135  1.00  0.00    +0.000 H 
ATOM    115  H25 UNL A   1      32.333  31.631  26.943  1.00  0.00    +0.000 H 
ATOM     20  C17 UNL A   1      33.079  30.868  27.012  1.00  0.00    +0.000 C 
BRANCH   20   19
ATOM    113  H23 UNL A   1      32.929  28.946  27.873  1.00  0.00    +0.000 H 
ATOM    114  H24 UNL A   1      31.377  29.757  27.461  1.00  0.00    +0.000 H 
ATOM     19  C16 UNL A   1      32.378  29.524  27.161  1.00  0.00    +0.000 C 
BRANCH   19   18
ATOM     18  C15 UNL A   1      32.237  28.680  25.880  1.00  0.00    +0.000 C 
ATOM    111  H21 UNL A   1      32.543  27.686  26.126  1.00  0.00    +0.000 H 
ATOM    112  H22 UNL A   1      31.212  28.816  25.601  1.00  0.00    +0.000 H 
BRANCH   18   17
ATOM     17  C14 UNL A   1      33.015  29.090  24.612  1.00  0.00    +0.000 C 
ATOM    109  H19 UNL A   1      32.300  29.467  23.912  1.00  0.00    +0.000 H 
ATOM    110  H20 UNL A   1      33.743  29.787  24.969  1.00  0.00    +0.000 H 
BRANCH   17   16
ATOM    107  H17 UNL A   1      33.425  27.890  22.905  1.00  0.00    +0.000 H 
ATOM    108  H18 UNL A   1      34.851  28.392  23.877  1.00  0.00    +0.000 H 
ATOM     16  C13 UNL A   1      33.848  28.022  23.878  1.00  0.00    +0.000 C 
BRANCH   16   15
ATOM    105  H15 UNL A   1      34.880  26.524  25.032  1.00  0.00    +0.000 H 
ATOM    106  H16 UNL A   1      33.102  26.571  25.246  1.00  0.00    +0.000 H 
ATOM     15  C12 UNL A   1      33.924  26.612  24.561  1.00  0.00    +0.000 C 
BRANCH   15   14
ATOM     14  N1  UNL A   1      33.747  25.407  23.611  1.00  0.00    +0.000 N 
ATOM    104  H14 UNL A   1      32.798  25.452  23.352  1.00  0.00    +0.000 H 
BRANCH   14   12
ATOM     12  C11 UNL A   1      34.215  24.308  22.939  1.00  0.00    +0.000 C 
ATOM     13  O2  UNL A   1      33.326  23.926  22.142  1.00  0.00    +0.000 O 
BRANCH   12   11
ATOM     11  C10 UNL A   1      35.499  23.298  23.021  1.00  0.00    +0.000 C 
ATOM    102  H12 UNL A   1      35.113  22.407  22.572  1.00  0.00    +0.000 H 
ATOM    103  H13 UNL A   1      36.198  24.048  22.712  1.00  0.00    +0.000 H 
BRANCH   11   10
ATOM     10  C9  UNL A   1      36.473  22.709  24.164  1.00  0.00    +0.000 C 
ATOM    100  H10 UNL A   1      36.893  21.841  23.699  1.00  0.00    +0.000 H 
ATOM    101  H11 UNL A   1      36.919  23.648  24.413  1.00  0.00    +0.000 H 
BRANCH   10    9
ATOM      9  C8  UNL A   1      36.248  22.240  25.668  1.00  0.00    +0.000 C 
ATOM     98  H8  UNL A   1      37.219  21.962  26.023  1.00  0.00    +0.000 H 
ATOM     99  H9  UNL A   1      35.720  23.088  26.050  1.00  0.00    +0.000 H 
BRANCH    9    8
ATOM      8  O1  UNL A   1      35.371  21.185  26.094  1.00  0.00    +0.000 O 
BRANCH    8    7
ATOM      2  C2  UNL A   1      31.209  23.855  25.391  1.00  0.00    +0.000 C 
ATOM      3  C3  UNL A   1      31.816  23.792  26.643  1.00  0.00    +0.000 C 
ATOM      4  C4  UNL A   1      32.624  22.695  27.002  1.00  0.00    +0.000 C 
ATOM      6  C6  UNL A   1      32.960  21.873  25.947  1.00  0.00    +0.000 C 
ATOM      7  C7  UNL A   1      34.085  21.062  25.675  1.00  0.00    +0.000 C 
ATOM     87  N7  UNL A   1      33.894  20.119  24.753  1.00  0.00    +0.000 N 
ATOM     88  S1  UNL A   1      32.441  20.447  23.980  1.00  0.00    +0.000 S 
ATOM     89  C63 UNL A   1      32.119  21.874  24.847  1.00  0.00    +0.000 C 
ATOM     90  N8  UNL A   1      31.204  22.813  24.533  1.00  0.00    +0.000 N 
ATOM     94  H4  UNL A   1      31.673  24.560  27.317  1.00  0.00    +0.000 H 
BRANCH    2    1
ATOM      1  C1  UNL A   1      30.528  25.127  24.959  1.00  0.00    +0.000 C 
ATOM     91  H1  UNL A   1      29.652  24.888  24.393  1.00  0.00    +0.000 H 
ATOM     92  H2  UNL A   1      31.198  25.701  24.352  1.00  0.00    +0.000 H 
ATOM     93  H3  UNL A   1      30.253  25.695  25.822  1.00  0.00    +0.000 H 
ENDBRANCH    2    1
BRANCH    4    5
ATOM     97  H7  UNL A   1      32.407  22.210  29.030  1.00  0.00    +0.000 H 
ATOM      5  C5  UNL A   1      33.198  22.335  28.320  1.00  0.00    +0.000 C 
ATOM     95  H5  UNL A   1      33.854  23.113  28.648  1.00  0.00    +0.000 H 
ATOM     96  H6  UNL A   1      33.745  21.419  28.233  1.00  0.00    +0.000 H 
ENDBRANCH    4    5
ENDBRANCH    8    7
ENDBRANCH    9    8
ENDBRANCH   10    9
ENDBRANCH   11   10
ENDBRANCH   12   11
ENDBRANCH   14   12
ENDBRANCH   15   14
ENDBRANCH   16   15
ENDBRANCH   17   16
ENDBRANCH   18   17
ENDBRANCH   19   18
ENDBRANCH   20   19
ENDBRANCH   21   20
ENDBRANCH   22   21
ENDBRANCH   24   22
ENDBRANCH   28   27
BRANCH   32   33
ATOM     33  C27 UNL A   1      42.327  27.691  34.358  1.00  0.00    +0.000 C 
ATOM     34  C28 UNL A   1      42.928  26.479  33.954  1.00  0.00    +0.000 C 
ATOM     35  F1  UNL A   1      43.521  26.374  32.755  1.00  0.00    +0.000 F 
ATOM     36  C29 UNL A   1      42.843  25.318  34.724  1.00  0.00    +0.000 C 
ATOM     37  F2  UNL A   1      43.300  24.158  34.231  1.00  0.00    +0.000 F 
ATOM     38  C30 UNL A   1      42.220  25.340  35.957  1.00  0.00    +0.000 C 
ATOM     39  F3  UNL A   1      42.070  24.214  36.666  1.00  0.00    +0.000 F 
ATOM     40  C31 UNL A   1      41.711  26.529  36.433  1.00  0.00    +0.000 C 
ATOM     41  F4  UNL A   1      41.096  26.570  37.624  1.00  0.00    +0.000 F 
ATOM     42  C32 UNL A   1      41.748  27.679  35.645  1.00  0.00    +0.000 C 
ATOM     43  F5  UNL A   1      41.102  28.734  36.151  1.00  0.00    +0.000 F 
ENDBRANCH   32   33
BRANCH   49   50
ATOM     50  C38 UNL A   1      45.191  30.166  28.688  1.00  0.00    +0.000 C 
ATOM     51  C39 UNL A   1      44.263  30.780  27.830  1.00  0.00    +0.000 C 
ATOM     52  F6  UNL A   1      42.963  30.459  27.881  1.00  0.00    +0.000 F 
ATOM     53  C40 UNL A   1      44.649  31.793  26.951  1.00  0.00    +0.000 C 
ATOM     54  F7  UNL A   1      43.742  32.364  26.143  1.00  0.00    +0.000 F 
ATOM     55  C41 UNL A   1      45.959  32.241  26.941  1.00  0.00    +0.000 C 
ATOM     56  F8  UNL A   1      46.320  33.250  26.135  1.00  0.00    +0.000 F 
ATOM     57  C42 UNL A   1      46.888  31.665  27.791  1.00  0.00    +0.000 C 
ATOM     58  F9  UNL A   1      48.146  32.128  27.822  1.00  0.00    +0.000 F 
ATOM     59  C43 UNL A   1      46.512  30.630  28.643  1.00  0.00    +0.000 C 
ATOM     60  F10 UNL A   1      47.432  30.117  29.476  1.00  0.00    +0.000 F 
ENDBRANCH   49   50
BRANCH   64   65
ATOM     65  C47 UNL A   1      43.130  24.641  26.372  1.00  0.00    +0.000 C 
ATOM     66  C48 UNL A   1      44.012  24.394  25.308  1.00  0.00    +0.000 C 
ATOM     67  F11 UNL A   1      44.675  25.410  24.735  1.00  0.00    +0.000 F 
ATOM     68  C49 UNL A   1      44.286  23.096  24.868  1.00  0.00    +0.000 C 
ATOM     69  F12 UNL A   1      45.188  22.895  23.896  1.00  0.00    +0.000 F 
ATOM     70  C50 UNL A   1      43.679  22.009  25.473  1.00  0.00    +0.000 C 
ATOM     71  F13 UNL A   1      43.993  20.760  25.098  1.00  0.00    +0.000 F 
ATOM     72  C51 UNL A   1      42.774  22.219  26.497  1.00  0.00    +0.000 C 
ATOM     73  F14 UNL A   1      42.203  21.173  27.112  1.00  0.00    +0.000 F 
ATOM     74  C52 UNL A   1      42.502  23.514  26.939  1.00  0.00    +0.000 C 
ATOM     75  F15 UNL A   1      41.686  23.637  27.996  1.00  0.00    +0.000 F 
ENDBRANCH   64   65
TORSDOF 21
ENDMDL
MODEL 3
REMARK VINA RESULT:     -10.6      3.225      8.977
ROOT
ATOM    129  H39 UNL A   1      40.963  28.817  26.005  1.00  0.00    +0.000 H 
ATOM     28  C23 UNL A   1      40.564  27.930  28.722  1.00  0.00    +0.000 C 
ATOM     29  C24 UNL A   1      41.660  28.760  28.163  1.00  0.00    +0.000 C 
ATOM     30  N3  UNL A   1      42.717  29.161  28.786  1.00  0.00    +0.000 N 
ATOM     31  C25 UNL A   1      43.444  29.916  27.873  1.00  0.00    +0.000 C 
ATOM     32  C26 UNL A   1      44.350  30.836  28.307  1.00  0.00    +0.000 C 
ATOM     44  C33 UNL A   1      44.680  30.614  29.696  1.00  0.00    +0.000 C 
ATOM     45  C34 UNL A   1      45.244  29.567  30.400  1.00  0.00    +0.000 C 
ATOM     46  C35 UNL A   1      44.517  29.515  31.626  1.00  0.00    +0.000 C 
ATOM     47  C36 UNL A   1      43.607  30.573  31.627  1.00  0.00    +0.000 C 
ATOM     48  N4  UNL A   1      44.067  31.404  30.639  1.00  0.00    +0.000 N 
ATOM     49  C37 UNL A   1      42.393  30.815  32.371  1.00  0.00    +0.000 C 
ATOM     61  C44 UNL A   1      41.377  31.623  31.944  1.00  0.00    +0.000 C 
ATOM     62  N5  UNL A   1      40.090  31.485  32.443  1.00  0.00    +0.000 N 
ATOM     63  C45 UNL A   1      39.313  31.924  31.488  1.00  0.00    +0.000 C 
ATOM     64  C46 UNL A   1      38.027  31.268  31.126  1.00  0.00    +0.000 C 
ATOM     76  C53 UNL A   1      38.346  30.055  30.611  1.00  0.00    +0.000 C 
ATOM     77  C54 UNL A   1      37.560  28.850  30.497  1.00  0.00    +0.000 C 
ATOM     78  C55 UNL A   1      38.337  27.889  29.956  1.00  0.00    +0.000 C 
ATOM     79  C56 UNL A   1      39.608  28.469  29.509  1.00  0.00    +0.000 C 
ATOM     80  N6  UNL A   1      39.583  29.743  30.020  1.00  0.00    +0.000 N 
ATOM     81  C57 UNL A   1      39.962  32.744  30.479  1.00  0.00    +0.000 C 
ATOM     82  C58 UNL A   1      41.237  32.454  30.751  1.00  0.00    +0.000 C 
ATOM     83  C59 UNL A   1      42.840  29.675  26.587  1.00  0.00    +0.000 C 
ATOM     84  C60 UNL A   1      41.670  29.044  26.721  1.00  0.00    +0.000 C 
ATOM    120  H30 UNL A   1      46.021  28.956  30.104  1.00  0.00    +0.000 H 
ATOM    121  H31 UNL A   1      44.642  28.819  32.378  1.00  0.00    +0.000 H 
ATOM    122  H32 UNL A   1      43.977  32.384  30.610  1.00  0.00    +0.000 H 
ATOM    123  H33 UNL A   1      36.574  28.740  30.782  1.00  0.00    +0.000 H 
ATOM    124  H34 UNL A   1      38.078  26.894  29.871  1.00  0.00    +0.000 H 
ATOM    125  H35 UNL A   1      40.346  30.366  29.978  1.00  0.00    +0.000 H 
ATOM    126  H36 UNL A   1      39.557  33.368  29.763  1.00  0.00    +0.000 H 
ATOM    127  H37 UNL A   1      42.034  32.780  30.182  1.00  0.00    +0.000 H 
ATOM    128  H38 UNL A   1      43.254  29.954  25.684  1.00  0.00    +0.000 H 
ENDROOT
BRANCH   28   27
ATOM    130  H40 UNL A   1      38.719  26.808  27.234  1.00  0.00    +0.000 H 
ATOM    131  H41 UNL A   1      38.443  24.435  26.848  1.00  0.00    +0.000 H 
ATOM     27  C22 UNL A   1      40.542  26.553  28.255  1.00  0.00    +0.000 C 
ATOM     85  C61 UNL A   1      39.447  26.134  27.518  1.00  0.00    +0.000 C 
ATOM     86  C62 UNL A   1      39.346  24.813  27.173  1.00  0.00    +0.000 C 
ATOM    118  H28 UNL A   1      42.399  23.762  28.074  1.00  0.00    +0.000 H 
ATOM     24  C19 UNL A   1      40.455  23.982  27.260  1.00  0.00    +0.000 C 
ATOM     25  C20 UNL A   1      41.592  24.396  27.960  1.00  0.00    +0.000 C 
ATOM     26  C21 UNL A   1      41.616  25.681  28.501  1.00  0.00    +0.000 C 
ATOM    119  H29 UNL A   1      42.415  25.987  29.076  1.00  0.00    +0.000 H 
BRANCH   24   22
ATOM     22  C18 UNL A   1      40.407  22.662  26.588  1.00  0.00    +0.000 C 
ATOM     23  O3  UNL A   1      41.380  22.226  26.030  1.00  0.00    +0.000 O 
BRANCH   22   21
ATOM    117  H27 UNL A   1      38.832  21.770  27.501  1.00  0.00    +0.000 H 
ATOM     21  N2  UNL A   1      39.211  21.947  26.609  1.00  0.00    +0.000 N 
BRANCH   21   20
ATOM    116  H26 UNL A   1      37.856  20.612  25.855  1.00  0.00    +0.000 H 
ATOM    115  H25 UNL A   1      39.130  21.119  24.718  1.00  0.00    +0.000 H 
ATOM     20  C17 UNL A   1      38.443  21.424  25.479  1.00  0.00    +0.000 C 
BRANCH   20   19
ATOM    113  H23 UNL A   1      38.036  23.267  24.532  1.00  0.00    +0.000 H 
ATOM    114  H24 UNL A   1      36.961  21.892  24.094  1.00  0.00    +0.000 H 
ATOM     19  C16 UNL A   1      37.469  22.425  24.870  1.00  0.00    +0.000 C 
BRANCH   19   18
ATOM     18  C15 UNL A   1      36.359  22.952  25.800  1.00  0.00    +0.000 C 
ATOM    111  H21 UNL A   1      36.843  23.388  26.648  1.00  0.00    +0.000 H 
ATOM    112  H22 UNL A   1      35.795  23.610  25.171  1.00  0.00    +0.000 H 
BRANCH   18   17
ATOM     17  C14 UNL A   1      35.297  21.973  26.344  1.00  0.00    +0.000 C 
ATOM    109  H19 UNL A   1      35.570  21.740  27.351  1.00  0.00    +0.000 H 
ATOM    110  H20 UNL A   1      34.372  22.493  26.210  1.00  0.00    +0.000 H 
BRANCH   17   16
ATOM    107  H17 UNL A   1      35.754  20.604  24.782  1.00  0.00    +0.000 H 
ATOM    108  H18 UNL A   1      35.252  19.876  26.347  1.00  0.00    +0.000 H 
ATOM     16  C13 UNL A   1      35.081  20.634  25.613  1.00  0.00    +0.000 C 
BRANCH   16   15
ATOM    105  H15 UNL A   1      33.541  19.320  24.875  1.00  0.00    +0.000 H 
ATOM    106  H16 UNL A   1      32.964  20.730  25.818  1.00  0.00    +0.000 H 
ATOM     15  C12 UNL A   1      33.635  20.369  25.066  1.00  0.00    +0.000 C 
BRANCH   15   14
ATOM     14  N1  UNL A   1      33.269  21.125  23.770  1.00  0.00    +0.000 N 
ATOM    104  H14 UNL A   1      33.954  20.830  23.127  1.00  0.00    +0.000 H 
BRANCH   14   12
ATOM     12  C11 UNL A   1      32.493  21.990  23.044  1.00  0.00    +0.000 C 
ATOM     13  O2  UNL A   1      31.765  21.316  22.277  1.00  0.00    +0.000 O 
BRANCH   12   11
ATOM     11  C10 UNL A   1      32.391  23.603  22.795  1.00  0.00    +0.000 C 
ATOM    102  H12 UNL A   1      31.332  23.763  22.788  1.00  0.00    +0.000 H 
ATOM    103  H13 UNL A   1      33.176  23.831  23.485  1.00  0.00    +0.000 H 
BRANCH   11   10
ATOM     10  C9  UNL A   1      32.902  24.667  21.696  1.00  0.00    +0.000 C 
ATOM    100  H10 UNL A   1      33.965  24.544  21.717  1.00  0.00    +0.000 H 
ATOM    101  H11 UNL A   1      32.185  24.397  20.950  1.00  0.00    +0.000 H 
BRANCH   10    9
ATOM      9  C8  UNL A   1      32.724  26.238  21.519  1.00  0.00    +0.000 C 
ATOM     98  H8  UNL A   1      33.155  26.465  20.566  1.00  0.00    +0.000 H 
ATOM     99  H9  UNL A   1      31.675  26.330  21.708  1.00  0.00    +0.000 H 
BRANCH    9    8
ATOM      8  O1  UNL A   1      33.229  27.244  22.412  1.00  0.00    +0.000 O 
BRANCH    8    7
ATOM      2  C2  UNL A   1      33.655  29.737  26.719  1.00  0.00    +0.000 C 
ATOM      3  C3  UNL A   1      34.189  28.458  26.576  1.00  0.00    +0.000 C 
ATOM      4  C4  UNL A   1      33.663  27.555  25.631  1.00  0.00    +0.000 C 
ATOM      6  C6  UNL A   1      32.799  28.128  24.723  1.00  0.00    +0.000 C 
ATOM      7  C7  UNL A   1      32.480  27.837  23.377  1.00  0.00    +0.000 C 
ATOM     87  N7  UNL A   1      31.330  28.353  22.944  1.00  0.00    +0.000 N 
ATOM     88  S1  UNL A   1      30.809  29.471  24.081  1.00  0.00    +0.000 S 
ATOM     89  C63 UNL A   1      32.156  29.293  25.105  1.00  0.00    +0.000 C 
ATOM     90  N8  UNL A   1      32.512  30.119  26.110  1.00  0.00    +0.000 N 
ATOM     94  H4  UNL A   1      34.983  28.170  27.169  1.00  0.00    +0.000 H 
BRANCH    2    1
ATOM      1  C1  UNL A   1      34.366  30.747  27.581  1.00  0.00    +0.000 C 
ATOM     91  H1  UNL A   1      35.343  30.927  27.186  1.00  0.00    +0.000 H 
ATOM     92  H2  UNL A   1      34.449  30.369  28.579  1.00  0.00    +0.000 H 
ATOM     93  H3  UNL A   1      33.810  31.661  27.590  1.00  0.00    +0.000 H 
ENDBRANCH    2    1
BRANCH    4    5
ATOM     97  H7  UNL A   1      33.532  25.561  26.266  1.00  0.00    +0.000 H 
ATOM      5  C5  UNL A   1      33.944  26.111  25.446  1.00  0.00    +0.000 C 
ATOM     95  H5  UNL A   1      35.001  25.955  25.406  1.00  0.00    +0.000 H 
ATOM     96  H6  UNL A   1      33.498  25.776  24.533  1.00  0.00    +0.000 H 
ENDBRANCH    4    5
ENDBRANCH    8    7
ENDBRANCH    9    8
ENDBRANCH   10    9
ENDBRANCH   11   10
ENDBRANCH   12   11
ENDBRANCH   14   12
ENDBRANCH   15   14
ENDBRANCH   16   15
ENDBRANCH   17   16
ENDBRANCH   18   17
ENDBRANCH   19   18
ENDBRANCH   20   19
ENDBRANCH   21   20
ENDBRANCH   22   21
ENDBRANCH   24   22
ENDBRANCH   28   27
BRANCH   32   33
ATOM     33  C27 UNL A   1      44.658  32.145  27.620  1.00  0.00    +0.000 C 
ATOM     34  C28 UNL A   1      45.853  32.252  26.877  1.00  0.00    +0.000 C 
ATOM     35  F1  UNL A   1      46.544  31.157  26.526  1.00  0.00    +0.000 F 
ATOM     36  C29 UNL A   1      46.423  33.488  26.565  1.00  0.00    +0.000 C 
ATOM     37  F2  UNL A   1      47.632  33.537  25.988  1.00  0.00    +0.000 F 
ATOM     38  C30 UNL A   1      45.786  34.661  26.921  1.00  0.00    +0.000 C 
ATOM     39  F3  UNL A   1      46.364  35.847  26.692  1.00  0.00    +0.000 F 
ATOM     40  C31 UNL A   1      44.565  34.599  27.558  1.00  0.00    +0.000 C 
ATOM     41  F4  UNL A   1      43.935  35.726  27.918  1.00  0.00    +0.000 F 
ATOM     42  C32 UNL A   1      44.018  33.367  27.915  1.00  0.00    +0.000 C 
ATOM     43  F5  UNL A   1      42.903  33.434  28.650  1.00  0.00    +0.000 F 
ENDBRANCH   32   33
BRANCH   49   50
ATOM     50  C38 UNL A   1      42.150  29.926  33.559  1.00  0.00    +0.000 C 
ATOM     51  C39 UNL A   1      41.666  28.610  33.466  1.00  0.00    +0.000 C 
ATOM     52  F6  UNL A   1      41.303  28.093  32.284  1.00  0.00    +0.000 F 
ATOM     53  C40 UNL A   1      41.615  27.777  34.584  1.00  0.00    +0.000 C 
ATOM     54  F7  UNL A   1      41.149  26.524  34.468  1.00  0.00    +0.000 F 
ATOM     55  C41 UNL A   1      42.086  28.226  35.806  1.00  0.00    +0.000 C 
ATOM     56  F8  UNL A   1      42.087  27.409  36.869  1.00  0.00    +0.000 F 
ATOM     57  C42 UNL A   1      42.586  29.513  35.919  1.00  0.00    +0.000 C 
ATOM     58  F9  UNL A   1      43.088  29.936  37.087  1.00  0.00    +0.000 F 
ATOM     59  C43 UNL A   1      42.603  30.357  34.813  1.00  0.00    +0.000 C 
ATOM     60  F10 UNL A   1      43.125  31.586  34.951  1.00  0.00    +0.000 F 
ENDBRANCH   49   50
BRANCH   64   65
ATOM     65  C47 UNL A   1      36.756  32.013  30.974  1.00  0.00    +0.000 C 
ATOM     66  C48 UNL A   1      35.905  32.213  32.074  1.00  0.00    +0.000 C 
ATOM     67  F11 UNL A   1      36.110  31.536  33.213  1.00  0.00    +0.000 F 
ATOM     68  C49 UNL A   1      34.883  33.166  32.047  1.00  0.00    +0.000 C 
ATOM     69  F12 UNL A   1      34.137  33.378  33.140  1.00  0.00    +0.000 F 
ATOM     70  C50 UNL A   1      34.675  33.939  30.916  1.00  0.00    +0.000 C 
ATOM     71  F13 UNL A   1      33.741  34.900  30.913  1.00  0.00    +0.000 F 
ATOM     72  C51 UNL A   1      35.468  33.739  29.802  1.00  0.00    +0.000 C 
ATOM     73  F14 UNL A   1      35.299  34.503  28.713  1.00  0.00    +0.000 F 
ATOM     74  C52 UNL A   1      36.492  32.790  29.828  1.00  0.00    +0.000 C 
ATOM     75  F15 UNL A   1      37.279  32.715  28.747  1.00  0.00    +0.000 F 
ENDBRANCH   64   65
TORSDOF 21
ENDMDL
MODEL 4
REMARK VINA RESULT:     -10.5      3.226      8.881
ROOT
ATOM    129  H39 UNL A   1      41.503  29.186  25.910  1.00  0.00    +0.000 H 
ATOM     28  C23 UNL A   1      40.848  28.225  28.551  1.00  0.00    +0.000 C 
ATOM     29  C24 UNL A   1      42.040  28.987  28.104  1.00  0.00    +0.000 C 
ATOM     30  N3  UNL A   1      43.079  29.276  28.815  1.00  0.00    +0.000 N 
ATOM     31  C25 UNL A   1      43.924  30.007  27.987  1.00  0.00    +0.000 C 
ATOM     32  C26 UNL A   1      44.866  30.833  28.523  1.00  0.00    +0.000 C 
ATOM     44  C33 UNL A   1      45.080  30.530  29.919  1.00  0.00    +0.000 C 
ATOM     45  C34 UNL A   1      45.510  29.415  30.610  1.00  0.00    +0.000 C 
ATOM     46  C35 UNL A   1      44.697  29.371  31.782  1.00  0.00    +0.000 C 
ATOM     47  C36 UNL A   1      43.874  30.498  31.771  1.00  0.00    +0.000 C 
ATOM     48  N4  UNL A   1      44.464  31.328  30.854  1.00  0.00    +0.000 N 
ATOM     49  C37 UNL A   1      42.632  30.806  32.442  1.00  0.00    +0.000 C 
ATOM     61  C44 UNL A   1      41.714  31.708  31.986  1.00  0.00    +0.000 C 
ATOM     62  N5  UNL A   1      40.388  31.653  32.391  1.00  0.00    +0.000 N 
ATOM     63  C45 UNL A   1      39.717  32.191  31.407  1.00  0.00    +0.000 C 
ATOM     64  C46 UNL A   1      38.412  31.655  30.930  1.00  0.00    +0.000 C 
ATOM     76  C53 UNL A   1      38.673  30.442  30.382  1.00  0.00    +0.000 C 
ATOM     77  C54 UNL A   1      37.806  29.309  30.162  1.00  0.00    +0.000 C 
ATOM     78  C55 UNL A   1      38.543  28.312  29.630  1.00  0.00    +0.000 C 
ATOM     79  C56 UNL A   1      39.883  28.806  29.296  1.00  0.00    +0.000 C 
ATOM     80  N6  UNL A   1      39.921  30.057  29.862  1.00  0.00    +0.000 N 
ATOM     81  C57 UNL A   1      40.495  32.997  30.481  1.00  0.00    +0.000 C 
ATOM     82  C58 UNL A   1      41.722  32.595  30.824  1.00  0.00    +0.000 C 
ATOM     83  C59 UNL A   1      43.395  29.868  26.655  1.00  0.00    +0.000 C 
ATOM     84  C60 UNL A   1      42.174  29.326  26.681  1.00  0.00    +0.000 C 
ATOM    120  H30 UNL A   1      46.257  28.756  30.339  1.00  0.00    +0.000 H 
ATOM    121  H31 UNL A   1      44.716  28.638  32.508  1.00  0.00    +0.000 H 
ATOM    122  H32 UNL A   1      44.452  32.313  30.864  1.00  0.00    +0.000 H 
ATOM    123  H33 UNL A   1      36.797  29.266  30.374  1.00  0.00    +0.000 H 
ATOM    124  H34 UNL A   1      38.215  27.345  29.482  1.00  0.00    +0.000 H 
ATOM    125  H35 UNL A   1      40.729  30.618  29.900  1.00  0.00    +0.000 H 
ATOM    126  H36 UNL A   1      40.190  33.679  29.770  1.00  0.00    +0.000 H 
ATOM    127  H37 UNL A   1      42.580  32.880  30.325  1.00  0.00    +0.000 H 
ATOM    128  H38 UNL A   1      43.892  30.149  25.795  1.00  0.00    +0.000 H 
ENDROOT
BRANCH   28   27
ATOM    130  H40 UNL A   1      42.130  26.105  29.414  1.00  0.00    +0.000 H 
ATOM    131  H41 UNL A   1      42.327  23.987  28.260  1.00  0.00    +0.000 H 
ATOM     27  C22 UNL A   1      40.753  26.874  28.021  1.00  0.00    +0.000 C 
ATOM     85  C61 UNL A   1      41.554  25.896  28.583  1.00  0.00    +0.000 C 
ATOM     86  C62 UNL A   1      41.571  24.648  28.021  1.00  0.00    +0.000 C 
ATOM    118  H28 UNL A   1      39.014  24.963  25.877  1.00  0.00    +0.000 H 
ATOM     24  C19 UNL A   1      40.575  24.270  27.130  1.00  0.00    +0.000 C 
ATOM     25  C20 UNL A   1      39.721  25.229  26.580  1.00  0.00    +0.000 C 
ATOM     26  C21 UNL A   1      39.843  26.554  26.998  1.00  0.00    +0.000 C 
ATOM    119  H29 UNL A   1      39.270  27.291  26.561  1.00  0.00    +0.000 H 
BRANCH   24   22
ATOM     22  C18 UNL A   1      40.435  22.834  26.791  1.00  0.00    +0.000 C 
ATOM     23  O3  UNL A   1      41.411  22.155  26.598  1.00  0.00    +0.000 O 
BRANCH   22   21
ATOM    117  H27 UNL A   1      38.599  22.355  27.504  1.00  0.00    +0.000 H 
ATOM     21  N2  UNL A   1      39.154  22.294  26.692  1.00  0.00    +0.000 N 
BRANCH   21   20
ATOM    116  H26 UNL A   1      37.981  20.809  25.916  1.00  0.00    +0.000 H 
ATOM    115  H25 UNL A   1      39.293  21.369  24.850  1.00  0.00    +0.000 H 
ATOM     20  C17 UNL A   1      38.524  21.649  25.539  1.00  0.00    +0.000 C 
BRANCH   20   19
ATOM    113  H23 UNL A   1      38.069  23.179  24.157  1.00  0.00    +0.000 H 
ATOM    114  H24 UNL A   1      36.864  21.851  24.299  1.00  0.00    +0.000 H 
ATOM     19  C16 UNL A   1      37.519  22.529  24.805  1.00  0.00    +0.000 C 
BRANCH   19   18
ATOM     18  C15 UNL A   1      36.606  23.404  25.684  1.00  0.00    +0.000 C 
ATOM    111  H21 UNL A   1      37.210  23.785  26.480  1.00  0.00    +0.000 H 
ATOM    112  H22 UNL A   1      36.205  24.119  24.996  1.00  0.00    +0.000 H 
BRANCH   18   17
ATOM     17  C14 UNL A   1      35.351  22.781  26.330  1.00  0.00    +0.000 C 
ATOM    109  H19 UNL A   1      35.648  22.389  27.280  1.00  0.00    +0.000 H 
ATOM    110  H20 UNL A   1      34.643  23.582  26.348  1.00  0.00    +0.000 H 
BRANCH   17   16
ATOM    107  H17 UNL A   1      34.554  21.928  24.552  1.00  0.00    +0.000 H 
ATOM    108  H18 UNL A   1      35.191  20.766  25.768  1.00  0.00    +0.000 H 
ATOM     16  C13 UNL A   1      34.618  21.650  25.583  1.00  0.00    +0.000 C 
BRANCH   16   15
ATOM    105  H15 UNL A   1      33.001  20.272  25.939  1.00  0.00    +0.000 H 
ATOM    106  H16 UNL A   1      33.128  21.627  27.105  1.00  0.00    +0.000 H 
ATOM     15  C12 UNL A   1      33.167  21.319  26.079  1.00  0.00    +0.000 C 
BRANCH   15   14
ATOM     14  N1  UNL A   1      32.032  22.084  25.362  1.00  0.00    +0.000 N 
ATOM    104  H14 UNL A   1      31.384  21.378  25.135  1.00  0.00    +0.000 H 
BRANCH   14   12
ATOM     12  C11 UNL A   1      31.454  23.226  24.876  1.00  0.00    +0.000 C 
ATOM     13  O2  UNL A   1      30.571  23.595  25.686  1.00  0.00    +0.000 O 
BRANCH   12   11
ATOM     11  C10 UNL A   1      31.483  24.102  23.495  1.00  0.00    +0.000 C 
ATOM    102  H12 UNL A   1      30.684  23.664  22.934  1.00  0.00    +0.000 H 
ATOM    103  H13 UNL A   1      31.613  25.034  24.006  1.00  0.00    +0.000 H 
BRANCH   11   10
ATOM     10  C9  UNL A   1      32.551  24.462  22.342  1.00  0.00    +0.000 C 
ATOM    100  H10 UNL A   1      33.458  24.032  22.711  1.00  0.00    +0.000 H 
ATOM    101  H11 UNL A   1      31.924  24.170  21.526  1.00  0.00    +0.000 H 
BRANCH   10    9
ATOM      9  C8  UNL A   1      33.040  25.824  21.681  1.00  0.00    +0.000 C 
ATOM     98  H8  UNL A   1      33.960  25.584  21.189  1.00  0.00    +0.000 H 
ATOM     99  H9  UNL A   1      32.158  26.097  21.142  1.00  0.00    +0.000 H 
BRANCH    9    8
ATOM      8  O1  UNL A   1      33.296  27.052  22.383  1.00  0.00    +0.000 O 
BRANCH    8    7
ATOM      2  C2  UNL A   1      33.114  29.786  26.559  1.00  0.00    +0.000 C 
ATOM      3  C3  UNL A   1      33.766  28.555  26.537  1.00  0.00    +0.000 C 
ATOM      4  C4  UNL A   1      33.407  27.561  25.605  1.00  0.00    +0.000 C 
ATOM      6  C6  UNL A   1      32.583  28.009  24.592  1.00  0.00    +0.000 C 
ATOM      7  C7  UNL A   1      32.414  27.623  23.244  1.00  0.00    +0.000 C 
ATOM     87  N7  UNL A   1      31.269  28.011  22.683  1.00  0.00    +0.000 N 
ATOM     88  S1  UNL A   1      30.554  29.133  23.705  1.00  0.00    +0.000 S 
ATOM     89  C63 UNL A   1      31.812  29.128  24.850  1.00  0.00    +0.000 C 
ATOM     90  N8  UNL A   1      32.003  30.032  25.832  1.00  0.00    +0.000 N 
ATOM     94  H4  UNL A   1      34.523  28.369  27.212  1.00  0.00    +0.000 H 
BRANCH    2    1
ATOM      1  C1  UNL A   1      33.655  30.898  27.419  1.00  0.00    +0.000 C 
ATOM     91  H1  UNL A   1      34.358  31.474  26.855  1.00  0.00    +0.000 H 
ATOM     92  H2  UNL A   1      34.141  30.481  28.276  1.00  0.00    +0.000 H 
ATOM     93  H3  UNL A   1      32.850  31.527  27.735  1.00  0.00    +0.000 H 
ENDBRANCH    2    1
BRANCH    4    5
ATOM     97  H7  UNL A   1      34.838  26.050  25.861  1.00  0.00    +0.000 H 
ATOM      5  C5  UNL A   1      33.825  26.141  25.528  1.00  0.00    +0.000 C 
ATOM     95  H5  UNL A   1      33.748  25.801  24.517  1.00  0.00    +0.000 H 
ATOM     96  H6  UNL A   1      33.190  25.549  26.154  1.00  0.00    +0.000 H 
ENDBRANCH    4    5
ENDBRANCH    8    7
ENDBRANCH    9    8
ENDBRANCH   10    9
ENDBRANCH   11   10
ENDBRANCH   12   11
ENDBRANCH   14   12
ENDBRANCH   15   14
ENDBRANCH   16   15
ENDBRANCH   17   16
ENDBRANCH   18   17
ENDBRANCH   19   18
ENDBRANCH   20   19
ENDBRANCH   21   20
ENDBRANCH   22   21
ENDBRANCH   24   22
ENDBRANCH   28   27
BRANCH   32   33
ATOM     33  C27 UNL A   1      45.321  32.140  27.919  1.00  0.00    +0.000 C 
ATOM     34  C28 UNL A   1      44.350  33.120  27.617  1.00  0.00    +0.000 C 
ATOM     35  F1  UNL A   1      43.111  33.035  28.124  1.00  0.00    +0.000 F 
ATOM     36  C29 UNL A   1      44.594  34.150  26.707  1.00  0.00    +0.000 C 
ATOM     37  F2  UNL A   1      43.596  34.966  26.342  1.00  0.00    +0.000 F 
ATOM     38  C30 UNL A   1      45.838  34.283  26.119  1.00  0.00    +0.000 C 
ATOM     39  F3  UNL A   1      46.055  35.221  25.189  1.00  0.00    +0.000 F 
ATOM     40  C31 UNL A   1      46.844  33.407  26.466  1.00  0.00    +0.000 C 
ATOM     41  F4  UNL A   1      48.055  33.515  25.900  1.00  0.00    +0.000 F 
ATOM     42  C32 UNL A   1      46.589  32.347  27.335  1.00  0.00    +0.000 C 
ATOM     43  F5  UNL A   1      47.598  31.484  27.489  1.00  0.00    +0.000 F 
ENDBRANCH   32   33
BRANCH   49   50
ATOM     50  C38 UNL A   1      42.239  29.892  33.569  1.00  0.00    +0.000 C 
ATOM     51  C39 UNL A   1      41.672  28.619  33.384  1.00  0.00    +0.000 C 
ATOM     52  F6  UNL A   1      41.363  28.177  32.157  1.00  0.00    +0.000 F 
ATOM     53  C40 UNL A   1      41.479  27.749  34.457  1.00  0.00    +0.000 C 
ATOM     54  F7  UNL A   1      40.936  26.539  34.253  1.00  0.00    +0.000 F 
ATOM     55  C41 UNL A   1      41.887  28.115  35.729  1.00  0.00    +0.000 C 
ATOM     56  F8  UNL A   1      41.751  27.260  36.753  1.00  0.00    +0.000 F 
ATOM     57  C42 UNL A   1      42.466  29.356  35.934  1.00  0.00    +0.000 C 
ATOM     58  F9  UNL A   1      42.909  29.696  37.153  1.00  0.00    +0.000 F 
ATOM     59  C43 UNL A   1      42.627  30.240  34.870  1.00  0.00    +0.000 C 
ATOM     60  F10 UNL A   1      43.222  31.421  35.099  1.00  0.00    +0.000 F 
ENDBRANCH   49   50
BRANCH   64   65
ATOM     65  C47 UNL A   1      37.216  32.504  30.728  1.00  0.00    +0.000 C 
ATOM     66  C48 UNL A   1      36.924  33.043  29.464  1.00  0.00    +0.000 C 
ATOM     67  F11 UNL A   1      37.841  32.997  28.486  1.00  0.00    +0.000 F 
ATOM     68  C49 UNL A   1      35.663  33.565  29.162  1.00  0.00    +0.000 C 
ATOM     69  F12 UNL A   1      35.400  34.006  27.923  1.00  0.00    +0.000 F 
ATOM     70  C50 UNL A   1      34.661  33.572  30.118  1.00  0.00    +0.000 C 
ATOM     71  F13 UNL A   1      33.431  34.009  29.809  1.00  0.00    +0.000 F 
ATOM     72  C51 UNL A   1      34.927  33.087  31.384  1.00  0.00    +0.000 C 
ATOM     73  F14 UNL A   1      33.956  33.059  32.309  1.00  0.00    +0.000 F 
ATOM     74  C52 UNL A   1      36.184  32.562  31.686  1.00  0.00    +0.000 C 
ATOM     75  F15 UNL A   1      36.343  32.025  32.904  1.00  0.00    +0.000 F 
ENDBRANCH   64   65
TORSDOF 21
ENDMDL
MODEL 5
REMARK VINA RESULT:     -10.5      1.127      2.088
ROOT
ATOM    129  H39 UNL A   1      38.380  27.516  30.923  1.00  0.00    +0.000 H 
ATOM     28  C23 UNL A   1      39.938  29.116  29.094  1.00  0.00    +0.000 C 
ATOM     29  C24 UNL A   1      40.178  28.844  30.533  1.00  0.00    +0.000 C 
ATOM     30  N3  UNL A   1      41.094  29.371  31.273  1.00  0.00    +0.000 N 
ATOM     31  C25 UNL A   1      40.945  28.809  32.537  1.00  0.00    +0.000 C 
ATOM     32  C26 UNL A   1      41.989  28.794  33.411  1.00  0.00    +0.000 C 
ATOM     44  C33 UNL A   1      43.016  29.723  33.000  1.00  0.00    +0.000 C 
ATOM     45  C34 UNL A   1      43.061  31.089  32.802  1.00  0.00    +0.000 C 
ATOM     46  C35 UNL A   1      43.869  31.267  31.641  1.00  0.00    +0.000 C 
ATOM     47  C36 UNL A   1      44.328  30.011  31.244  1.00  0.00    +0.000 C 
ATOM     48  N4  UNL A   1      44.114  29.220  32.344  1.00  0.00    +0.000 N 
ATOM     49  C37 UNL A   1      44.840  29.510  29.990  1.00  0.00    +0.000 C 
ATOM     61  C44 UNL A   1      44.793  28.199  29.608  1.00  0.00    +0.000 C 
ATOM     62  N5  UNL A   1      44.877  27.836  28.271  1.00  0.00    +0.000 N 
ATOM     63  C45 UNL A   1      44.240  26.697  28.195  1.00  0.00    +0.000 C 
ATOM     64  C46 UNL A   1      43.339  26.348  27.062  1.00  0.00    +0.000 C 
ATOM     76  C53 UNL A   1      42.279  27.189  27.143  1.00  0.00    +0.000 C 
ATOM     77  C54 UNL A   1      41.342  27.614  26.129  1.00  0.00    +0.000 C 
ATOM     78  C55 UNL A   1      40.491  28.500  26.686  1.00  0.00    +0.000 C 
ATOM     79  C56 UNL A   1      40.704  28.551  28.136  1.00  0.00    +0.000 C 
ATOM     80  N6  UNL A   1      41.851  27.818  28.324  1.00  0.00    +0.000 N 
ATOM     81  C57 UNL A   1      44.038  26.005  29.458  1.00  0.00    +0.000 C 
ATOM     82  C58 UNL A   1      44.311  27.005  30.299  1.00  0.00    +0.000 C 
ATOM     83  C59 UNL A   1      39.680  28.121  32.518  1.00  0.00    +0.000 C 
ATOM     84  C60 UNL A   1      39.206  28.027  31.273  1.00  0.00    +0.000 C 
ATOM    120  H30 UNL A   1      42.607  31.823  33.371  1.00  0.00    +0.000 H 
ATOM    121  H31 UNL A   1      44.079  32.165  31.178  1.00  0.00    +0.000 H 
ATOM    122  H32 UNL A   1      44.649  28.439  32.614  1.00  0.00    +0.000 H 
ATOM    123  H33 UNL A   1      41.326  27.297  25.146  1.00  0.00    +0.000 H 
ATOM    124  H34 UNL A   1      39.794  29.059  26.170  1.00  0.00    +0.000 H 
ATOM    125  H35 UNL A   1      42.318  27.744  29.188  1.00  0.00    +0.000 H 
ATOM    126  H36 UNL A   1      43.765  25.028  29.647  1.00  0.00    +0.000 H 
ATOM    127  H37 UNL A   1      44.195  26.942  31.323  1.00  0.00    +0.000 H 
ATOM    128  H38 UNL A   1      39.203  27.749  33.355  1.00  0.00    +0.000 H 
ENDROOT
BRANCH   28   27
ATOM    130  H40 UNL A   1      37.730  28.307  27.932  1.00  0.00    +0.000 H 
ATOM    131  H41 UNL A   1      35.976  29.725  27.055  1.00  0.00    +0.000 H 
ATOM     27  C22 UNL A   1      38.758  29.919  28.813  1.00  0.00    +0.000 C 
ATOM     85  C61 UNL A   1      37.708  29.318  28.141  1.00  0.00    +0.000 C 
ATOM     86  C62 UNL A   1      36.641  30.084  27.757  1.00  0.00    +0.000 C 
ATOM    118  H28 UNL A   1      37.362  32.915  29.401  1.00  0.00    +0.000 H 
ATOM     24  C19 UNL A   1      36.451  31.344  28.311  1.00  0.00    +0.000 C 
ATOM     25  C20 UNL A   1      37.478  31.957  29.033  1.00  0.00    +0.000 C 
ATOM     26  C21 UNL A   1      38.661  31.252  29.247  1.00  0.00    +0.000 C 
ATOM    119  H29 UNL A   1      39.458  31.705  29.721  1.00  0.00    +0.000 H 
BRANCH   24   22
ATOM     22  C18 UNL A   1      35.139  32.008  28.127  1.00  0.00    +0.000 C 
ATOM     23  O3  UNL A   1      35.049  33.207  28.193  1.00  0.00    +0.000 O 
BRANCH   22   21
ATOM    117  H27 UNL A   1      34.067  30.291  28.222  1.00  0.00    +0.000 H 
ATOM     21  N2  UNL A   1      34.018  31.216  27.888  1.00  0.00    +0.000 N 
BRANCH   21   20
ATOM    116  H26 UNL A   1      33.003  32.415  26.577  1.00  0.00    +0.000 H 
ATOM    115  H25 UNL A   1      32.040  31.809  27.947  1.00  0.00    +0.000 H 
ATOM     20  C17 UNL A   1      32.775  31.580  27.205  1.00  0.00    +0.000 C 
BRANCH   20   19
ATOM    113  H23 UNL A   1      31.319  30.859  25.857  1.00  0.00    +0.000 H 
ATOM    114  H24 UNL A   1      33.001  30.272  25.601  1.00  0.00    +0.000 H 
ATOM     19  C16 UNL A   1      32.220  30.487  26.300  1.00  0.00    +0.000 C 
BRANCH   19   18
ATOM     18  C15 UNL A   1      31.891  29.142  26.974  1.00  0.00    +0.000 C 
ATOM    111  H21 UNL A   1      31.391  29.366  27.892  1.00  0.00    +0.000 H 
ATOM    112  H22 UNL A   1      31.325  28.620  26.230  1.00  0.00    +0.000 H 
BRANCH   18   17
ATOM     17  C14 UNL A   1      33.034  28.163  27.312  1.00  0.00    +0.000 C 
ATOM    109  H19 UNL A   1      33.636  28.628  28.064  1.00  0.00    +0.000 H 
ATOM    110  H20 UNL A   1      32.531  27.264  27.596  1.00  0.00    +0.000 H 
BRANCH   17   16
ATOM    107  H17 UNL A   1      34.534  28.577  25.861  1.00  0.00    +0.000 H 
ATOM    108  H18 UNL A   1      34.587  26.942  26.607  1.00  0.00    +0.000 H 
ATOM     16  C13 UNL A   1      33.985  27.717  26.184  1.00  0.00    +0.000 C 
BRANCH   16   15
ATOM    105  H15 UNL A   1      32.677  27.818  24.475  1.00  0.00    +0.000 H 
ATOM    106  H16 UNL A   1      34.111  26.761  24.285  1.00  0.00    +0.000 H 
ATOM     15  C12 UNL A   1      33.310  27.079  24.921  1.00  0.00    +0.000 C 
BRANCH   15   14
ATOM     14  N1  UNL A   1      32.456  25.820  25.191  1.00  0.00    +0.000 N 
ATOM    104  H14 UNL A   1      32.833  25.147  24.579  1.00  0.00    +0.000 H 
BRANCH   14   12
ATOM     12  C11 UNL A   1      31.451  25.147  25.835  1.00  0.00    +0.000 C 
ATOM     13  O2  UNL A   1      30.530  25.960  26.082  1.00  0.00    +0.000 O 
BRANCH   12   11
ATOM     11  C10 UNL A   1      31.216  23.670  26.495  1.00  0.00    +0.000 C 
ATOM    102  H12 UNL A   1      30.271  23.789  26.983  1.00  0.00    +0.000 H 
ATOM    103  H13 UNL A   1      31.544  23.148  25.620  1.00  0.00    +0.000 H 
BRANCH   11   10
ATOM     10  C9  UNL A   1      31.997  22.685  27.505  1.00  0.00    +0.000 C 
ATOM    100  H10 UNL A   1      31.638  22.990  28.466  1.00  0.00    +0.000 H 
ATOM    101  H11 UNL A   1      31.810  21.793  26.945  1.00  0.00    +0.000 H 
BRANCH   10    9
ATOM      9  C8  UNL A   1      33.535  22.377  27.775  1.00  0.00    +0.000 C 
ATOM     98  H8  UNL A   1      34.044  23.299  27.581  1.00  0.00    +0.000 H 
ATOM     99  H9  UNL A   1      33.471  21.954  28.755  1.00  0.00    +0.000 H 
BRANCH    9    8
ATOM      8  O1  UNL A   1      34.315  21.367  27.116  1.00  0.00    +0.000 O 
BRANCH    8    7
ATOM      2  C2  UNL A   1      33.418  23.404  22.644  1.00  0.00    +0.000 C 
ATOM      3  C3  UNL A   1      32.556  22.452  23.183  1.00  0.00    +0.000 C 
ATOM      4  C4  UNL A   1      33.015  21.510  24.126  1.00  0.00    +0.000 C 
ATOM      6  C6  UNL A   1      34.263  21.790  24.641  1.00  0.00    +0.000 C 
ATOM      7  C7  UNL A   1      34.873  21.529  25.888  1.00  0.00    +0.000 C 
ATOM     87  N7  UNL A   1      36.204  21.600  25.894  1.00  0.00    +0.000 N 
ATOM     88  S1  UNL A   1      36.684  22.315  24.454  1.00  0.00    +0.000 S 
ATOM     89  C63 UNL A   1      35.106  22.574  23.873  1.00  0.00    +0.000 C 
ATOM     90  N8  UNL A   1      34.753  23.372  22.845  1.00  0.00    +0.000 N 
ATOM     94  H4  UNL A   1      31.568  22.436  22.888  1.00  0.00    +0.000 H 
BRANCH    2    1
ATOM      1  C1  UNL A   1      32.858  24.523  21.805  1.00  0.00    +0.000 C 
ATOM     91  H1  UNL A   1      32.882  25.434  22.365  1.00  0.00    +0.000 H 
ATOM     92  H2  UNL A   1      31.848  24.295  21.536  1.00  0.00    +0.000 H 
ATOM     93  H3  UNL A   1      33.448  24.633  20.920  1.00  0.00    +0.000 H 
ENDBRANCH    2    1
BRANCH    4    5
ATOM     97  H7  UNL A   1      32.712  20.105  25.652  1.00  0.00    +0.000 H 
ATOM      5  C5  UNL A   1      32.335  20.312  24.672  1.00  0.00    +0.000 C 
ATOM     95  H5  UNL A   1      32.520  19.474  24.033  1.00  0.00    +0.000 H 
ATOM     96  H6  UNL A   1      31.282  20.493  24.727  1.00  0.00    +0.000 H 
ENDBRANCH    4    5
ENDBRANCH    8    7
ENDBRANCH    9    8
ENDBRANCH   10    9
ENDBRANCH   11   10
ENDBRANCH   12   11
ENDBRANCH   14   12
ENDBRANCH   15   14
ENDBRANCH   16   15
ENDBRANCH   17   16
ENDBRANCH   18   17
ENDBRANCH   19   18
ENDBRANCH   20   19
ENDBRANCH   21   20
ENDBRANCH   22   21
ENDBRANCH   24   22
ENDBRANCH   28   27
BRANCH   32   33
ATOM     33  C27 UNL A   1      42.267  27.701  34.415  1.00  0.00    +0.000 C 
ATOM     34  C28 UNL A   1      42.861  26.503  33.961  1.00  0.00    +0.000 C 
ATOM     35  F1  UNL A   1      43.444  26.441  32.754  1.00  0.00    +0.000 F 
ATOM     36  C29 UNL A   1      42.780  25.314  34.689  1.00  0.00    +0.000 C 
ATOM     37  F2  UNL A   1      43.229  24.173  34.149  1.00  0.00    +0.000 F 
ATOM     38  C30 UNL A   1      42.167  25.293  35.927  1.00  0.00    +0.000 C 
ATOM     39  F3  UNL A   1      42.019  24.142  36.594  1.00  0.00    +0.000 F 
ATOM     40  C31 UNL A   1      41.665  26.465  36.451  1.00  0.00    +0.000 C 
ATOM     41  F4  UNL A   1      41.059  26.463  37.647  1.00  0.00    +0.000 F 
ATOM     42  C32 UNL A   1      41.699  27.642  35.705  1.00  0.00    +0.000 C 
ATOM     43  F5  UNL A   1      41.060  28.680  36.255  1.00  0.00    +0.000 F 
ENDBRANCH   32   33
BRANCH   49   50
ATOM     50  C38 UNL A   1      45.215  30.542  28.963  1.00  0.00    +0.000 C 
ATOM     51  C39 UNL A   1      46.540  30.898  28.658  1.00  0.00    +0.000 C 
ATOM     52  F6  UNL A   1      47.566  30.382  29.349  1.00  0.00    +0.000 F 
ATOM     53  C40 UNL A   1      46.835  31.739  27.586  1.00  0.00    +0.000 C 
ATOM     54  F7  UNL A   1      48.109  32.063  27.315  1.00  0.00    +0.000 F 
ATOM     55  C41 UNL A   1      45.819  32.207  26.770  1.00  0.00    +0.000 C 
ATOM     56  F8  UNL A   1      46.105  32.973  25.707  1.00  0.00    +0.000 F 
ATOM     57  C42 UNL A   1      44.506  31.855  27.038  1.00  0.00    +0.000 C 
ATOM     58  F9  UNL A   1      43.523  32.264  26.224  1.00  0.00    +0.000 F 
ATOM     59  C43 UNL A   1      44.206  31.045  28.130  1.00  0.00    +0.000 C 
ATOM     60  F10 UNL A   1      42.927  30.697  28.340  1.00  0.00    +0.000 F 
ENDBRANCH   49   50
BRANCH   64   65
ATOM     65  C47 UNL A   1      43.427  25.066  26.326  1.00  0.00    +0.000 C 
ATOM     66  C48 UNL A   1      44.367  24.893  25.297  1.00  0.00    +0.000 C 
ATOM     67  F11 UNL A   1      45.030  25.952  24.806  1.00  0.00    +0.000 F 
ATOM     68  C49 UNL A   1      44.697  23.625  24.810  1.00  0.00    +0.000 C 
ATOM     69  F12 UNL A   1      45.650  23.494  23.876  1.00  0.00    +0.000 F 
ATOM     70  C50 UNL A   1      44.090  22.495  25.331  1.00  0.00    +0.000 C 
ATOM     71  F13 UNL A   1      44.456  21.274  24.914  1.00  0.00    +0.000 F 
ATOM     72  C51 UNL A   1      43.131  22.632  26.317  1.00  0.00    +0.000 C 
ATOM     73  F14 UNL A   1      42.559  21.544  26.853  1.00  0.00    +0.000 F 
ATOM     74  C52 UNL A   1      42.803  23.897  26.807  1.00  0.00    +0.000 C 
ATOM     75  F15 UNL A   1      41.934  23.949  27.825  1.00  0.00    +0.000 F 
ENDBRANCH   64   65
TORSDOF 21
ENDMDL
MODEL 6
REMARK VINA RESULT:     -10.5      3.398      9.223
ROOT
ATOM    129  H39 UNL A   1      41.257  28.756  25.985  1.00  0.00    +0.000 H 
ATOM     28  C23 UNL A   1      40.825  27.884  28.702  1.00  0.00    +0.000 C 
ATOM     29  C24 UNL A   1      41.890  28.766  28.163  1.00  0.00    +0.000 C 
ATOM     30  N3  UNL A   1      42.904  29.232  28.811  1.00  0.00    +0.000 N 
ATOM     31  C25 UNL A   1      43.616  30.015  27.909  1.00  0.00    +0.000 C 
ATOM     32  C26 UNL A   1      44.457  30.988  28.357  1.00  0.00    +0.000 C 
ATOM     44  C33 UNL A   1      44.756  30.803  29.758  1.00  0.00    +0.000 C 
ATOM     45  C34 UNL A   1      45.355  29.799  30.493  1.00  0.00    +0.000 C 
ATOM     46  C35 UNL A   1      44.594  29.722  31.698  1.00  0.00    +0.000 C 
ATOM     47  C36 UNL A   1      43.629  30.728  31.657  1.00  0.00    +0.000 C 
ATOM     48  N4  UNL A   1      44.072  31.570  30.670  1.00  0.00    +0.000 N 
ATOM     49  C37 UNL A   1      42.381  30.912  32.361  1.00  0.00    +0.000 C 
ATOM     61  C44 UNL A   1      41.336  31.657  31.892  1.00  0.00    +0.000 C 
ATOM     62  N5  UNL A   1      40.043  31.454  32.355  1.00  0.00    +0.000 N 
ATOM     63  C45 UNL A   1      39.273  31.837  31.371  1.00  0.00    +0.000 C 
ATOM     64  C46 UNL A   1      38.036  31.107  30.980  1.00  0.00    +0.000 C 
ATOM     76  C53 UNL A   1      38.438  29.907  30.492  1.00  0.00    +0.000 C 
ATOM     77  C54 UNL A   1      37.722  28.658  30.373  1.00  0.00    +0.000 C 
ATOM     78  C55 UNL A   1      38.567  27.735  29.869  1.00  0.00    +0.000 C 
ATOM     79  C56 UNL A   1      39.817  28.379  29.452  1.00  0.00    +0.000 C 
ATOM     80  N6  UNL A   1      39.707  29.656  29.943  1.00  0.00    +0.000 N 
ATOM     81  C57 UNL A   1      39.906  32.680  30.369  1.00  0.00    +0.000 C 
ATOM     82  C58 UNL A   1      41.186  32.464  30.683  1.00  0.00    +0.000 C 
ATOM     83  C59 UNL A   1      43.066  29.725  26.610  1.00  0.00    +0.000 C 
ATOM     84  C60 UNL A   1      41.929  29.031  26.718  1.00  0.00    +0.000 C 
ATOM    120  H30 UNL A   1      46.173  29.227  30.229  1.00  0.00    +0.000 H 
ATOM    121  H31 UNL A   1      44.735  29.044  32.463  1.00  0.00    +0.000 H 
ATOM    122  H32 UNL A   1      43.929  32.543  30.625  1.00  0.00    +0.000 H 
ATOM    123  H33 UNL A   1      36.735  28.498  30.630  1.00  0.00    +0.000 H 
ATOM    124  H34 UNL A   1      38.365  26.726  29.791  1.00  0.00    +0.000 H 
ATOM    125  H35 UNL A   1      40.435  30.320  29.915  1.00  0.00    +0.000 H 
ATOM    126  H36 UNL A   1      39.489  33.270  29.633  1.00  0.00    +0.000 H 
ATOM    127  H37 UNL A   1      41.981  32.826  30.133  1.00  0.00    +0.000 H 
ATOM    128  H38 UNL A   1      43.491  30.014  25.716  1.00  0.00    +0.000 H 
ENDROOT
BRANCH   28   27
ATOM    130  H40 UNL A   1      39.188  26.692  27.034  1.00  0.00    +0.000 H 
ATOM    131  H41 UNL A   1      39.022  24.308  26.654  1.00  0.00    +0.000 H 
ATOM     27  C22 UNL A   1      40.893  26.501  28.254  1.00  0.00    +0.000 C 
ATOM     85  C61 UNL A   1      39.898  26.043  27.407  1.00  0.00    +0.000 C 
ATOM     86  C62 UNL A   1      39.873  24.716  27.072  1.00  0.00    +0.000 C 
ATOM    118  H28 UNL A   1      42.835  23.764  28.318  1.00  0.00    +0.000 H 
ATOM     24  C19 UNL A   1      40.988  23.918  27.292  1.00  0.00    +0.000 C 
ATOM     25  C20 UNL A   1      42.028  24.373  28.107  1.00  0.00    +0.000 C 
ATOM     26  C21 UNL A   1      41.957  25.663  28.629  1.00  0.00    +0.000 C 
ATOM    119  H29 UNL A   1      42.679  25.999  29.285  1.00  0.00    +0.000 H 
BRANCH   24   22
ATOM     22  C18 UNL A   1      41.050  22.591  26.637  1.00  0.00    +0.000 C 
ATOM     23  O3  UNL A   1      41.991  22.296  25.946  1.00  0.00    +0.000 O 
BRANCH   22   21
ATOM    117  H27 UNL A   1      39.707  21.576  27.765  1.00  0.00    +0.000 H 
ATOM     21  N2  UNL A   1      39.995  21.701  26.832  1.00  0.00    +0.000 N 
BRANCH   21   20
ATOM    116  H26 UNL A   1      38.974  20.010  26.300  1.00  0.00    +0.000 H 
ATOM    115  H25 UNL A   1      39.899  20.778  24.986  1.00  0.00    +0.000 H 
ATOM     20  C17 UNL A   1      39.260  20.928  25.831  1.00  0.00    +0.000 C 
BRANCH   20   19
ATOM    113  H23 UNL A   1      37.640  22.249  26.124  1.00  0.00    +0.000 H 
ATOM    114  H24 UNL A   1      38.237  22.085  24.435  1.00  0.00    +0.000 H 
ATOM     19  C16 UNL A   1      37.977  21.593  25.349  1.00  0.00    +0.000 C 
BRANCH   19   18
ATOM     18  C15 UNL A   1      36.811  20.652  24.991  1.00  0.00    +0.000 C 
ATOM    111  H21 UNL A   1      37.099  20.118  24.111  1.00  0.00    +0.000 H 
ATOM    112  H22 UNL A   1      36.670  20.076  25.883  1.00  0.00    +0.000 H 
BRANCH   18   17
ATOM     17  C14 UNL A   1      35.413  21.246  24.719  1.00  0.00    +0.000 C 
ATOM    109  H19 UNL A   1      34.889  20.548  24.100  1.00  0.00    +0.000 H 
ATOM    110  H20 UNL A   1      35.007  21.412  25.694  1.00  0.00    +0.000 H 
BRANCH   17   16
ATOM    107  H17 UNL A   1      35.368  23.371  24.797  1.00  0.00    +0.000 H 
ATOM    108  H18 UNL A   1      36.118  22.651  23.330  1.00  0.00    +0.000 H 
ATOM     16  C13 UNL A   1      35.314  22.622  24.034  1.00  0.00    +0.000 C 
BRANCH   16   15
ATOM    105  H15 UNL A   1      33.963  23.936  22.990  1.00  0.00    +0.000 H 
ATOM    106  H16 UNL A   1      34.101  22.281  22.318  1.00  0.00    +0.000 H 
ATOM     15  C12 UNL A   1      34.015  22.888  23.196  1.00  0.00    +0.000 C 
BRANCH   15   14
ATOM     14  N1  UNL A   1      32.692  22.469  23.876  1.00  0.00    +0.000 N 
ATOM    104  H14 UNL A   1      32.116  22.207  23.122  1.00  0.00    +0.000 H 
BRANCH   14   12
ATOM     12  C11 UNL A   1      31.899  22.271  24.975  1.00  0.00    +0.000 C 
ATOM     13  O2  UNL A   1      31.842  21.039  25.202  1.00  0.00    +0.000 O 
BRANCH   12   11
ATOM     11  C10 UNL A   1      30.907  23.158  25.925  1.00  0.00    +0.000 C 
ATOM    102  H12 UNL A   1      29.968  22.662  25.795  1.00  0.00    +0.000 H 
ATOM    103  H13 UNL A   1      31.614  23.220  26.726  1.00  0.00    +0.000 H 
BRANCH   11   10
ATOM     10  C9  UNL A   1      30.460  24.702  26.057  1.00  0.00    +0.000 C 
ATOM    100  H10 UNL A   1      29.970  24.891  25.125  1.00  0.00    +0.000 H 
ATOM    101  H11 UNL A   1      30.062  24.610  27.045  1.00  0.00    +0.000 H 
BRANCH   10    9
ATOM      9  C8  UNL A   1      31.247  26.057  26.333  1.00  0.00    +0.000 C 
ATOM     98  H8  UNL A   1      31.206  26.195  27.394  1.00  0.00    +0.000 H 
ATOM     99  H9  UNL A   1      32.162  25.849  25.818  1.00  0.00    +0.000 H 
BRANCH    9    8
ATOM      8  O1  UNL A   1      30.928  27.340  25.771  1.00  0.00    +0.000 O 
BRANCH    8    7
ATOM      2  C2  UNL A   1      28.900  29.967  22.038  1.00  0.00    +0.000 C 
ATOM      3  C3  UNL A   1      28.181  28.961  22.680  1.00  0.00    +0.000 C 
ATOM      4  C4  UNL A   1      28.840  27.897  23.325  1.00  0.00    +0.000 C 
ATOM      6  C6  UNL A   1      30.196  28.090  23.489  1.00  0.00    +0.000 C 
ATOM      7  C7  UNL A   1      31.122  27.658  24.465  1.00  0.00    +0.000 C 
ATOM     87  N7  UNL A   1      32.401  27.711  24.095  1.00  0.00    +0.000 N 
ATOM     88  S1  UNL A   1      32.487  28.606  22.678  1.00  0.00    +0.000 S 
ATOM     89  C63 UNL A   1      30.824  28.959  22.614  1.00  0.00    +0.000 C 
ATOM     90  N8  UNL A   1      30.233  29.892  21.840  1.00  0.00    +0.000 N 
ATOM     94  H4  UNL A   1      27.149  28.997  22.682  1.00  0.00    +0.000 H 
BRANCH    2    1
ATOM      1  C1  UNL A   1      28.182  31.194  21.542  1.00  0.00    +0.000 C 
ATOM     91  H1  UNL A   1      27.404  30.904  20.868  1.00  0.00    +0.000 H 
ATOM     92  H2  UNL A   1      28.875  31.832  21.034  1.00  0.00    +0.000 H 
ATOM     93  H3  UNL A   1      27.757  31.718  22.372  1.00  0.00    +0.000 H 
ENDBRANCH    2    1
BRANCH    4    5
ATOM     97  H7  UNL A   1      28.344  25.867  23.159  1.00  0.00    +0.000 H 
ATOM      5  C5  UNL A   1      28.285  26.645  23.891  1.00  0.00    +0.000 C 
ATOM     95  H5  UNL A   1      27.264  26.800  24.166  1.00  0.00    +0.000 H 
ATOM     96  H6  UNL A   1      28.850  26.363  24.755  1.00  0.00    +0.000 H 
ENDBRANCH    4    5
ENDBRANCH    8    7
ENDBRANCH    9    8
ENDBRANCH   10    9
ENDBRANCH   11   10
ENDBRANCH   12   11
ENDBRANCH   14   12
ENDBRANCH   15   14
ENDBRANCH   16   15
ENDBRANCH   17   16
ENDBRANCH   18   17
ENDBRANCH   19   18
ENDBRANCH   20   19
ENDBRANCH   21   20
ENDBRANCH   22   21
ENDBRANCH   24   22
ENDBRANCH   28   27
BRANCH   32   33
ATOM     33  C27 UNL A   1      44.713  32.304  27.660  1.00  0.00    +0.000 C 
ATOM     34  C28 UNL A   1      45.906  32.455  26.922  1.00  0.00    +0.000 C 
ATOM     35  F1  UNL A   1      46.644  31.386  26.584  1.00  0.00    +0.000 F 
ATOM     36  C29 UNL A   1      46.426  33.711  26.603  1.00  0.00    +0.000 C 
ATOM     37  F2  UNL A   1      47.634  33.806  26.031  1.00  0.00    +0.000 F 
ATOM     38  C30 UNL A   1      45.738  34.859  26.945  1.00  0.00    +0.000 C 
ATOM     39  F3  UNL A   1      46.267  36.067  26.709  1.00  0.00    +0.000 F 
ATOM     40  C31 UNL A   1      44.518  34.751  27.577  1.00  0.00    +0.000 C 
ATOM     41  F4  UNL A   1      43.839  35.854  27.925  1.00  0.00    +0.000 F 
ATOM     42  C32 UNL A   1      44.021  33.500  27.942  1.00  0.00    +0.000 C 
ATOM     43  F5  UNL A   1      42.901  33.526  28.672  1.00  0.00    +0.000 F 
ENDBRANCH   32   33
BRANCH   49   50
ATOM     50  C38 UNL A   1      42.151  30.027  33.554  1.00  0.00    +0.000 C 
ATOM     51  C39 UNL A   1      41.677  28.706  33.469  1.00  0.00    +0.000 C 
ATOM     52  F6  UNL A   1      41.313  28.181  32.291  1.00  0.00    +0.000 F 
ATOM     53  C40 UNL A   1      41.639  27.878  34.590  1.00  0.00    +0.000 C 
ATOM     54  F7  UNL A   1      41.183  26.620  34.482  1.00  0.00    +0.000 F 
ATOM     55  C41 UNL A   1      42.112  28.335  35.809  1.00  0.00    +0.000 C 
ATOM     56  F8  UNL A   1      42.125  27.524  36.876  1.00  0.00    +0.000 F 
ATOM     57  C42 UNL A   1      42.601  29.627  35.913  1.00  0.00    +0.000 C 
ATOM     58  F9  UNL A   1      43.106  30.059  37.077  1.00  0.00    +0.000 F 
ATOM     59  C43 UNL A   1      42.607  30.467  34.803  1.00  0.00    +0.000 C 
ATOM     60  F10 UNL A   1      43.119  31.701  34.934  1.00  0.00    +0.000 F 
ENDBRANCH   49   50
BRANCH   64   65
ATOM     65  C47 UNL A   1      36.731  31.778  30.780  1.00  0.00    +0.000 C 
ATOM     66  C48 UNL A   1      35.864  31.999  31.862  1.00  0.00    +0.000 C 
ATOM     67  F11 UNL A   1      36.093  31.400  33.040  1.00  0.00    +0.000 F 
ATOM     68  C49 UNL A   1      34.797  32.898  31.776  1.00  0.00    +0.000 C 
ATOM     69  F12 UNL A   1      34.033  33.135  32.852  1.00  0.00    +0.000 F 
ATOM     70  C50 UNL A   1      34.560  33.593  30.601  1.00  0.00    +0.000 C 
ATOM     71  F13 UNL A   1      33.579  34.505  30.539  1.00  0.00    +0.000 F 
ATOM     72  C51 UNL A   1      35.370  33.368  29.504  1.00  0.00    +0.000 C 
ATOM     73  F14 UNL A   1      35.171  34.059  28.372  1.00  0.00    +0.000 F 
ATOM     74  C52 UNL A   1      36.438  32.474  29.590  1.00  0.00    +0.000 C 
ATOM     75  F15 UNL A   1      37.236  32.376  28.518  1.00  0.00    +0.000 F 
ENDBRANCH   64   65
TORSDOF 21
ENDMDL
MODEL 7
REMARK VINA RESULT:     -10.4      3.222      8.946
ROOT
ATOM    129  H39 UNL A   1      41.076  28.958  25.929  1.00  0.00    +0.000 H 
ATOM     28  C23 UNL A   1      40.785  28.093  28.667  1.00  0.00    +0.000 C 
ATOM     29  C24 UNL A   1      41.823  28.970  28.071  1.00  0.00    +0.000 C 
ATOM     30  N3  UNL A   1      42.871  29.434  28.664  1.00  0.00    +0.000 N 
ATOM     31  C25 UNL A   1      43.537  30.213  27.724  1.00  0.00    +0.000 C 
ATOM     32  C26 UNL A   1      44.404  31.184  28.125  1.00  0.00    +0.000 C 
ATOM     44  C33 UNL A   1      44.776  31.001  29.508  1.00  0.00    +0.000 C 
ATOM     45  C34 UNL A   1      45.409  29.996  30.214  1.00  0.00    +0.000 C 
ATOM     46  C35 UNL A   1      44.713  29.924  31.457  1.00  0.00    +0.000 C 
ATOM     47  C36 UNL A   1      43.750  30.934  31.465  1.00  0.00    +0.000 C 
ATOM     48  N4  UNL A   1      44.143  31.772  30.454  1.00  0.00    +0.000 N 
ATOM     49  C37 UNL A   1      42.541  31.123  32.232  1.00  0.00    +0.000 C 
ATOM     61  C44 UNL A   1      41.475  31.870  31.818  1.00  0.00    +0.000 C 
ATOM     62  N5  UNL A   1      40.208  31.673  32.349  1.00  0.00    +0.000 N 
ATOM     63  C45 UNL A   1      39.389  32.056  31.406  1.00  0.00    +0.000 C 
ATOM     64  C46 UNL A   1      38.131  31.329  31.083  1.00  0.00    +0.000 C 
ATOM     76  C53 UNL A   1      38.502  30.127  30.576  1.00  0.00    +0.000 C 
ATOM     77  C54 UNL A   1      37.777  28.881  30.498  1.00  0.00    +0.000 C 
ATOM     78  C55 UNL A   1      38.591  27.954  29.952  1.00  0.00    +0.000 C 
ATOM     79  C56 UNL A   1      39.819  28.593  29.468  1.00  0.00    +0.000 C 
ATOM     80  N6  UNL A   1      39.740  29.871  29.962  1.00  0.00    +0.000 N 
ATOM     81  C57 UNL A   1      39.971  32.895  30.370  1.00  0.00    +0.000 C 
ATOM     82  C58 UNL A   1      41.265  32.675  30.617  1.00  0.00    +0.000 C 
ATOM     83  C59 UNL A   1      42.918  29.922  26.457  1.00  0.00    +0.000 C 
ATOM     84  C60 UNL A   1      41.787  29.232  26.626  1.00  0.00    +0.000 C 
ATOM    120  H30 UNL A   1      46.211  29.421  29.908  1.00  0.00    +0.000 H 
ATOM    121  H31 UNL A   1      44.891  29.247  32.215  1.00  0.00    +0.000 H 
ATOM    122  H32 UNL A   1      44.001  32.746  30.414  1.00  0.00    +0.000 H 
ATOM    123  H33 UNL A   1      36.805  28.724  30.807  1.00  0.00    +0.000 H 
ATOM    124  H34 UNL A   1      38.382  26.945  29.887  1.00  0.00    +0.000 H 
ATOM    125  H35 UNL A   1      40.467  30.532  29.894  1.00  0.00    +0.000 H 
ATOM    126  H36 UNL A   1      39.517  33.485  29.656  1.00  0.00    +0.000 H 
ATOM    127  H37 UNL A   1      42.031  33.034  30.025  1.00  0.00    +0.000 H 
ATOM    128  H38 UNL A   1      43.297  30.208  25.541  1.00  0.00    +0.000 H 
ENDROOT
BRANCH   28   27
ATOM    130  H40 UNL A   1      42.401  26.210  29.522  1.00  0.00    +0.000 H 
ATOM    131  H41 UNL A   1      42.777  24.065  28.468  1.00  0.00    +0.000 H 
ATOM     27  C22 UNL A   1      40.824  26.709  28.219  1.00  0.00    +0.000 C 
ATOM     85  C61 UNL A   1      41.791  25.878  28.759  1.00  0.00    +0.000 C 
ATOM     86  C62 UNL A   1      41.925  24.608  28.263  1.00  0.00    +0.000 C 
ATOM    118  H28 UNL A   1      39.181  24.461  26.344  1.00  0.00    +0.000 H 
ATOM     24  C19 UNL A   1      40.917  24.052  27.487  1.00  0.00    +0.000 C 
ATOM     25  C20 UNL A   1      39.902  24.859  26.966  1.00  0.00    +0.000 C 
ATOM     26  C21 UNL A   1      39.883  26.212  27.301  1.00  0.00    +0.000 C 
ATOM    119  H29 UNL A   1      39.184  26.843  26.878  1.00  0.00    +0.000 H 
BRANCH   24   22
ATOM     22  C18 UNL A   1      40.939  22.591  27.238  1.00  0.00    +0.000 C 
ATOM     23  O3  UNL A   1      41.985  21.998  27.182  1.00  0.00    +0.000 O 
BRANCH   22   21
ATOM    117  H27 UNL A   1      39.246  21.684  27.886  1.00  0.00    +0.000 H 
ATOM     21  N2  UNL A   1      39.726  21.927  27.061  1.00  0.00    +0.000 N 
BRANCH   21   20
ATOM    116  H26 UNL A   1      38.699  20.551  25.950  1.00  0.00    +0.000 H 
ATOM    115  H25 UNL A   1      39.793  21.605  25.021  1.00  0.00    +0.000 H 
ATOM     20  C17 UNL A   1      39.073  21.543  25.809  1.00  0.00    +0.000 C 
BRANCH   20   19
ATOM    113  H23 UNL A   1      37.369  22.671  26.341  1.00  0.00    +0.000 H 
ATOM    114  H24 UNL A   1      38.290  23.249  24.908  1.00  0.00    +0.000 H 
ATOM     19  C16 UNL A   1      37.879  22.414  25.437  1.00  0.00    +0.000 C 
BRANCH   19   18
ATOM     18  C15 UNL A   1      36.849  21.789  24.478  1.00  0.00    +0.000 C 
ATOM    111  H21 UNL A   1      36.266  22.592  24.079  1.00  0.00    +0.000 H 
ATOM    112  H22 UNL A   1      37.451  21.237  23.785  1.00  0.00    +0.000 H 
BRANCH   18   17
ATOM     17  C14 UNL A   1      35.856  20.735  25.012  1.00  0.00    +0.000 C 
ATOM    109  H19 UNL A   1      35.382  20.290  24.164  1.00  0.00    +0.000 H 
ATOM    110  H20 UNL A   1      36.462  20.088  25.611  1.00  0.00    +0.000 H 
BRANCH   17   16
ATOM    107  H17 UNL A   1      34.797  20.588  26.851  1.00  0.00    +0.000 H 
ATOM    108  H18 UNL A   1      34.909  22.233  26.135  1.00  0.00    +0.000 H 
ATOM     16  C13 UNL A   1      34.738  21.191  25.969  1.00  0.00    +0.000 C 
BRANCH   16   15
ATOM    105  H15 UNL A   1      33.324  20.809  24.389  1.00  0.00    +0.000 H 
ATOM    106  H16 UNL A   1      32.774  20.371  26.038  1.00  0.00    +0.000 H 
ATOM     15  C12 UNL A   1      33.272  21.090  25.420  1.00  0.00    +0.000 C 
BRANCH   15   14
ATOM     14  N1  UNL A   1      32.439  22.387  25.520  1.00  0.00    +0.000 N 
ATOM    104  H14 UNL A   1      33.115  23.101  25.497  1.00  0.00    +0.000 H 
BRANCH   14   12
ATOM     12  C11 UNL A   1      31.253  23.066  25.623  1.00  0.00    +0.000 C 
ATOM     13  O2  UNL A   1      30.395  22.287  26.103  1.00  0.00    +0.000 O 
BRANCH   12   11
ATOM     11  C10 UNL A   1      30.638  24.504  25.146  1.00  0.00    +0.000 C 
ATOM    102  H12 UNL A   1      30.968  24.564  24.130  1.00  0.00    +0.000 H 
ATOM    103  H13 UNL A   1      29.691  24.335  25.615  1.00  0.00    +0.000 H 
BRANCH   11   10
ATOM     10  C9  UNL A   1      30.718  26.043  25.620  1.00  0.00    +0.000 C 
ATOM    100  H10 UNL A   1      30.917  26.567  24.708  1.00  0.00    +0.000 H 
ATOM    101  H11 UNL A   1      29.836  26.011  26.225  1.00  0.00    +0.000 H 
BRANCH   10    9
ATOM      9  C8  UNL A   1      31.607  26.823  26.685  1.00  0.00    +0.000 C 
ATOM     98  H8  UNL A   1      31.028  27.680  26.961  1.00  0.00    +0.000 H 
ATOM     99  H9  UNL A   1      31.815  26.029  27.371  1.00  0.00    +0.000 H 
BRANCH    9    8
ATOM      8  O1  UNL A   1      32.937  27.319  26.463  1.00  0.00    +0.000 O 
BRANCH    8    7
ATOM      2  C2  UNL A   1      33.367  25.179  21.970  1.00  0.00    +0.000 C 
ATOM      3  C3  UNL A   1      33.840  24.541  23.115  1.00  0.00    +0.000 C 
ATOM      4  C4  UNL A   1      34.212  25.281  24.255  1.00  0.00    +0.000 C 
ATOM      6  C6  UNL A   1      33.818  26.603  24.223  1.00  0.00    +0.000 C 
ATOM      7  C7  UNL A   1      33.465  27.529  25.230  1.00  0.00    +0.000 C 
ATOM     87  N7  UNL A   1      33.515  28.810  24.863  1.00  0.00    +0.000 N 
ATOM     88  S1  UNL A   1      33.668  28.859  23.193  1.00  0.00    +0.000 S 
ATOM     89  C63 UNL A   1      33.605  27.172  22.980  1.00  0.00    +0.000 C 
ATOM     90  N8  UNL A   1      33.407  26.519  21.816  1.00  0.00    +0.000 N 
ATOM     94  H4  UNL A   1      33.918  23.513  23.129  1.00  0.00    +0.000 H 
BRANCH    2    1
ATOM      1  C1  UNL A   1      32.782  24.358  20.851  1.00  0.00    +0.000 C 
ATOM     91  H1  UNL A   1      31.962  23.781  21.224  1.00  0.00    +0.000 H 
ATOM     92  H2  UNL A   1      33.531  23.702  20.461  1.00  0.00    +0.000 H 
ATOM     93  H3  UNL A   1      32.437  25.008  20.075  1.00  0.00    +0.000 H 
ENDBRANCH    2    1
BRANCH    4    5
ATOM     97  H7  UNL A   1      34.498  25.348  26.331  1.00  0.00    +0.000 H 
ATOM      5  C5  UNL A   1      34.907  24.836  25.486  1.00  0.00    +0.000 C 
ATOM     95  H5  UNL A   1      35.951  25.055  25.405  1.00  0.00    +0.000 H 
ATOM     96  H6  UNL A   1      34.773  23.781  25.610  1.00  0.00    +0.000 H 
ENDBRANCH    4    5
ENDBRANCH    8    7
ENDBRANCH    9    8
ENDBRANCH   10    9
ENDBRANCH   11   10
ENDBRANCH   12   11
ENDBRANCH   14   12
ENDBRANCH   15   14
ENDBRANCH   16   15
ENDBRANCH   17   16
ENDBRANCH   18   17
ENDBRANCH   19   18
ENDBRANCH   20   19
ENDBRANCH   21   20
ENDBRANCH   22   21
ENDBRANCH   24   22
ENDBRANCH   28   27
BRANCH   32   33
ATOM     33  C27 UNL A   1      44.627  32.497  27.413  1.00  0.00    +0.000 C 
ATOM     34  C28 UNL A   1      45.803  32.659  26.648  1.00  0.00    +0.000 C 
ATOM     35  F1  UNL A   1      46.548  31.598  26.304  1.00  0.00    +0.000 F 
ATOM     36  C29 UNL A   1      46.298  33.920  26.309  1.00  0.00    +0.000 C 
ATOM     37  F2  UNL A   1      47.493  34.026  25.711  1.00  0.00    +0.000 F 
ATOM     38  C30 UNL A   1      45.601  35.061  26.657  1.00  0.00    +0.000 C 
ATOM     39  F3  UNL A   1      46.108  36.274  26.400  1.00  0.00    +0.000 F 
ATOM     40  C31 UNL A   1      44.396  34.941  27.314  1.00  0.00    +0.000 C 
ATOM     41  F4  UNL A   1      43.709  36.037  27.667  1.00  0.00    +0.000 F 
ATOM     42  C32 UNL A   1      43.925  33.687  27.700  1.00  0.00    +0.000 C 
ATOM     43  F5  UNL A   1      42.819  33.703  28.452  1.00  0.00    +0.000 F 
ENDBRANCH   32   33
BRANCH   49   50
ATOM     50  C38 UNL A   1      42.372  30.241  33.438  1.00  0.00    +0.000 C 
ATOM     51  C39 UNL A   1      42.530  30.685  34.762  1.00  0.00    +0.000 C 
ATOM     52  F6  UNL A   1      42.938  31.934  35.023  1.00  0.00    +0.000 F 
ATOM     53  C40 UNL A   1      42.201  29.868  35.844  1.00  0.00    +0.000 C 
ATOM     54  F7  UNL A   1      42.361  30.316  37.098  1.00  0.00    +0.000 F 
ATOM     55  C41 UNL A   1      41.668  28.609  35.626  1.00  0.00    +0.000 C 
ATOM     56  F8  UNL A   1      41.301  27.842  36.663  1.00  0.00    +0.000 F 
ATOM     57  C42 UNL A   1      41.484  28.156  34.330  1.00  0.00    +0.000 C 
ATOM     58  F9  UNL A   1      40.922  26.958  34.112  1.00  0.00    +0.000 F 
ATOM     59  C43 UNL A   1      41.845  28.956  33.249  1.00  0.00    +0.000 C 
ATOM     60  F10 UNL A   1      41.622  28.498  32.007  1.00  0.00    +0.000 F 
ENDBRANCH   49   50
BRANCH   64   65
ATOM     65  C47 UNL A   1      36.819  32.005  30.949  1.00  0.00    +0.000 C 
ATOM     66  C48 UNL A   1      35.940  32.087  32.042  1.00  0.00    +0.000 C 
ATOM     67  F11 UNL A   1      36.166  31.355  33.143  1.00  0.00    +0.000 F 
ATOM     68  C49 UNL A   1      34.862  32.976  32.051  1.00  0.00    +0.000 C 
ATOM     69  F12 UNL A   1      34.086  33.077  33.140  1.00  0.00    +0.000 F 
ATOM     70  C50 UNL A   1      34.627  33.803  30.965  1.00  0.00    +0.000 C 
ATOM     71  F13 UNL A   1      33.635  34.705  31.000  1.00  0.00    +0.000 F 
ATOM     72  C51 UNL A   1      35.449  33.718  29.856  1.00  0.00    +0.000 C 
ATOM     73  F14 UNL A   1      35.251  34.536  28.811  1.00  0.00    +0.000 F 
ATOM     74  C52 UNL A   1      36.527  32.833  29.847  1.00  0.00    +0.000 C 
ATOM     75  F15 UNL A   1      37.336  32.871  28.779  1.00  0.00    +0.000 F 
ENDBRANCH   64   65
TORSDOF 21
ENDMDL
MODEL 8
REMARK VINA RESULT:     -10.3      1.697      2.934
ROOT
ATOM    129  H39 UNL A   1      38.504  27.402  31.045  1.00  0.00    +0.000 H 
ATOM     28  C23 UNL A   1      39.952  29.003  29.129  1.00  0.00    +0.000 C 
ATOM     29  C24 UNL A   1      40.273  28.734  30.553  1.00  0.00    +0.000 C 
ATOM     30  N3  UNL A   1      41.229  29.264  31.239  1.00  0.00    +0.000 N 
ATOM     31  C25 UNL A   1      41.152  28.704  32.510  1.00  0.00    +0.000 C 
ATOM     32  C26 UNL A   1      42.244  28.693  33.324  1.00  0.00    +0.000 C 
ATOM     44  C33 UNL A   1      43.244  29.624  32.854  1.00  0.00    +0.000 C 
ATOM     45  C34 UNL A   1      43.274  30.990  32.652  1.00  0.00    +0.000 C 
ATOM     46  C35 UNL A   1      44.015  31.168  31.446  1.00  0.00    +0.000 C 
ATOM     47  C36 UNL A   1      44.453  29.912  31.026  1.00  0.00    +0.000 C 
ATOM     48  N4  UNL A   1      44.305  29.123  32.138  1.00  0.00    +0.000 N 
ATOM     49  C37 UNL A   1      44.895  29.410  29.746  1.00  0.00    +0.000 C 
ATOM     61  C44 UNL A   1      44.831  28.099  29.369  1.00  0.00    +0.000 C 
ATOM     62  N5  UNL A   1      44.840  27.733  28.031  1.00  0.00    +0.000 N 
ATOM     63  C45 UNL A   1      44.202  26.593  27.993  1.00  0.00    +0.000 C 
ATOM     64  C46 UNL A   1      43.240  26.240  26.913  1.00  0.00    +0.000 C 
ATOM     76  C53 UNL A   1      42.184  27.079  27.051  1.00  0.00    +0.000 C 
ATOM     77  C54 UNL A   1      41.190  27.500  26.091  1.00  0.00    +0.000 C 
ATOM     78  C55 UNL A   1      40.369  28.384  26.695  1.00  0.00    +0.000 C 
ATOM     79  C56 UNL A   1      40.664  28.438  28.130  1.00  0.00    +0.000 C 
ATOM     80  N6  UNL A   1      41.821  27.709  28.254  1.00  0.00    +0.000 N 
ATOM     81  C57 UNL A   1      44.074  25.902  29.265  1.00  0.00    +0.000 C 
ATOM     82  C58 UNL A   1      44.392  26.905  30.088  1.00  0.00    +0.000 C 
ATOM     83  C59 UNL A   1      39.890  28.013  32.564  1.00  0.00    +0.000 C 
ATOM     84  C60 UNL A   1      39.347  27.915  31.347  1.00  0.00    +0.000 C 
ATOM    120  H30 UNL A   1      42.852  31.723  33.244  1.00  0.00    +0.000 H 
ATOM    121  H31 UNL A   1      44.196  32.066  30.971  1.00  0.00    +0.000 H 
ATOM    122  H32 UNL A   1      44.856  28.344  32.379  1.00  0.00    +0.000 H 
ATOM    123  H33 UNL A   1      41.120  27.181  25.112  1.00  0.00    +0.000 H 
ATOM    124  H34 UNL A   1      39.643  28.941  26.218  1.00  0.00    +0.000 H 
ATOM    125  H35 UNL A   1      42.337  27.636  29.091  1.00  0.00    +0.000 H 
ATOM    126  H36 UNL A   1      43.814  24.925  29.472  1.00  0.00    +0.000 H 
ATOM    127  H37 UNL A   1      44.334  26.843  31.117  1.00  0.00    +0.000 H 
ATOM    128  H38 UNL A   1      39.462  27.641  33.426  1.00  0.00    +0.000 H 
ENDROOT
BRANCH   28   27
ATOM    130  H40 UNL A   1      39.649  31.554  29.665  1.00  0.00    +0.000 H 
ATOM    131  H41 UNL A   1      37.552  32.757  29.742  1.00  0.00    +0.000 H 
ATOM     27  C22 UNL A   1      38.756  29.802  28.914  1.00  0.00    +0.000 C 
ATOM     85  C61 UNL A   1      38.778  31.127  29.312  1.00  0.00    +0.000 C 
ATOM     86  C62 UNL A   1      37.627  31.863  29.232  1.00  0.00    +0.000 C 
ATOM    118  H28 UNL A   1      35.716  29.730  27.490  1.00  0.00    +0.000 H 
ATOM     24  C19 UNL A   1      36.560  31.410  28.468  1.00  0.00    +0.000 C 
ATOM     25  C20 UNL A   1      36.531  30.089  28.013  1.00  0.00    +0.000 C 
ATOM     26  C21 UNL A   1      37.623  29.264  28.279  1.00  0.00    +0.000 C 
ATOM    119  H29 UNL A   1      37.600  28.268  28.011  1.00  0.00    +0.000 H 
BRANCH   24   22
ATOM     22  C18 UNL A   1      35.469  32.357  28.140  1.00  0.00    +0.000 C 
ATOM     23  O3  UNL A   1      35.723  33.475  27.772  1.00  0.00    +0.000 O 
BRANCH   22   21
ATOM    117  H27 UNL A   1      33.963  31.359  29.059  1.00  0.00    +0.000 H 
ATOM     21  N2  UNL A   1      34.149  31.929  28.278  1.00  0.00    +0.000 N 
BRANCH   21   20
ATOM    116  H26 UNL A   1      33.380  32.771  26.579  1.00  0.00    +0.000 H 
ATOM    115  H25 UNL A   1      32.283  32.764  27.982  1.00  0.00    +0.000 H 
ATOM     20  C17 UNL A   1      33.004  32.216  27.413  1.00  0.00    +0.000 C 
BRANCH   20   19
ATOM    113  H23 UNL A   1      31.670  30.590  27.599  1.00  0.00    +0.000 H 
ATOM    114  H24 UNL A   1      31.831  31.304  25.955  1.00  0.00    +0.000 H 
ATOM     19  C16 UNL A   1      32.325  30.975  26.846  1.00  0.00    +0.000 C 
BRANCH   19   18
ATOM     18  C15 UNL A   1      33.254  29.830  26.401  1.00  0.00    +0.000 C 
ATOM    111  H21 UNL A   1      32.978  29.574  25.400  1.00  0.00    +0.000 H 
ATOM    112  H22 UNL A   1      34.236  30.232  26.545  1.00  0.00    +0.000 H 
BRANCH   18   17
ATOM     17  C14 UNL A   1      33.280  28.516  27.210  1.00  0.00    +0.000 C 
ATOM    109  H19 UNL A   1      34.259  28.423  27.630  1.00  0.00    +0.000 H 
ATOM    110  H20 UNL A   1      32.474  28.623  27.905  1.00  0.00    +0.000 H 
BRANCH   17   16
ATOM    107  H17 UNL A   1      33.031  26.404  27.202  1.00  0.00    +0.000 H 
ATOM    108  H18 UNL A   1      32.003  27.323  26.049  1.00  0.00    +0.000 H 
ATOM     16  C13 UNL A   1      32.972  27.193  26.483  1.00  0.00    +0.000 C 
BRANCH   16   15
ATOM    105  H15 UNL A   1      33.363  26.935  24.380  1.00  0.00    +0.000 H 
ATOM    106  H16 UNL A   1      34.758  27.482  25.361  1.00  0.00    +0.000 H 
ATOM     15  C12 UNL A   1      33.918  26.823  25.288  1.00  0.00    +0.000 C 
BRANCH   15   14
ATOM     14  N1  UNL A   1      34.496  25.390  25.321  1.00  0.00    +0.000 N 
ATOM    104  H14 UNL A   1      35.465  25.528  25.221  1.00  0.00    +0.000 H 
BRANCH   14   12
ATOM     12  C11 UNL A   1      34.369  24.030  25.417  1.00  0.00    +0.000 C 
ATOM     13  O2  UNL A   1      34.254  23.730  26.629  1.00  0.00    +0.000 O 
BRANCH   12   11
ATOM     11  C10 UNL A   1      34.498  22.732  24.431  1.00  0.00    +0.000 C 
ATOM    102  H12 UNL A   1      34.848  23.174  23.521  1.00  0.00    +0.000 H 
ATOM    103  H13 UNL A   1      34.948  22.117  25.183  1.00  0.00    +0.000 H 
BRANCH   11   10
ATOM     10  C9  UNL A   1      33.539  21.554  23.889  1.00  0.00    +0.000 C 
ATOM    100  H10 UNL A   1      34.216  20.915  23.362  1.00  0.00    +0.000 H 
ATOM    101  H11 UNL A   1      33.022  21.409  24.814  1.00  0.00    +0.000 H 
BRANCH   10    9
ATOM      9  C8  UNL A   1      32.235  21.528  22.978  1.00  0.00    +0.000 C 
ATOM     98  H8  UNL A   1      32.595  21.509  21.970  1.00  0.00    +0.000 H 
ATOM     99  H9  UNL A   1      31.717  20.701  23.417  1.00  0.00    +0.000 H 
BRANCH    9    8
ATOM      8  O1  UNL A   1      31.187  22.512  22.986  1.00  0.00    +0.000 O 
BRANCH    8    7
ATOM      2  C2  UNL A   1      30.127  27.389  23.191  1.00  0.00    +0.000 C 
ATOM      3  C3  UNL A   1      31.107  26.905  22.327  1.00  0.00    +0.000 C 
ATOM      4  C4  UNL A   1      31.781  25.698  22.599  1.00  0.00    +0.000 C 
ATOM      6  C6  UNL A   1      31.208  24.946  23.604  1.00  0.00    +0.000 C 
ATOM      7  C7  UNL A   1      31.144  23.557  23.853  1.00  0.00    +0.000 C 
ATOM     87  N7  UNL A   1      30.848  23.220  25.108  1.00  0.00    +0.000 N 
ATOM     88  S1  UNL A   1      30.318  24.602  25.898  1.00  0.00    +0.000 S 
ATOM     89  C63 UNL A   1      30.435  25.616  24.536  1.00  0.00    +0.000 C 
ATOM     90  N8  UNL A   1      29.897  26.845  24.405  1.00  0.00    +0.000 N 
ATOM     94  H4  UNL A   1      31.341  27.437  21.475  1.00  0.00    +0.000 H 
BRANCH    2    1
ATOM      1  C1  UNL A   1      29.281  28.562  22.772  1.00  0.00    +0.000 C 
ATOM     91  H1  UNL A   1      29.179  29.240  23.594  1.00  0.00    +0.000 H 
ATOM     92  H2  UNL A   1      28.313  28.215  22.474  1.00  0.00    +0.000 H 
ATOM     93  H3  UNL A   1      29.748  29.064  21.952  1.00  0.00    +0.000 H 
ENDBRANCH    2    1
BRANCH    4    5
ATOM     97  H7  UNL A   1      33.051  25.500  20.943  1.00  0.00    +0.000 H 
ATOM      5  C5  UNL A   1      32.966  25.107  21.935  1.00  0.00    +0.000 C 
ATOM     95  H5  UNL A   1      32.857  24.044  21.890  1.00  0.00    +0.000 H 
ATOM     96  H6  UNL A   1      33.847  25.353  22.491  1.00  0.00    +0.000 H 
ENDBRANCH    4    5
ENDBRANCH    8    7
ENDBRANCH    9    8
ENDBRANCH   10    9
ENDBRANCH   11   10
ENDBRANCH   12   11
ENDBRANCH   14   12
ENDBRANCH   15   14
ENDBRANCH   16   15
ENDBRANCH   17   16
ENDBRANCH   18   17
ENDBRANCH   19   18
ENDBRANCH   20   19
ENDBRANCH   21   20
ENDBRANCH   22   21
ENDBRANCH   24   22
ENDBRANCH   28   27
BRANCH   32   33
ATOM     33  C27 UNL A   1      42.582  27.602  34.312  1.00  0.00    +0.000 C 
ATOM     34  C28 UNL A   1      43.148  26.404  33.827  1.00  0.00    +0.000 C 
ATOM     35  F1  UNL A   1      43.659  26.339  32.588  1.00  0.00    +0.000 F 
ATOM     36  C29 UNL A   1      43.110  25.216  34.561  1.00  0.00    +0.000 C 
ATOM     37  F2  UNL A   1      43.527  24.074  33.998  1.00  0.00    +0.000 F 
ATOM     38  C30 UNL A   1      42.571  25.198  35.832  1.00  0.00    +0.000 C 
ATOM     39  F3  UNL A   1      42.463  24.048  36.510  1.00  0.00    +0.000 F 
ATOM     40  C31 UNL A   1      42.100  26.370  36.382  1.00  0.00    +0.000 C 
ATOM     41  F4  UNL A   1      41.566  26.371  37.612  1.00  0.00    +0.000 F 
ATOM     42  C32 UNL A   1      42.090  27.546  35.633  1.00  0.00    +0.000 C 
ATOM     43  F5  UNL A   1      41.484  28.585  36.218  1.00  0.00    +0.000 F 
ENDBRANCH   32   33
BRANCH   49   50
ATOM     50  C38 UNL A   1      45.209  30.442  28.698  1.00  0.00    +0.000 C 
ATOM     51  C39 UNL A   1      44.248  31.005  27.841  1.00  0.00    +0.000 C 
ATOM     52  F6  UNL A   1      42.979  30.575  27.856  1.00  0.00    +0.000 F 
ATOM     53  C40 UNL A   1      44.564  32.073  27.002  1.00  0.00    +0.000 C 
ATOM     54  F7  UNL A   1      43.627  32.593  26.193  1.00  0.00    +0.000 F 
ATOM     55  C41 UNL A   1      45.832  32.629  27.032  1.00  0.00    +0.000 C 
ATOM     56  F8  UNL A   1      46.123  33.689  26.265  1.00  0.00    +0.000 F 
ATOM     57  C42 UNL A   1      46.791  32.104  27.883  1.00  0.00    +0.000 C 
ATOM     58  F9  UNL A   1      48.005  32.668  27.953  1.00  0.00    +0.000 F 
ATOM     59  C43 UNL A   1      46.488  31.014  28.694  1.00  0.00    +0.000 C 
ATOM     60  F10 UNL A   1      47.432  30.553  29.530  1.00  0.00    +0.000 F 
ENDBRANCH   49   50
BRANCH   64   65
ATOM     65  C47 UNL A   1      43.290  24.957  26.174  1.00  0.00    +0.000 C 
ATOM     66  C48 UNL A   1      44.310  24.704  25.243  1.00  0.00    +0.000 C 
ATOM     67  F11 UNL A   1      45.109  25.701  24.834  1.00  0.00    +0.000 F 
ATOM     68  C49 UNL A   1      44.576  23.413  24.778  1.00  0.00    +0.000 C 
ATOM     69  F12 UNL A   1      45.603  23.201  23.943  1.00  0.00    +0.000 F 
ATOM     70  C50 UNL A   1      43.822  22.340  25.222  1.00  0.00    +0.000 C 
ATOM     71  F13 UNL A   1      44.120  21.092  24.830  1.00  0.00    +0.000 F 
ATOM     72  C51 UNL A   1      42.784  22.559  26.108  1.00  0.00    +0.000 C 
ATOM     73  F14 UNL A   1      42.068  21.524  26.572  1.00  0.00    +0.000 F 
ATOM     74  C52 UNL A   1      42.520  23.847  26.576  1.00  0.00    +0.000 C 
ATOM     75  F15 UNL A   1      41.560  23.972  27.503  1.00  0.00    +0.000 F 
ENDBRANCH   64   65
TORSDOF 21
ENDMDL
MODEL 9
REMARK VINA RESULT:     -10.3      1.381      2.160
ROOT
ATOM    129  H39 UNL A   1      38.705  27.620  31.729  1.00  0.00    +0.000 H 
ATOM     28  C23 UNL A   1      40.047  28.908  29.523  1.00  0.00    +0.000 C 
ATOM     29  C24 UNL A   1      40.426  28.879  30.957  1.00  0.00    +0.000 C 
ATOM     30  N3  UNL A   1      41.395  29.529  31.509  1.00  0.00    +0.000 N 
ATOM     31  C25 UNL A   1      41.378  29.182  32.856  1.00  0.00    +0.000 C 
ATOM     32  C26 UNL A   1      42.499  29.320  33.617  1.00  0.00    +0.000 C 
ATOM     44  C33 UNL A   1      43.461  30.176  32.962  1.00  0.00    +0.000 C 
ATOM     45  C34 UNL A   1      43.455  31.491  32.540  1.00  0.00    +0.000 C 
ATOM     46  C35 UNL A   1      44.147  31.482  31.293  1.00  0.00    +0.000 C 
ATOM     47  C36 UNL A   1      44.595  30.180  31.065  1.00  0.00    +0.000 C 
ATOM     48  N4  UNL A   1      44.505  29.581  32.294  1.00  0.00    +0.000 N 
ATOM     49  C37 UNL A   1      45.000  29.483  29.866  1.00  0.00    +0.000 C 
ATOM     61  C44 UNL A   1      44.949  28.128  29.710  1.00  0.00    +0.000 C 
ATOM     62  N5  UNL A   1      44.916  27.549  28.449  1.00  0.00    +0.000 N 
ATOM     63  C45 UNL A   1      44.301  26.408  28.622  1.00  0.00    +0.000 C 
ATOM     64  C46 UNL A   1      43.308  25.870  27.653  1.00  0.00    +0.000 C 
ATOM     76  C53 UNL A   1      42.240  26.704  27.696  1.00  0.00    +0.000 C 
ATOM     77  C54 UNL A   1      41.202  26.948  26.722  1.00  0.00    +0.000 C 
ATOM     78  C55 UNL A   1      40.386  27.907  27.206  1.00  0.00    +0.000 C 
ATOM     79  C56 UNL A   1      40.733  28.199  28.601  1.00  0.00    +0.000 C 
ATOM     80  N6  UNL A   1      41.909  27.516  28.795  1.00  0.00    +0.000 N 
ATOM     81  C57 UNL A   1      44.235  25.932  29.994  1.00  0.00    +0.000 C 
ATOM     82  C58 UNL A   1      44.562  27.060  30.630  1.00  0.00    +0.000 C 
ATOM     83  C59 UNL A   1      40.133  28.490  33.072  1.00  0.00    +0.000 C 
ATOM     84  C60 UNL A   1      39.548  28.188  31.910  1.00  0.00    +0.000 C 
ATOM    120  H30 UNL A   1      43.039  32.305  33.022  1.00  0.00    +0.000 H 
ATOM    121  H31 UNL A   1      44.290  32.293  30.671  1.00  0.00    +0.000 H 
ATOM    122  H32 UNL A   1      45.081  28.860  32.636  1.00  0.00    +0.000 H 
ATOM    123  H33 UNL A   1      41.102  26.473  25.811  1.00  0.00    +0.000 H 
ATOM    124  H34 UNL A   1      39.631  28.368  26.674  1.00  0.00    +0.000 H 
ATOM    125  H35 UNL A   1      42.457  27.589  29.610  1.00  0.00    +0.000 H 
ATOM    126  H36 UNL A   1      44.004  24.998  30.366  1.00  0.00    +0.000 H 
ATOM    127  H37 UNL A   1      44.544  27.166  31.657  1.00  0.00    +0.000 H 
ATOM    128  H38 UNL A   1      39.746  28.257  34.000  1.00  0.00    +0.000 H 
ENDROOT
BRANCH   28   27
ATOM    130  H40 UNL A   1      39.753  31.515  29.493  1.00  0.00    +0.000 H 
ATOM    131  H41 UNL A   1      37.652  32.715  29.464  1.00  0.00    +0.000 H 
ATOM     27  C22 UNL A   1      38.827  29.644  29.228  1.00  0.00    +0.000 C 
ATOM     85  C61 UNL A   1      38.862  31.025  29.316  1.00  0.00    +0.000 C 
ATOM     86  C62 UNL A   1      37.698  31.729  29.164  1.00  0.00    +0.000 C 
ATOM    118  H28 UNL A   1      35.686  29.267  28.104  1.00  0.00    +0.000 H 
ATOM     24  C19 UNL A   1      36.581  31.120  28.608  1.00  0.00    +0.000 C 
ATOM     25  C20 UNL A   1      36.534  29.730  28.466  1.00  0.00    +0.000 C 
ATOM     26  C21 UNL A   1      37.655  28.982  28.823  1.00  0.00    +0.000 C 
ATOM    119  H29 UNL A   1      37.624  27.951  28.789  1.00  0.00    +0.000 H 
BRANCH   24   22
ATOM     22  C18 UNL A   1      35.455  31.974  28.164  1.00  0.00    +0.000 C 
ATOM     23  O3  UNL A   1      35.665  33.062  27.692  1.00  0.00    +0.000 O 
BRANCH   22   21
ATOM    117  H27 UNL A   1      33.834  31.408  29.240  1.00  0.00    +0.000 H 
ATOM     21  N2  UNL A   1      34.155  31.495  28.313  1.00  0.00    +0.000 N 
BRANCH   21   20
ATOM    116  H26 UNL A   1      33.604  31.455  26.343  1.00  0.00    +0.000 H 
ATOM    115  H25 UNL A   1      32.255  31.542  27.502  1.00  0.00    +0.000 H 
ATOM     20  C17 UNL A   1      33.203  31.105  27.271  1.00  0.00    +0.000 C 
BRANCH   20   19
ATOM    113  H23 UNL A   1      33.285  29.150  28.063  1.00  0.00    +0.000 H 
ATOM    114  H24 UNL A   1      31.991  29.465  26.853  1.00  0.00    +0.000 H 
ATOM     19  C16 UNL A   1      33.016  29.600  27.131  1.00  0.00    +0.000 C 
BRANCH   19   18
ATOM     18  C15 UNL A   1      33.834  28.909  26.023  1.00  0.00    +0.000 C 
ATOM    111  H21 UNL A   1      34.702  29.510  25.856  1.00  0.00    +0.000 H 
ATOM    112  H22 UNL A   1      33.994  27.922  26.407  1.00  0.00    +0.000 H 
BRANCH   18   17
ATOM     17  C14 UNL A   1      33.187  28.660  24.645  1.00  0.00    +0.000 C 
ATOM    109  H19 UNL A   1      32.548  27.808  24.745  1.00  0.00    +0.000 H 
ATOM    110  H20 UNL A   1      32.707  29.587  24.412  1.00  0.00    +0.000 H 
BRANCH   17   16
ATOM    107  H17 UNL A   1      34.141  29.299  22.855  1.00  0.00    +0.000 H 
ATOM    108  H18 UNL A   1      35.042  28.098  23.844  1.00  0.00    +0.000 H 
ATOM     16  C13 UNL A   1      34.102  28.400  23.433  1.00  0.00    +0.000 C 
BRANCH   16   15
ATOM    105  H15 UNL A   1      33.537  27.643  21.497  1.00  0.00    +0.000 H 
ATOM    106  H16 UNL A   1      34.450  26.502  22.533  1.00  0.00    +0.000 H 
ATOM     15  C12 UNL A   1      33.671  27.235  22.477  1.00  0.00    +0.000 C 
BRANCH   15   14
ATOM     14  N1  UNL A   1      32.368  26.503  22.871  1.00  0.00    +0.000 N 
ATOM    104  H14 UNL A   1      31.658  27.112  22.565  1.00  0.00    +0.000 H 
BRANCH   14   12
ATOM     12  C11 UNL A   1      31.682  25.453  23.422  1.00  0.00    +0.000 C 
ATOM     13  O2  UNL A   1      31.542  24.570  22.542  1.00  0.00    +0.000 O 
BRANCH   12   11
ATOM     11  C10 UNL A   1      30.878  25.130  24.808  1.00  0.00    +0.000 C 
ATOM    102  H12 UNL A   1      31.390  25.749  25.515  1.00  0.00    +0.000 H 
ATOM    103  H13 UNL A   1      29.915  25.168  24.341  1.00  0.00    +0.000 H 
BRANCH   11   10
ATOM     10  C9  UNL A   1      30.516  23.831  25.693  1.00  0.00    +0.000 C 
ATOM    100  H10 UNL A   1      29.555  24.075  26.097  1.00  0.00    +0.000 H 
ATOM    101  H11 UNL A   1      30.795  23.117  24.948  1.00  0.00    +0.000 H 
BRANCH   10    9
ATOM      9  C8  UNL A   1      31.236  23.085  26.900  1.00  0.00    +0.000 C 
ATOM     98  H8  UNL A   1      30.947  23.624  27.777  1.00  0.00    +0.000 H 
ATOM     99  H9  UNL A   1      30.918  22.080  26.714  1.00  0.00    +0.000 H 
BRANCH    9    8
ATOM      8  O1  UNL A   1      32.653  22.879  27.031  1.00  0.00    +0.000 O 
BRANCH    8    7
ATOM      2  C2  UNL A   1      37.398  22.226  25.617  1.00  0.00    +0.000 C 
ATOM      3  C3  UNL A   1      36.838  23.500  25.677  1.00  0.00    +0.000 C 
ATOM      4  C4  UNL A   1      35.447  23.686  25.551  1.00  0.00    +0.000 C 
ATOM      6  C6  UNL A   1      34.712  22.522  25.638  1.00  0.00    +0.000 C 
ATOM      7  C7  UNL A   1      33.408  22.237  26.103  1.00  0.00    +0.000 C 
ATOM     87  N7  UNL A   1      32.897  21.081  25.681  1.00  0.00    +0.000 N 
ATOM     88  S1  UNL A   1      34.143  20.192  24.991  1.00  0.00    +0.000 S 
ATOM     89  C63 UNL A   1      35.355  21.339  25.321  1.00  0.00    +0.000 C 
ATOM     90  N8  UNL A   1      36.687  21.136  25.260  1.00  0.00    +0.000 N 
ATOM     94  H4  UNL A   1      37.450  24.319  25.816  1.00  0.00    +0.000 H 
BRANCH    2    1
ATOM      1  C1  UNL A   1      38.852  22.037  25.964  1.00  0.00    +0.000 C 
ATOM     91  H1  UNL A   1      38.935  21.682  26.970  1.00  0.00    +0.000 H 
ATOM     92  H2  UNL A   1      39.365  22.972  25.871  1.00  0.00    +0.000 H 
ATOM     93  H3  UNL A   1      39.287  21.323  25.297  1.00  0.00    +0.000 H 
ENDBRANCH    2    1
BRANCH    4    5
ATOM     97  H7  UNL A   1      35.187  25.595  24.723  1.00  0.00    +0.000 H 
ATOM      5  C5  UNL A   1      34.672  24.939  25.393  1.00  0.00    +0.000 C 
ATOM     95  H5  UNL A   1      34.564  25.414  26.345  1.00  0.00    +0.000 H 
ATOM     96  H6  UNL A   1      33.704  24.713  24.996  1.00  0.00    +0.000 H 
ENDBRANCH    4    5
ENDBRANCH    8    7
ENDBRANCH    9    8
ENDBRANCH   10    9
ENDBRANCH   11   10
ENDBRANCH   12   11
ENDBRANCH   14   12
ENDBRANCH   15   14
ENDBRANCH   16   15
ENDBRANCH   17   16
ENDBRANCH   18   17
ENDBRANCH   19   18
ENDBRANCH   20   19
ENDBRANCH   21   20
ENDBRANCH   22   21
ENDBRANCH   24   22
ENDBRANCH   28   27
BRANCH   32   33
ATOM     33  C27 UNL A   1      42.896  28.409  34.754  1.00  0.00    +0.000 C 
ATOM     34  C28 UNL A   1      43.348  28.990  35.958  1.00  0.00    +0.000 C 
ATOM     35  F1  UNL A   1      43.146  30.293  36.209  1.00  0.00    +0.000 F 
ATOM     36  C29 UNL A   1      44.109  28.276  36.886  1.00  0.00    +0.000 C 
ATOM     37  F2  UNL A   1      44.640  28.910  37.940  1.00  0.00    +0.000 F 
ATOM     38  C30 UNL A   1      44.385  26.938  36.680  1.00  0.00    +0.000 C 
ATOM     39  F3  UNL A   1      45.177  26.268  37.527  1.00  0.00    +0.000 F 
ATOM     40  C31 UNL A   1      43.875  26.307  35.566  1.00  0.00    +0.000 C 
ATOM     41  F4  UNL A   1      44.138  25.012  35.346  1.00  0.00    +0.000 F 
ATOM     42  C32 UNL A   1      43.158  27.030  34.613  1.00  0.00    +0.000 C 
ATOM     43  F5  UNL A   1      42.833  26.347  33.510  1.00  0.00    +0.000 F 
ENDBRANCH   32   33
BRANCH   49   50
ATOM     50  C38 UNL A   1      45.253  30.335  28.653  1.00  0.00    +0.000 C 
ATOM     51  C39 UNL A   1      44.239  30.795  27.795  1.00  0.00    +0.000 C 
ATOM     52  F6  UNL A   1      42.966  30.416  27.969  1.00  0.00    +0.000 F 
ATOM     53  C40 UNL A   1      44.512  31.715  26.781  1.00  0.00    +0.000 C 
ATOM     54  F7  UNL A   1      43.526  32.139  25.976  1.00  0.00    +0.000 F 
ATOM     55  C41 UNL A   1      45.790  32.225  26.632  1.00  0.00    +0.000 C 
ATOM     56  F8  UNL A   1      46.042  33.149  25.693  1.00  0.00    +0.000 F 
ATOM     57  C42 UNL A   1      46.802  31.801  27.478  1.00  0.00    +0.000 C 
ATOM     58  F9  UNL A   1      48.029  32.328  27.370  1.00  0.00    +0.000 F 
ATOM     59  C43 UNL A   1      46.540  30.857  28.466  1.00  0.00    +0.000 C 
ATOM     60  F10 UNL A   1      47.536  30.494  29.289  1.00  0.00    +0.000 F 
ENDBRANCH   49   50
BRANCH   64   65
ATOM     65  C47 UNL A   1      43.357  24.485  27.131  1.00  0.00    +0.000 C 
ATOM     66  C48 UNL A   1      42.735  23.434  27.826  1.00  0.00    +0.000 C 
ATOM     67  F11 UNL A   1      42.298  23.623  29.080  1.00  0.00    +0.000 F 
ATOM     68  C49 UNL A   1      42.484  22.201  27.218  1.00  0.00    +0.000 C 
ATOM     69  F12 UNL A   1      41.825  21.245  27.891  1.00  0.00    +0.000 F 
ATOM     70  C50 UNL A   1      42.855  21.979  25.903  1.00  0.00    +0.000 C 
ATOM     71  F13 UNL A   1      42.552  20.821  25.297  1.00  0.00    +0.000 F 
ATOM     72  C51 UNL A   1      43.505  22.978  25.203  1.00  0.00    +0.000 C 
ATOM     73  F14 UNL A   1      43.840  22.788  23.918  1.00  0.00    +0.000 F 
ATOM     74  C52 UNL A   1      43.754  24.211  25.807  1.00  0.00    +0.000 C 
ATOM     75  F15 UNL A   1      44.304  25.164  25.041  1.00  0.00    +0.000 F 
ENDBRANCH   64   65
TORSDOF 21
ENDMDL
MODEL 10
REMARK VINA RESULT:     -10.0      9.001     14.581
ROOT
ATOM    129  H39 UNL A   1      41.993  35.945  33.404  1.00  0.00    +0.000 H 
ATOM     28  C23 UNL A   1      41.332  34.132  31.258  1.00  0.00    +0.000 C 
ATOM     29  C24 UNL A   1      41.693  33.822  32.663  1.00  0.00    +0.000 C 
ATOM     30  N3  UNL A   1      41.882  32.649  33.168  1.00  0.00    +0.000 N 
ATOM     31  C25 UNL A   1      42.183  32.848  34.511  1.00  0.00    +0.000 C 
ATOM     32  C26 UNL A   1      41.998  31.845  35.414  1.00  0.00    +0.000 C 
ATOM     44  C33 UNL A   1      41.852  30.573  34.744  1.00  0.00    +0.000 C 
ATOM     45  C34 UNL A   1      42.658  29.821  33.912  1.00  0.00    +0.000 C 
ATOM     46  C35 UNL A   1      41.773  29.278  32.934  1.00  0.00    +0.000 C 
ATOM     47  C36 UNL A   1      40.476  29.670  33.269  1.00  0.00    +0.000 C 
ATOM     48  N4  UNL A   1      40.581  30.076  34.574  1.00  0.00    +0.000 N 
ATOM     49  C37 UNL A   1      39.255  29.760  32.502  1.00  0.00    +0.000 C 
ATOM     61  C44 UNL A   1      38.214  30.589  32.807  1.00  0.00    +0.000 C 
ATOM     62  N5  UNL A   1      37.289  30.967  31.845  1.00  0.00    +0.000 N 
ATOM     63  C45 UNL A   1      36.842  32.127  32.249  1.00  0.00    +0.000 C 
ATOM     64  C46 UNL A   1      36.579  33.261  31.321  1.00  0.00    +0.000 C 
ATOM     76  C53 UNL A   1      37.784  33.647  30.836  1.00  0.00    +0.000 C 
ATOM     77  C54 UNL A   1      38.121  34.362  29.627  1.00  0.00    +0.000 C 
ATOM     78  C55 UNL A   1      39.464  34.465  29.559  1.00  0.00    +0.000 C 
ATOM     79  C56 UNL A   1      40.064  33.996  30.813  1.00  0.00    +0.000 C 
ATOM     80  N6  UNL A   1      39.010  33.431  31.488  1.00  0.00    +0.000 N 
ATOM     81  C57 UNL A   1      37.084  32.440  33.648  1.00  0.00    +0.000 C 
ATOM     82  C58 UNL A   1      38.004  31.512  33.921  1.00  0.00    +0.000 C 
ATOM     83  C59 UNL A   1      42.423  34.260  34.660  1.00  0.00    +0.000 C 
ATOM     84  C60 UNL A   1      42.038  34.927  33.568  1.00  0.00    +0.000 C 
ATOM    120  H30 UNL A   1      43.679  29.682  33.983  1.00  0.00    +0.000 H 
ATOM    121  H31 UNL A   1      42.043  28.698  32.124  1.00  0.00    +0.000 H 
ATOM    122  H32 UNL A   1      39.879  30.020  35.261  1.00  0.00    +0.000 H 
ATOM    123  H33 UNL A   1      37.451  34.730  28.933  1.00  0.00    +0.000 H 
ATOM    124  H34 UNL A   1      39.992  34.820  28.746  1.00  0.00    +0.000 H 
ATOM    125  H35 UNL A   1      39.104  32.933  32.333  1.00  0.00    +0.000 H 
ATOM    126  H36 UNL A   1      36.667  33.165  34.252  1.00  0.00    +0.000 H 
ATOM    127  H37 UNL A   1      38.511  31.453  34.818  1.00  0.00    +0.000 H 
ATOM    128  H38 UNL A   1      42.836  34.699  35.498  1.00  0.00    +0.000 H 
ENDROOT
BRANCH   28   27
ATOM    130  H40 UNL A   1      42.883  32.858  29.568  1.00  0.00    +0.000 H 
ATOM    131  H41 UNL A   1      44.941  33.695  28.610  1.00  0.00    +0.000 H 
ATOM     27  C22 UNL A   1      42.408  34.703  30.463  1.00  0.00    +0.000 C 
ATOM     85  C61 UNL A   1      43.150  33.851  29.664  1.00  0.00    +0.000 C 
ATOM     86  C62 UNL A   1      44.243  34.344  29.003  1.00  0.00    +0.000 C 
ATOM    118  H28 UNL A   1      43.806  37.620  29.562  1.00  0.00    +0.000 H 
ATOM     24  C19 UNL A   1      44.413  35.715  28.862  1.00  0.00    +0.000 C 
ATOM     25  C20 UNL A   1      43.646  36.602  29.623  1.00  0.00    +0.000 C 
ATOM     26  C21 UNL A   1      42.664  36.085  30.466  1.00  0.00    +0.000 C 
ATOM    119  H29 UNL A   1      42.129  36.713  31.086  1.00  0.00    +0.000 H 
BRANCH   24   22
ATOM     22  C18 UNL A   1      45.411  36.208  27.884  1.00  0.00    +0.000 C 
ATOM     23  O3  UNL A   1      46.560  35.858  27.957  1.00  0.00    +0.000 O 
BRANCH   22   21
ATOM    117  H27 UNL A   1      44.322  36.737  26.258  1.00  0.00    +0.000 H 
ATOM     21  N2  UNL A   1      44.990  37.090  26.889  1.00  0.00    +0.000 N 
BRANCH   21   20
ATOM    116  H26 UNL A   1      44.764  38.871  25.909  1.00  0.00    +0.000 H 
ATOM    115  H25 UNL A   1      46.438  38.465  26.360  1.00  0.00    +0.000 H 
ATOM     20  C17 UNL A   1      45.412  38.472  26.661  1.00  0.00    +0.000 C 
BRANCH   20   19
ATOM    113  H23 UNL A   1      45.447  38.775  28.750  1.00  0.00    +0.000 H 
ATOM    114  H24 UNL A   1      45.991  40.158  27.737  1.00  0.00    +0.000 H 
ATOM     19  C16 UNL A   1      45.276  39.375  27.881  1.00  0.00    +0.000 C 
BRANCH   19   18
ATOM     18  C15 UNL A   1      43.921  40.085  28.060  1.00  0.00    +0.000 C 
ATOM    111  H21 UNL A   1      43.723  40.120  29.111  1.00  0.00    +0.000 H 
ATOM    112  H22 UNL A   1      44.060  41.022  27.562  1.00  0.00    +0.000 H 
BRANCH   18   17
ATOM     17  C14 UNL A   1      42.663  39.499  27.385  1.00  0.00    +0.000 C 
ATOM    109  H19 UNL A   1      42.974  39.072  26.456  1.00  0.00    +0.000 H 
ATOM    110  H20 UNL A   1      42.271  38.820  28.112  1.00  0.00    +0.000 H 
BRANCH   17   16
ATOM    107  H17 UNL A   1      40.579  39.919  27.317  1.00  0.00    +0.000 H 
ATOM    108  H18 UNL A   1      41.654  41.317  27.666  1.00  0.00    +0.000 H 
ATOM     16  C13 UNL A   1      41.482  40.440  27.078  1.00  0.00    +0.000 C 
BRANCH   16   15
ATOM    105  H15 UNL A   1      41.235  40.092  24.967  1.00  0.00    +0.000 H 
ATOM    106  H16 UNL A   1      40.536  41.623  25.581  1.00  0.00    +0.000 H 
ATOM     15  C12 UNL A   1      41.366  40.945  25.598  1.00  0.00    +0.000 C 
BRANCH   15   14
ATOM     14  N1  UNL A   1      42.579  41.745  25.075  1.00  0.00    +0.000 N 
ATOM    104  H14 UNL A   1      43.299  41.516  25.706  1.00  0.00    +0.000 H 
BRANCH   14   12
ATOM     12  C11 UNL A   1      43.181  42.606  24.195  1.00  0.00    +0.000 C 
ATOM     13  O2  UNL A   1      43.964  43.343  24.839  1.00  0.00    +0.000 O 
BRANCH   12   11
ATOM     11  C10 UNL A   1      43.026  43.031  22.623  1.00  0.00    +0.000 C 
ATOM    102  H12 UNL A   1      42.924  44.094  22.686  1.00  0.00    +0.000 H 
ATOM    103  H13 UNL A   1      43.806  42.374  22.296  1.00  0.00    +0.000 H 
BRANCH   11   10
ATOM     10  C9  UNL A   1      42.056  42.668  21.387  1.00  0.00    +0.000 C 
ATOM    100  H10 UNL A   1      42.476  41.759  21.009  1.00  0.00    +0.000 H 
ATOM    101  H11 UNL A   1      41.144  42.845  21.917  1.00  0.00    +0.000 H 
BRANCH   10    9
ATOM      9  C8  UNL A   1      41.619  43.441  20.067  1.00  0.00    +0.000 C 
ATOM     98  H8  UNL A   1      40.642  43.071  19.834  1.00  0.00    +0.000 H 
ATOM     99  H9  UNL A   1      41.790  44.450  20.376  1.00  0.00    +0.000 H 
BRANCH    9    8
ATOM      8  O1  UNL A   1      42.333  43.437  18.819  1.00  0.00    +0.000 O 
BRANCH    8    7
ATOM      2  C2  UNL A   1      43.390  48.260  18.070  1.00  0.00    +0.000 C 
ATOM      3  C3  UNL A   1      42.457  47.599  17.274  1.00  0.00    +0.000 C 
ATOM      4  C4  UNL A   1      42.515  46.203  17.097  1.00  0.00    +0.000 C 
ATOM      6  C6  UNL A   1      43.370  45.559  17.968  1.00  0.00    +0.000 C 
ATOM      7  C7  UNL A   1      43.370  44.269  18.543  1.00  0.00    +0.000 C 
ATOM     87  N7  UNL A   1      44.544  43.864  19.026  1.00  0.00    +0.000 N 
ATOM     88  S1  UNL A   1      45.563  45.196  19.076  1.00  0.00    +0.000 S 
ATOM     89  C63 UNL A   1      44.403  46.304  18.511  1.00  0.00    +0.000 C 
ATOM     90  N8  UNL A   1      44.488  47.648  18.562  1.00  0.00    +0.000 N 
ATOM     94  H4  UNL A   1      41.713  48.141  16.807  1.00  0.00    +0.000 H 
BRANCH    2    1
ATOM      1  C1  UNL A   1      43.181  49.713  18.409  1.00  0.00    +0.000 C 
ATOM     91  H1  UNL A   1      43.108  49.824  19.471  1.00  0.00    +0.000 H 
ATOM     92  H2  UNL A   1      42.278  50.059  17.951  1.00  0.00    +0.000 H 
ATOM     93  H3  UNL A   1      44.008  50.286  18.046  1.00  0.00    +0.000 H 
ENDBRANCH    2    1
BRANCH    4    5
ATOM     97  H7  UNL A   1      42.449  44.770  15.568  1.00  0.00    +0.000 H 
ATOM      5  C5  UNL A   1      41.761  45.336  16.161  1.00  0.00    +0.000 C 
ATOM     95  H5  UNL A   1      41.154  45.943  15.523  1.00  0.00    +0.000 H 
ATOM     96  H6  UNL A   1      41.137  44.668  16.718  1.00  0.00    +0.000 H 
ENDBRANCH    4    5
ENDBRANCH    8    7
ENDBRANCH    9    8
ENDBRANCH   10    9
ENDBRANCH   11   10
ENDBRANCH   12   11
ENDBRANCH   14   12
ENDBRANCH   15   14
ENDBRANCH   16   15
ENDBRANCH   17   16
ENDBRANCH   18   17
ENDBRANCH   19   18
ENDBRANCH   20   19
ENDBRANCH   21   20
ENDBRANCH   22   21
ENDBRANCH   24   22
ENDBRANCH   28   27
BRANCH   32   33
ATOM     33  C27 UNL A   1      41.575  32.035  36.851  1.00  0.00    +0.000 C 
ATOM     34  C28 UNL A   1      40.369  32.720  37.115  1.00  0.00    +0.000 C 
ATOM     35  F1  UNL A   1      39.470  32.927  36.140  1.00  0.00    +0.000 F 
ATOM     36  C29 UNL A   1      40.104  33.301  38.357  1.00  0.00    +0.000 C 
ATOM     37  F2  UNL A   1      39.015  34.066  38.514  1.00  0.00    +0.000 F 
ATOM     38  C30 UNL A   1      40.997  33.157  39.401  1.00  0.00    +0.000 C 
ATOM     39  F3  UNL A   1      40.784  33.774  40.570  1.00  0.00    +0.000 F 
ATOM     40  C31 UNL A   1      42.139  32.408  39.213  1.00  0.00    +0.000 C 
ATOM     41  F4  UNL A   1      43.022  32.264  40.211  1.00  0.00    +0.000 F 
ATOM     42  C32 UNL A   1      42.431  31.870  37.960  1.00  0.00    +0.000 C 
ATOM     43  F5  UNL A   1      43.629  31.284  37.860  1.00  0.00    +0.000 F 
ENDBRANCH   32   33
BRANCH   49   50
ATOM     50  C38 UNL A   1      39.257  29.075  31.164  1.00  0.00    +0.000 C 
ATOM     51  C39 UNL A   1      39.809  29.635  29.999  1.00  0.00    +0.000 C 
ATOM     52  F6  UNL A   1      40.300  30.881  30.001  1.00  0.00    +0.000 F 
ATOM     53  C40 UNL A   1      39.929  28.890  28.825  1.00  0.00    +0.000 C 
ATOM     54  F7  UNL A   1      40.461  29.448  27.726  1.00  0.00    +0.000 F 
ATOM     55  C41 UNL A   1      39.541  27.561  28.803  1.00  0.00    +0.000 C 
ATOM     56  F8  UNL A   1      39.705  26.829  27.691  1.00  0.00    +0.000 F 
ATOM     57  C42 UNL A   1      39.012  26.981  29.944  1.00  0.00    +0.000 C 
ATOM     58  F9  UNL A   1      38.681  25.682  29.943  1.00  0.00    +0.000 F 
ATOM     59  C43 UNL A   1      38.858  27.733  31.106  1.00  0.00    +0.000 C 
ATOM     60  F10 UNL A   1      38.372  27.129  32.202  1.00  0.00    +0.000 F 
ENDBRANCH   49   50
BRANCH   64   65
ATOM     65  C47 UNL A   1      35.313  34.030  31.325  1.00  0.00    +0.000 C 
ATOM     66  C48 UNL A   1      35.076  35.016  32.297  1.00  0.00    +0.000 C 
ATOM     67  F11 UNL A   1      35.878  35.110  33.369  1.00  0.00    +0.000 F 
ATOM     68  C49 UNL A   1      34.063  35.968  32.146  1.00  0.00    +0.000 C 
ATOM     69  F12 UNL A   1      33.912  36.936  33.060  1.00  0.00    +0.000 F 
ATOM     70  C50 UNL A   1      33.252  35.954  31.023  1.00  0.00    +0.000 C 
ATOM     71  F13 UNL A   1      32.326  36.907  30.843  1.00  0.00    +0.000 F 
ATOM     72  C51 UNL A   1      33.432  34.972  30.067  1.00  0.00    +0.000 C 
ATOM     73  F14 UNL A   1      32.675  34.968  28.960  1.00  0.00    +0.000 F 
ATOM     74  C52 UNL A   1      34.445  34.024  30.215  1.00  0.00    +0.000 C 
ATOM     75  F15 UNL A   1      34.622  33.160  29.206  1.00  0.00    +0.000 F 
ENDBRANCH   64   65
TORSDOF 21
ENDMDL
