MODEL 1
REMARK VINA RESULT:      -9.3      0.000      0.000
ROOT
ATOM    129  H32 UNL A   1      52.830  49.354  19.185  1.00  0.00    +0.000 H 
ATOM    130  H33 UNL A   1      52.584  49.027  16.635  1.00  0.00    +0.000 H 
ATOM     35  C24 UNL A   1      49.991  47.996  15.941  1.00  0.00    +0.000 C 
ATOM     36  C25 UNL A   1      50.456  48.521  17.245  1.00  0.00    +0.000 C 
ATOM     37  N5  UNL A   1      49.813  48.516  18.364  1.00  0.00    +0.000 N 
ATOM     38  C26 UNL A   1      50.643  49.157  19.277  1.00  0.00    +0.000 C 
ATOM     39  C27 UNL A   1      50.109  49.866  20.312  1.00  0.00    +0.000 C 
ATOM     51  C34 UNL A   1      48.718  49.516  20.498  1.00  0.00    +0.000 C 
ATOM     52  C35 UNL A   1      48.035  48.347  20.777  1.00  0.00    +0.000 C 
ATOM     53  C36 UNL A   1      46.840  48.420  19.999  1.00  0.00    +0.000 C 
ATOM     54  C37 UNL A   1      46.822  49.656  19.350  1.00  0.00    +0.000 C 
ATOM     55  N6  UNL A   1      47.775  50.386  20.008  1.00  0.00    +0.000 N 
ATOM     56  C38 UNL A   1      46.094  50.148  18.205  1.00  0.00    +0.000 C 
ATOM     68  C45 UNL A   1      46.478  51.208  17.434  1.00  0.00    +0.000 C 
ATOM     69  N7  UNL A   1      46.021  51.339  16.130  1.00  0.00    +0.000 N 
ATOM     70  C46 UNL A   1      46.965  51.998  15.514  1.00  0.00    +0.000 C 
ATOM     71  C47 UNL A   1      47.415  51.676  14.136  1.00  0.00    +0.000 C 
ATOM     83  C54 UNL A   1      48.003  50.455  14.197  1.00  0.00    +0.000 C 
ATOM     84  C55 UNL A   1      48.288  49.503  13.150  1.00  0.00    +0.000 C 
ATOM     85  C56 UNL A   1      48.871  48.423  13.707  1.00  0.00    +0.000 C 
ATOM     86  C57 UNL A   1      49.169  48.688  15.120  1.00  0.00    +0.000 C 
ATOM     87  N8  UNL A   1      48.518  49.872  15.377  1.00  0.00    +0.000 N 
ATOM     88  C58 UNL A   1      47.888  52.722  16.372  1.00  0.00    +0.000 C 
ATOM     89  C59 UNL A   1      47.597  52.141  17.540  1.00  0.00    +0.000 C 
ATOM     90  C60 UNL A   1      51.949  49.179  18.676  1.00  0.00    +0.000 C 
ATOM     91  C61 UNL A   1      51.861  48.940  17.366  1.00  0.00    +0.000 C 
ATOM    121  H24 UNL A   1      48.326  47.587  21.412  1.00  0.00    +0.000 H 
ATOM    122  H25 UNL A   1      46.117  47.687  19.929  1.00  0.00    +0.000 H 
ATOM    123  H26 UNL A   1      47.783  51.365  20.111  1.00  0.00    +0.000 H 
ATOM    124  H27 UNL A   1      48.080  49.626  12.146  1.00  0.00    +0.000 H 
ATOM    125  H28 UNL A   1      49.079  47.540  13.213  1.00  0.00    +0.000 H 
ATOM    126  H29 UNL A   1      48.423  50.266  16.274  1.00  0.00    +0.000 H 
ATOM    127  H30 UNL A   1      48.567  53.465  16.146  1.00  0.00    +0.000 H 
ATOM    128  H31 UNL A   1      48.106  52.331  18.418  1.00  0.00    +0.000 H 
ENDROOT
BRANCH   35   34
ATOM     33  C22 UNL A   1      51.996  46.833  14.986  1.00  0.00    +0.000 C 
ATOM     34  C23 UNL A   1      50.691  46.799  15.502  1.00  0.00    +0.000 C 
ATOM    131  H34 UNL A   1      48.964  45.623  15.769  1.00  0.00    +0.000 H 
ATOM    132  H35 UNL A   1      50.203  43.548  15.593  1.00  0.00    +0.000 H 
ATOM    119  H22 UNL A   1      53.488  45.663  14.050  1.00  0.00    +0.000 H 
ATOM    120  H23 UNL A   1      52.529  47.716  14.967  1.00  0.00    +0.000 H 
ATOM     92  C62 UNL A   1      49.971  45.616  15.548  1.00  0.00    +0.000 C 
ATOM     93  C63 UNL A   1      50.620  44.445  15.296  1.00  0.00    +0.000 C 
ATOM     31  C20 UNL A   1      51.843  44.462  14.639  1.00  0.00    +0.000 C 
ATOM     32  C21 UNL A   1      52.560  45.655  14.501  1.00  0.00    +0.000 C 
BRANCH   31   29
ATOM     29  C19 UNL A   1      52.325  43.189  14.077  1.00  0.00    +0.000 C 
ATOM     30  O6  UNL A   1      51.894  42.784  13.004  1.00  0.00    +0.000 O 
BRANCH   29   28
ATOM     28  N4  UNL A   1      53.276  42.468  14.776  1.00  0.00    +0.000 N 
ATOM    118  H21 UNL A   1      54.031  42.122  14.248  1.00  0.00    +0.000 H 
BRANCH   28   27
ATOM     27  C18 UNL A   1      53.294  42.157  16.210  1.00  0.00    +0.000 C 
ATOM    116  H19 UNL A   1      52.291  42.179  16.581  1.00  0.00    +0.000 H 
ATOM    117  H20 UNL A   1      53.731  41.188  16.333  1.00  0.00    +0.000 H 
BRANCH   27   26
ATOM     26  C17 UNL A   1      54.130  43.154  16.996  1.00  0.00    +0.000 C 
ATOM    115  H18 UNL A   1      54.276  44.007  16.366  1.00  0.00    +0.000 H 
ATOM    114  H17 UNL A   1      55.053  42.684  17.265  1.00  0.00    +0.000 H 
BRANCH   26   25
ATOM     25  C16 UNL A   1      53.446  43.653  18.279  1.00  0.00    +0.000 C 
ATOM    113  H16 UNL A   1      54.226  43.722  19.009  1.00  0.00    +0.000 H 
ATOM    112  H15 UNL A   1      52.670  42.959  18.525  1.00  0.00    +0.000 H 
BRANCH   25   24
ATOM    110  H13 UNL A   1      53.519  45.749  18.630  1.00  0.00    +0.000 H 
ATOM    111  H14 UNL A   1      52.597  45.232  17.183  1.00  0.00    +0.000 H 
ATOM     24  C15 UNL A   1      52.819  45.055  18.215  1.00  0.00    +0.000 C 
BRANCH   24   23
ATOM    108  H11 UNL A   1      51.703  45.511  19.973  1.00  0.00    +0.000 H 
ATOM    109  H12 UNL A   1      50.917  45.956  18.446  1.00  0.00    +0.000 H 
ATOM     23  C14 UNL A   1      51.491  45.217  18.966  1.00  0.00    +0.000 C 
BRANCH   23   22
ATOM    106  H9  UNL A   1      50.510  43.581  17.998  1.00  0.00    +0.000 H 
ATOM    107  H10 UNL A   1      51.177  43.192  19.570  1.00  0.00    +0.000 H 
ATOM     22  C13 UNL A   1      50.658  43.932  18.998  1.00  0.00    +0.000 C 
BRANCH   22   21
ATOM    105  H8  UNL A   1      49.331  43.948  20.565  1.00  0.00    +0.000 H 
ATOM     21  N3  UNL A   1      49.369  44.192  19.613  1.00  0.00    +0.000 N 
BRANCH   21   19
ATOM     19  C12 UNL A   1      48.192  44.710  19.132  1.00  0.00    +0.000 C 
ATOM     20  O5  UNL A   1      48.260  45.654  18.347  1.00  0.00    +0.000 O 
BRANCH   19   18
ATOM    133  H36 UNL A   1      47.380  42.324  20.287  1.00  0.00    +0.000 H 
ATOM    134  H37 UNL A   1      45.267  41.920  21.405  1.00  0.00    +0.000 H 
ATOM    103  H6  UNL A   1      43.684  45.391  19.643  1.00  0.00    +0.000 H 
ATOM    104  H7  UNL A   1      45.893  45.953  18.801  1.00  0.00    +0.000 H 
ATOM     15  C8  UNL A   1      44.330  43.660  20.666  1.00  0.00    +0.000 C 
ATOM     16  C9  UNL A   1      44.492  44.787  19.862  1.00  0.00    +0.000 C 
ATOM     17  C10 UNL A   1      45.760  45.092  19.355  1.00  0.00    +0.000 C 
ATOM     18  C11 UNL A   1      46.854  44.242  19.588  1.00  0.00    +0.000 C 
ATOM     94  C64 UNL A   1      46.630  43.031  20.242  1.00  0.00    +0.000 C 
ATOM     95  C65 UNL A   1      45.395  42.771  20.836  1.00  0.00    +0.000 C 
BRANCH   15   14
ATOM    102  H5  UNL A   1      41.252  42.679  23.753  1.00  0.00    +0.000 H 
ATOM      9  C5  UNL A   1      42.915  43.316  22.684  1.00  0.00    +0.000 C 
ATOM     10  C6  UNL A   1      41.679  42.854  22.830  1.00  0.00    +0.000 C 
ATOM     11  O3  UNL A   1      41.005  42.625  21.631  1.00  0.00    +0.000 O 
ATOM     12  C7  UNL A   1      41.964  42.999  20.688  1.00  0.00    +0.000 C 
ATOM     13  O4  UNL A   1      41.774  42.907  19.482  1.00  0.00    +0.000 O 
ATOM     14  N2  UNL A   1      43.119  43.421  21.338  1.00  0.00    +0.000 N 
BRANCH    9    8
ATOM     97  C67 UNL A   1      45.130  43.351  25.742  1.00  0.00    +0.000 C 
ATOM    100  H3  UNL A   1      45.701  46.448  24.569  1.00  0.00    +0.000 H 
ATOM      5  C1  UNL A   1      45.667  44.641  25.663  1.00  0.00    +0.000 C 
ATOM      6  C2  UNL A   1      45.302  45.498  24.625  1.00  0.00    +0.000 C 
ATOM      7  C3  UNL A   1      44.390  45.059  23.662  1.00  0.00    +0.000 C 
ATOM    136  H39 UNL A   1      45.410  42.721  26.509  1.00  0.00    +0.000 H 
ATOM    101  H4  UNL A   1      44.115  45.693  22.896  1.00  0.00    +0.000 H 
ATOM    135  H38 UNL A   1      43.805  41.975  24.843  1.00  0.00    +0.000 H 
ATOM      8  C4  UNL A   1      43.843  43.764  23.721  1.00  0.00    +0.000 C 
ATOM     96  C66 UNL A   1      44.213  42.921  24.777  1.00  0.00    +0.000 C 
BRANCH    5    2
ATOM      2  S1  UNL A   1      46.868  45.156  26.856  1.00  0.00    +0.000 S 
ATOM      3  O1  UNL A   1      47.278  44.009  27.644  1.00  0.00    +0.000 O 
ATOM      4  O2  UNL A   1      46.429  46.387  27.455  1.00  0.00    +0.000 O 
BRANCH    2    1
ATOM      1  N1  UNL A   1      48.187  45.535  25.890  1.00  0.00    +0.000 N 
ATOM     98  H1  UNL A   1      48.558  44.682  25.471  1.00  0.00    +0.000 H 
ATOM     99  H2  UNL A   1      48.909  45.976  26.459  1.00  0.00    +0.000 H 
ENDBRANCH    2    1
ENDBRANCH    5    2
ENDBRANCH    9    8
ENDBRANCH   15   14
ENDBRANCH   19   18
ENDBRANCH   21   19
ENDBRANCH   22   21
ENDBRANCH   23   22
ENDBRANCH   24   23
ENDBRANCH   25   24
ENDBRANCH   26   25
ENDBRANCH   27   26
ENDBRANCH   28   27
ENDBRANCH   29   28
ENDBRANCH   31   29
ENDBRANCH   35   34
BRANCH   39   40
ATOM     40  C28 UNL A   1      50.679  51.164  20.853  1.00  0.00    +0.000 C 
ATOM     41  C29 UNL A   1      50.816  51.298  22.252  1.00  0.00    +0.000 C 
ATOM     42  F1  UNL A   1      50.755  50.222  23.052  1.00  0.00    +0.000 F 
ATOM     43  C30 UNL A   1      50.907  52.545  22.874  1.00  0.00    +0.000 C 
ATOM     44  F2  UNL A   1      50.878  52.624  24.211  1.00  0.00    +0.000 F 
ATOM     45  C31 UNL A   1      50.944  53.702  22.119  1.00  0.00    +0.000 C 
ATOM     46  F3  UNL A   1      50.953  54.902  22.711  1.00  0.00    +0.000 F 
ATOM     47  C32 UNL A   1      50.927  53.608  20.746  1.00  0.00    +0.000 C 
ATOM     48  F4  UNL A   1      50.960  54.719  19.995  1.00  0.00    +0.000 F 
ATOM     49  C33 UNL A   1      50.786  52.368  20.124  1.00  0.00    +0.000 C 
ATOM     50  F5  UNL A   1      50.661  52.428  18.795  1.00  0.00    +0.000 F 
ENDBRANCH   39   40
BRANCH   56   57
ATOM     65  F9  UNL A   1      41.326  49.283  18.036  1.00  0.00    +0.000 F 
ATOM     66  C44 UNL A   1      43.652  49.698  17.998  1.00  0.00    +0.000 C 
ATOM     67  F10 UNL A   1      43.434  50.863  18.630  1.00  0.00    +0.000 F 
ATOM     57  C39 UNL A   1      44.960  49.294  17.708  1.00  0.00    +0.000 C 
ATOM     58  C40 UNL A   1      45.129  48.039  17.096  1.00  0.00    +0.000 C 
ATOM     59  F6  UNL A   1      46.352  47.543  16.872  1.00  0.00    +0.000 F 
ATOM     60  C41 UNL A   1      44.032  47.248  16.756  1.00  0.00    +0.000 C 
ATOM     61  F7  UNL A   1      44.218  46.059  16.163  1.00  0.00    +0.000 F 
ATOM     62  C42 UNL A   1      42.749  47.671  17.063  1.00  0.00    +0.000 C 
ATOM     63  F8  UNL A   1      41.696  46.893  16.776  1.00  0.00    +0.000 F 
ATOM     64  C43 UNL A   1      42.560  48.891  17.693  1.00  0.00    +0.000 C 
ENDBRANCH   56   57
BRANCH   71   72
ATOM     72  C48 UNL A   1      47.472  52.688  13.056  1.00  0.00    +0.000 C 
ATOM     73  C49 UNL A   1      48.700  53.119  12.531  1.00  0.00    +0.000 C 
ATOM     74  F11 UNL A   1      49.847  52.801  13.151  1.00  0.00    +0.000 F 
ATOM     75  C50 UNL A   1      48.778  53.820  11.323  1.00  0.00    +0.000 C 
ATOM     76  F12 UNL A   1      49.973  54.158  10.820  1.00  0.00    +0.000 F 
ATOM     77  C51 UNL A   1      47.627  54.114  10.609  1.00  0.00    +0.000 C 
ATOM     78  F13 UNL A   1      47.704  54.724   9.418  1.00  0.00    +0.000 F 
ATOM     79  C52 UNL A   1      46.398  53.731  11.115  1.00  0.00    +0.000 C 
ATOM     80  F14 UNL A   1      45.281  53.973  10.414  1.00  0.00    +0.000 F 
ATOM     81  C53 UNL A   1      46.321  53.028  12.319  1.00  0.00    +0.000 C 
ATOM     82  F15 UNL A   1      45.109  52.601  12.701  1.00  0.00    +0.000 F 
ENDBRANCH   71   72
TORSDOF 19
ENDMDL
MODEL 2
REMARK VINA RESULT:      -9.2     42.387     48.124
ROOT
ATOM    129  H32 UNL A   1       5.283  33.276  -1.662  1.00  0.00    +0.000 H 
ATOM    130  H33 UNL A   1       6.553  32.782   0.533  1.00  0.00    +0.000 H 
ATOM     35  C24 UNL A   1       8.152  30.402   0.322  1.00  0.00    +0.000 C 
ATOM     36  C25 UNL A   1       7.456  31.143  -0.754  1.00  0.00    +0.000 C 
ATOM     37  N5  UNL A   1       7.340  30.799  -1.993  1.00  0.00    +0.000 N 
ATOM     38  C26 UNL A   1       6.646  31.835  -2.608  1.00  0.00    +0.000 C 
ATOM     39  C27 UNL A   1       6.871  32.129  -3.919  1.00  0.00    +0.000 C 
ATOM     51  C34 UNL A   1       7.557  31.035  -4.571  1.00  0.00    +0.000 C 
ATOM     52  C35 UNL A   1       7.280  29.698  -4.785  1.00  0.00    +0.000 C 
ATOM     53  C36 UNL A   1       8.532  29.028  -4.633  1.00  0.00    +0.000 C 
ATOM     54  C37 UNL A   1       9.514  29.996  -4.411  1.00  0.00    +0.000 C 
ATOM     55  N6  UNL A   1       8.910  31.168  -4.777  1.00  0.00    +0.000 N 
ATOM     56  C38 UNL A   1      10.845  29.928  -3.858  1.00  0.00    +0.000 C 
ATOM     68  C45 UNL A   1      11.518  30.985  -3.314  1.00  0.00    +0.000 C 
ATOM     69  N7  UNL A   1      12.552  30.778  -2.412  1.00  0.00    +0.000 N 
ATOM     70  C46 UNL A   1      12.552  31.845  -1.659  1.00  0.00    +0.000 C 
ATOM     71  C47 UNL A   1      12.758  31.803  -0.189  1.00  0.00    +0.000 C 
ATOM     83  C54 UNL A   1      11.682  31.164   0.335  1.00  0.00    +0.000 C 
ATOM     84  C55 UNL A   1      11.509  30.526   1.618  1.00  0.00    +0.000 C 
ATOM     85  C56 UNL A   1      10.263  30.014   1.672  1.00  0.00    +0.000 C 
ATOM     86  C57 UNL A   1       9.492  30.451   0.501  1.00  0.00    +0.000 C 
ATOM     87  N8  UNL A   1      10.433  31.035  -0.315  1.00  0.00    +0.000 N 
ATOM     88  C58 UNL A   1      11.865  33.002  -2.210  1.00  0.00    +0.000 C 
ATOM     89  C59 UNL A   1      11.180  32.400  -3.187  1.00  0.00    +0.000 C 
ATOM     90  C60 UNL A   1       6.054  32.600  -1.544  1.00  0.00    +0.000 C 
ATOM     91  C61 UNL A   1       6.643  32.311  -0.381  1.00  0.00    +0.000 C 
ATOM    121  H24 UNL A   1       6.365  29.275  -5.007  1.00  0.00    +0.000 H 
ATOM    122  H25 UNL A   1       8.683  28.009  -4.678  1.00  0.00    +0.000 H 
ATOM    123  H26 UNL A   1       9.365  31.968  -5.128  1.00  0.00    +0.000 H 
ATOM    124  H27 UNL A   1      12.218  30.470   2.367  1.00  0.00    +0.000 H 
ATOM    125  H28 UNL A   1       9.904  29.407   2.425  1.00  0.00    +0.000 H 
ATOM    126  H29 UNL A   1      10.258  31.327  -1.238  1.00  0.00    +0.000 H 
ATOM    127  H30 UNL A   1      11.897  33.994  -1.929  1.00  0.00    +0.000 H 
ATOM    128  H31 UNL A   1      10.490  32.881  -3.785  1.00  0.00    +0.000 H 
ENDROOT
BRANCH   35   34
ATOM     33  C22 UNL A   1       7.120  30.373   2.606  1.00  0.00    +0.000 C 
ATOM     34  C23 UNL A   1       7.261  29.831   1.320  1.00  0.00    +0.000 C 
ATOM    131  H34 UNL A   1       6.836  28.183   0.078  1.00  0.00    +0.000 H 
ATOM    132  H35 UNL A   1       4.951  27.492   1.436  1.00  0.00    +0.000 H 
ATOM    119  H22 UNL A   1       6.252  30.046   4.506  1.00  0.00    +0.000 H 
ATOM    120  H23 UNL A   1       7.605  31.247   2.862  1.00  0.00    +0.000 H 
ATOM     92  C62 UNL A   1       6.603  28.666   0.958  1.00  0.00    +0.000 C 
ATOM     93  C63 UNL A   1       5.643  28.172   1.790  1.00  0.00    +0.000 C 
ATOM     31  C20 UNL A   1       5.599  28.586   3.115  1.00  0.00    +0.000 C 
ATOM     32  C21 UNL A   1       6.317  29.712   3.532  1.00  0.00    +0.000 C 
BRANCH   31   29
ATOM     29  C19 UNL A   1       4.796  27.778   4.048  1.00  0.00    +0.000 C 
ATOM     30  O6  UNL A   1       3.574  27.863   4.046  1.00  0.00    +0.000 O 
BRANCH   29   28
ATOM     28  N4  UNL A   1       5.446  26.918   4.915  1.00  0.00    +0.000 N 
ATOM    118  H21 UNL A   1       5.615  27.263   5.821  1.00  0.00    +0.000 H 
BRANCH   28   27
ATOM     27  C18 UNL A   1       5.914  25.554   4.645  1.00  0.00    +0.000 C 
ATOM    116  H19 UNL A   1       5.826  24.975   5.541  1.00  0.00    +0.000 H 
ATOM    117  H20 UNL A   1       5.311  25.145   3.862  1.00  0.00    +0.000 H 
BRANCH   27   26
ATOM     26  C17 UNL A   1       7.362  25.531   4.186  1.00  0.00    +0.000 C 
ATOM    115  H18 UNL A   1       7.365  25.779   3.145  1.00  0.00    +0.000 H 
ATOM    114  H17 UNL A   1       7.762  24.556   4.374  1.00  0.00    +0.000 H 
BRANCH   26   25
ATOM     25  C16 UNL A   1       8.249  26.565   4.898  1.00  0.00    +0.000 C 
ATOM    113  H16 UNL A   1       8.859  26.001   5.572  1.00  0.00    +0.000 H 
ATOM    112  H15 UNL A   1       7.604  27.274   5.374  1.00  0.00    +0.000 H 
BRANCH   25   24
ATOM    110  H13 UNL A   1       8.834  27.364   3.016  1.00  0.00    +0.000 H 
ATOM    111  H14 UNL A   1       9.322  28.317   4.453  1.00  0.00    +0.000 H 
ATOM     24  C15 UNL A   1       9.231  27.347   4.010  1.00  0.00    +0.000 C 
BRANCH   24   23
ATOM    108  H11 UNL A   1      11.327  27.489   4.370  1.00  0.00    +0.000 H 
ATOM    109  H12 UNL A   1      10.653  25.851   4.479  1.00  0.00    +0.000 H 
ATOM     23  C14 UNL A   1      10.654  26.777   3.941  1.00  0.00    +0.000 C 
BRANCH   23   22
ATOM    106  H9  UNL A   1      11.754  27.259   2.171  1.00  0.00    +0.000 H 
ATOM    107  H10 UNL A   1      11.640  25.543   2.503  1.00  0.00    +0.000 H 
ATOM     22  C13 UNL A   1      11.111  26.473   2.511  1.00  0.00    +0.000 C 
BRANCH   22   21
ATOM    105  H8  UNL A   1       9.524  27.242   1.461  1.00  0.00    +0.000 H 
ATOM     21  N3  UNL A   1       9.961  26.377   1.632  1.00  0.00    +0.000 N 
BRANCH   21   19
ATOM     19  C12 UNL A   1       9.360  25.322   0.993  1.00  0.00    +0.000 C 
ATOM     20  O5  UNL A   1       9.897  24.219   1.079  1.00  0.00    +0.000 O 
BRANCH   19   18
ATOM    133  H36 UNL A   1       8.953  26.718  -1.367  1.00  0.00    +0.000 H 
ATOM    134  H37 UNL A   1       7.073  26.465  -2.876  1.00  0.00    +0.000 H 
ATOM    103  H6  UNL A   1       4.930  24.482   0.145  1.00  0.00    +0.000 H 
ATOM    104  H7  UNL A   1       6.930  24.454   1.525  1.00  0.00    +0.000 H 
ATOM     15  C8  UNL A   1       5.878  25.394  -1.507  1.00  0.00    +0.000 C 
ATOM     16  C9  UNL A   1       5.814  24.873  -0.215  1.00  0.00    +0.000 C 
ATOM     17  C10 UNL A   1       6.960  24.885   0.587  1.00  0.00    +0.000 C 
ATOM     18  C11 UNL A   1       8.152  25.475   0.134  1.00  0.00    +0.000 C 
ATOM     94  C64 UNL A   1       8.141  26.147  -1.087  1.00  0.00    +0.000 C 
ATOM     95  C65 UNL A   1       7.036  26.051  -1.932  1.00  0.00    +0.000 C 
BRANCH   15   14
ATOM    102  H5  UNL A   1       1.898  25.627  -3.524  1.00  0.00    +0.000 H 
ATOM      9  C5  UNL A   1       3.648  25.959  -2.456  1.00  0.00    +0.000 C 
ATOM     10  C6  UNL A   1       2.849  25.303  -3.290  1.00  0.00    +0.000 C 
ATOM     11  O3  UNL A   1       3.404  24.141  -3.822  1.00  0.00    +0.000 O 
ATOM     12  C7  UNL A   1       4.667  24.126  -3.227  1.00  0.00    +0.000 C 
ATOM     13  O4  UNL A   1       5.472  23.222  -3.409  1.00  0.00    +0.000 O 
ATOM     14  N2  UNL A   1       4.806  25.238  -2.402  1.00  0.00    +0.000 N 
BRANCH    9    8
ATOM     97  C67 UNL A   1       2.359  28.636  -0.126  1.00  0.00    +0.000 C 
ATOM    100  H3  UNL A   1       4.466  30.460  -2.005  1.00  0.00    +0.000 H 
ATOM      5  C1  UNL A   1       3.064  29.752  -0.592  1.00  0.00    +0.000 C 
ATOM      6  C2  UNL A   1       3.946  29.635  -1.666  1.00  0.00    +0.000 C 
ATOM      7  C3  UNL A   1       4.121  28.391  -2.277  1.00  0.00    +0.000 C 
ATOM    136  H39 UNL A   1       1.713  28.730   0.672  1.00  0.00    +0.000 H 
ATOM    101  H4  UNL A   1       4.770  28.303  -3.075  1.00  0.00    +0.000 H 
ATOM    135  H38 UNL A   1       2.004  26.575  -0.414  1.00  0.00    +0.000 H 
ATOM      8  C4  UNL A   1       3.426  27.257  -1.820  1.00  0.00    +0.000 C 
ATOM     96  C66 UNL A   1       2.535  27.395  -0.748  1.00  0.00    +0.000 C 
BRANCH    5    2
ATOM      2  S1  UNL A   1       2.877  31.305   0.236  1.00  0.00    +0.000 S 
ATOM      3  O1  UNL A   1       2.513  32.320  -0.734  1.00  0.00    +0.000 O 
ATOM      4  O2  UNL A   1       3.966  31.473   1.157  1.00  0.00    +0.000 O 
BRANCH    2    1
ATOM      1  N1  UNL A   1       1.499  31.050   1.160  1.00  0.00    +0.000 N 
ATOM     98  H1  UNL A   1       1.366  31.836   1.796  1.00  0.00    +0.000 H 
ATOM     99  H2  UNL A   1       1.605  30.191   1.698  1.00  0.00    +0.000 H 
ENDBRANCH    2    1
ENDBRANCH    5    2
ENDBRANCH    9    8
ENDBRANCH   15   14
ENDBRANCH   19   18
ENDBRANCH   21   19
ENDBRANCH   22   21
ENDBRANCH   23   22
ENDBRANCH   24   23
ENDBRANCH   25   24
ENDBRANCH   26   25
ENDBRANCH   27   26
ENDBRANCH   28   27
ENDBRANCH   29   28
ENDBRANCH   31   29
ENDBRANCH   35   34
BRANCH   39   40
ATOM     40  C28 UNL A   1       6.887  33.531  -4.499  1.00  0.00    +0.000 C 
ATOM     41  C29 UNL A   1       7.809  34.460  -3.970  1.00  0.00    +0.000 C 
ATOM     42  F1  UNL A   1       8.843  34.046  -3.220  1.00  0.00    +0.000 F 
ATOM     43  C30 UNL A   1       7.634  35.839  -4.101  1.00  0.00    +0.000 C 
ATOM     44  F2  UNL A   1       8.450  36.677  -3.449  1.00  0.00    +0.000 F 
ATOM     45  C31 UNL A   1       6.575  36.343  -4.831  1.00  0.00    +0.000 C 
ATOM     46  F3  UNL A   1       6.358  37.663  -4.896  1.00  0.00    +0.000 F 
ATOM     47  C32 UNL A   1       5.717  35.470  -5.459  1.00  0.00    +0.000 C 
ATOM     48  F4  UNL A   1       4.681  35.938  -6.171  1.00  0.00    +0.000 F 
ATOM     49  C33 UNL A   1       5.860  34.093  -5.289  1.00  0.00    +0.000 C 
ATOM     50  F5  UNL A   1       4.892  33.363  -5.850  1.00  0.00    +0.000 F 
ENDBRANCH   39   40
BRANCH   56   57
ATOM     65  F9  UNL A   1      13.192  26.136  -5.762  1.00  0.00    +0.000 F 
ATOM     66  C44 UNL A   1      12.128  27.984  -4.744  1.00  0.00    +0.000 C 
ATOM     67  F10 UNL A   1      12.332  28.694  -5.866  1.00  0.00    +0.000 F 
ATOM     57  C39 UNL A   1      11.430  28.554  -3.673  1.00  0.00    +0.000 C 
ATOM     58  C40 UNL A   1      11.199  27.744  -2.547  1.00  0.00    +0.000 C 
ATOM     59  F6  UNL A   1      10.458  28.187  -1.523  1.00  0.00    +0.000 F 
ATOM     60  C41 UNL A   1      11.681  26.437  -2.486  1.00  0.00    +0.000 C 
ATOM     61  F7  UNL A   1      11.456  25.688  -1.396  1.00  0.00    +0.000 F 
ATOM     62  C42 UNL A   1      12.362  25.897  -3.564  1.00  0.00    +0.000 C 
ATOM     63  F8  UNL A   1      12.789  24.627  -3.525  1.00  0.00    +0.000 F 
ATOM     64  C43 UNL A   1      12.577  26.667  -4.697  1.00  0.00    +0.000 C 
ENDBRANCH   56   57
BRANCH   71   72
ATOM     72  C48 UNL A   1      13.786  32.619   0.498  1.00  0.00    +0.000 C 
ATOM     73  C49 UNL A   1      13.425  33.614   1.419  1.00  0.00    +0.000 C 
ATOM     74  F11 UNL A   1      12.145  34.005   1.522  1.00  0.00    +0.000 F 
ATOM     75  C50 UNL A   1      14.356  34.172   2.301  1.00  0.00    +0.000 C 
ATOM     76  F12 UNL A   1      13.961  35.073   3.211  1.00  0.00    +0.000 F 
ATOM     77  C51 UNL A   1      15.677  33.753   2.282  1.00  0.00    +0.000 C 
ATOM     78  F13 UNL A   1      16.555  34.236   3.171  1.00  0.00    +0.000 F 
ATOM     79  C52 UNL A   1      16.072  32.797   1.364  1.00  0.00    +0.000 C 
ATOM     80  F14 UNL A   1      17.337  32.355   1.362  1.00  0.00    +0.000 F 
ATOM     81  C53 UNL A   1      15.142  32.238   0.486  1.00  0.00    +0.000 C 
ATOM     82  F15 UNL A   1      15.570  31.246  -0.308  1.00  0.00    +0.000 F 
ENDBRANCH   71   72
TORSDOF 19
ENDMDL
MODEL 3
REMARK VINA RESULT:      -9.2     37.536     42.620
ROOT
ATOM    129  H32 UNL A   1      21.472  29.086  -3.311  1.00  0.00    +0.000 H 
ATOM    130  H33 UNL A   1      21.176  26.979  -4.777  1.00  0.00    +0.000 H 
ATOM     35  C24 UNL A   1      22.101  24.612  -3.434  1.00  0.00    +0.000 C 
ATOM     36  C25 UNL A   1      21.894  25.967  -2.875  1.00  0.00    +0.000 C 
ATOM     37  N5  UNL A   1      22.195  26.379  -1.690  1.00  0.00    +0.000 N 
ATOM     38  C26 UNL A   1      21.766  27.700  -1.631  1.00  0.00    +0.000 C 
ATOM     39  C27 UNL A   1      21.351  28.236  -0.448  1.00  0.00    +0.000 C 
ATOM     51  C34 UNL A   1      21.787  27.413   0.659  1.00  0.00    +0.000 C 
ATOM     52  C35 UNL A   1      23.012  26.986   1.134  1.00  0.00    +0.000 C 
ATOM     53  C36 UNL A   1      22.796  25.643   1.569  1.00  0.00    +0.000 C 
ATOM     54  C37 UNL A   1      21.440  25.350   1.407  1.00  0.00    +0.000 C 
ATOM     55  N6  UNL A   1      20.858  26.576   1.230  1.00  0.00    +0.000 N 
ATOM     56  C38 UNL A   1      20.710  24.107   1.337  1.00  0.00    +0.000 C 
ATOM     68  C45 UNL A   1      19.481  23.956   0.760  1.00  0.00    +0.000 C 
ATOM     69  N7  UNL A   1      19.053  22.713   0.318  1.00  0.00    +0.000 N 
ATOM     70  C46 UNL A   1      18.229  22.976  -0.660  1.00  0.00    +0.000 C 
ATOM     71  C47 UNL A   1      18.188  22.194  -1.922  1.00  0.00    +0.000 C 
ATOM     83  C54 UNL A   1      19.365  22.423  -2.557  1.00  0.00    +0.000 C 
ATOM     84  C55 UNL A   1      20.022  21.677  -3.603  1.00  0.00    +0.000 C 
ATOM     85  C56 UNL A   1      21.183  22.294  -3.899  1.00  0.00    +0.000 C 
ATOM     86  C57 UNL A   1      21.260  23.580  -3.194  1.00  0.00    +0.000 C 
ATOM     87  N8  UNL A   1      20.199  23.540  -2.319  1.00  0.00    +0.000 N 
ATOM     88  C58 UNL A   1      17.703  24.331  -0.690  1.00  0.00    +0.000 C 
ATOM     89  C59 UNL A   1      18.561  24.914   0.151  1.00  0.00    +0.000 C 
ATOM     90  C60 UNL A   1      21.550  28.107  -2.993  1.00  0.00    +0.000 C 
ATOM     91  C61 UNL A   1      21.465  27.038  -3.788  1.00  0.00    +0.000 C 
ATOM    121  H24 UNL A   1      23.893  27.522   1.168  1.00  0.00    +0.000 H 
ATOM    122  H25 UNL A   1      23.515  25.002   1.937  1.00  0.00    +0.000 H 
ATOM    123  H26 UNL A   1      19.934  26.817   1.471  1.00  0.00    +0.000 H 
ATOM    124  H27 UNL A   1      19.665  20.816  -4.049  1.00  0.00    +0.000 H 
ATOM    125  H28 UNL A   1      21.910  21.920  -4.530  1.00  0.00    +0.000 H 
ATOM    126  H29 UNL A   1      20.040  24.207  -1.614  1.00  0.00    +0.000 H 
ATOM    127  H30 UNL A   1      16.903  24.725  -1.209  1.00  0.00    +0.000 H 
ATOM    128  H31 UNL A   1      18.574  25.927   0.348  1.00  0.00    +0.000 H 
ENDROOT
BRANCH   35   34
ATOM     33  C22 UNL A   1      24.433  24.104  -4.201  1.00  0.00    +0.000 C 
ATOM     34  C23 UNL A   1      23.128  24.546  -4.462  1.00  0.00    +0.000 C 
ATOM    131  H34 UNL A   1      21.867  25.495  -5.859  1.00  0.00    +0.000 H 
ATOM    132  H35 UNL A   1      23.301  24.916  -7.726  1.00  0.00    +0.000 H 
ATOM    119  H22 UNL A   1      26.365  23.910  -5.036  1.00  0.00    +0.000 H 
ATOM    120  H23 UNL A   1      24.686  23.742  -3.267  1.00  0.00    +0.000 H 
ATOM     92  C62 UNL A   1      22.771  25.018  -5.715  1.00  0.00    +0.000 C 
ATOM     93  C63 UNL A   1      23.637  24.842  -6.752  1.00  0.00    +0.000 C 
ATOM     31  C20 UNL A   1      24.972  24.560  -6.495  1.00  0.00    +0.000 C 
ATOM     32  C21 UNL A   1      25.381  24.159  -5.219  1.00  0.00    +0.000 C 
BRANCH   31   29
ATOM     29  C19 UNL A   1      25.923  24.731  -7.606  1.00  0.00    +0.000 C 
ATOM     30  O6  UNL A   1      25.991  23.894  -8.498  1.00  0.00    +0.000 O 
BRANCH   29   28
ATOM     28  N4  UNL A   1      26.729  25.855  -7.627  1.00  0.00    +0.000 N 
ATOM    118  H21 UNL A   1      27.530  25.826  -7.057  1.00  0.00    +0.000 H 
BRANCH   28   27
ATOM     27  C18 UNL A   1      26.531  27.089  -8.399  1.00  0.00    +0.000 C 
ATOM    116  H19 UNL A   1      27.480  27.563  -8.542  1.00  0.00    +0.000 H 
ATOM    117  H20 UNL A   1      26.086  26.826  -9.335  1.00  0.00    +0.000 H 
BRANCH   27   26
ATOM     26  C17 UNL A   1      25.600  28.058  -7.690  1.00  0.00    +0.000 C 
ATOM    115  H18 UNL A   1      26.056  29.024  -7.739  1.00  0.00    +0.000 H 
ATOM    114  H17 UNL A   1      25.466  27.722  -6.682  1.00  0.00    +0.000 H 
BRANCH   26   25
ATOM     25  C16 UNL A   1      24.218  28.177  -8.350  1.00  0.00    +0.000 C 
ATOM    113  H16 UNL A   1      24.119  29.207  -8.621  1.00  0.00    +0.000 H 
ATOM    112  H15 UNL A   1      23.490  27.833  -7.645  1.00  0.00    +0.000 H 
BRANCH   25   24
ATOM    110  H13 UNL A   1      24.567  26.474  -9.576  1.00  0.00    +0.000 H 
ATOM    111  H14 UNL A   1      22.959  27.245  -9.752  1.00  0.00    +0.000 H 
ATOM     24  C15 UNL A   1      24.015  27.388  -9.654  1.00  0.00    +0.000 C 
BRANCH   24   23
ATOM    108  H11 UNL A   1      23.695  28.782 -11.235  1.00  0.00    +0.000 H 
ATOM    109  H12 UNL A   1      25.381  28.612 -10.710  1.00  0.00    +0.000 H 
ATOM     23  C14 UNL A   1      24.466  28.104 -10.934  1.00  0.00    +0.000 C 
BRANCH   23   22
ATOM    106  H9  UNL A   1      24.434  27.592 -13.011  1.00  0.00    +0.000 H 
ATOM    107  H10 UNL A   1      25.800  26.940 -12.130  1.00  0.00    +0.000 H 
ATOM     22  C13 UNL A   1      24.750  27.143 -12.092  1.00  0.00    +0.000 C 
BRANCH   22   21
ATOM    105  H8  UNL A   1      23.350  25.948 -11.184  1.00  0.00    +0.000 H 
ATOM     21  N3  UNL A   1      24.031  25.899 -11.892  1.00  0.00    +0.000 N 
BRANCH   21   19
ATOM     19  C12 UNL A   1      24.110  24.667 -12.492  1.00  0.00    +0.000 C 
ATOM     20  O5  UNL A   1      23.536  24.517 -13.570  1.00  0.00    +0.000 O 
BRANCH   19   18
ATOM    133  H36 UNL A   1      23.146  22.736 -10.752  1.00  0.00    +0.000 H 
ATOM    134  H37 UNL A   1      24.224  20.637 -10.201  1.00  0.00    +0.000 H 
ATOM    103  H6  UNL A   1      27.840  22.096 -11.766  1.00  0.00    +0.000 H 
ATOM    104  H7  UNL A   1      26.670  24.055 -12.603  1.00  0.00    +0.000 H 
ATOM     15  C8  UNL A   1      26.100  21.176 -11.001  1.00  0.00    +0.000 C 
ATOM     16  C9  UNL A   1      26.820  22.188 -11.634  1.00  0.00    +0.000 C 
ATOM     17  C10 UNL A   1      26.148  23.327 -12.089  1.00  0.00    +0.000 C 
ATOM     18  C11 UNL A   1      24.773  23.495 -11.856  1.00  0.00    +0.000 C 
ATOM     94  C64 UNL A   1      24.111  22.556 -11.066  1.00  0.00    +0.000 C 
ATOM     95  C65 UNL A   1      24.750  21.372 -10.699  1.00  0.00    +0.000 C 
BRANCH   15   14
ATOM    102  H5  UNL A   1      28.888  18.005  -9.538  1.00  0.00    +0.000 H 
ATOM      9  C5  UNL A   1      27.741  19.710  -9.837  1.00  0.00    +0.000 C 
ATOM     10  C6  UNL A   1      28.117  18.455 -10.055  1.00  0.00    +0.000 C 
ATOM     11  O3  UNL A   1      27.381  17.798 -11.040  1.00  0.00    +0.000 O 
ATOM     12  C7  UNL A   1      26.479  18.787 -11.434  1.00  0.00    +0.000 C 
ATOM     13  O4  UNL A   1      25.664  18.618 -12.331  1.00  0.00    +0.000 O 
ATOM     14  N2  UNL A   1      26.703  19.945 -10.694  1.00  0.00    +0.000 N 
BRANCH    9    8
ATOM     97  C67 UNL A   1      29.825  22.270  -8.004  1.00  0.00    +0.000 C 
ATOM    100  H3  UNL A   1      27.345  21.832  -5.779  1.00  0.00    +0.000 H 
ATOM      5  C1  UNL A   1      29.072  22.434  -6.836  1.00  0.00    +0.000 C 
ATOM      6  C2  UNL A   1      27.898  21.707  -6.641  1.00  0.00    +0.000 C 
ATOM      7  C3  UNL A   1      27.477  20.808  -7.624  1.00  0.00    +0.000 C 
ATOM    136  H39 UNL A   1      30.688  22.816  -8.144  1.00  0.00    +0.000 H 
ATOM    101  H4  UNL A   1      26.611  20.266  -7.481  1.00  0.00    +0.000 H 
ATOM    135  H38 UNL A   1      29.962  21.232  -9.838  1.00  0.00    +0.000 H 
ATOM      8  C4  UNL A   1      28.217  20.633  -8.809  1.00  0.00    +0.000 C 
ATOM     96  C66 UNL A   1      29.400  21.364  -8.982  1.00  0.00    +0.000 C 
BRANCH    5    2
ATOM      2  S1  UNL A   1      29.587  23.623  -5.631  1.00  0.00    +0.000 S 
ATOM      3  O1  UNL A   1      29.071  24.928  -5.999  1.00  0.00    +0.000 O 
ATOM      4  O2  UNL A   1      30.973  23.401  -5.322  1.00  0.00    +0.000 O 
BRANCH    2    1
ATOM      1  N1  UNL A   1      28.711  23.158  -4.277  1.00  0.00    +0.000 N 
ATOM     98  H1  UNL A   1      27.768  23.541  -4.334  1.00  0.00    +0.000 H 
ATOM     99  H2  UNL A   1      29.170  23.511  -3.437  1.00  0.00    +0.000 H 
ENDBRANCH    2    1
ENDBRANCH    5    2
ENDBRANCH    9    8
ENDBRANCH   15   14
ENDBRANCH   19   18
ENDBRANCH   21   19
ENDBRANCH   22   21
ENDBRANCH   23   22
ENDBRANCH   24   23
ENDBRANCH   25   24
ENDBRANCH   26   25
ENDBRANCH   27   26
ENDBRANCH   28   27
ENDBRANCH   29   28
ENDBRANCH   31   29
ENDBRANCH   35   34
BRANCH   39   40
ATOM     40  C28 UNL A   1      20.204  29.218  -0.301  1.00  0.00    +0.000 C 
ATOM     41  C29 UNL A   1      20.247  30.135   0.772  1.00  0.00    +0.000 C 
ATOM     42  F1  UNL A   1      21.389  30.352   1.442  1.00  0.00    +0.000 F 
ATOM     43  C30 UNL A   1      19.098  30.765   1.257  1.00  0.00    +0.000 C 
ATOM     44  F2  UNL A   1      19.167  31.502   2.373  1.00  0.00    +0.000 F 
ATOM     45  C31 UNL A   1      17.879  30.567   0.641  1.00  0.00    +0.000 C 
ATOM     46  F3  UNL A   1      16.763  31.107   1.147  1.00  0.00    +0.000 F 
ATOM     47  C32 UNL A   1      17.814  29.770  -0.480  1.00  0.00    +0.000 C 
ATOM     48  F4  UNL A   1      16.639  29.563  -1.092  1.00  0.00    +0.000 F 
ATOM     49  C33 UNL A   1      18.949  29.100  -0.936  1.00  0.00    +0.000 C 
ATOM     50  F5  UNL A   1      18.725  28.265  -1.955  1.00  0.00    +0.000 F 
ENDBRANCH   39   40
BRANCH   56   57
ATOM     65  F9  UNL A   1      22.352  21.193   4.847  1.00  0.00    +0.000 F 
ATOM     66  C44 UNL A   1      21.503  22.517   3.084  1.00  0.00    +0.000 C 
ATOM     67  F10 UNL A   1      20.820  23.242   3.983  1.00  0.00    +0.000 F 
ATOM     57  C39 UNL A   1      21.459  22.862   1.728  1.00  0.00    +0.000 C 
ATOM     58  C40 UNL A   1      22.239  22.100   0.840  1.00  0.00    +0.000 C 
ATOM     59  F6  UNL A   1      22.322  22.427  -0.456  1.00  0.00    +0.000 F 
ATOM     60  C41 UNL A   1      22.996  21.019   1.290  1.00  0.00    +0.000 C 
ATOM     61  F7  UNL A   1      23.725  20.301   0.422  1.00  0.00    +0.000 F 
ATOM     62  C42 UNL A   1      23.027  20.705   2.638  1.00  0.00    +0.000 C 
ATOM     63  F8  UNL A   1      23.788  19.693   3.079  1.00  0.00    +0.000 F 
ATOM     64  C43 UNL A   1      22.289  21.461   3.536  1.00  0.00    +0.000 C 
ENDBRANCH   56   57
BRANCH   71   72
ATOM     72  C48 UNL A   1      16.942  21.593  -2.451  1.00  0.00    +0.000 C 
ATOM     73  C49 UNL A   1      16.299  20.545  -1.775  1.00  0.00    +0.000 C 
ATOM     74  F11 UNL A   1      16.920  19.912  -0.767  1.00  0.00    +0.000 F 
ATOM     75  C50 UNL A   1      14.982  20.178  -2.071  1.00  0.00    +0.000 C 
ATOM     76  F12 UNL A   1      14.379  19.215  -1.359  1.00  0.00    +0.000 F 
ATOM     77  C51 UNL A   1      14.274  20.847  -3.057  1.00  0.00    +0.000 C 
ATOM     78  F13 UNL A   1      12.990  20.543  -3.294  1.00  0.00    +0.000 F 
ATOM     79  C52 UNL A   1      14.890  21.863  -3.763  1.00  0.00    +0.000 C 
ATOM     80  F14 UNL A   1      14.203  22.544  -4.691  1.00  0.00    +0.000 F 
ATOM     81  C53 UNL A   1      16.203  22.232  -3.465  1.00  0.00    +0.000 C 
ATOM     82  F15 UNL A   1      16.704  23.290  -4.119  1.00  0.00    +0.000 F 
ENDBRANCH   71   72
TORSDOF 19
ENDMDL
MODEL 4
REMARK VINA RESULT:      -9.1     34.692     41.167
ROOT
ATOM    129  H32 UNL A   1      23.938  34.947  44.301  1.00  0.00    +0.000 H 
ATOM    130  H33 UNL A   1      25.381  35.956  46.192  1.00  0.00    +0.000 H 
ATOM     35  C24 UNL A   1      23.956  37.982  47.651  1.00  0.00    +0.000 C 
ATOM     36  C25 UNL A   1      23.430  37.023  46.653  1.00  0.00    +0.000 C 
ATOM     37  N5  UNL A   1      22.238  36.982  46.159  1.00  0.00    +0.000 N 
ATOM     38  C26 UNL A   1      22.222  35.884  45.306  1.00  0.00    +0.000 C 
ATOM     39  C27 UNL A   1      21.070  35.182  45.111  1.00  0.00    +0.000 C 
ATOM     51  C34 UNL A   1      19.930  35.949  45.563  1.00  0.00    +0.000 C 
ATOM     52  C35 UNL A   1      19.389  37.178  45.236  1.00  0.00    +0.000 C 
ATOM     53  C36 UNL A   1      18.943  37.731  46.474  1.00  0.00    +0.000 C 
ATOM     54  C37 UNL A   1      19.165  36.782  47.474  1.00  0.00    +0.000 C 
ATOM     55  N6  UNL A   1      19.390  35.623  46.784  1.00  0.00    +0.000 N 
ATOM     56  C38 UNL A   1      19.250  36.880  48.912  1.00  0.00    +0.000 C 
ATOM     68  C45 UNL A   1      19.882  35.977  49.719  1.00  0.00    +0.000 C 
ATOM     69  N7  UNL A   1      20.324  36.342  50.982  1.00  0.00    +0.000 N 
ATOM     70  C46 UNL A   1      21.345  35.561  51.214  1.00  0.00    +0.000 C 
ATOM     71  C47 UNL A   1      22.594  36.029  51.867  1.00  0.00    +0.000 C 
ATOM     83  C54 UNL A   1      23.175  36.904  51.009  1.00  0.00    +0.000 C 
ATOM     84  C55 UNL A   1      24.176  37.917  51.244  1.00  0.00    +0.000 C 
ATOM     85  C56 UNL A   1      24.426  38.545  50.078  1.00  0.00    +0.000 C 
ATOM     86  C57 UNL A   1      23.739  37.853  48.980  1.00  0.00    +0.000 C 
ATOM     87  N8  UNL A   1      22.916  36.955  49.620  1.00  0.00    +0.000 N 
ATOM     88  C58 UNL A   1      21.423  34.368  50.387  1.00  0.00    +0.000 C 
ATOM     89  C59 UNL A   1      20.551  34.709  49.433  1.00  0.00    +0.000 C 
ATOM     90  C60 UNL A   1      23.600  35.545  45.073  1.00  0.00    +0.000 C 
ATOM     91  C61 UNL A   1      24.380  36.113  45.994  1.00  0.00    +0.000 C 
ATOM    121  H24 UNL A   1      19.321  37.604  44.298  1.00  0.00    +0.000 H 
ATOM    122  H25 UNL A   1      18.530  38.666  46.607  1.00  0.00    +0.000 H 
ATOM    123  H26 UNL A   1      19.198  34.712  47.105  1.00  0.00    +0.000 H 
ATOM    124  H27 UNL A   1      24.624  38.126  52.151  1.00  0.00    +0.000 H 
ATOM    125  H28 UNL A   1      25.014  39.387  49.972  1.00  0.00    +0.000 H 
ATOM    126  H29 UNL A   1      22.231  36.415  49.166  1.00  0.00    +0.000 H 
ATOM    127  H30 UNL A   1      21.986  33.512  50.502  1.00  0.00    +0.000 H 
ATOM    128  H31 UNL A   1      20.371  34.142  48.590  1.00  0.00    +0.000 H 
ENDROOT
BRANCH   35   34
ATOM     33  C22 UNL A   1      24.593  40.221  46.724  1.00  0.00    +0.000 C 
ATOM     34  C23 UNL A   1      24.932  38.917  47.116  1.00  0.00    +0.000 C 
ATOM    131  H34 UNL A   1      26.420  37.426  47.073  1.00  0.00    +0.000 H 
ATOM    132  H35 UNL A   1      28.195  39.040  46.726  1.00  0.00    +0.000 H 
ATOM    119  H22 UNL A   1      25.330  41.958  45.770  1.00  0.00    +0.000 H 
ATOM    120  H23 UNL A   1      23.637  40.580  46.869  1.00  0.00    +0.000 H 
ATOM     92  C62 UNL A   1      26.216  38.429  46.941  1.00  0.00    +0.000 C 
ATOM     93  C63 UNL A   1      27.205  39.299  46.589  1.00  0.00    +0.000 C 
ATOM     31  C20 UNL A   1      26.876  40.534  46.048  1.00  0.00    +0.000 C 
ATOM     32  C21 UNL A   1      25.568  41.023  46.134  1.00  0.00    +0.000 C 
BRANCH   31   29
ATOM     29  C19 UNL A   1      27.946  41.277  45.363  1.00  0.00    +0.000 C 
ATOM     30  O6  UNL A   1      28.211  41.042  44.190  1.00  0.00    +0.000 O 
BRANCH   29   28
ATOM     28  N4  UNL A   1      28.638  42.249  46.063  1.00  0.00    +0.000 N 
ATOM    118  H21 UNL A   1      29.566  42.031  46.307  1.00  0.00    +0.000 H 
BRANCH   28   27
ATOM     27  C18 UNL A   1      28.153  43.568  46.489  1.00  0.00    +0.000 C 
ATOM    116  H19 UNL A   1      28.716  44.323  45.981  1.00  0.00    +0.000 H 
ATOM    117  H20 UNL A   1      27.113  43.632  46.245  1.00  0.00    +0.000 H 
BRANCH   27   26
ATOM     26  C17 UNL A   1      28.299  43.769  47.987  1.00  0.00    +0.000 C 
ATOM    115  H18 UNL A   1      28.040  44.787  48.194  1.00  0.00    +0.000 H 
ATOM    114  H17 UNL A   1      29.308  43.542  48.262  1.00  0.00    +0.000 H 
BRANCH   26   25
ATOM     25  C16 UNL A   1      27.357  42.886  48.821  1.00  0.00    +0.000 C 
ATOM    113  H16 UNL A   1      26.663  42.470  48.122  1.00  0.00    +0.000 H 
ATOM    112  H15 UNL A   1      26.912  43.504  49.572  1.00  0.00    +0.000 H 
BRANCH   25   24
ATOM    110  H13 UNL A   1      28.497  41.091  48.786  1.00  0.00    +0.000 H 
ATOM    111  H14 UNL A   1      28.662  42.090  50.265  1.00  0.00    +0.000 H 
ATOM     24  C15 UNL A   1      28.001  41.682  49.528  1.00  0.00    +0.000 C 
BRANCH   24   23
ATOM    108  H11 UNL A   1      26.250  41.371  50.703  1.00  0.00    +0.000 H 
ATOM    109  H12 UNL A   1      26.655  40.050  49.591  1.00  0.00    +0.000 H 
ATOM     23  C14 UNL A   1      27.032  40.769  50.289  1.00  0.00    +0.000 C 
BRANCH   23   22
ATOM    106  H9  UNL A   1      28.492  40.585  51.842  1.00  0.00    +0.000 H 
ATOM    107  H10 UNL A   1      26.976  39.775  52.179  1.00  0.00    +0.000 H 
ATOM     22  C13 UNL A   1      27.703  39.992  51.425  1.00  0.00    +0.000 C 
BRANCH   22   21
ATOM    105  H8  UNL A   1      28.937  38.875  50.224  1.00  0.00    +0.000 H 
ATOM     21  N3  UNL A   1      28.252  38.748  50.919  1.00  0.00    +0.000 N 
BRANCH   21   19
ATOM     19  C12 UNL A   1      28.008  37.430  51.215  1.00  0.00    +0.000 C 
ATOM     20  O5  UNL A   1      27.912  37.117  52.400  1.00  0.00    +0.000 O 
BRANCH   19   18
ATOM    133  H36 UNL A   1      25.873  36.366  49.802  1.00  0.00    +0.000 H 
ATOM    134  H37 UNL A   1      26.016  34.984  47.815  1.00  0.00    +0.000 H 
ATOM    103  H6  UNL A   1      30.072  34.249  48.632  1.00  0.00    +0.000 H 
ATOM    104  H7  UNL A   1      29.993  35.890  50.422  1.00  0.00    +0.000 H 
ATOM     15  C8  UNL A   1      28.072  34.562  48.030  1.00  0.00    +0.000 C 
ATOM     16  C9  UNL A   1      29.201  34.771  48.819  1.00  0.00    +0.000 C 
ATOM     17  C10 UNL A   1      29.144  35.696  49.868  1.00  0.00    +0.000 C 
ATOM     18  C11 UNL A   1      27.947  36.363  50.177  1.00  0.00    +0.000 C 
ATOM     94  C64 UNL A   1      26.788  36.006  49.489  1.00  0.00    +0.000 C 
ATOM     95  C65 UNL A   1      26.860  35.165  48.380  1.00  0.00    +0.000 C 
BRANCH   15   14
ATOM    102  H5  UNL A   1      28.408  33.199  43.788  1.00  0.00    +0.000 H 
ATOM      9  C5  UNL A   1      28.547  34.171  45.618  1.00  0.00    +0.000 C 
ATOM     10  C6  UNL A   1      28.216  33.178  44.801  1.00  0.00    +0.000 C 
ATOM     11  O3  UNL A   1      27.586  32.103  45.428  1.00  0.00    +0.000 O 
ATOM     12  C7  UNL A   1      27.552  32.526  46.757  1.00  0.00    +0.000 C 
ATOM     13  O4  UNL A   1      27.029  31.866  47.646  1.00  0.00    +0.000 O 
ATOM     14  N2  UNL A   1      28.141  33.782  46.863  1.00  0.00    +0.000 N 
BRANCH    9    8
ATOM     97  C67 UNL A   1      31.390  36.639  45.336  1.00  0.00    +0.000 C 
ATOM    100  H3  UNL A   1      28.948  38.384  43.824  1.00  0.00    +0.000 H 
ATOM      5  C1  UNL A   1      30.758  37.693  44.667  1.00  0.00    +0.000 C 
ATOM      6  C2  UNL A   1      29.410  37.605  44.319  1.00  0.00    +0.000 C 
ATOM      7  C3  UNL A   1      28.692  36.452  44.646  1.00  0.00    +0.000 C 
ATOM    136  H39 UNL A   1      32.389  36.710  45.584  1.00  0.00    +0.000 H 
ATOM    101  H4  UNL A   1      27.693  36.386  44.394  1.00  0.00    +0.000 H 
ATOM    135  H38 UNL A   1      31.125  34.718  46.172  1.00  0.00    +0.000 H 
ATOM      8  C4  UNL A   1      29.311  35.379  45.313  1.00  0.00    +0.000 C 
ATOM     96  C66 UNL A   1      30.663  35.490  45.665  1.00  0.00    +0.000 C 
BRANCH    5    2
ATOM      2  S1  UNL A   1      31.700  39.118  44.205  1.00  0.00    +0.000 S 
ATOM      3  O1  UNL A   1      31.266  40.253  44.998  1.00  0.00    +0.000 O 
ATOM      4  O2  UNL A   1      31.793  39.168  42.772  1.00  0.00    +0.000 O 
BRANCH    2    1
ATOM      1  N1  UNL A   1      33.231  38.730  44.774  1.00  0.00    +0.000 N 
ATOM     98  H1  UNL A   1      33.711  38.148  44.088  1.00  0.00    +0.000 H 
ATOM     99  H2  UNL A   1      33.147  38.221  45.653  1.00  0.00    +0.000 H 
ENDBRANCH    2    1
ENDBRANCH    5    2
ENDBRANCH    9    8
ENDBRANCH   15   14
ENDBRANCH   19   18
ENDBRANCH   21   19
ENDBRANCH   22   21
ENDBRANCH   23   22
ENDBRANCH   24   23
ENDBRANCH   25   24
ENDBRANCH   26   25
ENDBRANCH   27   26
ENDBRANCH   28   27
ENDBRANCH   29   28
ENDBRANCH   31   29
ENDBRANCH   35   34
BRANCH   39   40
ATOM     40  C28 UNL A   1      20.995  33.676  44.943  1.00  0.00    +0.000 C 
ATOM     41  C29 UNL A   1      20.004  33.151  44.085  1.00  0.00    +0.000 C 
ATOM     42  F1  UNL A   1      19.367  33.944  43.208  1.00  0.00    +0.000 F 
ATOM     43  C30 UNL A   1      19.562  31.830  44.181  1.00  0.00    +0.000 C 
ATOM     44  F2  UNL A   1      18.514  31.426  43.452  1.00  0.00    +0.000 F 
ATOM     45  C31 UNL A   1      20.147  30.960  45.081  1.00  0.00    +0.000 C 
ATOM     46  F3  UNL A   1      19.676  29.716  45.231  1.00  0.00    +0.000 F 
ATOM     47  C32 UNL A   1      21.195  31.401  45.857  1.00  0.00    +0.000 C 
ATOM     48  F4  UNL A   1      21.775  30.574  46.739  1.00  0.00    +0.000 F 
ATOM     49  C33 UNL A   1      21.604  32.733  45.799  1.00  0.00    +0.000 C 
ATOM     50  F5  UNL A   1      22.546  33.061  46.689  1.00  0.00    +0.000 F 
ENDBRANCH   39   40
BRANCH   56   57
ATOM     65  F9  UNL A   1      15.669  39.551  50.796  1.00  0.00    +0.000 F 
ATOM     66  C44 UNL A   1      17.479  38.274  49.976  1.00  0.00    +0.000 C 
ATOM     67  F10 UNL A   1      16.674  37.201  49.925  1.00  0.00    +0.000 F 
ATOM     57  C39 UNL A   1      18.803  38.177  49.528  1.00  0.00    +0.000 C 
ATOM     58  C40 UNL A   1      19.581  39.347  49.554  1.00  0.00    +0.000 C 
ATOM     59  F6  UNL A   1      20.824  39.356  49.056  1.00  0.00    +0.000 F 
ATOM     60  C41 UNL A   1      19.066  40.548  50.042  1.00  0.00    +0.000 C 
ATOM     61  F7  UNL A   1      19.833  41.648  50.066  1.00  0.00    +0.000 F 
ATOM     62  C42 UNL A   1      17.751  40.615  50.471  1.00  0.00    +0.000 C 
ATOM     63  F8  UNL A   1      17.240  41.778  50.901  1.00  0.00    +0.000 F 
ATOM     64  C43 UNL A   1      16.955  39.481  50.428  1.00  0.00    +0.000 C 
ENDBRANCH   56   57
BRANCH   71   72
ATOM     72  C48 UNL A   1      23.172  35.361  53.056  1.00  0.00    +0.000 C 
ATOM     73  C49 UNL A   1      24.430  34.741  52.998  1.00  0.00    +0.000 C 
ATOM     74  F11 UNL A   1      25.028  34.538  51.814  1.00  0.00    +0.000 F 
ATOM     75  C50 UNL A   1      25.129  34.388  54.157  1.00  0.00    +0.000 C 
ATOM     76  F12 UNL A   1      26.357  33.858  54.064  1.00  0.00    +0.000 F 
ATOM     77  C51 UNL A   1      24.585  34.640  55.407  1.00  0.00    +0.000 C 
ATOM     78  F13 UNL A   1      25.283  34.365  56.518  1.00  0.00    +0.000 F 
ATOM     79  C52 UNL A   1      23.334  35.220  55.498  1.00  0.00    +0.000 C 
ATOM     80  F14 UNL A   1      22.814  35.505  56.700  1.00  0.00    +0.000 F 
ATOM     81  C53 UNL A   1      22.638  35.576  54.341  1.00  0.00    +0.000 C 
ATOM     82  F15 UNL A   1      21.475  36.225  54.502  1.00  0.00    +0.000 F 
ENDBRANCH   71   72
TORSDOF 19
ENDMDL
MODEL 5
REMARK VINA RESULT:      -9.1     38.589     46.424
ROOT
ATOM    129  H32 UNL A   1      42.860   9.375  53.274  1.00  0.00    +0.000 H 
ATOM    130  H33 UNL A   1      41.511  10.902  51.686  1.00  0.00    +0.000 H 
ATOM     35  C24 UNL A   1      43.083  13.123  50.757  1.00  0.00    +0.000 C 
ATOM     36  C25 UNL A   1      43.532  11.919  51.493  1.00  0.00    +0.000 C 
ATOM     37  N5  UNL A   1      44.712  11.683  51.961  1.00  0.00    +0.000 N 
ATOM     38  C26 UNL A   1      44.646  10.413  52.523  1.00  0.00    +0.000 C 
ATOM     39  C27 UNL A   1      45.748   9.611  52.540  1.00  0.00    +0.000 C 
ATOM     51  C34 UNL A   1      46.941  10.388  52.286  1.00  0.00    +0.000 C 
ATOM     52  C35 UNL A   1      47.555  11.463  52.899  1.00  0.00    +0.000 C 
ATOM     53  C36 UNL A   1      48.053  12.268  51.831  1.00  0.00    +0.000 C 
ATOM     54  C37 UNL A   1      47.785  11.606  50.631  1.00  0.00    +0.000 C 
ATOM     55  N6  UNL A   1      47.476  10.331  51.021  1.00  0.00    +0.000 N 
ATOM     56  C38 UNL A   1      47.727  12.053  49.260  1.00  0.00    +0.000 C 
ATOM     68  C45 UNL A   1      47.050  11.414  48.260  1.00  0.00    +0.000 C 
ATOM     69  N7  UNL A   1      46.650  12.102  47.123  1.00  0.00    +0.000 N 
ATOM     70  C46 UNL A   1      45.585  11.468  46.711  1.00  0.00    +0.000 C 
ATOM     71  C47 UNL A   1      44.378  12.160  46.192  1.00  0.00    +0.000 C 
ATOM     83  C54 UNL A   1      43.841  12.839  47.238  1.00  0.00    +0.000 C 
ATOM     84  C55 UNL A   1      42.911  13.942  47.256  1.00  0.00    +0.000 C 
ATOM     85  C56 UNL A   1      42.685  14.285  48.539  1.00  0.00    +0.000 C 
ATOM     86  C57 UNL A   1      43.310  13.305  49.436  1.00  0.00    +0.000 C 
ATOM     87  N8  UNL A   1      44.083  12.536  48.597  1.00  0.00    +0.000 N 
ATOM     88  C58 UNL A   1      45.419  10.119  47.226  1.00  0.00    +0.000 C 
ATOM     89  C59 UNL A   1      46.297  10.162  48.231  1.00  0.00    +0.000 C 
ATOM     90  C60 UNL A   1      43.246  10.118  52.670  1.00  0.00    +0.000 C 
ATOM     91  C61 UNL A   1      42.517  10.942  51.914  1.00  0.00    +0.000 C 
ATOM    121  H24 UNL A   1      47.636  11.645  53.912  1.00  0.00    +0.000 H 
ATOM    122  H25 UNL A   1      48.527  13.179  51.928  1.00  0.00    +0.000 H 
ATOM    123  H26 UNL A   1      47.614   9.514  50.489  1.00  0.00    +0.000 H 
ATOM    124  H27 UNL A   1      42.490  14.392  46.427  1.00  0.00    +0.000 H 
ATOM    125  H28 UNL A   1      42.150  15.113  48.846  1.00  0.00    +0.000 H 
ATOM    126  H29 UNL A   1      44.726  11.859  48.906  1.00  0.00    +0.000 H 
ATOM    127  H30 UNL A   1      44.804   9.354  46.907  1.00  0.00    +0.000 H 
ATOM    128  H31 UNL A   1      46.429   9.397  48.912  1.00  0.00    +0.000 H 
ENDROOT
BRANCH   35   34
ATOM     33  C22 UNL A   1      40.769  13.828  51.411  1.00  0.00    +0.000 C 
ATOM     34  C23 UNL A   1      42.161  13.964  51.505  1.00  0.00    +0.000 C 
ATOM    131  H34 UNL A   1      43.742  15.169  52.205  1.00  0.00    +0.000 H 
ATOM    132  H35 UNL A   1      42.349  16.231  53.880  1.00  0.00    +0.000 H 
ATOM    119  H22 UNL A   1      38.929  14.703  51.979  1.00  0.00    +0.000 H 
ATOM    120  H23 UNL A   1      40.353  13.068  50.848  1.00  0.00    +0.000 H 
ATOM     92  C62 UNL A   1      42.732  14.969  52.269  1.00  0.00    +0.000 C 
ATOM     93  C63 UNL A   1      41.932  15.687  53.107  1.00  0.00    +0.000 C 
ATOM     31  C20 UNL A   1      40.557  15.684  52.918  1.00  0.00    +0.000 C 
ATOM     32  C21 UNL A   1      39.955  14.733  52.088  1.00  0.00    +0.000 C 
BRANCH   31   29
ATOM     29  C19 UNL A   1      39.780  16.732  53.601  1.00  0.00    +0.000 C 
ATOM     30  O6  UNL A   1      39.560  16.656  54.804  1.00  0.00    +0.000 O 
BRANCH   29   28
ATOM     28  N4  UNL A   1      39.314  17.805  52.862  1.00  0.00    +0.000 N 
ATOM    118  H21 UNL A   1      38.402  18.111  53.070  1.00  0.00    +0.000 H 
BRANCH   28   27
ATOM     27  C18 UNL A   1      40.016  18.542  51.804  1.00  0.00    +0.000 C 
ATOM    116  H19 UNL A   1      39.771  19.580  51.885  1.00  0.00    +0.000 H 
ATOM    117  H20 UNL A   1      41.066  18.383  51.932  1.00  0.00    +0.000 H 
BRANCH   27   26
ATOM     26  C17 UNL A   1      39.629  18.052  50.420  1.00  0.00    +0.000 C 
ATOM    115  H18 UNL A   1      39.323  18.909  49.857  1.00  0.00    +0.000 H 
ATOM    114  H17 UNL A   1      38.844  17.331  50.523  1.00  0.00    +0.000 H 
BRANCH   26   25
ATOM     25  C16 UNL A   1      40.789  17.400  49.651  1.00  0.00    +0.000 C 
ATOM    113  H16 UNL A   1      40.711  17.769  48.650  1.00  0.00    +0.000 H 
ATOM    112  H15 UNL A   1      40.683  16.339  49.741  1.00  0.00    +0.000 H 
BRANCH   25   24
ATOM    110  H13 UNL A   1      42.159  18.726  50.594  1.00  0.00    +0.000 H 
ATOM    111  H14 UNL A   1      42.520  16.979  50.768  1.00  0.00    +0.000 H 
ATOM     24  C15 UNL A   1      42.208  17.769  50.117  1.00  0.00    +0.000 C 
BRANCH   24   23
ATOM    108  H11 UNL A   1      44.040  17.141  49.226  1.00  0.00    +0.000 H 
ATOM    109  H12 UNL A   1      42.774  17.629  48.083  1.00  0.00    +0.000 H 
ATOM     23  C14 UNL A   1      43.265  17.846  49.009  1.00  0.00    +0.000 C 
BRANCH   23   22
ATOM    106  H9  UNL A   1      43.139  19.944  48.606  1.00  0.00    +0.000 H 
ATOM    107  H10 UNL A   1      44.335  19.513  49.810  1.00  0.00    +0.000 H 
ATOM     22  C13 UNL A   1      43.896  19.236  48.875  1.00  0.00    +0.000 C 
BRANCH   22   21
ATOM    105  H8  UNL A   1      45.676  18.618  48.060  1.00  0.00    +0.000 H 
ATOM     21  N3  UNL A   1      44.924  19.218  47.851  1.00  0.00    +0.000 N 
BRANCH   21   19
ATOM     19  C12 UNL A   1      45.059  19.869  46.651  1.00  0.00    +0.000 C 
ATOM     20  O5  UNL A   1      45.098  21.099  46.668  1.00  0.00    +0.000 O 
BRANCH   19   18
ATOM    133  H36 UNL A   1      46.051  17.389  45.911  1.00  0.00    +0.000 H 
ATOM    134  H37 UNL A   1      45.550  16.198  43.860  1.00  0.00    +0.000 H 
ATOM    103  H6  UNL A   1      44.078  19.753  42.171  1.00  0.00    +0.000 H 
ATOM    104  H7  UNL A   1      44.281  20.846  44.331  1.00  0.00    +0.000 H 
ATOM     15  C8  UNL A   1      44.712  17.866  42.877  1.00  0.00    +0.000 C 
ATOM     16  C9  UNL A   1      44.408  19.222  42.992  1.00  0.00    +0.000 C 
ATOM     17  C10 UNL A   1      44.554  19.856  44.231  1.00  0.00    +0.000 C 
ATOM     18  C11 UNL A   1      45.067  19.162  45.340  1.00  0.00    +0.000 C 
ATOM     94  C64 UNL A   1      45.531  17.860  45.156  1.00  0.00    +0.000 C 
ATOM     95  C65 UNL A   1      45.294  17.193  43.955  1.00  0.00    +0.000 C 
BRANCH   15   14
ATOM    102  H5  UNL A   1      44.539  16.427  38.651  1.00  0.00    +0.000 H 
ATOM      9  C5  UNL A   1      45.067  17.192  40.508  1.00  0.00    +0.000 C 
ATOM     10  C6  UNL A   1      44.287  16.555  39.643  1.00  0.00    +0.000 C 
ATOM     11  O3  UNL A   1      43.098  16.073  40.188  1.00  0.00    +0.000 O 
ATOM     12  C7  UNL A   1      43.206  16.479  41.519  1.00  0.00    +0.000 C 
ATOM     13  O4  UNL A   1      42.325  16.280  42.344  1.00  0.00    +0.000 O 
ATOM     14  N2  UNL A   1      44.409  17.156  41.704  1.00  0.00    +0.000 N 
BRANCH    9    8
ATOM     97  C67 UNL A   1      48.779  17.783  40.867  1.00  0.00    +0.000 C 
ATOM    100  H3  UNL A   1      48.113  19.806  38.267  1.00  0.00    +0.000 H 
ATOM      5  C1  UNL A   1      49.001  18.700  39.833  1.00  0.00    +0.000 C 
ATOM      6  C2  UNL A   1      47.945  19.131  39.030  1.00  0.00    +0.000 C 
ATOM      7  C3  UNL A   1      46.659  18.641  39.267  1.00  0.00    +0.000 C 
ATOM    136  H39 UNL A   1      49.566  17.464  41.452  1.00  0.00    +0.000 H 
ATOM    101  H4  UNL A   1      45.875  18.962  38.677  1.00  0.00    +0.000 H 
ATOM    135  H38 UNL A   1      47.320  16.636  41.874  1.00  0.00    +0.000 H 
ATOM      8  C4  UNL A   1      46.416  17.715  40.298  1.00  0.00    +0.000 C 
ATOM     96  C66 UNL A   1      47.487  17.301  41.102  1.00  0.00    +0.000 C 
BRANCH    5    2
ATOM      2  S1  UNL A   1      50.647  19.260  39.507  1.00  0.00    +0.000 S 
ATOM      3  O1  UNL A   1      51.592  18.317  40.074  1.00  0.00    +0.000 O 
ATOM      4  O2  UNL A   1      50.716  20.672  39.765  1.00  0.00    +0.000 O 
BRANCH    2    1
ATOM      1  N1  UNL A   1      50.764  19.069  37.844  1.00  0.00    +0.000 N 
ATOM     98  H1  UNL A   1      50.316  19.858  37.378  1.00  0.00    +0.000 H 
ATOM     99  H2  UNL A   1      50.300  18.204  37.568  1.00  0.00    +0.000 H 
ENDBRANCH    2    1
ENDBRANCH    5    2
ENDBRANCH    9    8
ENDBRANCH   15   14
ENDBRANCH   19   18
ENDBRANCH   21   19
ENDBRANCH   22   21
ENDBRANCH   23   22
ENDBRANCH   24   23
ENDBRANCH   25   24
ENDBRANCH   26   25
ENDBRANCH   27   26
ENDBRANCH   28   27
ENDBRANCH   29   28
ENDBRANCH   31   29
ENDBRANCH   35   34
BRANCH   39   40
ATOM     40  C28 UNL A   1      45.724   8.107  52.340  1.00  0.00    +0.000 C 
ATOM     41  C29 UNL A   1      46.430   7.302  53.261  1.00  0.00    +0.000 C 
ATOM     42  F1  UNL A   1      46.833   7.802  54.439  1.00  0.00    +0.000 F 
ATOM     43  C30 UNL A   1      46.836   6.002  52.952  1.00  0.00    +0.000 C 
ATOM     44  F2  UNL A   1      47.636   5.338  53.797  1.00  0.00    +0.000 F 
ATOM     45  C31 UNL A   1      46.487   5.428  51.745  1.00  0.00    +0.000 C 
ATOM     46  F3  UNL A   1      46.938   4.212  51.412  1.00  0.00    +0.000 F 
ATOM     47  C32 UNL A   1      45.702   6.138  50.866  1.00  0.00    +0.000 C 
ATOM     48  F4  UNL A   1      45.354   5.600  49.688  1.00  0.00    +0.000 F 
ATOM     49  C33 UNL A   1      45.337   7.454  51.149  1.00  0.00    +0.000 C 
ATOM     50  F5  UNL A   1      44.681   8.071  50.162  1.00  0.00    +0.000 F 
ENDBRANCH   39   40
BRANCH   56   57
ATOM     65  F9  UNL A   1      46.921  16.820  48.892  1.00  0.00    +0.000 F 
ATOM     66  C44 UNL A   1      47.406  14.521  49.144  1.00  0.00    +0.000 C 
ATOM     67  F10 UNL A   1      46.169  14.333  49.629  1.00  0.00    +0.000 F 
ATOM     57  C39 UNL A   1      48.265  13.428  48.975  1.00  0.00    +0.000 C 
ATOM     58  C40 UNL A   1      49.528  13.679  48.410  1.00  0.00    +0.000 C 
ATOM     59  F6  UNL A   1      50.367  12.674  48.130  1.00  0.00    +0.000 F 
ATOM     60  C41 UNL A   1      49.923  14.972  48.069  1.00  0.00    +0.000 C 
ATOM     61  F7  UNL A   1      51.137  15.187  47.541  1.00  0.00    +0.000 F 
ATOM     62  C42 UNL A   1      49.049  16.033  48.241  1.00  0.00    +0.000 C 
ATOM     63  F8  UNL A   1      49.410  17.271  47.874  1.00  0.00    +0.000 F 
ATOM     64  C43 UNL A   1      47.788  15.806  48.768  1.00  0.00    +0.000 C 
ENDBRANCH   56   57
BRANCH   71   72
ATOM     72  C48 UNL A   1      43.775  11.839  44.878  1.00  0.00    +0.000 C 
ATOM     73  C49 UNL A   1      43.159  10.599  44.647  1.00  0.00    +0.000 C 
ATOM     74  F11 UNL A   1      43.307   9.598  45.529  1.00  0.00    +0.000 F 
ATOM     75  C50 UNL A   1      42.320  10.388  43.548  1.00  0.00    +0.000 C 
ATOM     76  F12 UNL A   1      41.697   9.211  43.397  1.00  0.00    +0.000 F 
ATOM     77  C51 UNL A   1      42.079  11.412  42.645  1.00  0.00    +0.000 C 
ATOM     78  F13 UNL A   1      41.222  11.233  41.630  1.00  0.00    +0.000 F 
ATOM     79  C52 UNL A   1      42.696  12.635  42.826  1.00  0.00    +0.000 C 
ATOM     80  F14 UNL A   1      42.440  13.645  41.983  1.00  0.00    +0.000 F 
ATOM     81  C53 UNL A   1      43.531  12.847  43.926  1.00  0.00    +0.000 C 
ATOM     82  F15 UNL A   1      44.016  14.085  44.095  1.00  0.00    +0.000 F 
ENDBRANCH   71   72
TORSDOF 19
ENDMDL
MODEL 6
REMARK VINA RESULT:      -9.1     37.873     43.590
ROOT
ATOM    129  H32 UNL A   1      20.186  15.192   2.612  1.00  0.00    +0.000 H 
ATOM    130  H33 UNL A   1      21.498  17.417   2.557  1.00  0.00    +0.000 H 
ATOM     35  C24 UNL A   1      21.798  18.538   5.188  1.00  0.00    +0.000 C 
ATOM     36  C25 UNL A   1      21.312  17.192   4.810  1.00  0.00    +0.000 C 
ATOM     37  N5  UNL A   1      20.821  16.290   5.591  1.00  0.00    +0.000 N 
ATOM     38  C26 UNL A   1      20.556  15.193   4.778  1.00  0.00    +0.000 C 
ATOM     39  C27 UNL A   1      20.632  13.929   5.284  1.00  0.00    +0.000 C 
ATOM     51  C34 UNL A   1      20.621  13.963   6.730  1.00  0.00    +0.000 C 
ATOM     52  C35 UNL A   1      19.743  14.432   7.688  1.00  0.00    +0.000 C 
ATOM     53  C36 UNL A   1      20.570  14.983   8.714  1.00  0.00    +0.000 C 
ATOM     54  C37 UNL A   1      21.901  14.753   8.364  1.00  0.00    +0.000 C 
ATOM     55  N6  UNL A   1      21.824  13.808   7.377  1.00  0.00    +0.000 N 
ATOM     56  C38 UNL A   1      23.142  15.353   8.793  1.00  0.00    +0.000 C 
ATOM     68  C45 UNL A   1      24.305  15.336   8.077  1.00  0.00    +0.000 C 
ATOM     69  N7  UNL A   1      25.291  16.285   8.302  1.00  0.00    +0.000 N 
ATOM     70  C46 UNL A   1      25.910  16.398   7.158  1.00  0.00    +0.000 C 
ATOM     71  C47 UNL A   1      26.354  17.700   6.598  1.00  0.00    +0.000 C 
ATOM     83  C54 UNL A   1      25.228  18.401   6.310  1.00  0.00    +0.000 C 
ATOM     84  C55 UNL A   1      25.039  19.816   6.098  1.00  0.00    +0.000 C 
ATOM     85  C56 UNL A   1      23.732  20.037   5.854  1.00  0.00    +0.000 C 
ATOM     86  C57 UNL A   1      23.027  18.757   5.710  1.00  0.00    +0.000 C 
ATOM     87  N8  UNL A   1      23.954  17.823   6.112  1.00  0.00    +0.000 N 
ATOM     88  C58 UNL A   1      25.717  15.296   6.230  1.00  0.00    +0.000 C 
ATOM     89  C59 UNL A   1      24.663  14.710   6.805  1.00  0.00    +0.000 C 
ATOM     90  C60 UNL A   1      20.583  15.686   3.428  1.00  0.00    +0.000 C 
ATOM     91  C61 UNL A   1      21.192  16.872   3.379  1.00  0.00    +0.000 C 
ATOM    121  H24 UNL A   1      18.712  14.392   7.667  1.00  0.00    +0.000 H 
ATOM    122  H25 UNL A   1      20.241  15.467   9.563  1.00  0.00    +0.000 H 
ATOM    123  H26 UNL A   1      22.510  13.134   7.166  1.00  0.00    +0.000 H 
ATOM    124  H27 UNL A   1      25.778  20.537   6.127  1.00  0.00    +0.000 H 
ATOM    125  H28 UNL A   1      23.292  20.968   5.779  1.00  0.00    +0.000 H 
ATOM    126  H29 UNL A   1      23.753  16.869   6.245  1.00  0.00    +0.000 H 
ATOM    127  H30 UNL A   1      26.240  15.042   5.377  1.00  0.00    +0.000 H 
ATOM    128  H31 UNL A   1      24.159  13.908   6.398  1.00  0.00    +0.000 H 
ENDROOT
BRANCH   35   34
ATOM     33  C22 UNL A   1      19.653  19.835   5.191  1.00  0.00    +0.000 C 
ATOM     34  C23 UNL A   1      20.956  19.626   4.715  1.00  0.00    +0.000 C 
ATOM    131  H34 UNL A   1      22.370  20.155   3.245  1.00  0.00    +0.000 H 
ATOM    132  H35 UNL A   1      21.291  22.280   2.802  1.00  0.00    +0.000 H 
ATOM    119  H22 UNL A   1      17.895  20.972   4.898  1.00  0.00    +0.000 H 
ATOM    120  H23 UNL A   1      19.273  19.251   5.952  1.00  0.00    +0.000 H 
ATOM     92  C62 UNL A   1      21.483  20.414   3.705  1.00  0.00    +0.000 C 
ATOM     93  C63 UNL A   1      20.807  21.536   3.330  1.00  0.00    +0.000 C 
ATOM     31  C20 UNL A   1      19.466  21.676   3.661  1.00  0.00    +0.000 C 
ATOM     32  C21 UNL A   1      18.880  20.843   4.619  1.00  0.00    +0.000 C 
BRANCH   31   29
ATOM     29  C19 UNL A   1      18.698  22.707   2.944  1.00  0.00    +0.000 C 
ATOM     30  O6  UNL A   1      19.262  23.699   2.497  1.00  0.00    +0.000 O 
BRANCH   29   28
ATOM     28  N4  UNL A   1      17.337  22.531   2.778  1.00  0.00    +0.000 N 
ATOM    118  H21 UNL A   1      16.782  23.339   2.857  1.00  0.00    +0.000 H 
BRANCH   28   27
ATOM     27  C18 UNL A   1      16.619  21.281   2.499  1.00  0.00    +0.000 C 
ATOM    116  H19 UNL A   1      17.001  20.513   3.140  1.00  0.00    +0.000 H 
ATOM    117  H20 UNL A   1      15.578  21.450   2.678  1.00  0.00    +0.000 H 
BRANCH   27   26
ATOM     26  C17 UNL A   1      16.785  20.842   1.054  1.00  0.00    +0.000 C 
ATOM    115  H18 UNL A   1      17.074  21.707   0.495  1.00  0.00    +0.000 H 
ATOM    114  H17 UNL A   1      15.857  20.430   0.717  1.00  0.00    +0.000 H 
BRANCH   26   25
ATOM     25  C16 UNL A   1      17.885  19.788   0.854  1.00  0.00    +0.000 C 
ATOM    113  H16 UNL A   1      18.809  20.323   0.927  1.00  0.00    +0.000 H 
ATOM    112  H15 UNL A   1      17.719  19.321  -0.094  1.00  0.00    +0.000 H 
BRANCH   25   24
ATOM    110  H13 UNL A   1      18.831  18.084   1.705  1.00  0.00    +0.000 H 
ATOM    111  H14 UNL A   1      18.008  19.177   2.861  1.00  0.00    +0.000 H 
ATOM     24  C15 UNL A   1      17.967  18.678   1.915  1.00  0.00    +0.000 C 
BRANCH   24   23
ATOM    108  H11 UNL A   1      16.123  18.059   2.787  1.00  0.00    +0.000 H 
ATOM    109  H12 UNL A   1      16.256  17.795   1.038  1.00  0.00    +0.000 H 
ATOM     23  C14 UNL A   1      16.754  17.742   1.983  1.00  0.00    +0.000 C 
BRANCH   23   22
ATOM    106  H9  UNL A   1      16.532  15.650   1.593  1.00  0.00    +0.000 H 
ATOM    107  H10 UNL A   1      18.170  16.142   1.970  1.00  0.00    +0.000 H 
ATOM     22  C13 UNL A   1      17.138  16.277   2.215  1.00  0.00    +0.000 C 
BRANCH   22   21
ATOM    105  H8  UNL A   1      17.711  15.502   4.027  1.00  0.00    +0.000 H 
ATOM     21  N3  UNL A   1      16.927  15.923   3.606  1.00  0.00    +0.000 N 
BRANCH   21   19
ATOM     19  C12 UNL A   1      15.854  16.055   4.452  1.00  0.00    +0.000 C 
ATOM     20  O5  UNL A   1      14.931  15.251   4.335  1.00  0.00    +0.000 O 
BRANCH   19   18
ATOM    133  H36 UNL A   1      17.646  17.105   6.287  1.00  0.00    +0.000 H 
ATOM    134  H37 UNL A   1      17.432  19.223   7.448  1.00  0.00    +0.000 H 
ATOM    103  H6  UNL A   1      13.357  19.355   6.432  1.00  0.00    +0.000 H 
ATOM    104  H7  UNL A   1      13.665  17.413   5.005  1.00  0.00    +0.000 H 
ATOM     15  C8  UNL A   1      15.394  19.489   6.974  1.00  0.00    +0.000 C 
ATOM     16  C9  UNL A   1      14.293  18.933   6.325  1.00  0.00    +0.000 C 
ATOM     17  C10 UNL A   1      14.468  17.797   5.527  1.00  0.00    +0.000 C 
ATOM     18  C11 UNL A   1      15.723  17.172   5.428  1.00  0.00    +0.000 C 
ATOM     94  C64 UNL A   1      16.766  17.640   6.226  1.00  0.00    +0.000 C 
ATOM     95  C65 UNL A   1      16.625  18.828   6.941  1.00  0.00    +0.000 C 
BRANCH   15   14
ATOM    102  H5  UNL A   1      14.341  22.763   9.828  1.00  0.00    +0.000 H 
ATOM      9  C5  UNL A   1      14.806  20.971   8.886  1.00  0.00    +0.000 C 
ATOM     10  C6  UNL A   1      14.688  22.291   8.978  1.00  0.00    +0.000 C 
ATOM     11  O3  UNL A   1      15.073  22.984   7.832  1.00  0.00    +0.000 O 
ATOM     12  C7  UNL A   1      15.456  21.946   6.983  1.00  0.00    +0.000 C 
ATOM     13  O4  UNL A   1      15.831  22.137   5.833  1.00  0.00    +0.000 O 
ATOM     14  N2  UNL A   1      15.294  20.726   7.634  1.00  0.00    +0.000 N 
BRANCH    9    8
ATOM     97  C67 UNL A   1      13.140  18.519  11.223  1.00  0.00    +0.000 C 
ATOM    100  H3  UNL A   1      16.353  18.074  12.101  1.00  0.00    +0.000 H 
ATOM      5  C1  UNL A   1      14.251  18.003  11.899  1.00  0.00    +0.000 C 
ATOM      6  C2  UNL A   1      15.536  18.458  11.602  1.00  0.00    +0.000 C 
ATOM      7  C3  UNL A   1      15.705  19.440  10.622  1.00  0.00    +0.000 C 
ATOM    136  H39 UNL A   1      12.194  18.172  11.445  1.00  0.00    +0.000 H 
ATOM    101  H4  UNL A   1      16.654  19.782  10.404  1.00  0.00    +0.000 H 
ATOM    135  H38 UNL A   1      12.496  19.898   9.760  1.00  0.00    +0.000 H 
ATOM      8  C4  UNL A   1      14.601  19.967   9.928  1.00  0.00    +0.000 C 
ATOM     96  C66 UNL A   1      13.317  19.505  10.248  1.00  0.00    +0.000 C 
BRANCH    5    2
ATOM      2  S1  UNL A   1      14.023  16.715  13.091  1.00  0.00    +0.000 S 
ATOM      3  O1  UNL A   1      12.792  16.955  13.820  1.00  0.00    +0.000 O 
ATOM      4  O2  UNL A   1      15.275  16.466  13.750  1.00  0.00    +0.000 O 
BRANCH    2    1
ATOM      1  N1  UNL A   1      13.717  15.382  12.118  1.00  0.00    +0.000 N 
ATOM     98  H1  UNL A   1      12.738  15.110  12.212  1.00  0.00    +0.000 H 
ATOM     99  H2  UNL A   1      14.314  14.607  12.405  1.00  0.00    +0.000 H 
ENDBRANCH    2    1
ENDBRANCH    5    2
ENDBRANCH    9    8
ENDBRANCH   15   14
ENDBRANCH   19   18
ENDBRANCH   21   19
ENDBRANCH   22   21
ENDBRANCH   23   22
ENDBRANCH   24   23
ENDBRANCH   25   24
ENDBRANCH   26   25
ENDBRANCH   27   26
ENDBRANCH   28   27
ENDBRANCH   29   28
ENDBRANCH   31   29
ENDBRANCH   35   34
BRANCH   39   40
ATOM     40  C28 UNL A   1      21.158  12.726   4.524  1.00  0.00    +0.000 C 
ATOM     41  C29 UNL A   1      20.405  11.532   4.564  1.00  0.00    +0.000 C 
ATOM     42  F1  UNL A   1      19.128  11.542   4.979  1.00  0.00    +0.000 F 
ATOM     43  C30 UNL A   1      20.972  10.286   4.289  1.00  0.00    +0.000 C 
ATOM     44  F2  UNL A   1      20.257   9.171   4.493  1.00  0.00    +0.000 F 
ATOM     45  C31 UNL A   1      22.290  10.190   3.886  1.00  0.00    +0.000 C 
ATOM     46  F3  UNL A   1      22.860   8.994   3.696  1.00  0.00    +0.000 F 
ATOM     47  C32 UNL A   1      23.027  11.341   3.723  1.00  0.00    +0.000 C 
ATOM     48  F4  UNL A   1      24.309  11.271   3.336  1.00  0.00    +0.000 F 
ATOM     49  C33 UNL A   1      22.479  12.582   4.046  1.00  0.00    +0.000 C 
ATOM     50  F5  UNL A   1      23.337  13.604   3.961  1.00  0.00    +0.000 F 
ENDBRANCH   39   40
BRANCH   56   57
ATOM     65  F9  UNL A   1      23.576  15.840  13.597  1.00  0.00    +0.000 F 
ATOM     66  C44 UNL A   1      23.439  15.697  11.243  1.00  0.00    +0.000 C 
ATOM     67  F10 UNL A   1      23.906  14.440  11.312  1.00  0.00    +0.000 F 
ATOM     57  C39 UNL A   1      23.079  16.242  10.005  1.00  0.00    +0.000 C 
ATOM     58  C40 UNL A   1      22.543  17.542  10.002  1.00  0.00    +0.000 C 
ATOM     59  F6  UNL A   1      22.089  18.095   8.870  1.00  0.00    +0.000 F 
ATOM     60  C41 UNL A   1      22.413  18.273  11.182  1.00  0.00    +0.000 C 
ATOM     61  F7  UNL A   1      21.909  19.516  11.152  1.00  0.00    +0.000 F 
ATOM     62  C42 UNL A   1      22.771  17.704  12.393  1.00  0.00    +0.000 C 
ATOM     63  F8  UNL A   1      22.607  18.389  13.535  1.00  0.00    +0.000 F 
ATOM     64  C43 UNL A   1      23.274  16.413  12.425  1.00  0.00    +0.000 C 
ENDBRANCH   56   57
BRANCH   71   72
ATOM     72  C48 UNL A   1      27.747  17.950   6.164  1.00  0.00    +0.000 C 
ATOM     73  C49 UNL A   1      28.788  18.068   7.099  1.00  0.00    +0.000 C 
ATOM     74  F11 UNL A   1      28.508  18.188   8.406  1.00  0.00    +0.000 F 
ATOM     75  C50 UNL A   1      30.131  17.989   6.718  1.00  0.00    +0.000 C 
ATOM     76  F12 UNL A   1      31.095  18.039   7.648  1.00  0.00    +0.000 F 
ATOM     77  C51 UNL A   1      30.471  17.796   5.388  1.00  0.00    +0.000 C 
ATOM     78  F13 UNL A   1      31.755  17.651   5.031  1.00  0.00    +0.000 F 
ATOM     79  C52 UNL A   1      29.471  17.708   4.438  1.00  0.00    +0.000 C 
ATOM     80  F14 UNL A   1      29.785  17.482   3.155  1.00  0.00    +0.000 F 
ATOM     81  C53 UNL A   1      28.130  17.784   4.819  1.00  0.00    +0.000 C 
ATOM     82  F15 UNL A   1      27.211  17.591   3.862  1.00  0.00    +0.000 F 
ENDBRANCH   71   72
TORSDOF 19
ENDMDL
MODEL 7
REMARK VINA RESULT:      -9.0     37.383     43.106
ROOT
ATOM    129  H32 UNL A   1      20.462  15.236   2.530  1.00  0.00    +0.000 H 
ATOM    130  H33 UNL A   1      21.766  17.467   2.521  1.00  0.00    +0.000 H 
ATOM     35  C24 UNL A   1      22.016  18.561   5.168  1.00  0.00    +0.000 C 
ATOM     36  C25 UNL A   1      21.542  17.217   4.767  1.00  0.00    +0.000 C 
ATOM     37  N5  UNL A   1      21.040  16.305   5.530  1.00  0.00    +0.000 N 
ATOM     38  C26 UNL A   1      20.795  15.215   4.702  1.00  0.00    +0.000 C 
ATOM     39  C27 UNL A   1      20.867  13.947   5.196  1.00  0.00    +0.000 C 
ATOM     51  C34 UNL A   1      20.830  13.966   6.642  1.00  0.00    +0.000 C 
ATOM     52  C35 UNL A   1      19.934  14.421   7.589  1.00  0.00    +0.000 C 
ATOM     53  C36 UNL A   1      20.740  14.965   8.635  1.00  0.00    +0.000 C 
ATOM     54  C37 UNL A   1      22.079  14.743   8.306  1.00  0.00    +0.000 C 
ATOM     55  N6  UNL A   1      22.022  13.809   7.308  1.00  0.00    +0.000 N 
ATOM     56  C38 UNL A   1      23.309  15.343   8.763  1.00  0.00    +0.000 C 
ATOM     68  C45 UNL A   1      24.485  15.338   8.067  1.00  0.00    +0.000 C 
ATOM     69  N7  UNL A   1      25.463  16.289   8.320  1.00  0.00    +0.000 N 
ATOM     70  C46 UNL A   1      26.101  16.415   7.187  1.00  0.00    +0.000 C 
ATOM     71  C47 UNL A   1      26.550  17.725   6.649  1.00  0.00    +0.000 C 
ATOM     83  C54 UNL A   1      25.427  18.425   6.349  1.00  0.00    +0.000 C 
ATOM     84  C55 UNL A   1      25.236  19.841   6.148  1.00  0.00    +0.000 C 
ATOM     85  C56 UNL A   1      23.932  20.060   5.884  1.00  0.00    +0.000 C 
ATOM     86  C57 UNL A   1      23.234  18.779   5.714  1.00  0.00    +0.000 C 
ATOM     87  N8  UNL A   1      24.158  17.844   6.122  1.00  0.00    +0.000 N 
ATOM     88  C58 UNL A   1      25.929  15.323   6.244  1.00  0.00    +0.000 C 
ATOM     89  C59 UNL A   1      24.867  14.727   6.796  1.00  0.00    +0.000 C 
ATOM     90  C60 UNL A   1      20.843  15.723   3.357  1.00  0.00    +0.000 C 
ATOM     91  C61 UNL A   1      21.449  16.911   3.331  1.00  0.00    +0.000 C 
ATOM    121  H24 UNL A   1      18.903  14.378   7.550  1.00  0.00    +0.000 H 
ATOM    122  H25 UNL A   1      20.394  15.438   9.483  1.00  0.00    +0.000 H 
ATOM    123  H26 UNL A   1      22.715  13.140   7.102  1.00  0.00    +0.000 H 
ATOM    124  H27 UNL A   1      25.971  20.564   6.198  1.00  0.00    +0.000 H 
ATOM    125  H28 UNL A   1      23.490  20.990   5.810  1.00  0.00    +0.000 H 
ATOM    126  H29 UNL A   1      23.959  16.888   6.241  1.00  0.00    +0.000 H 
ATOM    127  H30 UNL A   1      26.468  15.079   5.399  1.00  0.00    +0.000 H 
ATOM    128  H31 UNL A   1      24.373  13.927   6.371  1.00  0.00    +0.000 H 
ENDROOT
BRANCH   35   34
ATOM     33  C22 UNL A   1      19.814  19.746   5.003  1.00  0.00    +0.000 C 
ATOM     34  C23 UNL A   1      21.178  19.650   4.692  1.00  0.00    +0.000 C 
ATOM    131  H34 UNL A   1      22.738  20.397   3.488  1.00  0.00    +0.000 H 
ATOM    132  H35 UNL A   1      21.598  22.502   3.109  1.00  0.00    +0.000 H 
ATOM    119  H22 UNL A   1      18.043  20.822   4.583  1.00  0.00    +0.000 H 
ATOM    120  H23 UNL A   1      19.374  19.068   5.645  1.00  0.00    +0.000 H 
ATOM     92  C62 UNL A   1      21.784  20.563   3.845  1.00  0.00    +0.000 C 
ATOM     93  C63 UNL A   1      21.096  21.685   3.491  1.00  0.00    +0.000 C 
ATOM     31  C20 UNL A   1      19.717  21.726   3.648  1.00  0.00    +0.000 C 
ATOM     32  C21 UNL A   1      19.062  20.770   4.431  1.00  0.00    +0.000 C 
BRANCH   31   29
ATOM     29  C19 UNL A   1      18.988  22.788   2.936  1.00  0.00    +0.000 C 
ATOM     30  O6  UNL A   1      19.521  23.872   2.727  1.00  0.00    +0.000 O 
BRANCH   29   28
ATOM     28  N4  UNL A   1      17.699  22.537   2.500  1.00  0.00    +0.000 N 
ATOM    118  H21 UNL A   1      16.976  22.946   3.028  1.00  0.00    +0.000 H 
BRANCH   28   27
ATOM     27  C18 UNL A   1      17.280  21.733   1.346  1.00  0.00    +0.000 C 
ATOM    116  H19 UNL A   1      17.307  22.346   0.469  1.00  0.00    +0.000 H 
ATOM    117  H20 UNL A   1      17.952  20.905   1.259  1.00  0.00    +0.000 H 
BRANCH   27   26
ATOM     26  C17 UNL A   1      15.874  21.184   1.518  1.00  0.00    +0.000 C 
ATOM    115  H18 UNL A   1      15.798  20.824   2.523  1.00  0.00    +0.000 H 
ATOM    114  H17 UNL A   1      15.723  20.409   0.795  1.00  0.00    +0.000 H 
BRANCH   26   25
ATOM     25  C16 UNL A   1      14.774  22.241   1.334  1.00  0.00    +0.000 C 
ATOM    113  H16 UNL A   1      14.684  22.727   2.282  1.00  0.00    +0.000 H 
ATOM    112  H15 UNL A   1      13.888  21.735   1.010  1.00  0.00    +0.000 H 
BRANCH   25   24
ATOM    110  H13 UNL A   1      14.704  24.280   0.733  1.00  0.00    +0.000 H 
ATOM    111  H14 UNL A   1      16.129  23.350   0.170  1.00  0.00    +0.000 H 
ATOM     24  C15 UNL A   1      15.069  23.362   0.323  1.00  0.00    +0.000 C 
BRANCH   24   23
ATOM    108  H11 UNL A   1      15.222  23.002  -1.773  1.00  0.00    +0.000 H 
ATOM    109  H12 UNL A   1      13.761  22.355  -1.002  1.00  0.00    +0.000 H 
ATOM     23  C14 UNL A   1      14.440  23.180  -1.064  1.00  0.00    +0.000 C 
BRANCH   23   22
ATOM    106  H9  UNL A   1      12.929  24.097  -2.270  1.00  0.00    +0.000 H 
ATOM    107  H10 UNL A   1      13.118  24.814  -0.684  1.00  0.00    +0.000 H 
ATOM     22  C13 UNL A   1      13.634  24.399  -1.523  1.00  0.00    +0.000 C 
BRANCH   22   21
ATOM    105  H8  UNL A   1      14.335  26.313  -1.763  1.00  0.00    +0.000 H 
ATOM     21  N3  UNL A   1      14.524  25.401  -2.080  1.00  0.00    +0.000 N 
BRANCH   21   19
ATOM     19  C12 UNL A   1      15.575  25.332  -2.959  1.00  0.00    +0.000 C 
ATOM     20  O5  UNL A   1      15.375  24.798  -4.049  1.00  0.00    +0.000 O 
BRANCH   19   18
ATOM    133  H36 UNL A   1      16.802  27.806  -3.203  1.00  0.00    +0.000 H 
ATOM    134  H37 UNL A   1      18.879  28.485  -2.154  1.00  0.00    +0.000 H 
ATOM    103  H6  UNL A   1      19.795  24.456  -1.387  1.00  0.00    +0.000 H 
ATOM    104  H7  UNL A   1      17.573  23.823  -2.141  1.00  0.00    +0.000 H 
ATOM     15  C8  UNL A   1      19.469  26.529  -1.628  1.00  0.00    +0.000 C 
ATOM     16  C9  UNL A   1      19.122  25.180  -1.684  1.00  0.00    +0.000 C 
ATOM     17  C10 UNL A   1      17.852  24.817  -2.146  1.00  0.00    +0.000 C 
ATOM     18  C11 UNL A   1      16.951  25.787  -2.617  1.00  0.00    +0.000 C 
ATOM     94  C64 UNL A   1      17.386  27.108  -2.718  1.00  0.00    +0.000 C 
ATOM     95  C65 UNL A   1      18.608  27.489  -2.166  1.00  0.00    +0.000 C 
BRANCH   15   14
ATOM    102  H5  UNL A   1      23.759  27.304  -0.644  1.00  0.00    +0.000 H 
ATOM      9  C5  UNL A   1      21.912  27.001  -1.544  1.00  0.00    +0.000 C 
ATOM     10  C6  UNL A   1      22.738  27.213  -0.527  1.00  0.00    +0.000 C 
ATOM     11  O3  UNL A   1      22.109  27.303   0.715  1.00  0.00    +0.000 O 
ATOM     12  C7  UNL A   1      20.768  27.122   0.372  1.00  0.00    +0.000 C 
ATOM     13  O4  UNL A   1      19.872  27.092   1.205  1.00  0.00    +0.000 O 
ATOM     14  N2  UNL A   1      20.658  26.942  -1.004  1.00  0.00    +0.000 N 
BRANCH    9    8
ATOM     97  C67 UNL A   1      22.759  25.745  -5.003  1.00  0.00    +0.000 C 
ATOM    100  H3  UNL A   1      22.503  29.038  -5.622  1.00  0.00    +0.000 H 
ATOM      5  C1  UNL A   1      22.763  26.944  -5.724  1.00  0.00    +0.000 C 
ATOM      6  C2  UNL A   1      22.501  28.156  -5.086  1.00  0.00    +0.000 C 
ATOM      7  C3  UNL A   1      22.236  28.165  -3.714  1.00  0.00    +0.000 C 
ATOM    136  H39 UNL A   1      22.948  24.852  -5.484  1.00  0.00    +0.000 H 
ATOM    101  H4  UNL A   1      22.046  29.061  -3.239  1.00  0.00    +0.000 H 
ATOM    135  H38 UNL A   1      22.510  24.880  -3.092  1.00  0.00    +0.000 H 
ATOM      8  C4  UNL A   1      22.222  26.970  -2.972  1.00  0.00    +0.000 C 
ATOM     96  C66 UNL A   1      22.499  25.762  -3.628  1.00  0.00    +0.000 C 
BRANCH    5    2
ATOM      2  S1  UNL A   1      23.039  26.905  -7.472  1.00  0.00    +0.000 S 
ATOM      3  O1  UNL A   1      21.967  27.620  -8.138  1.00  0.00    +0.000 O 
ATOM      4  O2  UNL A   1      23.431  25.576  -7.850  1.00  0.00    +0.000 O 
BRANCH    2    1
ATOM      1  N1  UNL A   1      24.398  27.875  -7.638  1.00  0.00    +0.000 N 
ATOM     98  H1  UNL A   1      24.148  28.846  -7.452  1.00  0.00    +0.000 H 
ATOM     99  H2  UNL A   1      24.761  27.792  -8.588  1.00  0.00    +0.000 H 
ENDBRANCH    2    1
ENDBRANCH    5    2
ENDBRANCH    9    8
ENDBRANCH   15   14
ENDBRANCH   19   18
ENDBRANCH   21   19
ENDBRANCH   22   21
ENDBRANCH   23   22
ENDBRANCH   24   23
ENDBRANCH   25   24
ENDBRANCH   26   25
ENDBRANCH   27   26
ENDBRANCH   28   27
ENDBRANCH   29   28
ENDBRANCH   31   29
ENDBRANCH   35   34
BRANCH   39   40
ATOM     40  C28 UNL A   1      21.410  12.754   4.432  1.00  0.00    +0.000 C 
ATOM     41  C29 UNL A   1      22.717  12.841   3.903  1.00  0.00    +0.000 C 
ATOM     42  F1  UNL A   1      23.563  13.794   4.323  1.00  0.00    +0.000 F 
ATOM     43  C30 UNL A   1      23.149  12.027   2.854  1.00  0.00    +0.000 C 
ATOM     44  F2  UNL A   1      24.340  12.255   2.285  1.00  0.00    +0.000 F 
ATOM     45  C31 UNL A   1      22.324  11.043   2.346  1.00  0.00    +0.000 C 
ATOM     46  F3  UNL A   1      22.704  10.312   1.290  1.00  0.00    +0.000 F 
ATOM     47  C32 UNL A   1      21.084  10.849   2.911  1.00  0.00    +0.000 C 
ATOM     48  F4  UNL A   1      20.266   9.900   2.431  1.00  0.00    +0.000 F 
ATOM     49  C33 UNL A   1      20.630  11.692   3.924  1.00  0.00    +0.000 C 
ATOM     50  F5  UNL A   1      19.366  11.474   4.299  1.00  0.00    +0.000 F 
ENDBRANCH   39   40
BRANCH   56   57
ATOM     65  F9  UNL A   1      23.556  15.760  13.587  1.00  0.00    +0.000 F 
ATOM     66  C44 UNL A   1      23.513  15.649  11.228  1.00  0.00    +0.000 C 
ATOM     67  F10 UNL A   1      23.941  14.378  11.300  1.00  0.00    +0.000 F 
ATOM     57  C39 UNL A   1      23.221  16.219   9.983  1.00  0.00    +0.000 C 
ATOM     58  C40 UNL A   1      22.724  17.534   9.974  1.00  0.00    +0.000 C 
ATOM     59  F6  UNL A   1      22.334  18.114   8.832  1.00  0.00    +0.000 F 
ATOM     60  C41 UNL A   1      22.567  18.255  11.158  1.00  0.00    +0.000 C 
ATOM     61  F7  UNL A   1      22.101  19.512  11.123  1.00  0.00    +0.000 F 
ATOM     62  C42 UNL A   1      22.857  17.661  12.375  1.00  0.00    +0.000 C 
ATOM     63  F8  UNL A   1      22.665  18.337  13.518  1.00  0.00    +0.000 F 
ATOM     64  C43 UNL A   1      23.320  16.356  12.410  1.00  0.00    +0.000 C 
ENDBRANCH   56   57
BRANCH   71   72
ATOM     72  C48 UNL A   1      27.949  17.985   6.242  1.00  0.00    +0.000 C 
ATOM     73  C49 UNL A   1      28.975  18.081   7.196  1.00  0.00    +0.000 C 
ATOM     74  F11 UNL A   1      28.676  18.172   8.501  1.00  0.00    +0.000 F 
ATOM     75  C50 UNL A   1      30.325  18.011   6.833  1.00  0.00    +0.000 C 
ATOM     76  F12 UNL A   1      31.274  18.040   7.778  1.00  0.00    +0.000 F 
ATOM     77  C51 UNL A   1      30.685  17.848   5.505  1.00  0.00    +0.000 C 
ATOM     78  F13 UNL A   1      31.974  17.711   5.164  1.00  0.00    +0.000 F 
ATOM     79  C52 UNL A   1      29.699  17.782   4.538  1.00  0.00    +0.000 C 
ATOM     80  F14 UNL A   1      30.033  17.584   3.255  1.00  0.00    +0.000 F 
ATOM     81  C53 UNL A   1      28.353  17.849   4.900  1.00  0.00    +0.000 C 
ATOM     82  F15 UNL A   1      27.448  17.678   3.925  1.00  0.00    +0.000 F 
ENDBRANCH   71   72
TORSDOF 19
ENDMDL
MODEL 8
REMARK VINA RESULT:      -9.0     33.243     40.654
ROOT
ATOM    129  H32 UNL A   1      23.902  34.825  44.115  1.00  0.00    +0.000 H 
ATOM    130  H33 UNL A   1      25.391  35.805  45.985  1.00  0.00    +0.000 H 
ATOM     35  C24 UNL A   1      24.019  37.845  47.477  1.00  0.00    +0.000 C 
ATOM     36  C25 UNL A   1      23.463  36.897  46.484  1.00  0.00    +0.000 C 
ATOM     37  N5  UNL A   1      22.263  36.876  46.010  1.00  0.00    +0.000 N 
ATOM     38  C26 UNL A   1      22.217  35.782  45.153  1.00  0.00    +0.000 C 
ATOM     39  C27 UNL A   1      21.052  35.097  44.975  1.00  0.00    +0.000 C 
ATOM     51  C34 UNL A   1      19.931  35.878  45.449  1.00  0.00    +0.000 C 
ATOM     52  C35 UNL A   1      19.401  37.115  45.136  1.00  0.00    +0.000 C 
ATOM     53  C36 UNL A   1      18.984  37.669  46.384  1.00  0.00    +0.000 C 
ATOM     54  C37 UNL A   1      19.210  36.713  47.376  1.00  0.00    +0.000 C 
ATOM     55  N6  UNL A   1      19.407  35.553  46.677  1.00  0.00    +0.000 N 
ATOM     56  C38 UNL A   1      19.320  36.803  48.813  1.00  0.00    +0.000 C 
ATOM     68  C45 UNL A   1      19.953  35.887  49.605  1.00  0.00    +0.000 C 
ATOM     69  N7  UNL A   1      20.421  36.241  50.862  1.00  0.00    +0.000 N 
ATOM     70  C46 UNL A   1      21.435  35.445  51.073  1.00  0.00    +0.000 C 
ATOM     71  C47 UNL A   1      22.701  35.892  51.707  1.00  0.00    +0.000 C 
ATOM     83  C54 UNL A   1      23.280  36.763  50.843  1.00  0.00    +0.000 C 
ATOM     84  C55 UNL A   1      24.299  37.761  51.065  1.00  0.00    +0.000 C 
ATOM     85  C56 UNL A   1      24.538  38.391  49.898  1.00  0.00    +0.000 C 
ATOM     86  C57 UNL A   1      23.823  37.713  48.809  1.00  0.00    +0.000 C 
ATOM     87  N8  UNL A   1      22.999  36.824  49.459  1.00  0.00    +0.000 N 
ATOM     88  C58 UNL A   1      21.482  34.255  50.240  1.00  0.00    +0.000 C 
ATOM     89  C59 UNL A   1      20.600  34.612  49.303  1.00  0.00    +0.000 C 
ATOM     90  C60 UNL A   1      23.586  35.424  44.895  1.00  0.00    +0.000 C 
ATOM     91  C61 UNL A   1      24.389  35.977  45.805  1.00  0.00    +0.000 C 
ATOM    121  H24 UNL A   1      19.324  37.546  44.201  1.00  0.00    +0.000 H 
ATOM    122  H25 UNL A   1      18.586  38.609  46.527  1.00  0.00    +0.000 H 
ATOM    123  H26 UNL A   1      19.208  34.643  46.998  1.00  0.00    +0.000 H 
ATOM    124  H27 UNL A   1      24.765  37.960  51.965  1.00  0.00    +0.000 H 
ATOM    125  H28 UNL A   1      25.136  39.225  49.786  1.00  0.00    +0.000 H 
ATOM    126  H29 UNL A   1      22.298  36.295  49.014  1.00  0.00    +0.000 H 
ATOM    127  H30 UNL A   1      22.036  33.390  50.343  1.00  0.00    +0.000 H 
ATOM    128  H31 UNL A   1      20.397  34.051  48.461  1.00  0.00    +0.000 H 
ENDROOT
BRANCH   35   34
ATOM     33  C22 UNL A   1      24.739  40.138  46.766  1.00  0.00    +0.000 C 
ATOM     34  C23 UNL A   1      24.999  38.769  46.929  1.00  0.00    +0.000 C 
ATOM    131  H34 UNL A   1      26.315  37.189  46.469  1.00  0.00    +0.000 H 
ATOM    132  H35 UNL A   1      28.174  38.692  46.075  1.00  0.00    +0.000 H 
ATOM    119  H22 UNL A   1      25.504  41.932  45.949  1.00  0.00    +0.000 H 
ATOM    120  H23 UNL A   1      23.851  40.546  47.099  1.00  0.00    +0.000 H 
ATOM     92  C62 UNL A   1      26.193  38.213  46.501  1.00  0.00    +0.000 C 
ATOM     93  C63 UNL A   1      27.204  39.045  46.123  1.00  0.00    +0.000 C 
ATOM     31  C20 UNL A   1      26.926  40.367  45.803  1.00  0.00    +0.000 C 
ATOM     32  C21 UNL A   1      25.697  40.938  46.148  1.00  0.00    +0.000 C 
BRANCH   31   29
ATOM     29  C19 UNL A   1      27.960  41.116  45.070  1.00  0.00    +0.000 C 
ATOM     30  O6  UNL A   1      28.176  40.876  43.888  1.00  0.00    +0.000 O 
BRANCH   29   28
ATOM     28  N4  UNL A   1      28.672  42.097  45.735  1.00  0.00    +0.000 N 
ATOM    118  H21 UNL A   1      29.613  41.892  45.932  1.00  0.00    +0.000 H 
BRANCH   28   27
ATOM     27  C18 UNL A   1      28.190  43.409  46.184  1.00  0.00    +0.000 C 
ATOM    116  H19 UNL A   1      28.644  44.169  45.582  1.00  0.00    +0.000 H 
ATOM    117  H20 UNL A   1      27.125  43.423  46.084  1.00  0.00    +0.000 H 
BRANCH   27   26
ATOM     26  C17 UNL A   1      28.531  43.670  47.641  1.00  0.00    +0.000 C 
ATOM    115  H18 UNL A   1      28.012  44.560  47.931  1.00  0.00    +0.000 H 
ATOM    114  H17 UNL A   1      29.593  43.771  47.728  1.00  0.00    +0.000 H 
BRANCH   26   25
ATOM     25  C16 UNL A   1      28.071  42.551  48.590  1.00  0.00    +0.000 C 
ATOM    113  H16 UNL A   1      27.412  41.939  48.010  1.00  0.00    +0.000 H 
ATOM    112  H15 UNL A   1      27.612  43.013  49.439  1.00  0.00    +0.000 H 
BRANCH   25   24
ATOM    110  H13 UNL A   1      29.992  41.653  48.428  1.00  0.00    +0.000 H 
ATOM    111  H14 UNL A   1      29.401  41.937  50.096  1.00  0.00    +0.000 H 
ATOM     24  C15 UNL A   1      29.166  41.603  49.107  1.00  0.00    +0.000 C 
BRANCH   24   23
ATOM    108  H11 UNL A   1      28.547  39.930  50.273  1.00  0.00    +0.000 H 
ATOM    109  H12 UNL A   1      27.891  39.984  48.626  1.00  0.00    +0.000 H 
ATOM     23  C14 UNL A   1      28.753  40.132  49.243  1.00  0.00    +0.000 C 
BRANCH   23   22
ATOM    106  H9  UNL A   1      30.668  39.196  49.428  1.00  0.00    +0.000 H 
ATOM    107  H10 UNL A   1      29.427  38.168  48.743  1.00  0.00    +0.000 H 
ATOM     22  C13 UNL A   1      29.832  39.158  48.760  1.00  0.00    +0.000 C 
BRANCH   22   21
ATOM    105  H8  UNL A   1      29.597  40.039  46.922  1.00  0.00    +0.000 H 
ATOM     21  N3  UNL A   1      30.265  39.520  47.424  1.00  0.00    +0.000 N 
BRANCH   21   19
ATOM     19  C12 UNL A   1      31.419  39.283  46.719  1.00  0.00    +0.000 C 
ATOM     20  O5  UNL A   1      32.417  39.938  47.018  1.00  0.00    +0.000 O 
BRANCH   19   18
ATOM    133  H36 UNL A   1      33.340  37.429  45.972  1.00  0.00    +0.000 H 
ATOM    134  H37 UNL A   1      33.063  35.658  44.341  1.00  0.00    +0.000 H 
ATOM    103  H6  UNL A   1      29.640  37.584  42.847  1.00  0.00    +0.000 H 
ATOM    104  H7  UNL A   1      29.745  39.165  44.689  1.00  0.00    +0.000 H 
ATOM     15  C8  UNL A   1      31.292  36.446  43.509  1.00  0.00    +0.000 C 
ATOM     16  C9  UNL A   1      30.373  37.493  43.568  1.00  0.00    +0.000 C 
ATOM     17  C10 UNL A   1      30.454  38.419  44.614  1.00  0.00    +0.000 C 
ATOM     18  C11 UNL A   1      31.487  38.346  45.563  1.00  0.00    +0.000 C 
ATOM     94  C64 UNL A   1      32.495  37.400  45.382  1.00  0.00    +0.000 C 
ATOM     95  C65 UNL A   1      32.365  36.414  44.405  1.00  0.00    +0.000 C 
BRANCH   15   14
ATOM    102  H5  UNL A   1      30.563  32.470  41.604  1.00  0.00    +0.000 H 
ATOM      9  C5  UNL A   1      30.576  34.171  42.795  1.00  0.00    +0.000 C 
ATOM     10  C6  UNL A   1      30.866  33.450  41.719  1.00  0.00    +0.000 C 
ATOM     11  O3  UNL A   1      31.615  34.127  40.758  1.00  0.00    +0.000 O 
ATOM     12  C7  UNL A   1      31.774  35.381  41.348  1.00  0.00    +0.000 C 
ATOM     13  O4  UNL A   1      32.423  36.279  40.827  1.00  0.00    +0.000 O 
ATOM     14  N2  UNL A   1      31.135  35.400  42.585  1.00  0.00    +0.000 N 
BRANCH    9    8
ATOM     97  C67 UNL A   1      29.442  33.050  46.218  1.00  0.00    +0.000 C 
ATOM    100  H3  UNL A   1      26.466  33.708  44.801  1.00  0.00    +0.000 H 
ATOM      5  C1  UNL A   1      28.054  33.176  46.089  1.00  0.00    +0.000 C 
ATOM      6  C2  UNL A   1      27.490  33.615  44.891  1.00  0.00    +0.000 C 
ATOM      7  C3  UNL A   1      28.324  33.926  43.815  1.00  0.00    +0.000 C 
ATOM    136  H39 UNL A   1      29.851  32.731  47.109  1.00  0.00    +0.000 H 
ATOM    101  H4  UNL A   1      27.909  34.246  42.926  1.00  0.00    +0.000 H 
ATOM    135  H38 UNL A   1      31.293  33.251  45.222  1.00  0.00    +0.000 H 
ATOM      8  C4  UNL A   1      29.722  33.811  43.925  1.00  0.00    +0.000 C 
ATOM     96  C66 UNL A   1      30.270  33.358  45.133  1.00  0.00    +0.000 C 
BRANCH    5    2
ATOM      2  S1  UNL A   1      27.019  32.838  47.484  1.00  0.00    +0.000 S 
ATOM      3  O1  UNL A   1      27.767  32.064  48.456  1.00  0.00    +0.000 O 
ATOM      4  O2  UNL A   1      25.721  32.439  47.013  1.00  0.00    +0.000 O 
BRANCH    2    1
ATOM      1  N1  UNL A   1      26.836  34.361  48.166  1.00  0.00    +0.000 N 
ATOM     98  H1  UNL A   1      26.943  34.295  49.179  1.00  0.00    +0.000 H 
ATOM     99  H2  UNL A   1      25.909  34.723  47.945  1.00  0.00    +0.000 H 
ENDBRANCH    2    1
ENDBRANCH    5    2
ENDBRANCH    9    8
ENDBRANCH   15   14
ENDBRANCH   19   18
ENDBRANCH   21   19
ENDBRANCH   22   21
ENDBRANCH   23   22
ENDBRANCH   24   23
ENDBRANCH   25   24
ENDBRANCH   26   25
ENDBRANCH   27   26
ENDBRANCH   28   27
ENDBRANCH   29   28
ENDBRANCH   31   29
ENDBRANCH   35   34
BRANCH   39   40
ATOM     40  C28 UNL A   1      20.953  33.593  44.801  1.00  0.00    +0.000 C 
ATOM     41  C29 UNL A   1      19.912  33.083  43.996  1.00  0.00    +0.000 C 
ATOM     42  F1  UNL A   1      19.236  33.887  43.160  1.00  0.00    +0.000 F 
ATOM     43  C30 UNL A   1      19.463  31.765  44.107  1.00  0.00    +0.000 C 
ATOM     44  F2  UNL A   1      18.372  31.376  43.434  1.00  0.00    +0.000 F 
ATOM     45  C31 UNL A   1      20.087  30.884  44.969  1.00  0.00    +0.000 C 
ATOM     46  F3  UNL A   1      19.614  29.643  45.137  1.00  0.00    +0.000 F 
ATOM     47  C32 UNL A   1      21.180  31.310  45.689  1.00  0.00    +0.000 C 
ATOM     48  F4  UNL A   1      21.799  30.471  46.532  1.00  0.00    +0.000 F 
ATOM     49  C33 UNL A   1      21.599  32.638  45.617  1.00  0.00    +0.000 C 
ATOM     50  F5  UNL A   1      22.591  32.951  46.456  1.00  0.00    +0.000 F 
ENDBRANCH   39   40
BRANCH   56   57
ATOM     65  F9  UNL A   1      15.811  39.512  50.777  1.00  0.00    +0.000 F 
ATOM     66  C44 UNL A   1      17.589  38.215  49.917  1.00  0.00    +0.000 C 
ATOM     67  F10 UNL A   1      16.770  37.152  49.879  1.00  0.00    +0.000 F 
ATOM     57  C39 UNL A   1      18.902  38.103  49.442  1.00  0.00    +0.000 C 
ATOM     58  C40 UNL A   1      19.695  39.264  49.455  1.00  0.00    +0.000 C 
ATOM     59  F6  UNL A   1      20.928  39.259  48.931  1.00  0.00    +0.000 F 
ATOM     60  C41 UNL A   1      19.205  40.469  49.958  1.00  0.00    +0.000 C 
ATOM     61  F7  UNL A   1      19.985  41.560  49.969  1.00  0.00    +0.000 F 
ATOM     62  C42 UNL A   1      17.899  40.551  50.414  1.00  0.00    +0.000 C 
ATOM     63  F8  UNL A   1      17.412  41.718  50.858  1.00  0.00    +0.000 F 
ATOM     64  C43 UNL A   1      17.089  39.427  50.383  1.00  0.00    +0.000 C 
ENDBRANCH   56   57
BRANCH   71   72
ATOM     72  C48 UNL A   1      23.290  35.212  52.883  1.00  0.00    +0.000 C 
ATOM     73  C49 UNL A   1      22.560  35.055  54.072  1.00  0.00    +0.000 C 
ATOM     74  F11 UNL A   1      21.407  35.719  54.246  1.00  0.00    +0.000 F 
ATOM     75  C50 UNL A   1      22.961  34.159  55.069  1.00  0.00    +0.000 C 
ATOM     76  F12 UNL A   1      22.202  33.989  56.160  1.00  0.00    +0.000 F 
ATOM     77  C51 UNL A   1      24.108  33.399  54.906  1.00  0.00    +0.000 C 
ATOM     78  F13 UNL A   1      24.456  32.491  55.828  1.00  0.00    +0.000 F 
ATOM     79  C52 UNL A   1      24.868  33.553  53.761  1.00  0.00    +0.000 C 
ATOM     80  F14 UNL A   1      25.957  32.795  53.574  1.00  0.00    +0.000 F 
ATOM     81  C53 UNL A   1      24.465  34.445  52.765  1.00  0.00    +0.000 C 
ATOM     82  F15 UNL A   1      25.193  34.471  51.638  1.00  0.00    +0.000 F 
ENDBRANCH   71   72
TORSDOF 19
ENDMDL
MODEL 9
REMARK VINA RESULT:      -9.0     39.564     46.978
ROOT
ATOM    129  H32 UNL A   1      43.107   8.565  52.935  1.00  0.00    +0.000 H 
ATOM    130  H33 UNL A   1      41.643  10.167  51.534  1.00  0.00    +0.000 H 
ATOM     35  C24 UNL A   1      43.015  12.626  50.953  1.00  0.00    +0.000 C 
ATOM     36  C25 UNL A   1      43.564  11.378  51.530  1.00  0.00    +0.000 C 
ATOM     37  N5  UNL A   1      44.755  11.187  51.991  1.00  0.00    +0.000 N 
ATOM     38  C26 UNL A   1      44.799   9.851  52.375  1.00  0.00    +0.000 C 
ATOM     39  C27 UNL A   1      45.970   9.157  52.312  1.00  0.00    +0.000 C 
ATOM     51  C34 UNL A   1      47.090  10.065  52.194  1.00  0.00    +0.000 C 
ATOM     52  C35 UNL A   1      47.593  11.097  52.962  1.00  0.00    +0.000 C 
ATOM     53  C36 UNL A   1      48.029  12.082  52.025  1.00  0.00    +0.000 C 
ATOM     54  C37 UNL A   1      47.838  11.568  50.741  1.00  0.00    +0.000 C 
ATOM     55  N6  UNL A   1      47.644  10.230  50.947  1.00  0.00    +0.000 N 
ATOM     56  C38 UNL A   1      47.756  12.191  49.441  1.00  0.00    +0.000 C 
ATOM     68  C45 UNL A   1      47.154  11.637  48.347  1.00  0.00    +0.000 C 
ATOM     69  N7  UNL A   1      46.707  12.435  47.304  1.00  0.00    +0.000 N 
ATOM     70  C46 UNL A   1      45.710  11.771  46.784  1.00  0.00    +0.000 C 
ATOM     71  C47 UNL A   1      44.450  12.416  46.333  1.00  0.00    +0.000 C 
ATOM     83  C54 UNL A   1      43.840  12.894  47.447  1.00  0.00    +0.000 C 
ATOM     84  C55 UNL A   1      42.812  13.896  47.590  1.00  0.00    +0.000 C 
ATOM     85  C56 UNL A   1      42.539  14.039  48.902  1.00  0.00    +0.000 C 
ATOM     86  C57 UNL A   1      43.241  13.006  49.674  1.00  0.00    +0.000 C 
ATOM     87  N8  UNL A   1      44.092  12.432  48.758  1.00  0.00    +0.000 N 
ATOM     88  C58 UNL A   1      45.663  10.354  47.107  1.00  0.00    +0.000 C 
ATOM     89  C59 UNL A   1      46.520  10.338  48.132  1.00  0.00    +0.000 C 
ATOM     90  C60 UNL A   1      43.431   9.415  52.446  1.00  0.00    +0.000 C 
ATOM     91  C61 UNL A   1      42.638  10.265  51.790  1.00  0.00    +0.000 C 
ATOM    121  H24 UNL A   1      47.645  11.145  53.992  1.00  0.00    +0.000 H 
ATOM    122  H25 UNL A   1      48.415  13.010  52.255  1.00  0.00    +0.000 H 
ATOM    123  H26 UNL A   1      47.863   9.509  50.313  1.00  0.00    +0.000 H 
ATOM    124  H27 UNL A   1      42.361  14.416  46.819  1.00  0.00    +0.000 H 
ATOM    125  H28 UNL A   1      41.926  14.766  49.305  1.00  0.00    +0.000 H 
ATOM    126  H29 UNL A   1      44.791  11.779  48.989  1.00  0.00    +0.000 H 
ATOM    127  H30 UNL A   1      45.125   9.588  46.673  1.00  0.00    +0.000 H 
ATOM    128  H31 UNL A   1      46.714   9.503  48.706  1.00  0.00    +0.000 H 
ENDROOT
BRANCH   35   34
ATOM     33  C22 UNL A   1      40.635  13.056  51.609  1.00  0.00    +0.000 C 
ATOM     34  C23 UNL A   1      42.010  13.270  51.783  1.00  0.00    +0.000 C 
ATOM    131  H34 UNL A   1      43.474  14.453  52.732  1.00  0.00    +0.000 H 
ATOM    132  H35 UNL A   1      41.954  15.133  54.493  1.00  0.00    +0.000 H 
ATOM    119  H22 UNL A   1      38.719  13.701  52.228  1.00  0.00    +0.000 H 
ATOM    120  H23 UNL A   1      40.295  12.371  50.916  1.00  0.00    +0.000 H 
ATOM     92  C62 UNL A   1      42.480  14.175  52.721  1.00  0.00    +0.000 C 
ATOM     93  C63 UNL A   1      41.603  14.694  53.627  1.00  0.00    +0.000 C 
ATOM     31  C20 UNL A   1      40.239  14.627  53.381  1.00  0.00    +0.000 C 
ATOM     32  C21 UNL A   1      39.736  13.784  52.385  1.00  0.00    +0.000 C 
BRANCH   31   29
ATOM     29  C19 UNL A   1      39.365  15.497  54.186  1.00  0.00    +0.000 C 
ATOM     30  O6  UNL A   1      38.422  15.021  54.809  1.00  0.00    +0.000 O 
BRANCH   29   28
ATOM     28  N4  UNL A   1      39.634  16.852  54.235  1.00  0.00    +0.000 N 
ATOM    118  H21 UNL A   1      39.656  17.258  55.131  1.00  0.00    +0.000 H 
BRANCH   28   27
ATOM     27  C18 UNL A   1      39.888  17.760  53.109  1.00  0.00    +0.000 C 
ATOM    116  H19 UNL A   1      39.860  18.768  53.465  1.00  0.00    +0.000 H 
ATOM    117  H20 UNL A   1      40.848  17.521  52.701  1.00  0.00    +0.000 H 
BRANCH   27   26
ATOM     26  C17 UNL A   1      38.854  17.599  52.007  1.00  0.00    +0.000 C 
ATOM    115  H18 UNL A   1      38.332  18.529  51.929  1.00  0.00    +0.000 H 
ATOM    114  H17 UNL A   1      38.206  16.788  52.267  1.00  0.00    +0.000 H 
BRANCH   26   25
ATOM     25  C16 UNL A   1      39.466  17.308  50.627  1.00  0.00    +0.000 C 
ATOM    113  H16 UNL A   1      39.416  18.233  50.092  1.00  0.00    +0.000 H 
ATOM    112  H15 UNL A   1      38.906  16.510  50.186  1.00  0.00    +0.000 H 
BRANCH   25   24
ATOM    110  H13 UNL A   1      41.334  17.024  51.603  1.00  0.00    +0.000 H 
ATOM    111  H14 UNL A   1      40.977  15.894  50.259  1.00  0.00    +0.000 H 
ATOM     24  C15 UNL A   1      40.950  16.904  50.612  1.00  0.00    +0.000 C 
BRANCH   24   23
ATOM    108  H11 UNL A   1      42.768  17.188  49.536  1.00  0.00    +0.000 H 
ATOM    109  H12 UNL A   1      41.312  17.808  48.733  1.00  0.00    +0.000 H 
ATOM     23  C14 UNL A   1      41.841  17.709  49.658  1.00  0.00    +0.000 C 
BRANCH   23   22
ATOM    106  H9  UNL A   1      41.482  19.818  49.687  1.00  0.00    +0.000 H 
ATOM    107  H10 UNL A   1      41.994  19.154  51.224  1.00  0.00    +0.000 H 
ATOM     22  C13 UNL A   1      42.141  19.123  50.165  1.00  0.00    +0.000 C 
BRANCH   22   21
ATOM    105  H8  UNL A   1      44.161  19.149  50.529  1.00  0.00    +0.000 H 
ATOM     21  N3  UNL A   1      43.515  19.478  49.863  1.00  0.00    +0.000 N 
BRANCH   21   19
ATOM     19  C12 UNL A   1      44.095  20.180  48.836  1.00  0.00    +0.000 C 
ATOM     20  O5  UNL A   1      44.060  21.409  48.892  1.00  0.00    +0.000 O 
BRANCH   19   18
ATOM    133  H36 UNL A   1      44.754  17.537  48.323  1.00  0.00    +0.000 H 
ATOM    134  H37 UNL A   1      45.230  16.575  46.150  1.00  0.00    +0.000 H 
ATOM    103  H6  UNL A   1      45.774  20.432  44.574  1.00  0.00    +0.000 H 
ATOM    104  H7  UNL A   1      44.977  21.382  46.664  1.00  0.00    +0.000 H 
ATOM     15  C8  UNL A   1      45.473  18.430  45.175  1.00  0.00    +0.000 C 
ATOM     16  C9  UNL A   1      45.465  19.814  45.341  1.00  0.00    +0.000 C 
ATOM     17  C10 UNL A   1      45.033  20.357  46.556  1.00  0.00    +0.000 C 
ATOM     18  C11 UNL A   1      44.674  19.526  47.630  1.00  0.00    +0.000 C 
ATOM     94  C64 UNL A   1      44.861  18.150  47.501  1.00  0.00    +0.000 C 
ATOM     95  C65 UNL A   1      45.192  17.600  46.264  1.00  0.00    +0.000 C 
BRANCH   15   14
ATOM    102  H5  UNL A   1      47.324  17.266  41.278  1.00  0.00    +0.000 H 
ATOM      9  C5  UNL A   1      46.910  17.814  43.238  1.00  0.00    +0.000 C 
ATOM     10  C6  UNL A   1      46.612  17.395  42.013  1.00  0.00    +0.000 C 
ATOM     11  O3  UNL A   1      45.256  17.142  41.806  1.00  0.00    +0.000 O 
ATOM     12  C7  UNL A   1      44.712  17.451  43.053  1.00  0.00    +0.000 C 
ATOM     13  O4  UNL A   1      43.511  17.397  43.282  1.00  0.00    +0.000 O 
ATOM     14  N2  UNL A   1      45.726  17.855  43.918  1.00  0.00    +0.000 N 
BRANCH    9    8
ATOM     97  C67 UNL A   1      49.881  17.695  45.565  1.00  0.00    +0.000 C 
ATOM    100  H3  UNL A   1      51.107  19.686  43.151  1.00  0.00    +0.000 H 
ATOM      5  C1  UNL A   1      50.789  18.504  44.873  1.00  0.00    +0.000 C 
ATOM      6  C2  UNL A   1      50.433  19.092  43.659  1.00  0.00    +0.000 C 
ATOM      7  C3  UNL A   1      49.156  18.871  43.139  1.00  0.00    +0.000 C 
ATOM    136  H39 UNL A   1      50.154  17.259  46.458  1.00  0.00    +0.000 H 
ATOM    101  H4  UNL A   1      48.888  19.309  42.244  1.00  0.00    +0.000 H 
ATOM    135  H38 UNL A   1      47.925  16.899  45.558  1.00  0.00    +0.000 H 
ATOM      8  C4  UNL A   1      48.230  18.057  43.817  1.00  0.00    +0.000 C 
ATOM     96  C66 UNL A   1      48.601  17.483  45.040  1.00  0.00    +0.000 C 
BRANCH    5    2
ATOM      2  S1  UNL A   1      52.423  18.721  45.516  1.00  0.00    +0.000 S 
ATOM      3  O1  UNL A   1      52.988  17.422  45.829  1.00  0.00    +0.000 O 
ATOM      4  O2  UNL A   1      52.410  19.805  46.459  1.00  0.00    +0.000 O 
BRANCH    2    1
ATOM      1  N1  UNL A   1      53.265  19.265  44.169  1.00  0.00    +0.000 N 
ATOM     98  H1  UNL A   1      53.449  20.264  44.263  1.00  0.00    +0.000 H 
ATOM     99  H2  UNL A   1      52.708  19.099  43.331  1.00  0.00    +0.000 H 
ENDBRANCH    2    1
ENDBRANCH    5    2
ENDBRANCH    9    8
ENDBRANCH   15   14
ENDBRANCH   19   18
ENDBRANCH   21   19
ENDBRANCH   22   21
ENDBRANCH   23   22
ENDBRANCH   24   23
ENDBRANCH   25   24
ENDBRANCH   26   25
ENDBRANCH   27   26
ENDBRANCH   28   27
ENDBRANCH   29   28
ENDBRANCH   31   29
ENDBRANCH   35   34
BRANCH   39   40
ATOM     40  C28 UNL A   1      46.088   7.699  51.910  1.00  0.00    +0.000 C 
ATOM     41  C29 UNL A   1      45.636   7.324  50.626  1.00  0.00    +0.000 C 
ATOM     42  F1  UNL A   1      45.413   8.251  49.681  1.00  0.00    +0.000 F 
ATOM     43  C30 UNL A   1      45.295   6.006  50.313  1.00  0.00    +0.000 C 
ATOM     44  F2  UNL A   1      44.725   5.730  49.133  1.00  0.00    +0.000 F 
ATOM     45  C31 UNL A   1      45.466   4.999  51.243  1.00  0.00    +0.000 C 
ATOM     46  F3  UNL A   1      45.069   3.749  50.977  1.00  0.00    +0.000 F 
ATOM     47  C32 UNL A   1      46.012   5.305  52.470  1.00  0.00    +0.000 C 
ATOM     48  F4  UNL A   1      46.184   4.343  53.388  1.00  0.00    +0.000 F 
ATOM     49  C33 UNL A   1      46.306   6.626  52.802  1.00  0.00    +0.000 C 
ATOM     50  F5  UNL A   1      46.714   6.801  54.063  1.00  0.00    +0.000 F 
ENDBRANCH   39   40
BRANCH   56   57
ATOM     65  F9  UNL A   1      46.577  16.869  49.929  1.00  0.00    +0.000 F 
ATOM     66  C44 UNL A   1      47.247  14.610  49.761  1.00  0.00    +0.000 C 
ATOM     67  F10 UNL A   1      46.067  14.241  50.285  1.00  0.00    +0.000 F 
ATOM     57  C39 UNL A   1      48.168  13.635  49.357  1.00  0.00    +0.000 C 
ATOM     58  C40 UNL A   1      49.363  14.081  48.764  1.00  0.00    +0.000 C 
ATOM     59  F6  UNL A   1      50.250  13.210  48.268  1.00  0.00    +0.000 F 
ATOM     60  C41 UNL A   1      49.635  15.441  48.621  1.00  0.00    +0.000 C 
ATOM     61  F7  UNL A   1      50.786  15.842  48.061  1.00  0.00    +0.000 F 
ATOM     62  C42 UNL A   1      48.701  16.382  49.023  1.00  0.00    +0.000 C 
ATOM     63  F8  UNL A   1      48.942  17.689  48.847  1.00  0.00    +0.000 F 
ATOM     64  C43 UNL A   1      47.504  15.966  49.583  1.00  0.00    +0.000 C 
ENDBRANCH   56   57
BRANCH   71   72
ATOM     72  C48 UNL A   1      43.896  12.224  44.973  1.00  0.00    +0.000 C 
ATOM     73  C49 UNL A   1      43.259  11.026  44.612  1.00  0.00    +0.000 C 
ATOM     74  F11 UNL A   1      43.345   9.951  45.410  1.00  0.00    +0.000 F 
ATOM     75  C50 UNL A   1      42.463  10.933  43.466  1.00  0.00    +0.000 C 
ATOM     76  F12 UNL A   1      41.818   9.792  43.189  1.00  0.00    +0.000 F 
ATOM     77  C51 UNL A   1      42.287  12.036  42.645  1.00  0.00    +0.000 C 
ATOM     78  F13 UNL A   1      41.470  11.968  41.584  1.00  0.00    +0.000 F 
ATOM     79  C52 UNL A   1      42.927  13.222  42.955  1.00  0.00    +0.000 C 
ATOM     80  F14 UNL A   1      42.733  14.306  42.191  1.00  0.00    +0.000 F 
ATOM     81  C53 UNL A   1      43.719  13.315  44.101  1.00  0.00    +0.000 C 
ATOM     82  F15 UNL A   1      44.228  14.520  44.395  1.00  0.00    +0.000 F 
ENDBRANCH   71   72
TORSDOF 19
ENDMDL
MODEL 10
REMARK VINA RESULT:      -8.9     56.473     62.778
ROOT
ATOM    129  H32 UNL A   1      -1.947  12.962  40.856  1.00  0.00    +0.000 H 
ATOM    130  H33 UNL A   1      -0.661  11.402  42.464  1.00  0.00    +0.000 H 
ATOM     35  C24 UNL A   1       2.107  11.164  41.726  1.00  0.00    +0.000 C 
ATOM     36  C25 UNL A   1       1.094  12.112  41.210  1.00  0.00    +0.000 C 
ATOM     37  N5  UNL A   1       1.230  12.952  40.239  1.00  0.00    +0.000 N 
ATOM     38  C26 UNL A   1       0.026  13.642  40.167  1.00  0.00    +0.000 C 
ATOM     39  C27 UNL A   1      -0.000  14.936  39.740  1.00  0.00    +0.000 C 
ATOM     51  C34 UNL A   1       1.235  15.269  39.064  1.00  0.00    +0.000 C 
ATOM     52  C35 UNL A   1       1.903  14.782  37.957  1.00  0.00    +0.000 C 
ATOM     53  C36 UNL A   1       3.287  14.835  38.304  1.00  0.00    +0.000 C 
ATOM     54  C37 UNL A   1       3.393  15.419  39.567  1.00  0.00    +0.000 C 
ATOM     55  N6  UNL A   1       2.167  15.993  39.767  1.00  0.00    +0.000 N 
ATOM     56  C38 UNL A   1       4.442  15.422  40.558  1.00  0.00    +0.000 C 
ATOM     68  C45 UNL A   1       4.257  15.663  41.889  1.00  0.00    +0.000 C 
ATOM     69  N7  UNL A   1       5.174  15.209  42.826  1.00  0.00    +0.000 N 
ATOM     70  C46 UNL A   1       4.474  15.034  43.915  1.00  0.00    +0.000 C 
ATOM     71  C47 UNL A   1       4.660  13.873  44.823  1.00  0.00    +0.000 C 
ATOM     83  C54 UNL A   1       4.269  12.774  44.130  1.00  0.00    +0.000 C 
ATOM     84  C55 UNL A   1       4.559  11.378  44.354  1.00  0.00    +0.000 C 
ATOM     85  C56 UNL A   1       3.956  10.659  43.386  1.00  0.00    +0.000 C 
ATOM     86  C57 UNL A   1       3.085  11.529  42.586  1.00  0.00    +0.000 C 
ATOM     87  N8  UNL A   1       3.411  12.798  43.007  1.00  0.00    +0.000 N 
ATOM     88  C58 UNL A   1       3.195  15.724  43.957  1.00  0.00    +0.000 C 
ATOM     89  C59 UNL A   1       3.072  16.029  42.662  1.00  0.00    +0.000 C 
ATOM     90  C60 UNL A   1      -0.921  12.864  40.918  1.00  0.00    +0.000 C 
ATOM     91  C61 UNL A   1      -0.286  11.995  41.708  1.00  0.00    +0.000 C 
ATOM    121  H24 UNL A   1       1.490  14.451  37.070  1.00  0.00    +0.000 H 
ATOM    122  H25 UNL A   1       4.070  14.499  37.723  1.00  0.00    +0.000 H 
ATOM    123  H26 UNL A   1       1.984  16.788  40.320  1.00  0.00    +0.000 H 
ATOM    124  H27 UNL A   1       5.132  10.994  45.123  1.00  0.00    +0.000 H 
ATOM    125  H28 UNL A   1       4.085   9.646  43.232  1.00  0.00    +0.000 H 
ATOM    126  H29 UNL A   1       3.085  13.622  42.579  1.00  0.00    +0.000 H 
ATOM    127  H30 UNL A   1       2.568  15.920  44.753  1.00  0.00    +0.000 H 
ATOM    128  H31 UNL A   1       2.235  16.473  42.254  1.00  0.00    +0.000 H 
ENDROOT
BRANCH   35   34
ATOM     33  C22 UNL A   1       1.038   8.970  42.297  1.00  0.00    +0.000 C 
ATOM     34  C23 UNL A   1       1.812   9.769  41.442  1.00  0.00    +0.000 C 
ATOM    131  H34 UNL A   1       3.099   9.779  39.773  1.00  0.00    +0.000 H 
ATOM    132  H35 UNL A   1       2.230   7.675  38.940  1.00  0.00    +0.000 H 
ATOM    119  H22 UNL A   1       0.378   6.992  42.647  1.00  0.00    +0.000 H 
ATOM    120  H23 UNL A   1       0.594   9.378  43.135  1.00  0.00    +0.000 H 
ATOM     92  C62 UNL A   1       2.400   9.237  40.306  1.00  0.00    +0.000 C 
ATOM     93  C63 UNL A   1       2.039   7.985  39.906  1.00  0.00    +0.000 C 
ATOM     31  C20 UNL A   1       1.414   7.129  40.803  1.00  0.00    +0.000 C 
ATOM     32  C21 UNL A   1       0.880   7.619  41.999  1.00  0.00    +0.000 C 
BRANCH   31   29
ATOM     29  C19 UNL A   1       1.369   5.700  40.452  1.00  0.00    +0.000 C 
ATOM     30  O6  UNL A   1       0.295   5.115  40.377  1.00  0.00    +0.000 O 
BRANCH   29   28
ATOM     28  N4  UNL A   1       2.556   5.037  40.199  1.00  0.00    +0.000 N 
ATOM    118  H21 UNL A   1       3.205   5.013  40.938  1.00  0.00    +0.000 H 
BRANCH   28   27
ATOM     27  C18 UNL A   1       2.965   4.366  38.959  1.00  0.00    +0.000 C 
ATOM    116  H19 UNL A   1       3.560   3.512  39.208  1.00  0.00    +0.000 H 
ATOM    117  H20 UNL A   1       2.080   4.079  38.430  1.00  0.00    +0.000 H 
BRANCH   27   26
ATOM     26  C17 UNL A   1       3.775   5.284  38.059  1.00  0.00    +0.000 C 
ATOM    115  H18 UNL A   1       4.790   5.238  38.395  1.00  0.00    +0.000 H 
ATOM    114  H17 UNL A   1       3.368   6.271  38.128  1.00  0.00    +0.000 H 
BRANCH   26   25
ATOM     25  C16 UNL A   1       3.770   4.859  36.582  1.00  0.00    +0.000 C 
ATOM    113  H16 UNL A   1       3.796   3.789  36.593  1.00  0.00    +0.000 H 
ATOM    112  H15 UNL A   1       4.612   5.317  36.108  1.00  0.00    +0.000 H 
BRANCH   25   24
ATOM    110  H13 UNL A   1       1.760   5.544  36.459  1.00  0.00    +0.000 H 
ATOM    111  H14 UNL A   1       2.823   5.997  35.090  1.00  0.00    +0.000 H 
ATOM     24  C15 UNL A   1       2.517   5.231  35.771  1.00  0.00    +0.000 C 
BRANCH   24   23
ATOM    108  H11 UNL A   1       1.466   4.541  34.049  1.00  0.00    +0.000 H 
ATOM    109  H12 UNL A   1       2.743   3.458  34.636  1.00  0.00    +0.000 H 
ATOM     23  C14 UNL A   1       1.934   4.105  34.906  1.00  0.00    +0.000 C 
BRANCH   23   22
ATOM    106  H9  UNL A   1       0.117   2.977  34.968  1.00  0.00    +0.000 H 
ATOM    107  H10 UNL A   1       1.374   2.376  36.030  1.00  0.00    +0.000 H 
ATOM     22  C13 UNL A   1       0.898   3.254  35.647  1.00  0.00    +0.000 C 
BRANCH   22   21
ATOM    105  H8  UNL A   1       0.928   4.072  37.529  1.00  0.00    +0.000 H 
ATOM     21  N3  UNL A   1       0.332   4.009  36.748  1.00  0.00    +0.000 N 
BRANCH   21   19
ATOM     19  C12 UNL A   1      -0.869   4.651  36.922  1.00  0.00    +0.000 C 
ATOM     20  O5  UNL A   1      -1.870   3.958  37.094  1.00  0.00    +0.000 O 
BRANCH   19   18
ATOM    133  H36 UNL A   1      -1.392   6.579  38.845  1.00  0.00    +0.000 H 
ATOM    134  H37 UNL A   1      -1.126   8.974  38.582  1.00  0.00    +0.000 H 
ATOM    103  H6  UNL A   1      -0.984   8.489  34.411  1.00  0.00    +0.000 H 
ATOM    104  H7  UNL A   1      -0.921   6.078  34.708  1.00  0.00    +0.000 H 
ATOM     15  C8  UNL A   1      -0.967   8.914  36.480  1.00  0.00    +0.000 C 
ATOM     16  C9  UNL A   1      -0.974   8.083  35.360  1.00  0.00    +0.000 C 
ATOM     17  C10 UNL A   1      -0.967   6.695  35.534  1.00  0.00    +0.000 C 
ATOM     18  C11 UNL A   1      -1.021   6.130  36.819  1.00  0.00    +0.000 C 
ATOM     94  C64 UNL A   1      -1.194   6.976  37.914  1.00  0.00    +0.000 C 
ATOM     95  C65 UNL A   1      -1.099   8.358  37.755  1.00  0.00    +0.000 C 
BRANCH   15   14
ATOM    102  H5  UNL A   1       0.598  13.090  36.746  1.00  0.00    +0.000 H 
ATOM      9  C5  UNL A   1       0.327  11.035  36.621  1.00  0.00    +0.000 C 
ATOM     10  C6  UNL A   1      -0.052  12.307  36.579  1.00  0.00    +0.000 C 
ATOM     11  O3  UNL A   1      -1.403  12.495  36.288  1.00  0.00    +0.000 O 
ATOM     12  C7  UNL A   1      -1.852  11.181  36.147  1.00  0.00    +0.000 C 
ATOM     13  O4  UNL A   1      -3.023  10.904  35.923  1.00  0.00    +0.000 O 
ATOM     14  N2  UNL A   1      -0.792  10.301  36.348  1.00  0.00    +0.000 N 
BRANCH    9    8
ATOM     97  C67 UNL A   1       3.309   8.724  36.456  1.00  0.00    +0.000 C 
ATOM    100  H3  UNL A   1       4.703  11.371  37.987  1.00  0.00    +0.000 H 
ATOM      5  C1  UNL A   1       4.288   9.515  37.067  1.00  0.00    +0.000 C 
ATOM      6  C2  UNL A   1       3.977  10.790  37.539  1.00  0.00    +0.000 C 
ATOM      7  C3  UNL A   1       2.674  11.274  37.400  1.00  0.00    +0.000 C 
ATOM    136  H39 UNL A   1       3.548   7.785  36.104  1.00  0.00    +0.000 H 
ATOM    101  H4  UNL A   1       2.440  12.215  37.752  1.00  0.00    +0.000 H 
ATOM    135  H38 UNL A   1       1.277   8.624  35.888  1.00  0.00    +0.000 H 
ATOM      8  C4  UNL A   1       1.676  10.496  36.783  1.00  0.00    +0.000 C 
ATOM     96  C66 UNL A   1       2.004   9.213  36.325  1.00  0.00    +0.000 C 
BRANCH    5    2
ATOM      2  S1  UNL A   1       5.948   8.911  37.178  1.00  0.00    +0.000 S 
ATOM      3  O1  UNL A   1       6.070   8.069  38.353  1.00  0.00    +0.000 O 
ATOM      4  O2  UNL A   1       6.854   9.991  36.904  1.00  0.00    +0.000 O 
BRANCH    2    1
ATOM      1  N1  UNL A   1       6.033   7.867  35.865  1.00  0.00    +0.000 N 
ATOM     98  H1  UNL A   1       5.230   8.022  35.255  1.00  0.00    +0.000 H 
ATOM     99  H2  UNL A   1       6.027   6.903  36.197  1.00  0.00    +0.000 H 
ENDBRANCH    2    1
ENDBRANCH    5    2
ENDBRANCH    9    8
ENDBRANCH   15   14
ENDBRANCH   19   18
ENDBRANCH   21   19
ENDBRANCH   22   21
ENDBRANCH   23   22
ENDBRANCH   24   23
ENDBRANCH   25   24
ENDBRANCH   26   25
ENDBRANCH   27   26
ENDBRANCH   28   27
ENDBRANCH   29   28
ENDBRANCH   31   29
ENDBRANCH   35   34
BRANCH   39   40
ATOM     40  C28 UNL A   1      -0.910  16.012  40.302  1.00  0.00    +0.000 C 
ATOM     41  C29 UNL A   1      -1.871  16.587  39.442  1.00  0.00    +0.000 C 
ATOM     42  F1  UNL A   1      -2.191  15.996  38.280  1.00  0.00    +0.000 F 
ATOM     43  C30 UNL A   1      -2.444  17.836  39.696  1.00  0.00    +0.000 C 
ATOM     44  F2  UNL A   1      -3.229  18.406  38.773  1.00  0.00    +0.000 F 
ATOM     45  C31 UNL A   1      -2.140  18.521  40.856  1.00  0.00    +0.000 C 
ATOM     46  F3  UNL A   1      -2.625  19.751  41.068  1.00  0.00    +0.000 F 
ATOM     47  C32 UNL A   1      -1.295  17.943  41.776  1.00  0.00    +0.000 C 
ATOM     48  F4  UNL A   1      -0.986  18.593  42.908  1.00  0.00    +0.000 F 
ATOM     49  C33 UNL A   1      -0.683  16.721  41.502  1.00  0.00    +0.000 C 
ATOM     50  F5  UNL A   1       0.206  16.330  42.420  1.00  0.00    +0.000 F 
ENDBRANCH   39   40
BRANCH   56   57
ATOM     65  F9  UNL A   1       7.336  11.633  39.675  1.00  0.00    +0.000 F 
ATOM     66  C44 UNL A   1       5.954  13.522  39.996  1.00  0.00    +0.000 C 
ATOM     67  F10 UNL A   1       4.909  12.700  40.185  1.00  0.00    +0.000 F 
ATOM     57  C39 UNL A   1       5.786  14.906  40.119  1.00  0.00    +0.000 C 
ATOM     58  C40 UNL A   1       6.927  15.713  39.965  1.00  0.00    +0.000 C 
ATOM     59  F6  UNL A   1       6.866  17.036  40.162  1.00  0.00    +0.000 F 
ATOM     60  C41 UNL A   1       8.170  15.156  39.663  1.00  0.00    +0.000 C 
ATOM     61  F7  UNL A   1       9.242  15.947  39.510  1.00  0.00    +0.000 F 
ATOM     62  C42 UNL A   1       8.307  13.782  39.554  1.00  0.00    +0.000 C 
ATOM     63  F8  UNL A   1       9.508  13.241  39.305  1.00  0.00    +0.000 F 
ATOM     64  C43 UNL A   1       7.201  12.965  39.731  1.00  0.00    +0.000 C 
ENDBRANCH   56   57
BRANCH   71   72
ATOM     72  C48 UNL A   1       4.901  14.025  46.276  1.00  0.00    +0.000 C 
ATOM     73  C49 UNL A   1       3.992  13.518  47.218  1.00  0.00    +0.000 C 
ATOM     74  F11 UNL A   1       2.780  13.095  46.826  1.00  0.00    +0.000 F 
ATOM     75  C50 UNL A   1       4.337  13.367  48.565  1.00  0.00    +0.000 C 
ATOM     76  F12 UNL A   1       3.466  12.818  49.423  1.00  0.00    +0.000 F 
ATOM     77  C51 UNL A   1       5.601  13.726  49.008  1.00  0.00    +0.000 C 
ATOM     78  F13 UNL A   1       5.956  13.518  50.284  1.00  0.00    +0.000 F 
ATOM     79  C52 UNL A   1       6.508  14.259  48.112  1.00  0.00    +0.000 C 
ATOM     80  F14 UNL A   1       7.746  14.571  48.519  1.00  0.00    +0.000 F 
ATOM     81  C53 UNL A   1       6.165  14.406  46.766  1.00  0.00    +0.000 C 
ATOM     82  F15 UNL A   1       7.124  14.834  45.934  1.00  0.00    +0.000 F 
ENDBRANCH   71   72
TORSDOF 19
ENDMDL
