MODEL 1
REMARK VINA RESULT:      -9.7      0.000      0.000
ROOT
ATOM    129  H35 UNL A   1      21.831 -10.045  32.361  1.00  0.00    +0.000 H 
ATOM    130  H36 UNL A   1      22.537 -10.917  30.060  1.00  0.00    +0.000 H 
ATOM     36  C27 UNL A   1      24.865 -12.561  30.123  1.00  0.00    +0.000 C 
ATOM     37  C28 UNL A   1      24.115 -11.982  31.289  1.00  0.00    +0.000 C 
ATOM     38  N4  UNL A   1      24.356 -12.106  32.572  1.00  0.00    +0.000 N 
ATOM     39  C29 UNL A   1      23.391 -11.343  33.215  1.00  0.00    +0.000 C 
ATOM     40  C30 UNL A   1      23.179 -11.192  34.545  1.00  0.00    +0.000 C 
ATOM     52  C37 UNL A   1      23.967 -11.829  35.569  1.00  0.00    +0.000 C 
ATOM     53  C38 UNL A   1      23.782 -11.804  36.941  1.00  0.00    +0.000 C 
ATOM     54  C39 UNL A   1      24.830 -12.516  37.538  1.00  0.00    +0.000 C 
ATOM     55  C40 UNL A   1      25.639 -13.028  36.535  1.00  0.00    +0.000 C 
ATOM     56  N5  UNL A   1      25.098 -12.597  35.333  1.00  0.00    +0.000 N 
ATOM     57  C41 UNL A   1      26.819 -13.846  36.660  1.00  0.00    +0.000 C 
ATOM     69  C48 UNL A   1      27.537 -14.337  35.620  1.00  0.00    +0.000 C 
ATOM     70  N6  UNL A   1      27.327 -14.169  34.258  1.00  0.00    +0.000 N 
ATOM     71  C49 UNL A   1      28.298 -14.816  33.661  1.00  0.00    +0.000 C 
ATOM     72  C50 UNL A   1      28.558 -14.995  32.191  1.00  0.00    +0.000 C 
ATOM     84  C57 UNL A   1      27.723 -14.425  31.301  1.00  0.00    +0.000 C 
ATOM     85  C58 UNL A   1      27.836 -14.531  29.850  1.00  0.00    +0.000 C 
ATOM     86  C59 UNL A   1      26.833 -13.844  29.283  1.00  0.00    +0.000 C 
ATOM     87  C60 UNL A   1      25.985 -13.277  30.334  1.00  0.00    +0.000 C 
ATOM     88  N7  UNL A   1      26.607 -13.651  31.499  1.00  0.00    +0.000 N 
ATOM     89  C61 UNL A   1      29.249 -15.455  34.581  1.00  0.00    +0.000 C 
ATOM     90  C62 UNL A   1      28.715 -15.169  35.760  1.00  0.00    +0.000 C 
ATOM     91  C63 UNL A   1      22.589 -10.722  32.182  1.00  0.00    +0.000 C 
ATOM     92  C64 UNL A   1      22.956 -11.134  30.977  1.00  0.00    +0.000 C 
ATOM    121  H27 UNL A   1      23.006 -11.341  37.440  1.00  0.00    +0.000 H 
ATOM    122  H28 UNL A   1      24.976 -12.639  38.551  1.00  0.00    +0.000 H 
ATOM    123  H29 UNL A   1      25.461 -12.807  34.443  1.00  0.00    +0.000 H 
ATOM    124  H30 UNL A   1      28.570 -15.049  29.342  1.00  0.00    +0.000 H 
ATOM    125  H31 UNL A   1      26.681 -13.734  28.268  1.00  0.00    +0.000 H 
ATOM    126  H32 UNL A   1      26.283 -13.388  32.391  1.00  0.00    +0.000 H 
ATOM    127  H33 UNL A   1      30.106 -15.987  34.366  1.00  0.00    +0.000 H 
ATOM    128  H34 UNL A   1      29.091 -15.498  36.663  1.00  0.00    +0.000 H 
ENDROOT
BRANCH   36   35
ATOM     33  C24 UNL A   1      24.253 -10.849  26.794  1.00  0.00    +0.000 C 
ATOM     34  C25 UNL A   1      24.753 -11.118  28.071  1.00  0.00    +0.000 C 
ATOM     35  C26 UNL A   1      24.416 -12.312  28.729  1.00  0.00    +0.000 C 
ATOM    132  H38 UNL A   1      22.658 -13.747  26.250  1.00  0.00    +0.000 H 
ATOM    131  H37 UNL A   1      23.372 -14.140  28.533  1.00  0.00    +0.000 H 
ATOM    119  H25 UNL A   1      24.481  -9.958  26.328  1.00  0.00    +0.000 H 
ATOM    120  H26 UNL A   1      25.372 -10.435  28.533  1.00  0.00    +0.000 H 
ATOM     93  C65 UNL A   1      23.626 -13.260  28.061  1.00  0.00    +0.000 C 
ATOM     94  C66 UNL A   1      23.181 -13.018  26.761  1.00  0.00    +0.000 C 
ATOM     32  C23 UNL A   1      23.442 -11.789  26.148  1.00  0.00    +0.000 C 
BRANCH   32   30
ATOM     30  C22 UNL A   1      22.917 -11.454  24.802  1.00  0.00    +0.000 C 
ATOM     31  O2  UNL A   1      21.801 -11.836  24.479  1.00  0.00    +0.000 O 
BRANCH   30   29
ATOM     29  N3  UNL A   1      23.680 -10.744  23.907  1.00  0.00    +0.000 N 
ATOM    118  H24 UNL A   1      23.530  -9.771  23.914  1.00  0.00    +0.000 H 
BRANCH   29   28
ATOM    116  H22 UNL A   1      24.173 -11.512  22.058  1.00  0.00    +0.000 H 
ATOM     28  C21 UNL A   1      24.674 -11.205  22.952  1.00  0.00    +0.000 C 
ATOM    117  H23 UNL A   1      25.347 -10.393  22.770  1.00  0.00    +0.000 H 
BRANCH   28   27
ATOM    114  H20 UNL A   1      24.898 -12.916  24.179  1.00  0.00    +0.000 H 
ATOM     27  C20 UNL A   1      25.500 -12.377  23.478  1.00  0.00    +0.000 C 
ATOM    115  H21 UNL A   1      25.778 -12.950  22.618  1.00  0.00    +0.000 H 
BRANCH   27   26
ATOM    113  H19 UNL A   1      26.730 -10.952  24.387  1.00  0.00    +0.000 H 
ATOM     26  C19 UNL A   1      26.810 -11.997  24.174  1.00  0.00    +0.000 C 
ATOM    112  H18 UNL A   1      27.615 -12.250  23.516  1.00  0.00    +0.000 H 
BRANCH   26   25
ATOM     25  C18 UNL A   1      27.077 -12.674  25.519  1.00  0.00    +0.000 C 
ATOM    110  H16 UNL A   1      26.194 -12.574  26.114  1.00  0.00    +0.000 H 
ATOM    111  H17 UNL A   1      27.340 -13.683  25.279  1.00  0.00    +0.000 H 
BRANCH   25   24
ATOM    108  H14 UNL A   1      28.058 -12.343  27.368  1.00  0.00    +0.000 H 
ATOM    109  H15 UNL A   1      29.122 -12.621  25.945  1.00  0.00    +0.000 H 
ATOM     24  C17 UNL A   1      28.255 -12.133  26.338  1.00  0.00    +0.000 C 
BRANCH   24   23
ATOM    106  H12 UNL A   1      29.596 -10.490  26.246  1.00  0.00    +0.000 H 
ATOM    107  H13 UNL A   1      28.112 -10.312  25.287  1.00  0.00    +0.000 H 
ATOM     23  C16 UNL A   1      28.537 -10.639  26.213  1.00  0.00    +0.000 C 
BRANCH   23   22
ATOM    105  H11 UNL A   1      27.613 -10.288  28.091  1.00  0.00    +0.000 H 
ATOM     22  N2  UNL A   1      27.928  -9.852  27.267  1.00  0.00    +0.000 N 
BRANCH   22    2
ATOM      1  O1  UNL A   1      27.428  -7.960  26.059  1.00  0.00    +0.000 O 
ATOM      2  C1  UNL A   1      27.790  -8.487  27.108  1.00  0.00    +0.000 C 
BRANCH    2    3
ATOM      3  C2  UNL A   1      28.047  -7.674  28.354  1.00  0.00    +0.000 C 
ATOM     95  H1  UNL A   1      27.659  -6.693  28.180  1.00  0.00    +0.000 H 
ATOM     96  H2  UNL A   1      29.105  -7.734  28.502  1.00  0.00    +0.000 H 
BRANCH    3    4
ATOM     97  H3  UNL A   1      25.515  -7.761  28.901  1.00  0.00    +0.000 H 
ATOM     98  H4  UNL A   1      24.305  -8.426  30.883  1.00  0.00    +0.000 H 
ATOM     99  H5  UNL A   1      25.529  -9.133  32.852  1.00  0.00    +0.000 H 
ATOM      4  C3  UNL A   1      27.450  -8.172  29.661  1.00  0.00    +0.000 C 
ATOM      5  C4  UNL A   1      26.038  -8.098  29.724  1.00  0.00    +0.000 C 
ATOM      6  C5  UNL A   1      25.336  -8.467  30.869  1.00  0.00    +0.000 C 
ATOM    100  H6  UNL A   1      27.940  -9.268  32.792  1.00  0.00    +0.000 H 
ATOM      8  C7  UNL A   1      27.428  -8.984  31.941  1.00  0.00    +0.000 C 
ATOM      9  C8  UNL A   1      28.155  -8.706  30.767  1.00  0.00    +0.000 C 
ATOM      7  C6  UNL A   1      26.036  -8.890  31.988  1.00  0.00    +0.000 C 
BRANCH    9   10
ATOM     10  N1  UNL A   1      29.567  -8.844  30.759  1.00  0.00    +0.000 N 
ATOM    101  H7  UNL A   1      30.051  -8.346  31.458  1.00  0.00    +0.000 H 
BRANCH   10   11
ATOM    102  H8  UNL A   1      30.791 -12.872  29.078  1.00  0.00    +0.000 H 
ATOM    103  H9  UNL A   1      32.626 -11.948  27.785  1.00  0.00    +0.000 H 
ATOM    104  H10 UNL A   1      33.042  -9.566  27.834  1.00  0.00    +0.000 H 
ATOM     11  C9  UNL A   1      30.372  -9.609  29.873  1.00  0.00    +0.000 C 
ATOM     12  C10 UNL A   1      30.172 -11.003  29.835  1.00  0.00    +0.000 C 
ATOM     13  F1  UNL A   1      29.174 -11.553  30.536  1.00  0.00    +0.000 F 
ATOM     14  C11 UNL A   1      30.975 -11.857  29.086  1.00  0.00    +0.000 C 
ATOM     15  C12 UNL A   1      32.025 -11.331  28.352  1.00  0.00    +0.000 C 
ATOM     16  C13 UNL A   1      32.263  -9.955  28.387  1.00  0.00    +0.000 C 
ATOM     17  C14 UNL A   1      31.464  -9.081  29.163  1.00  0.00    +0.000 C 
ATOM     18  C15 UNL A   1      31.817  -7.614  29.166  1.00  0.00    +0.000 C 
ATOM     19  F2  UNL A   1      33.147  -7.403  28.932  1.00  0.00    +0.000 F 
ATOM     20  F3  UNL A   1      31.170  -6.923  28.186  1.00  0.00    +0.000 F 
ATOM     21  F4  UNL A   1      31.561  -6.971  30.336  1.00  0.00    +0.000 F 
ENDBRANCH   10   11
ENDBRANCH    9   10
ENDBRANCH    3    4
ENDBRANCH    2    3
ENDBRANCH   22    2
ENDBRANCH   23   22
ENDBRANCH   24   23
ENDBRANCH   25   24
ENDBRANCH   26   25
ENDBRANCH   27   26
ENDBRANCH   28   27
ENDBRANCH   29   28
ENDBRANCH   30   29
ENDBRANCH   32   30
ENDBRANCH   36   35
BRANCH   40   41
ATOM     41  C31 UNL A   1      22.051 -10.294  34.969  1.00  0.00    +0.000 C 
ATOM     42  C32 UNL A   1      20.728 -10.757  35.045  1.00  0.00    +0.000 C 
ATOM     43  F5  UNL A   1      20.434 -12.021  34.704  1.00  0.00    +0.000 F 
ATOM     44  C33 UNL A   1      19.692  -9.909  35.430  1.00  0.00    +0.000 C 
ATOM     45  F6  UNL A   1      18.430 -10.359  35.442  1.00  0.00    +0.000 F 
ATOM     46  C34 UNL A   1      19.961  -8.596  35.785  1.00  0.00    +0.000 C 
ATOM     47  F7  UNL A   1      18.964  -7.783  36.157  1.00  0.00    +0.000 F 
ATOM     48  C35 UNL A   1      21.265  -8.125  35.744  1.00  0.00    +0.000 C 
ATOM     49  F8  UNL A   1      21.529  -6.860  36.100  1.00  0.00    +0.000 F 
ATOM     50  C36 UNL A   1      22.299  -8.961  35.330  1.00  0.00    +0.000 C 
ATOM     51  F9  UNL A   1      23.545  -8.468  35.283  1.00  0.00    +0.000 F 
ENDBRANCH   40   41
BRANCH   57   58
ATOM     65  C46 UNL A   1      26.992 -15.485  40.092  1.00  0.00    +0.000 C 
ATOM     66  F13 UNL A   1      26.288 -16.370  40.813  1.00  0.00    +0.000 F 
ATOM     67  C47 UNL A   1      26.574 -15.147  38.808  1.00  0.00    +0.000 C 
ATOM     68  F14 UNL A   1      25.472 -15.730  38.315  1.00  0.00    +0.000 F 
ATOM     58  C42 UNL A   1      27.284 -14.211  38.041  1.00  0.00    +0.000 C 
ATOM     59  C43 UNL A   1      28.426 -13.627  38.609  1.00  0.00    +0.000 C 
ATOM     60  F10 UNL A   1      29.150 -12.741  37.910  1.00  0.00    +0.000 F 
ATOM     61  C44 UNL A   1      28.860 -13.993  39.882  1.00  0.00    +0.000 C 
ATOM     62  F11 UNL A   1      29.986 -13.465  40.380  1.00  0.00    +0.000 F 
ATOM     63  C45 UNL A   1      28.140 -14.916  40.623  1.00  0.00    +0.000 C 
ATOM     64  F12 UNL A   1      28.558 -15.267  41.848  1.00  0.00    +0.000 F 
ENDBRANCH   57   58
BRANCH   72   73
ATOM     73  C51 UNL A   1      29.696 -15.821  31.713  1.00  0.00    +0.000 C 
ATOM     74  C52 UNL A   1      30.946 -15.240  31.459  1.00  0.00    +0.000 C 
ATOM     75  F15 UNL A   1      31.114 -13.919  31.619  1.00  0.00    +0.000 F 
ATOM     76  C53 UNL A   1      32.017 -16.007  31.008  1.00  0.00    +0.000 C 
ATOM     77  F16 UNL A   1      33.191 -15.420  30.736  1.00  0.00    +0.000 F 
ATOM     78  C54 UNL A   1      31.867 -17.373  30.827  1.00  0.00    +0.000 C 
ATOM     79  F17 UNL A   1      32.901 -18.112  30.401  1.00  0.00    +0.000 F 
ATOM     80  C55 UNL A   1      30.644 -17.973  31.084  1.00  0.00    +0.000 C 
ATOM     81  F18 UNL A   1      30.500 -19.295  30.926  1.00  0.00    +0.000 F 
ATOM     82  C56 UNL A   1      29.564 -17.202  31.510  1.00  0.00    +0.000 C 
ATOM     83  F19 UNL A   1      28.389 -17.807  31.743  1.00  0.00    +0.000 F 
ENDBRANCH   72   73
TORSDOF 18
ENDMDL
MODEL 2
REMARK VINA RESULT:      -9.6     65.377     70.893
ROOT
ATOM    129  H35 UNL A   1      15.084  46.977   0.461  1.00  0.00    +0.000 H 
ATOM    130  H36 UNL A   1      13.262  46.951   2.260  1.00  0.00    +0.000 H 
ATOM     36  C27 UNL A   1      13.058  49.391   3.718  1.00  0.00    +0.000 C 
ATOM     37  C28 UNL A   1      13.929  49.100   2.529  1.00  0.00    +0.000 C 
ATOM     38  N4  UNL A   1      14.770  49.889   1.906  1.00  0.00    +0.000 N 
ATOM     39  C29 UNL A   1      15.344  49.117   0.905  1.00  0.00    +0.000 C 
ATOM     40  C30 UNL A   1      16.234  49.491  -0.047  1.00  0.00    +0.000 C 
ATOM     52  C37 UNL A   1      16.764  50.824  -0.184  1.00  0.00    +0.000 C 
ATOM     53  C38 UNL A   1      17.606  51.323  -1.163  1.00  0.00    +0.000 C 
ATOM     54  C39 UNL A   1      17.902  52.655  -0.850  1.00  0.00    +0.000 C 
ATOM     55  C40 UNL A   1      17.204  53.002   0.296  1.00  0.00    +0.000 C 
ATOM     56  N5  UNL A   1      16.510  51.869   0.694  1.00  0.00    +0.000 N 
ATOM     57  C41 UNL A   1      17.171  54.270   0.980  1.00  0.00    +0.000 C 
ATOM     69  C48 UNL A   1      16.428  54.538   2.084  1.00  0.00    +0.000 C 
ATOM     70  N6  UNL A   1      15.577  53.696   2.788  1.00  0.00    +0.000 N 
ATOM     71  C49 UNL A   1      15.112  54.408   3.785  1.00  0.00    +0.000 C 
ATOM     72  C50 UNL A   1      14.131  54.017   4.855  1.00  0.00    +0.000 C 
ATOM     84  C57 UNL A   1      13.626  52.769   4.861  1.00  0.00    +0.000 C 
ATOM     85  C58 UNL A   1      12.653  52.256   5.819  1.00  0.00    +0.000 C 
ATOM     86  C59 UNL A   1      12.375  50.978   5.518  1.00  0.00    +0.000 C 
ATOM     87  C60 UNL A   1      13.127  50.593   4.323  1.00  0.00    +0.000 C 
ATOM     88  N7  UNL A   1      13.864  51.710   4.019  1.00  0.00    +0.000 N 
ATOM     89  C61 UNL A   1      15.632  55.782   3.838  1.00  0.00    +0.000 C 
ATOM     90  C62 UNL A   1      16.395  55.821   2.755  1.00  0.00    +0.000 C 
ATOM     91  C63 UNL A   1      14.793  47.785   1.033  1.00  0.00    +0.000 C 
ATOM     92  C64 UNL A   1      13.868  47.738   1.981  1.00  0.00    +0.000 C 
ATOM    121  H27 UNL A   1      17.955  50.803  -1.983  1.00  0.00    +0.000 H 
ATOM    122  H28 UNL A   1      18.533  53.274  -1.382  1.00  0.00    +0.000 H 
ATOM    123  H29 UNL A   1      15.923  51.814   1.482  1.00  0.00    +0.000 H 
ATOM    124  H30 UNL A   1      12.244  52.790   6.602  1.00  0.00    +0.000 H 
ATOM    125  H31 UNL A   1      11.732  50.366   6.044  1.00  0.00    +0.000 H 
ATOM    126  H32 UNL A   1      14.501  51.748   3.270  1.00  0.00    +0.000 H 
ATOM    127  H33 UNL A   1      15.450  56.521   4.535  1.00  0.00    +0.000 H 
ATOM    128  H34 UNL A   1      16.901  56.660   2.431  1.00  0.00    +0.000 H 
ENDROOT
BRANCH   36   35
ATOM     33  C24 UNL A   1       9.910  47.504   4.672  1.00  0.00    +0.000 C 
ATOM     34  C25 UNL A   1      10.765  48.432   4.071  1.00  0.00    +0.000 C 
ATOM     35  C26 UNL A   1      12.153  48.353   4.273  1.00  0.00    +0.000 C 
ATOM    132  H38 UNL A   1      12.217  45.516   6.075  1.00  0.00    +0.000 H 
ATOM    131  H37 UNL A   1      13.690  47.225   5.186  1.00  0.00    +0.000 H 
ATOM    119  H25 UNL A   1       8.890  47.584   4.543  1.00  0.00    +0.000 H 
ATOM    120  H26 UNL A   1      10.375  49.178   3.477  1.00  0.00    +0.000 H 
ATOM     93  C65 UNL A   1      12.673  47.293   5.030  1.00  0.00    +0.000 C 
ATOM     94  C66 UNL A   1      11.822  46.330   5.576  1.00  0.00    +0.000 C 
ATOM     32  C23 UNL A   1      10.437  46.467   5.449  1.00  0.00    +0.000 C 
BRANCH   32   30
ATOM     30  C22 UNL A   1       9.492  45.517   6.084  1.00  0.00    +0.000 C 
ATOM     31  O2  UNL A   1       9.731  44.317   6.049  1.00  0.00    +0.000 O 
BRANCH   30   29
ATOM     29  N3  UNL A   1       8.341  45.965   6.684  1.00  0.00    +0.000 N 
ATOM    118  H24 UNL A   1       7.542  45.954   6.110  1.00  0.00    +0.000 H 
BRANCH   29   28
ATOM    116  H22 UNL A   1       7.872  47.494   7.986  1.00  0.00    +0.000 H 
ATOM     28  C21 UNL A   1       8.120  46.454   8.034  1.00  0.00    +0.000 C 
ATOM    117  H23 UNL A   1       7.325  45.877   8.460  1.00  0.00    +0.000 H 
BRANCH   28   27
ATOM    114  H20 UNL A   1       9.357  45.273   9.282  1.00  0.00    +0.000 H 
ATOM     27  C20 UNL A   1       9.343  46.284   8.933  1.00  0.00    +0.000 C 
ATOM    115  H21 UNL A   1      10.189  46.545   8.332  1.00  0.00    +0.000 H 
BRANCH   27   26
ATOM    113  H19 UNL A   1       8.543  46.944  10.749  1.00  0.00    +0.000 H 
ATOM     26  C19 UNL A   1       9.393  47.207  10.155  1.00  0.00    +0.000 C 
ATOM    112  H18 UNL A   1       9.386  48.217   9.802  1.00  0.00    +0.000 H 
BRANCH   26   25
ATOM     25  C18 UNL A   1      10.605  47.040  11.072  1.00  0.00    +0.000 C 
ATOM    110  H16 UNL A   1      10.313  47.347  12.055  1.00  0.00    +0.000 H 
ATOM    111  H17 UNL A   1      10.880  46.009  10.992  1.00  0.00    +0.000 H 
BRANCH   25   24
ATOM    108  H14 UNL A   1      11.597  48.525   9.931  1.00  0.00    +0.000 H 
ATOM    109  H15 UNL A   1      12.205  48.273  11.605  1.00  0.00    +0.000 H 
ATOM     24  C17 UNL A   1      11.865  47.826  10.695  1.00  0.00    +0.000 C 
BRANCH   24   23
ATOM    106  H12 UNL A   1      13.111  46.107  10.756  1.00  0.00    +0.000 H 
ATOM    107  H13 UNL A   1      12.867  46.810   9.144  1.00  0.00    +0.000 H 
ATOM     23  C16 UNL A   1      13.045  47.006  10.180  1.00  0.00    +0.000 C 
BRANCH   23   22
ATOM    105  H11 UNL A   1      14.570  48.149  11.113  1.00  0.00    +0.000 H 
ATOM     22  N2  UNL A   1      14.311  47.706  10.274  1.00  0.00    +0.000 N 
BRANCH   22    2
ATOM      1  O1  UNL A   1      16.332  47.407   9.215  1.00  0.00    +0.000 O 
ATOM      2  C1  UNL A   1      15.151  47.748   9.178  1.00  0.00    +0.000 C 
BRANCH    2    3
ATOM      3  C2  UNL A   1      14.492  48.178   7.890  1.00  0.00    +0.000 C 
ATOM     95  H1  UNL A   1      13.781  48.939   8.133  1.00  0.00    +0.000 H 
ATOM     96  H2  UNL A   1      14.083  47.276   7.482  1.00  0.00    +0.000 H 
BRANCH    3    4
ATOM     97  H3  UNL A   1      15.306  46.839   5.825  1.00  0.00    +0.000 H 
ATOM     98  H4  UNL A   1      16.757  47.421   3.983  1.00  0.00    +0.000 H 
ATOM     99  H5  UNL A   1      17.775  49.619   3.910  1.00  0.00    +0.000 H 
ATOM      4  C3  UNL A   1      15.383  48.726   6.786  1.00  0.00    +0.000 C 
ATOM      5  C4  UNL A   1      15.708  47.788   5.777  1.00  0.00    +0.000 C 
ATOM      6  C5  UNL A   1      16.554  48.114   4.720  1.00  0.00    +0.000 C 
ATOM    100  H6  UNL A   1      17.258  51.248   5.616  1.00  0.00    +0.000 H 
ATOM      8  C7  UNL A   1      16.803  50.322   5.647  1.00  0.00    +0.000 C 
ATOM      9  C8  UNL A   1      15.878  50.048   6.673  1.00  0.00    +0.000 C 
ATOM      7  C6  UNL A   1      17.121  49.377   4.668  1.00  0.00    +0.000 C 
BRANCH    9   10
ATOM     10  N1  UNL A   1      15.564  51.049   7.629  1.00  0.00    +0.000 N 
ATOM    101  H7  UNL A   1      15.024  51.803   7.299  1.00  0.00    +0.000 H 
BRANCH   10   11
ATOM    102  H8  UNL A   1      18.701  50.545  10.862  1.00  0.00    +0.000 H 
ATOM    103  H9  UNL A   1      17.114  50.876  12.669  1.00  0.00    +0.000 H 
ATOM    104  H10 UNL A   1      14.794  51.323  12.155  1.00  0.00    +0.000 H 
ATOM     11  C9  UNL A   1      15.930  51.102   9.000  1.00  0.00    +0.000 C 
ATOM     12  C10 UNL A   1      17.269  50.824   9.339  1.00  0.00    +0.000 C 
ATOM     13  F1  UNL A   1      18.175  50.632   8.373  1.00  0.00    +0.000 F 
ATOM     14  C11 UNL A   1      17.709  50.742  10.656  1.00  0.00    +0.000 C 
ATOM     15  C12 UNL A   1      16.804  50.927  11.686  1.00  0.00    +0.000 C 
ATOM     16  C13 UNL A   1      15.464  51.181  11.384  1.00  0.00    +0.000 C 
ATOM     17  C14 UNL A   1      15.003  51.245  10.048  1.00  0.00    +0.000 C 
ATOM     18  C15 UNL A   1      13.533  51.491   9.817  1.00  0.00    +0.000 C 
ATOM     19  F2  UNL A   1      12.765  51.036  10.853  1.00  0.00    +0.000 F 
ATOM     20  F3  UNL A   1      13.238  52.817   9.713  1.00  0.00    +0.000 F 
ATOM     21  F4  UNL A   1      13.022  50.887   8.711  1.00  0.00    +0.000 F 
ENDBRANCH   10   11
ENDBRANCH    9   10
ENDBRANCH    3    4
ENDBRANCH    2    3
ENDBRANCH   22    2
ENDBRANCH   23   22
ENDBRANCH   24   23
ENDBRANCH   25   24
ENDBRANCH   26   25
ENDBRANCH   27   26
ENDBRANCH   28   27
ENDBRANCH   29   28
ENDBRANCH   30   29
ENDBRANCH   32   30
ENDBRANCH   36   35
BRANCH   40   41
ATOM     41  C31 UNL A   1      16.696  48.439  -1.015  1.00  0.00    +0.000 C 
ATOM     42  C32 UNL A   1      15.952  48.109  -2.158  1.00  0.00    +0.000 C 
ATOM     43  F5  UNL A   1      14.778  48.713  -2.397  1.00  0.00    +0.000 F 
ATOM     44  C33 UNL A   1      16.389  47.123  -3.039  1.00  0.00    +0.000 C 
ATOM     45  F6  UNL A   1      15.633  46.787  -4.095  1.00  0.00    +0.000 F 
ATOM     46  C34 UNL A   1      17.596  46.477  -2.819  1.00  0.00    +0.000 C 
ATOM     47  F7  UNL A   1      18.016  45.531  -3.670  1.00  0.00    +0.000 F 
ATOM     48  C35 UNL A   1      18.362  46.806  -1.711  1.00  0.00    +0.000 C 
ATOM     49  F8  UNL A   1      19.535  46.192  -1.504  1.00  0.00    +0.000 F 
ATOM     50  C36 UNL A   1      17.913  47.769  -0.811  1.00  0.00    +0.000 C 
ATOM     51  F9  UNL A   1      18.668  48.050   0.261  1.00  0.00    +0.000 F 
ENDBRANCH   40   41
BRANCH   57   58
ATOM     65  C46 UNL A   1      19.969  56.814   0.544  1.00  0.00    +0.000 C 
ATOM     66  F13 UNL A   1      21.108  57.161   1.161  1.00  0.00    +0.000 F 
ATOM     67  C47 UNL A   1      19.200  55.766   1.044  1.00  0.00    +0.000 C 
ATOM     68  F14 UNL A   1      19.630  55.116   2.135  1.00  0.00    +0.000 F 
ATOM     58  C42 UNL A   1      17.996  55.396   0.426  1.00  0.00    +0.000 C 
ATOM     59  C43 UNL A   1      17.592  56.114  -0.709  1.00  0.00    +0.000 C 
ATOM     60  F10 UNL A   1      16.458  55.787  -1.346  1.00  0.00    +0.000 F 
ATOM     61  C44 UNL A   1      18.381  57.140  -1.225  1.00  0.00    +0.000 C 
ATOM     62  F11 UNL A   1      18.003  57.773  -2.344  1.00  0.00    +0.000 F 
ATOM     63  C45 UNL A   1      19.564  57.492  -0.596  1.00  0.00    +0.000 C 
ATOM     64  F12 UNL A   1      20.321  58.480  -1.093  1.00  0.00    +0.000 F 
ENDBRANCH   57   58
BRANCH   72   73
ATOM     73  C51 UNL A   1      13.684  54.999   5.876  1.00  0.00    +0.000 C 
ATOM     74  C52 UNL A   1      12.759  56.001   5.549  1.00  0.00    +0.000 C 
ATOM     75  F15 UNL A   1      12.293  56.097   4.295  1.00  0.00    +0.000 F 
ATOM     76  C53 UNL A   1      12.337  56.927   6.499  1.00  0.00    +0.000 C 
ATOM     77  F16 UNL A   1      11.481  57.898   6.151  1.00  0.00    +0.000 F 
ATOM     78  C54 UNL A   1      12.810  56.854   7.801  1.00  0.00    +0.000 C 
ATOM     79  F17 UNL A   1      12.396  57.740   8.717  1.00  0.00    +0.000 F 
ATOM     80  C55 UNL A   1      13.715  55.864   8.151  1.00  0.00    +0.000 C 
ATOM     81  F18 UNL A   1      14.162  55.781   9.411  1.00  0.00    +0.000 F 
ATOM     82  C56 UNL A   1      14.159  54.953   7.194  1.00  0.00    +0.000 C 
ATOM     83  F19 UNL A   1      15.041  54.011   7.559  1.00  0.00    +0.000 F 
ENDBRANCH   72   73
TORSDOF 18
ENDMDL
MODEL 3
REMARK VINA RESULT:      -9.3     43.218     46.724
ROOT
ATOM    129  H35 UNL A   1      51.120  22.381  14.940  1.00  0.00    +0.000 H 
ATOM    130  H36 UNL A   1      50.918  21.330  12.614  1.00  0.00    +0.000 H 
ATOM     36  C27 UNL A   1      53.340  20.161  11.671  1.00  0.00    +0.000 C 
ATOM     37  C28 UNL A   1      53.071  20.756  13.024  1.00  0.00    +0.000 C 
ATOM     38  N4  UNL A   1      53.874  20.863  14.055  1.00  0.00    +0.000 N 
ATOM     39  C29 UNL A   1      53.145  21.523  15.036  1.00  0.00    +0.000 C 
ATOM     40  C30 UNL A   1      53.513  21.823  16.306  1.00  0.00    +0.000 C 
ATOM     52  C37 UNL A   1      54.792  21.493  16.879  1.00  0.00    +0.000 C 
ATOM     53  C38 UNL A   1      55.231  21.680  18.179  1.00  0.00    +0.000 C 
ATOM     54  C39 UNL A   1      56.565  21.262  18.256  1.00  0.00    +0.000 C 
ATOM     55  C40 UNL A   1      56.942  20.767  17.018  1.00  0.00    +0.000 C 
ATOM     56  N5  UNL A   1      55.845  20.915  16.183  1.00  0.00    +0.000 N 
ATOM     57  C41 UNL A   1      58.208  20.202  16.623  1.00  0.00    +0.000 C 
ATOM     69  C48 UNL A   1      58.485  19.705  15.391  1.00  0.00    +0.000 C 
ATOM     70  N6  UNL A   1      57.664  19.635  14.273  1.00  0.00    +0.000 N 
ATOM     71  C49 UNL A   1      58.392  19.096  13.326  1.00  0.00    +0.000 C 
ATOM     72  C50 UNL A   1      58.011  18.758  11.911  1.00  0.00    +0.000 C 
ATOM     84  C57 UNL A   1      56.765  19.033  11.482  1.00  0.00    +0.000 C 
ATOM     85  C58 UNL A   1      56.248  18.743  10.149  1.00  0.00    +0.000 C 
ATOM     86  C59 UNL A   1      54.971  19.148  10.077  1.00  0.00    +0.000 C 
ATOM     87  C60 UNL A   1      54.569  19.698  11.373  1.00  0.00    +0.000 C 
ATOM     88  N7  UNL A   1      55.707  19.614  12.137  1.00  0.00    +0.000 N 
ATOM     89  C61 UNL A   1      59.768  18.778  13.732  1.00  0.00    +0.000 C 
ATOM     90  C62 UNL A   1      59.758  19.129  15.010  1.00  0.00    +0.000 C 
ATOM     91  C63 UNL A   1      51.853  21.835  14.462  1.00  0.00    +0.000 C 
ATOM     92  C64 UNL A   1      51.735  21.326  13.244  1.00  0.00    +0.000 C 
ATOM    121  H27 UNL A   1      54.671  22.061  18.958  1.00  0.00    +0.000 H 
ATOM    122  H28 UNL A   1      57.166  21.314  19.093  1.00  0.00    +0.000 H 
ATOM    123  H29 UNL A   1      55.816  20.649  15.236  1.00  0.00    +0.000 H 
ATOM    124  H30 UNL A   1      56.779  18.299   9.383  1.00  0.00    +0.000 H 
ATOM    125  H31 UNL A   1      54.368  19.083   9.243  1.00  0.00    +0.000 H 
ATOM    126  H32 UNL A   1      55.758  19.938  13.065  1.00  0.00    +0.000 H 
ATOM    127  H33 UNL A   1      60.539  18.385  13.170  1.00  0.00    +0.000 H 
ATOM    128  H34 UNL A   1      60.557  19.007  15.652  1.00  0.00    +0.000 H 
ENDROOT
BRANCH   36   35
ATOM     33  C24 UNL A   1      51.027  21.208   8.854  1.00  0.00    +0.000 C 
ATOM     34  C25 UNL A   1      52.083  21.213   9.769  1.00  0.00    +0.000 C 
ATOM     35  C26 UNL A   1      52.281  20.122  10.631  1.00  0.00    +0.000 C 
ATOM    132  H38 UNL A   1      49.864  18.118   9.431  1.00  0.00    +0.000 H 
ATOM    131  H37 UNL A   1      51.580  18.194  11.143  1.00  0.00    +0.000 H 
ATOM    119  H25 UNL A   1      50.871  22.025   8.243  1.00  0.00    +0.000 H 
ATOM    120  H26 UNL A   1      52.721  22.023   9.812  1.00  0.00    +0.000 H 
ATOM     93  C65 UNL A   1      51.445  19.001  10.515  1.00  0.00    +0.000 C 
ATOM     94  C66 UNL A   1      50.431  18.972   9.557  1.00  0.00    +0.000 C 
ATOM     32  C23 UNL A   1      50.182  20.097   8.766  1.00  0.00    +0.000 C 
BRANCH   32   30
ATOM     30  C22 UNL A   1      49.062  20.143   7.795  1.00  0.00    +0.000 C 
ATOM     31  O2  UNL A   1      48.634  21.227   7.421  1.00  0.00    +0.000 O 
BRANCH   30   29
ATOM     29  N3  UNL A   1      48.485  18.986   7.332  1.00  0.00    +0.000 N 
ATOM    118  H24 UNL A   1      47.502  18.970   7.366  1.00  0.00    +0.000 H 
BRANCH   29   28
ATOM    116  H22 UNL A   1      49.616  17.281   7.592  1.00  0.00    +0.000 H 
ATOM     28  C21 UNL A   1      49.100  17.782   6.799  1.00  0.00    +0.000 C 
ATOM    117  H23 UNL A   1      48.319  17.175   6.389  1.00  0.00    +0.000 H 
BRANCH   28   27
ATOM    114  H20 UNL A   1      49.616  18.723   4.975  1.00  0.00    +0.000 H 
ATOM     27  C20 UNL A   1      50.093  18.072   5.676  1.00  0.00    +0.000 C 
ATOM    115  H21 UNL A   1      50.953  18.501   6.147  1.00  0.00    +0.000 H 
BRANCH   27   26
ATOM    113  H19 UNL A   1      51.595  16.675   5.266  1.00  0.00    +0.000 H 
ATOM     26  C19 UNL A   1      50.599  16.844   4.914  1.00  0.00    +0.000 C 
ATOM    112  H18 UNL A   1      50.535  17.059   3.868  1.00  0.00    +0.000 H 
BRANCH   26   25
ATOM     25  C18 UNL A   1      49.845  15.538   5.169  1.00  0.00    +0.000 C 
ATOM    110  H16 UNL A   1      50.566  14.747   5.200  1.00  0.00    +0.000 H 
ATOM    111  H17 UNL A   1      49.315  15.693   6.085  1.00  0.00    +0.000 H 
BRANCH   25   24
ATOM    108  H14 UNL A   1      48.518  16.031   3.592  1.00  0.00    +0.000 H 
ATOM    109  H15 UNL A   1      49.213  14.373   3.554  1.00  0.00    +0.000 H 
ATOM     24  C17 UNL A   1      48.774  15.151   4.143  1.00  0.00    +0.000 C 
BRANCH   24   23
ATOM    106  H12 UNL A   1      46.884  14.220   3.883  1.00  0.00    +0.000 H 
ATOM    107  H13 UNL A   1      47.759  13.761   5.358  1.00  0.00    +0.000 H 
ATOM     23  C16 UNL A   1      47.484  14.559   4.701  1.00  0.00    +0.000 C 
BRANCH   23   22
ATOM    105  H11 UNL A   1      47.065  15.860   6.324  1.00  0.00    +0.000 H 
ATOM     22  N2  UNL A   1      46.709  15.507   5.478  1.00  0.00    +0.000 N 
BRANCH   22    2
ATOM      1  O1  UNL A   1      44.427  15.740   5.654  1.00  0.00    +0.000 O 
ATOM      2  C1  UNL A   1      45.469  15.911   5.024  1.00  0.00    +0.000 C 
BRANCH    2    3
ATOM      3  C2  UNL A   1      45.486  16.658   3.712  1.00  0.00    +0.000 C 
ATOM     95  H1  UNL A   1      44.655  16.310   3.136  1.00  0.00    +0.000 H 
ATOM     96  H2  UNL A   1      46.452  16.455   3.298  1.00  0.00    +0.000 H 
BRANCH    3    4
ATOM     97  H3  UNL A   1      47.271  18.221   4.755  1.00  0.00    +0.000 H 
ATOM     98  H4  UNL A   1      47.368  20.619   5.028  1.00  0.00    +0.000 H 
ATOM     99  H5  UNL A   1      45.507  21.984   4.287  1.00  0.00    +0.000 H 
ATOM      4  C3  UNL A   1      45.401  18.175   3.759  1.00  0.00    +0.000 C 
ATOM      5  C4  UNL A   1      46.495  18.802   4.404  1.00  0.00    +0.000 C 
ATOM      6  C5  UNL A   1      46.549  20.182   4.576  1.00  0.00    +0.000 C 
ATOM    100  H6  UNL A   1      43.617  20.957   3.191  1.00  0.00    +0.000 H 
ATOM      8  C7  UNL A   1      44.412  20.367   3.484  1.00  0.00    +0.000 C 
ATOM      9  C8  UNL A   1      44.376  18.986   3.214  1.00  0.00    +0.000 C 
ATOM      7  C6  UNL A   1      45.494  20.964   4.135  1.00  0.00    +0.000 C 
BRANCH    9   10
ATOM     10  N1  UNL A   1      43.268  18.428   2.524  1.00  0.00    +0.000 N 
ATOM    101  H7  UNL A   1      43.477  17.699   1.896  1.00  0.00    +0.000 H 
BRANCH   10   11
ATOM    102  H8  UNL A   1      39.232  17.938   4.527  1.00  0.00    +0.000 H 
ATOM    103  H9  UNL A   1      38.090  19.356   2.921  1.00  0.00    +0.000 H 
ATOM    104  H10 UNL A   1      39.346  20.385   1.129  1.00  0.00    +0.000 H 
ATOM     11  C9  UNL A   1      41.898  18.788   2.623  1.00  0.00    +0.000 C 
ATOM     12  C10 UNL A   1      41.129  18.190   3.641  1.00  0.00    +0.000 C 
ATOM     13  F1  UNL A   1      41.719  17.398   4.545  1.00  0.00    +0.000 F 
ATOM     14  C11 UNL A   1      39.758  18.387   3.761  1.00  0.00    +0.000 C 
ATOM     15  C12 UNL A   1      39.105  19.192   2.843  1.00  0.00    +0.000 C 
ATOM     16  C13 UNL A   1      39.835  19.781   1.808  1.00  0.00    +0.000 C 
ATOM     17  C14 UNL A   1      41.227  19.569   1.665  1.00  0.00    +0.000 C 
ATOM     18  C15 UNL A   1      41.927  20.219   0.498  1.00  0.00    +0.000 C 
ATOM     19  F2  UNL A   1      41.087  20.414  -0.563  1.00  0.00    +0.000 F 
ATOM     20  F3  UNL A   1      42.406  21.457   0.803  1.00  0.00    +0.000 F 
ATOM     21  F4  UNL A   1      42.969  19.508  -0.008  1.00  0.00    +0.000 F 
ENDBRANCH   10   11
ENDBRANCH    9   10
ENDBRANCH    3    4
ENDBRANCH    2    3
ENDBRANCH   22    2
ENDBRANCH   23   22
ENDBRANCH   24   23
ENDBRANCH   25   24
ENDBRANCH   26   25
ENDBRANCH   27   26
ENDBRANCH   28   27
ENDBRANCH   29   28
ENDBRANCH   30   29
ENDBRANCH   32   30
ENDBRANCH   36   35
BRANCH   40   41
ATOM     41  C31 UNL A   1      52.516  22.553  17.161  1.00  0.00    +0.000 C 
ATOM     42  C32 UNL A   1      52.354  23.945  17.082  1.00  0.00    +0.000 C 
ATOM     43  F5  UNL A   1      53.122  24.668  16.252  1.00  0.00    +0.000 F 
ATOM     44  C33 UNL A   1      51.433  24.608  17.889  1.00  0.00    +0.000 C 
ATOM     45  F6  UNL A   1      51.335  25.943  17.835  1.00  0.00    +0.000 F 
ATOM     46  C34 UNL A   1      50.627  23.890  18.760  1.00  0.00    +0.000 C 
ATOM     47  F7  UNL A   1      49.740  24.529  19.534  1.00  0.00    +0.000 F 
ATOM     48  C35 UNL A   1      50.750  22.511  18.835  1.00  0.00    +0.000 C 
ATOM     49  F8  UNL A   1      49.963  21.815  19.667  1.00  0.00    +0.000 F 
ATOM     50  C36 UNL A   1      51.692  21.848  18.052  1.00  0.00    +0.000 C 
ATOM     51  F9  UNL A   1      51.799  20.516  18.163  1.00  0.00    +0.000 F 
ENDBRANCH   40   41
BRANCH   57   58
ATOM     65  C46 UNL A   1      61.079  21.212  18.909  1.00  0.00    +0.000 C 
ATOM     66  F13 UNL A   1      61.797  22.310  19.185  1.00  0.00    +0.000 F 
ATOM     67  C47 UNL A   1      60.056  21.270  17.966  1.00  0.00    +0.000 C 
ATOM     68  F14 UNL A   1      59.804  22.440  17.361  1.00  0.00    +0.000 F 
ATOM     58  C42 UNL A   1      59.303  20.130  17.648  1.00  0.00    +0.000 C 
ATOM     59  C43 UNL A   1      59.613  18.932  18.308  1.00  0.00    +0.000 C 
ATOM     60  F10 UNL A   1      58.911  17.818  18.052  1.00  0.00    +0.000 F 
ATOM     61  C44 UNL A   1      60.616  18.885  19.273  1.00  0.00    +0.000 C 
ATOM     62  F11 UNL A   1      60.856  17.743  19.932  1.00  0.00    +0.000 F 
ATOM     63  C45 UNL A   1      61.351  20.023  19.569  1.00  0.00    +0.000 C 
ATOM     64  F12 UNL A   1      62.316  19.977  20.498  1.00  0.00    +0.000 F 
ENDBRANCH   57   58
BRANCH   72   73
ATOM     73  C51 UNL A   1      58.976  18.091  11.000  1.00  0.00    +0.000 C 
ATOM     74  C52 UNL A   1      59.085  16.694  10.972  1.00  0.00    +0.000 C 
ATOM     75  F15 UNL A   1      58.334  15.948  11.796  1.00  0.00    +0.000 F 
ATOM     76  C53 UNL A   1      59.989  16.060  10.123  1.00  0.00    +0.000 C 
ATOM     77  F16 UNL A   1      60.100  14.725  10.143  1.00  0.00    +0.000 F 
ATOM     78  C54 UNL A   1      60.782  16.809   9.266  1.00  0.00    +0.000 C 
ATOM     79  F17 UNL A   1      61.645  16.199   8.443  1.00  0.00    +0.000 F 
ATOM     80  C55 UNL A   1      60.682  18.192   9.267  1.00  0.00    +0.000 C 
ATOM     81  F18 UNL A   1      61.435  18.918   8.430  1.00  0.00    +0.000 F 
ATOM     82  C56 UNL A   1      59.797  18.828  10.136  1.00  0.00    +0.000 C 
ATOM     83  F19 UNL A   1      59.728  20.168  10.121  1.00  0.00    +0.000 F 
ENDBRANCH   72   73
TORSDOF 18
ENDMDL
MODEL 4
REMARK VINA RESULT:      -9.2     43.849     47.516
ROOT
ATOM    129  H35 UNL A   1      55.990  17.984   9.350  1.00  0.00    +0.000 H 
ATOM    130  H36 UNL A   1      53.724  19.153   9.121  1.00  0.00    +0.000 H 
ATOM     36  C27 UNL A   1      52.862  20.458  11.503  1.00  0.00    +0.000 C 
ATOM     37  C28 UNL A   1      54.179  19.781  11.250  1.00  0.00    +0.000 C 
ATOM     38  N4  UNL A   1      55.208  19.646  12.051  1.00  0.00    +0.000 N 
ATOM     39  C29 UNL A   1      56.147  18.908  11.342  1.00  0.00    +0.000 C 
ATOM     40  C30 UNL A   1      57.401  18.553  11.715  1.00  0.00    +0.000 C 
ATOM     52  C37 UNL A   1      58.000  18.897  12.979  1.00  0.00    +0.000 C 
ATOM     53  C38 UNL A   1      59.290  18.655  13.418  1.00  0.00    +0.000 C 
ATOM     54  C39 UNL A   1      59.399  19.116  14.736  1.00  0.00    +0.000 C 
ATOM     55  C40 UNL A   1      58.192  19.691  15.100  1.00  0.00    +0.000 C 
ATOM     56  N5  UNL A   1      57.343  19.549  14.013  1.00  0.00    +0.000 N 
ATOM     57  C41 UNL A   1      57.836  20.322  16.346  1.00  0.00    +0.000 C 
ATOM     69  C48 UNL A   1      56.636  20.896  16.610  1.00  0.00    +0.000 C 
ATOM     70  N6  UNL A   1      55.518  20.997  15.793  1.00  0.00    +0.000 N 
ATOM     71  C49 UNL A   1      54.606  21.613  16.505  1.00  0.00    +0.000 C 
ATOM     72  C50 UNL A   1      53.209  22.014  16.119  1.00  0.00    +0.000 C 
ATOM     84  C57 UNL A   1      52.758  21.718  14.885  1.00  0.00    +0.000 C 
ATOM     85  C58 UNL A   1      51.439  22.062  14.364  1.00  0.00    +0.000 C 
ATOM     86  C59 UNL A   1      51.337  21.615  13.103  1.00  0.00    +0.000 C 
ATOM     87  C60 UNL A   1      52.599  20.982  12.716  1.00  0.00    +0.000 C 
ATOM     88  N7  UNL A   1      53.373  21.064  13.846  1.00  0.00    +0.000 N 
ATOM     89  C61 UNL A   1      55.038  21.958  17.867  1.00  0.00    +0.000 C 
ATOM     90  C62 UNL A   1      56.294  21.537  17.864  1.00  0.00    +0.000 C 
ATOM     91  C63 UNL A   1      55.548  18.582  10.066  1.00  0.00    +0.000 C 
ATOM     92  C64 UNL A   1      54.358  19.152   9.934  1.00  0.00    +0.000 C 
ATOM    121  H27 UNL A   1      60.043  18.212  12.869  1.00  0.00    +0.000 H 
ATOM    122  H28 UNL A   1      60.236  19.040  15.334  1.00  0.00    +0.000 H 
ATOM    123  H29 UNL A   1      56.412  19.866  13.979  1.00  0.00    +0.000 H 
ATOM    124  H30 UNL A   1      50.702  22.566  14.883  1.00  0.00    +0.000 H 
ATOM    125  H31 UNL A   1      50.503  21.704  12.502  1.00  0.00    +0.000 H 
ATOM    126  H32 UNL A   1      54.282  20.692  13.905  1.00  0.00    +0.000 H 
ATOM    127  H33 UNL A   1      54.503  22.409  18.625  1.00  0.00    +0.000 H 
ATOM    128  H34 UNL A   1      56.948  21.653  18.654  1.00  0.00    +0.000 H 
ENDROOT
BRANCH   36   35
ATOM     33  C24 UNL A   1      50.647  21.739   8.705  1.00  0.00    +0.000 C 
ATOM     34  C25 UNL A   1      51.687  21.653   9.634  1.00  0.00    +0.000 C 
ATOM     35  C26 UNL A   1      51.819  20.516  10.448  1.00  0.00    +0.000 C 
ATOM    132  H38 UNL A   1      49.330  18.685   9.125  1.00  0.00    +0.000 H 
ATOM    131  H37 UNL A   1      51.020  18.603  10.862  1.00  0.00    +0.000 H 
ATOM    119  H25 UNL A   1      50.539  22.589   8.130  1.00  0.00    +0.000 H 
ATOM    120  H26 UNL A   1      52.361  22.428   9.722  1.00  0.00    +0.000 H 
ATOM     93  C65 UNL A   1      50.933  19.443  10.270  1.00  0.00    +0.000 C 
ATOM     94  C66 UNL A   1      49.935  19.505   9.297  1.00  0.00    +0.000 C 
ATOM     32  C23 UNL A   1      49.751  20.675   8.555  1.00  0.00    +0.000 C 
BRANCH   32   30
ATOM     30  C22 UNL A   1      48.651  20.818   7.571  1.00  0.00    +0.000 C 
ATOM     31  O2  UNL A   1      48.278  21.936   7.243  1.00  0.00    +0.000 O 
BRANCH   30   29
ATOM     29  N3  UNL A   1      48.029  19.711   7.046  1.00  0.00    +0.000 N 
ATOM    118  H24 UNL A   1      48.107  18.894   7.590  1.00  0.00    +0.000 H 
BRANCH   29   28
ATOM    116  H22 UNL A   1      46.280  19.248   6.058  1.00  0.00    +0.000 H 
ATOM     28  C21 UNL A   1      47.275  19.558   5.814  1.00  0.00    +0.000 C 
ATOM    117  H23 UNL A   1      47.284  20.503   5.311  1.00  0.00    +0.000 H 
BRANCH   28   27
ATOM    114  H20 UNL A   1      48.672  19.009   4.321  1.00  0.00    +0.000 H 
ATOM     27  C20 UNL A   1      47.889  18.528   4.869  1.00  0.00    +0.000 C 
ATOM    115  H21 UNL A   1      48.228  17.724   5.489  1.00  0.00    +0.000 H 
BRANCH   27   26
ATOM    113  H19 UNL A   1      47.142  16.856   3.860  1.00  0.00    +0.000 H 
ATOM     26  C19 UNL A   1      46.921  17.903   3.860  1.00  0.00    +0.000 C 
ATOM    112  H18 UNL A   1      47.075  18.384   2.917  1.00  0.00    +0.000 H 
BRANCH   26   25
ATOM     25  C18 UNL A   1      45.434  18.010   4.202  1.00  0.00    +0.000 C 
ATOM    110  H16 UNL A   1      44.994  17.048   4.044  1.00  0.00    +0.000 H 
ATOM    111  H17 UNL A   1      45.402  18.353   5.215  1.00  0.00    +0.000 H 
BRANCH   25   24
ATOM    108  H14 UNL A   1      43.686  18.575   3.144  1.00  0.00    +0.000 H 
ATOM    109  H15 UNL A   1      44.529  19.886   4.041  1.00  0.00    +0.000 H 
ATOM     24  C17 UNL A   1      44.618  19.032   3.403  1.00  0.00    +0.000 C 
BRANCH   24   23
ATOM    106  H12 UNL A   1      46.197  19.992   2.358  1.00  0.00    +0.000 H 
ATOM    107  H13 UNL A   1      45.357  18.715   1.455  1.00  0.00    +0.000 H 
ATOM     23  C16 UNL A   1      45.254  19.550   2.116  1.00  0.00    +0.000 C 
BRANCH   23   22
ATOM    105  H11 UNL A   1      44.732  21.479   1.403  1.00  0.00    +0.000 H 
ATOM     22  N2  UNL A   1      44.442  20.539   1.435  1.00  0.00    +0.000 N 
BRANCH   22    2
ATOM      1  O1  UNL A   1      43.175  19.223   0.037  1.00  0.00    +0.000 O 
ATOM      2  C1  UNL A   1      43.260  20.157   0.833  1.00  0.00    +0.000 C 
BRANCH    2    3
ATOM      3  C2  UNL A   1      42.042  20.926   1.282  1.00  0.00    +0.000 C 
ATOM     95  H1  UNL A   1      41.598  21.358   0.410  1.00  0.00    +0.000 H 
ATOM     96  H2  UNL A   1      42.413  21.623   2.005  1.00  0.00    +0.000 H 
BRANCH    3    4
ATOM     97  H3  UNL A   1      42.419  18.820   2.745  1.00  0.00    +0.000 H 
ATOM     98  H4  UNL A   1      40.893  17.386   3.948  1.00  0.00    +0.000 H 
ATOM     99  H5  UNL A   1      38.510  17.818   3.845  1.00  0.00    +0.000 H 
ATOM      4  C3  UNL A   1      40.950  20.162   2.014  1.00  0.00    +0.000 C 
ATOM      5  C4  UNL A   1      41.409  19.029   2.730  1.00  0.00    +0.000 C 
ATOM      6  C5  UNL A   1      40.532  18.192   3.414  1.00  0.00    +0.000 C 
ATOM    100  H6  UNL A   1      37.681  19.733   2.629  1.00  0.00    +0.000 H 
ATOM      8  C7  UNL A   1      38.699  19.570   2.682  1.00  0.00    +0.000 C 
ATOM      9  C8  UNL A   1      39.572  20.484   2.060  1.00  0.00    +0.000 C 
ATOM      7  C6  UNL A   1      39.172  18.450   3.370  1.00  0.00    +0.000 C 
BRANCH    9   10
ATOM     10  N1  UNL A   1      39.047  21.624   1.397  1.00  0.00    +0.000 N 
ATOM    101  H7  UNL A   1      39.215  22.490   1.833  1.00  0.00    +0.000 H 
BRANCH   10   11
ATOM    102  H8  UNL A   1      38.959  22.171  -3.102  1.00  0.00    +0.000 H 
ATOM    103  H9  UNL A   1      36.534  22.155  -3.212  1.00  0.00    +0.000 H 
ATOM    104  H10 UNL A   1      35.248  21.860  -1.185  1.00  0.00    +0.000 H 
ATOM     11  C9  UNL A   1      38.312  21.674   0.182  1.00  0.00    +0.000 C 
ATOM     12  C10 UNL A   1      39.027  21.868  -1.016  1.00  0.00    +0.000 C 
ATOM     13  F1  UNL A   1      40.365  21.888  -0.999  1.00  0.00    +0.000 F 
ATOM     14  C11 UNL A   1      38.399  22.041  -2.245  1.00  0.00    +0.000 C 
ATOM     15  C12 UNL A   1      37.016  22.036  -2.308  1.00  0.00    +0.000 C 
ATOM     16  C13 UNL A   1      36.278  21.869  -1.134  1.00  0.00    +0.000 C 
ATOM     17  C14 UNL A   1      36.908  21.714   0.124  1.00  0.00    +0.000 C 
ATOM     18  C15 UNL A   1      36.030  21.573   1.343  1.00  0.00    +0.000 C 
ATOM     19  F2  UNL A   1      34.821  22.191   1.182  1.00  0.00    +0.000 F 
ATOM     20  F3  UNL A   1      35.730  20.273   1.620  1.00  0.00    +0.000 F 
ATOM     21  F4  UNL A   1      36.547  22.108   2.481  1.00  0.00    +0.000 F 
ENDBRANCH   10   11
ENDBRANCH    9   10
ENDBRANCH    3    4
ENDBRANCH    2    3
ENDBRANCH   22    2
ENDBRANCH   23   22
ENDBRANCH   24   23
ENDBRANCH   25   24
ENDBRANCH   26   25
ENDBRANCH   27   26
ENDBRANCH   28   27
ENDBRANCH   29   28
ENDBRANCH   30   29
ENDBRANCH   32   30
ENDBRANCH   36   35
BRANCH   40   41
ATOM     41  C31 UNL A   1      58.208  17.742  10.741  1.00  0.00    +0.000 C 
ATOM     42  C32 UNL A   1      59.055  18.347   9.800  1.00  0.00    +0.000 C 
ATOM     43  F5  UNL A   1      59.137  19.684   9.726  1.00  0.00    +0.000 F 
ATOM     44  C33 UNL A   1      59.789  17.581   8.897  1.00  0.00    +0.000 C 
ATOM     45  F6  UNL A   1      60.548  18.184   7.972  1.00  0.00    +0.000 F 
ATOM     46  C34 UNL A   1      59.724  16.197   8.944  1.00  0.00    +0.000 C 
ATOM     47  F7  UNL A   1      60.433  15.462   8.077  1.00  0.00    +0.000 F 
ATOM     48  C35 UNL A   1      58.916  15.576   9.884  1.00  0.00    +0.000 C 
ATOM     49  F8  UNL A   1      58.862  14.238   9.939  1.00  0.00    +0.000 F 
ATOM     50  C36 UNL A   1      58.156  16.339  10.768  1.00  0.00    +0.000 C 
ATOM     51  F9  UNL A   1      57.370  15.708  11.652  1.00  0.00    +0.000 F 
ENDBRANCH   40   41
BRANCH   57   58
ATOM     65  C46 UNL A   1      60.544  21.625  18.684  1.00  0.00    +0.000 C 
ATOM     66  F13 UNL A   1      61.217  22.765  18.896  1.00  0.00    +0.000 F 
ATOM     67  C47 UNL A   1      59.576  21.565  17.685  1.00  0.00    +0.000 C 
ATOM     68  F14 UNL A   1      59.331  22.666  16.959  1.00  0.00    +0.000 F 
ATOM     58  C42 UNL A   1      58.871  20.378  17.433  1.00  0.00    +0.000 C 
ATOM     59  C43 UNL A   1      59.173  19.256  18.218  1.00  0.00    +0.000 C 
ATOM     60  F10 UNL A   1      58.515  18.102  18.029  1.00  0.00    +0.000 F 
ATOM     61  C44 UNL A   1      60.119  19.329  19.238  1.00  0.00    +0.000 C 
ATOM     62  F11 UNL A   1      60.348  18.260  20.013  1.00  0.00    +0.000 F 
ATOM     63  C45 UNL A   1      60.806  20.510  19.467  1.00  0.00    +0.000 C 
ATOM     64  F12 UNL A   1      61.716  20.579  20.448  1.00  0.00    +0.000 F 
ENDBRANCH   57   58
BRANCH   72   73
ATOM     73  C51 UNL A   1      52.342  22.764  17.063  1.00  0.00    +0.000 C 
ATOM     74  C52 UNL A   1      51.575  22.087  18.022  1.00  0.00    +0.000 C 
ATOM     75  F15 UNL A   1      51.597  20.748  18.072  1.00  0.00    +0.000 F 
ATOM     76  C53 UNL A   1      50.758  22.783  18.909  1.00  0.00    +0.000 C 
ATOM     77  F16 UNL A   1      50.005  22.110  19.791  1.00  0.00    +0.000 F 
ATOM     78  C54 UNL A   1      50.711  24.168  18.873  1.00  0.00    +0.000 C 
ATOM     79  F17 UNL A   1      49.931  24.837  19.733  1.00  0.00    +0.000 F 
ATOM     80  C55 UNL A   1      51.471  24.859  17.942  1.00  0.00    +0.000 C 
ATOM     81  F18 UNL A   1      51.441  26.199  17.915  1.00  0.00    +0.000 F 
ATOM     82  C56 UNL A   1      52.269  24.163  17.036  1.00  0.00    +0.000 C 
ATOM     83  F19 UNL A   1      52.988  24.858  16.141  1.00  0.00    +0.000 F 
ENDBRANCH   72   73
TORSDOF 18
ENDMDL
MODEL 5
REMARK VINA RESULT:      -9.1     37.317     42.841
ROOT
ATOM    129  H35 UNL A   1      38.057  33.009  34.412  1.00  0.00    +0.000 H 
ATOM    130  H36 UNL A   1      36.996  32.776  32.094  1.00  0.00    +0.000 H 
ATOM     36  C27 UNL A   1      38.381  30.972  30.377  1.00  0.00    +0.000 C 
ATOM     37  C28 UNL A   1      38.656  31.257  31.826  1.00  0.00    +0.000 C 
ATOM     38  N4  UNL A   1      39.574  30.746  32.610  1.00  0.00    +0.000 N 
ATOM     39  C29 UNL A   1      39.420  31.378  33.836  1.00  0.00    +0.000 C 
ATOM     40  C30 UNL A   1      40.092  31.158  34.993  1.00  0.00    +0.000 C 
ATOM     52  C37 UNL A   1      41.139  30.180  35.148  1.00  0.00    +0.000 C 
ATOM     53  C38 UNL A   1      41.824  29.824  36.297  1.00  0.00    +0.000 C 
ATOM     54  C39 UNL A   1      42.794  28.875  35.953  1.00  0.00    +0.000 C 
ATOM     55  C40 UNL A   1      42.679  28.601  34.600  1.00  0.00    +0.000 C 
ATOM     56  N5  UNL A   1      41.660  29.409  34.119  1.00  0.00    +0.000 N 
ATOM     57  C41 UNL A   1      43.440  27.673  33.801  1.00  0.00    +0.000 C 
ATOM     69  C48 UNL A   1      43.238  27.438  32.480  1.00  0.00    +0.000 C 
ATOM     70  N6  UNL A   1      42.309  28.013  31.624  1.00  0.00    +0.000 N 
ATOM     71  C49 UNL A   1      42.524  27.477  30.448  1.00  0.00    +0.000 C 
ATOM     72  C50 UNL A   1      41.798  27.707  29.151  1.00  0.00    +0.000 C 
ATOM     84  C57 UNL A   1      40.778  28.585  29.115  1.00  0.00    +0.000 C 
ATOM     85  C58 UNL A   1      39.970  28.894  27.940  1.00  0.00    +0.000 C 
ATOM     86  C59 UNL A   1      39.045  29.807  28.273  1.00  0.00    +0.000 C 
ATOM     87  C60 UNL A   1      39.175  30.123  29.696  1.00  0.00    +0.000 C 
ATOM     88  N7  UNL A   1      40.247  29.372  30.108  1.00  0.00    +0.000 N 
ATOM     89  C61 UNL A   1      43.632  26.512  30.420  1.00  0.00    +0.000 C 
ATOM     90  C62 UNL A   1      44.004  26.495  31.692  1.00  0.00    +0.000 C 
ATOM     91  C63 UNL A   1      38.353  32.344  33.680  1.00  0.00    +0.000 C 
ATOM     92  C64 UNL A   1      37.806  32.265  32.476  1.00  0.00    +0.000 C 
ATOM    121  H27 UNL A   1      41.651  30.195  37.245  1.00  0.00    +0.000 H 
ATOM    122  H28 UNL A   1      43.479  28.451  36.598  1.00  0.00    +0.000 H 
ATOM    123  H29 UNL A   1      41.350  29.432  33.185  1.00  0.00    +0.000 H 
ATOM    124  H30 UNL A   1      40.092  28.477  27.003  1.00  0.00    +0.000 H 
ATOM    125  H31 UNL A   1      38.353  30.219  27.629  1.00  0.00    +0.000 H 
ATOM    126  H32 UNL A   1      40.601  29.395  31.026  1.00  0.00    +0.000 H 
ATOM    127  H33 UNL A   1      44.019  25.987  29.620  1.00  0.00    +0.000 H 
ATOM    128  H34 UNL A   1      44.744  25.885  32.073  1.00  0.00    +0.000 H 
ENDROOT
BRANCH   36   35
ATOM     33  C24 UNL A   1      36.371  33.620  28.551  1.00  0.00    +0.000 C 
ATOM     34  C25 UNL A   1      37.444  32.947  29.141  1.00  0.00    +0.000 C 
ATOM     35  C26 UNL A   1      37.272  31.654  29.662  1.00  0.00    +0.000 C 
ATOM    132  H38 UNL A   1      34.081  31.177  28.719  1.00  0.00    +0.000 H 
ATOM    131  H37 UNL A   1      35.887  30.075  29.903  1.00  0.00    +0.000 H 
ATOM    119  H25 UNL A   1      36.497  34.580  28.195  1.00  0.00    +0.000 H 
ATOM    120  H26 UNL A   1      38.368  33.402  29.193  1.00  0.00    +0.000 H 
ATOM     93  C65 UNL A   1      36.026  31.024  29.524  1.00  0.00    +0.000 C 
ATOM     94  C66 UNL A   1      34.973  31.672  28.877  1.00  0.00    +0.000 C 
ATOM     32  C23 UNL A   1      35.125  32.992  28.443  1.00  0.00    +0.000 C 
BRANCH   32   30
ATOM     30  C22 UNL A   1      34.009  33.750  27.828  1.00  0.00    +0.000 C 
ATOM     31  O2  UNL A   1      34.216  34.871  27.381  1.00  0.00    +0.000 O 
BRANCH   30   29
ATOM     29  N3  UNL A   1      32.743  33.221  27.778  1.00  0.00    +0.000 N 
ATOM    118  H24 UNL A   1      32.358  32.981  28.652  1.00  0.00    +0.000 H 
BRANCH   29   28
ATOM    116  H22 UNL A   1      31.109  33.698  26.613  1.00  0.00    +0.000 H 
ATOM     28  C21 UNL A   1      31.882  32.958  26.637  1.00  0.00    +0.000 C 
ATOM    117  H23 UNL A   1      32.492  32.995  25.758  1.00  0.00    +0.000 H 
BRANCH   28   27
ATOM    114  H20 UNL A   1      31.057  31.335  27.716  1.00  0.00    +0.000 H 
ATOM     27  C20 UNL A   1      31.235  31.576  26.690  1.00  0.00    +0.000 C 
ATOM    115  H21 UNL A   1      30.343  31.646  26.102  1.00  0.00    +0.000 H 
BRANCH   27   26
ATOM    113  H19 UNL A   1      32.938  30.906  25.677  1.00  0.00    +0.000 H 
ATOM     26  C19 UNL A   1      32.059  30.442  26.073  1.00  0.00    +0.000 C 
ATOM    112  H18 UNL A   1      31.450  29.958  25.338  1.00  0.00    +0.000 H 
BRANCH   26   25
ATOM     25  C18 UNL A   1      32.559  29.371  27.043  1.00  0.00    +0.000 C 
ATOM    110  H16 UNL A   1      33.401  28.890  26.590  1.00  0.00    +0.000 H 
ATOM    111  H17 UNL A   1      32.781  29.894  27.950  1.00  0.00    +0.000 H 
BRANCH   25   24
ATOM    108  H14 UNL A   1      31.641  28.129  28.494  1.00  0.00    +0.000 H 
ATOM    109  H15 UNL A   1      30.603  28.643  27.119  1.00  0.00    +0.000 H 
ATOM     24  C17 UNL A   1      31.557  28.281  27.439  1.00  0.00    +0.000 C 
BRANCH   24   23
ATOM    106  H12 UNL A   1      32.503  27.007  26.028  1.00  0.00    +0.000 H 
ATOM    107  H13 UNL A   1      31.965  26.215  27.524  1.00  0.00    +0.000 H 
ATOM     23  C16 UNL A   1      31.727  26.925  26.759  1.00  0.00    +0.000 C 
BRANCH   23   22
ATOM    105  H11 UNL A   1      29.680  26.960  26.201  1.00  0.00    +0.000 H 
ATOM     22  N2  UNL A   1      30.522  26.461  26.102  1.00  0.00    +0.000 N 
BRANCH   22    2
ATOM      1  O1  UNL A   1      30.424  24.182  25.800  1.00  0.00    +0.000 O 
ATOM      2  C1  UNL A   1      30.561  25.312  25.335  1.00  0.00    +0.000 C 
BRANCH    2    3
ATOM      3  C2  UNL A   1      30.712  25.544  23.852  1.00  0.00    +0.000 C 
ATOM     95  H1  UNL A   1      29.773  25.906  23.488  1.00  0.00    +0.000 H 
ATOM     96  H2  UNL A   1      31.025  24.598  23.461  1.00  0.00    +0.000 H 
BRANCH    3    4
ATOM     97  H3  UNL A   1      30.385  28.102  23.587  1.00  0.00    +0.000 H 
ATOM     98  H4  UNL A   1      31.861  29.856  22.824  1.00  0.00    +0.000 H 
ATOM     99  H5  UNL A   1      34.099  29.297  22.079  1.00  0.00    +0.000 H 
ATOM      4  C3  UNL A   1      31.783  26.521  23.392  1.00  0.00    +0.000 C 
ATOM      5  C4  UNL A   1      31.350  27.866  23.307  1.00  0.00    +0.000 C 
ATOM      6  C5  UNL A   1      32.192  28.878  22.855  1.00  0.00    +0.000 C 
ATOM    100  H6  UNL A   1      34.877  27.015  22.197  1.00  0.00    +0.000 H 
ATOM      8  C7  UNL A   1      33.929  27.243  22.536  1.00  0.00    +0.000 C 
ATOM      9  C8  UNL A   1      33.129  26.217  23.076  1.00  0.00    +0.000 C 
ATOM      7  C6  UNL A   1      33.477  28.562  22.447  1.00  0.00    +0.000 C 
BRANCH    9   10
ATOM     10  N1  UNL A   1      33.642  24.897  23.173  1.00  0.00    +0.000 N 
ATOM    101  H7  UNL A   1      34.129  24.567  22.384  1.00  0.00    +0.000 H 
BRANCH   10   11
ATOM    102  H8  UNL A   1      34.656  23.808  27.455  1.00  0.00    +0.000 H 
ATOM    103  H9  UNL A   1      33.684  21.590  27.284  1.00  0.00    +0.000 H 
ATOM    104  H10 UNL A   1      32.653  20.893  25.210  1.00  0.00    +0.000 H 
ATOM     11  C9  UNL A   1      33.542  23.993  24.264  1.00  0.00    +0.000 C 
ATOM     12  C10 UNL A   1      34.151  24.356  25.482  1.00  0.00    +0.000 C 
ATOM     13  F1  UNL A   1      34.702  25.568  25.617  1.00  0.00    +0.000 F 
ATOM     14  C11 UNL A   1      34.208  23.501  26.578  1.00  0.00    +0.000 C 
ATOM     15  C12 UNL A   1      33.658  22.234  26.479  1.00  0.00    +0.000 C 
ATOM     16  C13 UNL A   1      33.067  21.836  25.278  1.00  0.00    +0.000 C 
ATOM     17  C14 UNL A   1      33.024  22.691  24.151  1.00  0.00    +0.000 C 
ATOM     18  C15 UNL A   1      32.395  22.163  22.885  1.00  0.00    +0.000 C 
ATOM     19  F2  UNL A   1      32.493  20.803  22.789  1.00  0.00    +0.000 F 
ATOM     20  F3  UNL A   1      31.061  22.429  22.818  1.00  0.00    +0.000 F 
ATOM     21  F4  UNL A   1      32.949  22.635  21.736  1.00  0.00    +0.000 F 
ENDBRANCH   10   11
ENDBRANCH    9   10
ENDBRANCH    3    4
ENDBRANCH    2    3
ENDBRANCH   22    2
ENDBRANCH   23   22
ENDBRANCH   24   23
ENDBRANCH   25   24
ENDBRANCH   26   25
ENDBRANCH   27   26
ENDBRANCH   28   27
ENDBRANCH   29   28
ENDBRANCH   30   29
ENDBRANCH   32   30
ENDBRANCH   36   35
BRANCH   40   41
ATOM     41  C31 UNL A   1      39.718  31.997  36.182  1.00  0.00    +0.000 C 
ATOM     42  C32 UNL A   1      38.607  31.690  36.981  1.00  0.00    +0.000 C 
ATOM     43  F5  UNL A   1      37.824  30.644  36.677  1.00  0.00    +0.000 F 
ATOM     44  C33 UNL A   1      38.267  32.484  38.074  1.00  0.00    +0.000 C 
ATOM     45  F6  UNL A   1      37.170  32.202  38.790  1.00  0.00    +0.000 F 
ATOM     46  C34 UNL A   1      39.053  33.574  38.414  1.00  0.00    +0.000 C 
ATOM     47  F7  UNL A   1      38.727  34.335  39.467  1.00  0.00    +0.000 F 
ATOM     48  C35 UNL A   1      40.173  33.880  37.655  1.00  0.00    +0.000 C 
ATOM     49  F8  UNL A   1      40.941  34.926  37.990  1.00  0.00    +0.000 F 
ATOM     50  C36 UNL A   1      40.497  33.107  36.543  1.00  0.00    +0.000 C 
ATOM     51  F9  UNL A   1      41.575  33.441  35.819  1.00  0.00    +0.000 F 
ENDBRANCH   40   41
BRANCH   57   58
ATOM     65  C46 UNL A   1      45.247  24.883  35.656  1.00  0.00    +0.000 C 
ATOM     66  F13 UNL A   1      44.958  23.686  36.186  1.00  0.00    +0.000 F 
ATOM     67  C47 UNL A   1      44.251  25.620  35.022  1.00  0.00    +0.000 C 
ATOM     68  F14 UNL A   1      43.017  25.102  34.945  1.00  0.00    +0.000 F 
ATOM     58  C42 UNL A   1      44.525  26.883  34.475  1.00  0.00    +0.000 C 
ATOM     59  C43 UNL A   1      45.832  27.379  34.589  1.00  0.00    +0.000 C 
ATOM     60  F10 UNL A   1      46.149  28.573  34.068  1.00  0.00    +0.000 F 
ATOM     61  C44 UNL A   1      46.834  26.624  35.196  1.00  0.00    +0.000 C 
ATOM     62  F11 UNL A   1      48.088  27.094  35.242  1.00  0.00    +0.000 F 
ATOM     63  C45 UNL A   1      46.539  25.381  35.734  1.00  0.00    +0.000 C 
ATOM     64  F12 UNL A   1      47.504  24.656  36.318  1.00  0.00    +0.000 F 
ENDBRANCH   57   58
BRANCH   72   73
ATOM     73  C51 UNL A   1      42.165  26.950  27.927  1.00  0.00    +0.000 C 
ATOM     74  C52 UNL A   1      43.077  27.481  27.004  1.00  0.00    +0.000 C 
ATOM     75  F15 UNL A   1      43.604  28.698  27.208  1.00  0.00    +0.000 F 
ATOM     76  C53 UNL A   1      43.424  26.780  25.852  1.00  0.00    +0.000 C 
ATOM     77  F16 UNL A   1      44.269  27.326  24.967  1.00  0.00    +0.000 F 
ATOM     78  C54 UNL A   1      42.888  25.523  25.614  1.00  0.00    +0.000 C 
ATOM     79  F17 UNL A   1      43.229  24.845  24.510  1.00  0.00    +0.000 F 
ATOM     80  C55 UNL A   1      41.994  24.973  26.519  1.00  0.00    +0.000 C 
ATOM     81  F18 UNL A   1      41.486  23.752  26.300  1.00  0.00    +0.000 F 
ATOM     82  C56 UNL A   1      41.626  25.685  27.658  1.00  0.00    +0.000 C 
ATOM     83  F19 UNL A   1      40.752  25.131  28.513  1.00  0.00    +0.000 F 
ENDBRANCH   72   73
TORSDOF 18
ENDMDL
MODEL 6
REMARK VINA RESULT:      -9.1     66.017     71.511
ROOT
ATOM    129  H35 UNL A   1      16.841  56.883   1.818  1.00  0.00    +0.000 H 
ATOM    130  H36 UNL A   1      15.160  56.893   3.750  1.00  0.00    +0.000 H 
ATOM     36  C27 UNL A   1      13.777  54.423   4.077  1.00  0.00    +0.000 C 
ATOM     37  C28 UNL A   1      14.901  54.729   3.128  1.00  0.00    +0.000 C 
ATOM     38  N4  UNL A   1      15.488  53.942   2.259  1.00  0.00    +0.000 N 
ATOM     39  C29 UNL A   1      16.432  54.729   1.613  1.00  0.00    +0.000 C 
ATOM     40  C30 UNL A   1      17.334  54.364   0.669  1.00  0.00    +0.000 C 
ATOM     52  C37 UNL A   1      17.468  53.028   0.148  1.00  0.00    +0.000 C 
ATOM     53  C38 UNL A   1      18.403  52.540  -0.748  1.00  0.00    +0.000 C 
ATOM     54  C39 UNL A   1      18.103  51.197  -1.008  1.00  0.00    +0.000 C 
ATOM     55  C40 UNL A   1      17.013  50.834  -0.234  1.00  0.00    +0.000 C 
ATOM     56  N5  UNL A   1      16.633  51.967   0.470  1.00  0.00    +0.000 N 
ATOM     57  C41 UNL A   1      16.362  49.551  -0.141  1.00  0.00    +0.000 C 
ATOM     69  C48 UNL A   1      15.315  49.269   0.674  1.00  0.00    +0.000 C 
ATOM     70  N6  UNL A   1      14.646  50.105   1.558  1.00  0.00    +0.000 N 
ATOM     71  C49 UNL A   1      13.698  49.378   2.094  1.00  0.00    +0.000 C 
ATOM     72  C50 UNL A   1      12.683  49.758   3.136  1.00  0.00    +0.000 C 
ATOM     84  C57 UNL A   1      12.680  51.012   3.625  1.00  0.00    +0.000 C 
ATOM     85  C58 UNL A   1      11.774  51.517   4.651  1.00  0.00    +0.000 C 
ATOM     86  C59 UNL A   1      12.061  52.805   4.893  1.00  0.00    +0.000 C 
ATOM     87  C60 UNL A   1      13.197  53.207   4.061  1.00  0.00    +0.000 C 
ATOM     88  N7  UNL A   1      13.480  52.087   3.321  1.00  0.00    +0.000 N 
ATOM     89  C61 UNL A   1      13.644  47.996   1.596  1.00  0.00    +0.000 C 
ATOM     90  C62 UNL A   1      14.677  47.971   0.766  1.00  0.00    +0.000 C 
ATOM     91  C63 UNL A   1      16.307  56.066   2.154  1.00  0.00    +0.000 C 
ATOM     92  C64 UNL A   1      15.419  56.104   3.138  1.00  0.00    +0.000 C 
ATOM    121  H27 UNL A   1      19.187  53.073  -1.156  1.00  0.00    +0.000 H 
ATOM    122  H28 UNL A   1      18.609  50.582  -1.663  1.00  0.00    +0.000 H 
ATOM    123  H29 UNL A   1      15.883  52.013   1.105  1.00  0.00    +0.000 H 
ATOM    124  H30 UNL A   1      11.031  50.972   5.115  1.00  0.00    +0.000 H 
ATOM    125  H31 UNL A   1      11.563  53.414   5.560  1.00  0.00    +0.000 H 
ATOM    126  H32 UNL A   1      14.188  52.057   2.638  1.00  0.00    +0.000 H 
ATOM    127  H33 UNL A   1      12.978  47.244   1.830  1.00  0.00    +0.000 H 
ATOM    128  H34 UNL A   1      14.988  47.133   0.250  1.00  0.00    +0.000 H 
ENDROOT
BRANCH   36   35
ATOM     33  C24 UNL A   1      13.160  56.455   7.219  1.00  0.00    +0.000 C 
ATOM     34  C25 UNL A   1      13.719  55.536   6.326  1.00  0.00    +0.000 C 
ATOM     35  C26 UNL A   1      13.256  55.461   5.003  1.00  0.00    +0.000 C 
ATOM    132  H38 UNL A   1      11.088  58.027   5.105  1.00  0.00    +0.000 H 
ATOM    131  H37 UNL A   1      11.924  56.318   3.603  1.00  0.00    +0.000 H 
ATOM    119  H25 UNL A   1      13.486  56.486   8.198  1.00  0.00    +0.000 H 
ATOM    120  H26 UNL A   1      14.476  54.910   6.642  1.00  0.00    +0.000 H 
ATOM     93  C65 UNL A   1      12.272  56.364   4.572  1.00  0.00    +0.000 C 
ATOM     94  C66 UNL A   1      11.761  57.323   5.447  1.00  0.00    +0.000 C 
ATOM     32  C23 UNL A   1      12.159  57.331   6.787  1.00  0.00    +0.000 C 
BRANCH   32   30
ATOM     30  C22 UNL A   1      11.581  58.276   7.773  1.00  0.00    +0.000 C 
ATOM     31  O2  UNL A   1      12.067  59.393   7.893  1.00  0.00    +0.000 O 
BRANCH   30   29
ATOM     29  N3  UNL A   1      10.527  57.902   8.569  1.00  0.00    +0.000 N 
ATOM    118  H24 UNL A   1      10.772  57.629   9.483  1.00  0.00    +0.000 H 
BRANCH   29   28
ATOM    116  H22 UNL A   1       8.576  58.383   9.036  1.00  0.00    +0.000 H 
ATOM     28  C21 UNL A   1       9.105  57.848   8.275  1.00  0.00    +0.000 C 
ATOM    117  H23 UNL A   1       8.959  58.285   7.309  1.00  0.00    +0.000 H 
BRANCH   28   27
ATOM    114  H20 UNL A   1       8.838  55.929   9.131  1.00  0.00    +0.000 H 
ATOM     27  C20 UNL A   1       8.567  56.419   8.219  1.00  0.00    +0.000 C 
ATOM    115  H21 UNL A   1       7.511  56.507   8.073  1.00  0.00    +0.000 H 
BRANCH   27   26
ATOM    113  H19 UNL A   1       9.973  56.056   6.714  1.00  0.00    +0.000 H 
ATOM     26  C19 UNL A   1       9.083  55.569   7.054  1.00  0.00    +0.000 C 
ATOM    112  H18 UNL A   1       8.306  55.512   6.321  1.00  0.00    +0.000 H 
BRANCH   26   25
ATOM     25  C18 UNL A   1       9.503  54.140   7.400  1.00  0.00    +0.000 C 
ATOM    110  H16 UNL A   1       8.742  53.719   8.024  1.00  0.00    +0.000 H 
ATOM    111  H17 UNL A   1       9.629  53.647   6.458  1.00  0.00    +0.000 H 
BRANCH   25   24
ATOM    108  H14 UNL A   1      11.613  53.941   7.383  1.00  0.00    +0.000 H 
ATOM    109  H15 UNL A   1      10.910  54.807   8.793  1.00  0.00    +0.000 H 
ATOM     24  C17 UNL A   1      10.843  53.974   8.125  1.00  0.00    +0.000 C 
BRANCH   24   23
ATOM    106  H12 UNL A   1      11.189  53.052  10.006  1.00  0.00    +0.000 H 
ATOM    107  H13 UNL A   1      10.076  52.184   8.928  1.00  0.00    +0.000 H 
ATOM     23  C16 UNL A   1      10.990  52.735   9.004  1.00  0.00    +0.000 C 
BRANCH   23   22
ATOM    105  H11 UNL A   1      12.121  51.570   7.638  1.00  0.00    +0.000 H 
ATOM     22  N2  UNL A   1      12.060  51.856   8.578  1.00  0.00    +0.000 N 
BRANCH   22    2
ATOM      1  O1  UNL A   1      12.836  50.426  10.204  1.00  0.00    +0.000 O 
ATOM      2  C1  UNL A   1      12.993  51.420   9.497  1.00  0.00    +0.000 C 
BRANCH    2    3
ATOM      3  C2  UNL A   1      14.275  52.216   9.526  1.00  0.00    +0.000 C 
ATOM     95  H1  UNL A   1      14.204  52.907  10.340  1.00  0.00    +0.000 H 
ATOM     96  H2  UNL A   1      14.343  52.654   8.552  1.00  0.00    +0.000 H 
BRANCH    3    4
ATOM     97  H3  UNL A   1      15.535  51.885  11.767  1.00  0.00    +0.000 H 
ATOM     98  H4  UNL A   1      17.624  50.798  12.309  1.00  0.00    +0.000 H 
ATOM     99  H5  UNL A   1      18.955  49.813  10.539  1.00  0.00    +0.000 H 
ATOM      4  C3  UNL A   1      15.580  51.453   9.693  1.00  0.00    +0.000 C 
ATOM      5  C4  UNL A   1      16.081  51.433  11.017  1.00  0.00    +0.000 C 
ATOM      6  C5  UNL A   1      17.290  50.820  11.332  1.00  0.00    +0.000 C 
ATOM    100  H6  UNL A   1      18.145  49.832   8.264  1.00  0.00    +0.000 H 
ATOM      8  C7  UNL A   1      17.559  50.236   9.012  1.00  0.00    +0.000 C 
ATOM      9  C8  UNL A   1      16.297  50.767   8.682  1.00  0.00    +0.000 C 
ATOM      7  C6  UNL A   1      18.042  50.241  10.323  1.00  0.00    +0.000 C 
BRANCH    9   10
ATOM     10  N1  UNL A   1      15.836  50.715   7.341  1.00  0.00    +0.000 N 
ATOM    101  H7  UNL A   1      15.190  51.411   7.082  1.00  0.00    +0.000 H 
BRANCH   10   11
ATOM    102  H8  UNL A   1      17.423  49.892   3.175  1.00  0.00    +0.000 H 
ATOM    103  H9  UNL A   1      16.945  47.515   3.295  1.00  0.00    +0.000 H 
ATOM    104  H10 UNL A   1      15.975  46.591   5.308  1.00  0.00    +0.000 H 
ATOM     11  C9  UNL A   1      16.189  49.787   6.325  1.00  0.00    +0.000 C 
ATOM     12  C10 UNL A   1      16.735  50.291   5.129  1.00  0.00    +0.000 C 
ATOM     13  F1  UNL A   1      17.011  51.597   5.020  1.00  0.00    +0.000 F 
ATOM     14  C11 UNL A   1      17.014  49.485   4.031  1.00  0.00    +0.000 C 
ATOM     15  C12 UNL A   1      16.738  48.130   4.097  1.00  0.00    +0.000 C 
ATOM     16  C13 UNL A   1      16.174  47.602   5.261  1.00  0.00    +0.000 C 
ATOM     17  C14 UNL A   1      15.868  48.419   6.375  1.00  0.00    +0.000 C 
ATOM     18  C15 UNL A   1      15.229  47.767   7.577  1.00  0.00    +0.000 C 
ATOM     19  F2  UNL A   1      14.503  46.660   7.238  1.00  0.00    +0.000 F 
ATOM     20  F3  UNL A   1      16.150  47.325   8.478  1.00  0.00    +0.000 F 
ATOM     21  F4  UNL A   1      14.361  48.560   8.259  1.00  0.00    +0.000 F 
ENDBRANCH   10   11
ENDBRANCH    9   10
ENDBRANCH    3    4
ENDBRANCH    2    3
ENDBRANCH   22    2
ENDBRANCH   23   22
ENDBRANCH   24   23
ENDBRANCH   25   24
ENDBRANCH   26   25
ENDBRANCH   27   26
ENDBRANCH   28   27
ENDBRANCH   29   28
ENDBRANCH   30   29
ENDBRANCH   32   30
ENDBRANCH   36   35
BRANCH   40   41
ATOM     41  C31 UNL A   1      18.245  55.432   0.133  1.00  0.00    +0.000 C 
ATOM     42  C32 UNL A   1      19.389  55.846   0.833  1.00  0.00    +0.000 C 
ATOM     43  F5  UNL A   1      19.679  55.312   2.029  1.00  0.00    +0.000 F 
ATOM     44  C33 UNL A   1      20.218  56.845   0.328  1.00  0.00    +0.000 C 
ATOM     45  F6  UNL A   1      21.274  57.262   1.040  1.00  0.00    +0.000 F 
ATOM     46  C34 UNL A   1      19.944  57.421  -0.904  1.00  0.00    +0.000 C 
ATOM     47  F7  UNL A   1      20.744  58.379  -1.390  1.00  0.00    +0.000 F 
ATOM     48  C35 UNL A   1      18.834  57.007  -1.626  1.00  0.00    +0.000 C 
ATOM     49  F8  UNL A   1      18.576  57.553  -2.823  1.00  0.00    +0.000 F 
ATOM     50  C36 UNL A   1      17.986  56.031  -1.109  1.00  0.00    +0.000 C 
ATOM     51  F9  UNL A   1      16.911  55.668  -1.824  1.00  0.00    +0.000 F 
ENDBRANCH   40   41
BRANCH   57   58
ATOM     65  C46 UNL A   1      16.705  47.010  -2.955  1.00  0.00    +0.000 C 
ATOM     66  F13 UNL A   1      16.050  46.663  -4.072  1.00  0.00    +0.000 F 
ATOM     67  C47 UNL A   1      16.230  48.056  -2.168  1.00  0.00    +0.000 C 
ATOM     68  F14 UNL A   1      15.124  48.705  -2.560  1.00  0.00    +0.000 F 
ATOM     58  C42 UNL A   1      16.889  48.427  -0.986  1.00  0.00    +0.000 C 
ATOM     59  C43 UNL A   1      18.038  47.710  -0.622  1.00  0.00    +0.000 C 
ATOM     60  F10 UNL A   1      18.714  48.037   0.489  1.00  0.00    +0.000 F 
ATOM     61  C44 UNL A   1      18.529  46.685  -1.429  1.00  0.00    +0.000 C 
ATOM     62  F11 UNL A   1      19.661  46.054  -1.090  1.00  0.00    +0.000 F 
ATOM     63  C45 UNL A   1      17.859  46.333  -2.590  1.00  0.00    +0.000 C 
ATOM     64  F12 UNL A   1      18.332  45.347  -3.365  1.00  0.00    +0.000 F 
ENDBRANCH   57   58
BRANCH   72   73
ATOM     73  C51 UNL A   1      11.716  48.759   3.660  1.00  0.00    +0.000 C 
ATOM     74  C52 UNL A   1      10.608  48.366   2.895  1.00  0.00    +0.000 C 
ATOM     75  F15 UNL A   1      10.398  48.918   1.691  1.00  0.00    +0.000 F 
ATOM     76  C53 UNL A   1       9.695  47.433   3.379  1.00  0.00    +0.000 C 
ATOM     77  F16 UNL A   1       8.624  47.103   2.644  1.00  0.00    +0.000 F 
ATOM     78  C54 UNL A   1       9.886  46.854   4.624  1.00  0.00    +0.000 C 
ATOM     79  F17 UNL A   1       9.012  45.949   5.086  1.00  0.00    +0.000 F 
ATOM     80  C55 UNL A   1      10.981  47.217   5.393  1.00  0.00    +0.000 C 
ATOM     81  F18 UNL A   1      11.177  46.648   6.590  1.00  0.00    +0.000 F 
ATOM     82  C56 UNL A   1      11.881  48.171   4.921  1.00  0.00    +0.000 C 
ATOM     83  F19 UNL A   1      12.928  48.509   5.689  1.00  0.00    +0.000 F 
ENDBRANCH   72   73
TORSDOF 18
ENDMDL
MODEL 7
REMARK VINA RESULT:      -9.1     21.382     28.152
ROOT
ATOM    129  H35 UNL A   1      13.038   2.978  17.515  1.00  0.00    +0.000 H 
ATOM    130  H36 UNL A   1      12.226   1.585  19.503  1.00  0.00    +0.000 H 
ATOM     36  C27 UNL A   1      10.524   3.016  21.286  1.00  0.00    +0.000 C 
ATOM     37  C28 UNL A   1      11.082   3.484  19.972  1.00  0.00    +0.000 C 
ATOM     38  N4  UNL A   1      10.910   4.631  19.361  1.00  0.00    +0.000 N 
ATOM     39  C29 UNL A   1      11.675   4.564  18.204  1.00  0.00    +0.000 C 
ATOM     40  C30 UNL A   1      11.787   5.478  17.209  1.00  0.00    +0.000 C 
ATOM     52  C37 UNL A   1      11.097   6.742  17.187  1.00  0.00    +0.000 C 
ATOM     53  C38 UNL A   1      11.080   7.700  16.188  1.00  0.00    +0.000 C 
ATOM     54  C39 UNL A   1      10.323   8.789  16.637  1.00  0.00    +0.000 C 
ATOM     55  C40 UNL A   1       9.825   8.489  17.895  1.00  0.00    +0.000 C 
ATOM     56  N5  UNL A   1      10.309   7.230  18.220  1.00  0.00    +0.000 N 
ATOM     57  C41 UNL A   1       8.974   9.287  18.740  1.00  0.00    +0.000 C 
ATOM     69  C48 UNL A   1       8.501   8.901  19.951  1.00  0.00    +0.000 C 
ATOM     70  N6  UNL A   1       8.720   7.713  20.636  1.00  0.00    +0.000 N 
ATOM     71  C49 UNL A   1       8.069   7.826  21.768  1.00  0.00    +0.000 C 
ATOM     72  C50 UNL A   1       7.933   6.832  22.888  1.00  0.00    +0.000 C 
ATOM     84  C57 UNL A   1       8.552   5.640  22.789  1.00  0.00    +0.000 C 
ATOM     85  C58 UNL A   1       8.492   4.573  23.782  1.00  0.00    +0.000 C 
ATOM     86  C59 UNL A   1       9.222   3.533  23.351  1.00  0.00    +0.000 C 
ATOM     87  C60 UNL A   1       9.774   3.849  22.032  1.00  0.00    +0.000 C 
ATOM     88  N7  UNL A   1       9.347   5.132  21.792  1.00  0.00    +0.000 N 
ATOM     89  C61 UNL A   1       7.376   9.110  21.939  1.00  0.00    +0.000 C 
ATOM     90  C62 UNL A   1       7.636   9.710  20.786  1.00  0.00    +0.000 C 
ATOM     91  C63 UNL A   1      12.350   3.283  18.221  1.00  0.00    +0.000 C 
ATOM     92  C64 UNL A   1      11.968   2.553  19.259  1.00  0.00    +0.000 C 
ATOM    121  H27 UNL A   1      11.545   7.625  15.270  1.00  0.00    +0.000 H 
ATOM    122  H28 UNL A   1      10.163   9.666  16.119  1.00  0.00    +0.000 H 
ATOM    123  H29 UNL A   1      10.120   6.752  19.060  1.00  0.00    +0.000 H 
ATOM    124  H30 UNL A   1       7.973   4.611  24.673  1.00  0.00    +0.000 H 
ATOM    125  H31 UNL A   1       9.369   2.651  23.865  1.00  0.00    +0.000 H 
ATOM    126  H32 UNL A   1       9.588   5.637  20.982  1.00  0.00    +0.000 H 
ATOM    127  H33 UNL A   1       6.831   9.454  22.745  1.00  0.00    +0.000 H 
ATOM    128  H34 UNL A   1       7.268  10.636  20.517  1.00  0.00    +0.000 H 
ENDROOT
BRANCH   36   35
ATOM     33  C24 UNL A   1      12.327   0.126  22.954  1.00  0.00    +0.000 C 
ATOM     34  C25 UNL A   1      11.998   1.422  22.548  1.00  0.00    +0.000 C 
ATOM     35  C26 UNL A   1      10.830   1.658  21.804  1.00  0.00    +0.000 C 
ATOM    132  H38 UNL A   1       9.591  -1.466  21.851  1.00  0.00    +0.000 H 
ATOM    131  H37 UNL A   1       9.106   0.748  20.987  1.00  0.00    +0.000 H 
ATOM    119  H25 UNL A   1      13.200  -0.044  23.476  1.00  0.00    +0.000 H 
ATOM    120  H26 UNL A   1      12.617   2.210  22.795  1.00  0.00    +0.000 H 
ATOM     93  C65 UNL A   1       9.966   0.587  21.533  1.00  0.00    +0.000 C 
ATOM     94  C66 UNL A   1      10.264  -0.696  21.995  1.00  0.00    +0.000 C 
ATOM     32  C23 UNL A   1      11.472  -0.940  22.654  1.00  0.00    +0.000 C 
BRANCH   32   30
ATOM     30  C22 UNL A   1      11.870  -2.300  23.088  1.00  0.00    +0.000 C 
ATOM     31  O2  UNL A   1      13.041  -2.644  22.996  1.00  0.00    +0.000 O 
BRANCH   30   29
ATOM     29  N3  UNL A   1      10.936  -3.187  23.566  1.00  0.00    +0.000 N 
ATOM    118  H24 UNL A   1      10.250  -3.459  22.914  1.00  0.00    +0.000 H 
BRANCH   29   28
ATOM    116  H22 UNL A   1       9.840  -4.249  24.952  1.00  0.00    +0.000 H 
ATOM     28  C21 UNL A   1      10.802  -3.787  24.882  1.00  0.00    +0.000 C 
ATOM    117  H23 UNL A   1      11.594  -4.499  24.994  1.00  0.00    +0.000 H 
BRANCH   28   27
ATOM    114  H20 UNL A   1      10.687  -1.805  25.620  1.00  0.00    +0.000 H 
ATOM     27  C20 UNL A   1      10.938  -2.768  26.012  1.00  0.00    +0.000 C 
ATOM    115  H21 UNL A   1      10.283  -3.102  26.790  1.00  0.00    +0.000 H 
BRANCH   27   26
ATOM    113  H19 UNL A   1      12.970  -3.264  26.025  1.00  0.00    +0.000 H 
ATOM     26  C19 UNL A   1      12.329  -2.672  26.646  1.00  0.00    +0.000 C 
ATOM    112  H18 UNL A   1      12.254  -3.019  27.655  1.00  0.00    +0.000 H 
BRANCH   26   25
ATOM     25  C18 UNL A   1      12.959  -1.279  26.676  1.00  0.00    +0.000 C 
ATOM    110  H16 UNL A   1      12.201  -0.574  26.407  1.00  0.00    +0.000 H 
ATOM    111  H17 UNL A   1      13.340  -1.164  27.670  1.00  0.00    +0.000 H 
BRANCH   25   24
ATOM    108  H14 UNL A   1      14.772  -1.924  25.789  1.00  0.00    +0.000 H 
ATOM    109  H15 UNL A   1      13.742  -0.839  24.791  1.00  0.00    +0.000 H 
ATOM     24  C17 UNL A   1      14.160  -1.048  25.753  1.00  0.00    +0.000 C 
BRANCH   24   23
ATOM    106  H12 UNL A   1      15.285   0.121  27.123  1.00  0.00    +0.000 H 
ATOM    107  H13 UNL A   1      15.916   0.080  25.464  1.00  0.00    +0.000 H 
ATOM     23  C16 UNL A   1      15.045   0.151  26.081  1.00  0.00    +0.000 C 
BRANCH   23   22
ATOM    105  H11 UNL A   1      14.004   1.582  24.910  1.00  0.00    +0.000 H 
ATOM     22  N2  UNL A   1      14.415   1.424  25.790  1.00  0.00    +0.000 N 
BRANCH   22    2
ATOM      1  O1  UNL A   1      15.015   3.471  26.650  1.00  0.00    +0.000 O 
ATOM      2  C1  UNL A   1      14.397   2.413  26.753  1.00  0.00    +0.000 C 
BRANCH    2    3
ATOM      3  C2  UNL A   1      13.491   2.138  27.928  1.00  0.00    +0.000 C 
ATOM     95  H1  UNL A   1      13.980   2.512  28.803  1.00  0.00    +0.000 H 
ATOM     96  H2  UNL A   1      13.331   1.080  27.904  1.00  0.00    +0.000 H 
BRANCH    3    4
ATOM     97  H3  UNL A   1      11.340   0.872  27.228  1.00  0.00    +0.000 H 
ATOM     98  H4  UNL A   1       9.037   1.573  27.025  1.00  0.00    +0.000 H 
ATOM     99  H5  UNL A   1       8.444   3.879  27.478  1.00  0.00    +0.000 H 
ATOM      4  C3  UNL A   1      12.092   2.735  27.900  1.00  0.00    +0.000 C 
ATOM      5  C4  UNL A   1      11.085   1.844  27.458  1.00  0.00    +0.000 C 
ATOM      6  C5  UNL A   1       9.759   2.247  27.327  1.00  0.00    +0.000 C 
ATOM    100  H6  UNL A   1      10.132   5.436  28.225  1.00  0.00    +0.000 H 
ATOM      8  C7  UNL A   1      10.393   4.452  28.055  1.00  0.00    +0.000 C 
ATOM      9  C8  UNL A   1      11.722   4.046  28.285  1.00  0.00    +0.000 C 
ATOM      7  C6  UNL A   1       9.416   3.561  27.604  1.00  0.00    +0.000 C 
BRANCH    9   10
ATOM     10  N1  UNL A   1      12.672   4.981  28.772  1.00  0.00    +0.000 N 
ATOM    101  H7  UNL A   1      13.546   4.980  28.317  1.00  0.00    +0.000 H 
BRANCH   10   11
ATOM    102  H8  UNL A   1      12.235   9.274  30.161  1.00  0.00    +0.000 H 
ATOM    103  H9  UNL A   1      12.415   8.694  32.511  1.00  0.00    +0.000 H 
ATOM    104  H10 UNL A   1      12.685   6.378  33.154  1.00  0.00    +0.000 H 
ATOM     11  C9  UNL A   1      12.524   5.918  29.829  1.00  0.00    +0.000 C 
ATOM     12  C10 UNL A   1      12.387   7.279  29.493  1.00  0.00    +0.000 C 
ATOM     13  F1  UNL A   1      12.289   7.642  28.208  1.00  0.00    +0.000 F 
ATOM     14  C11 UNL A   1      12.345   8.289  30.448  1.00  0.00    +0.000 C 
ATOM     15  C12 UNL A   1      12.452   7.959  31.788  1.00  0.00    +0.000 C 
ATOM     16  C13 UNL A   1      12.611   6.621  32.154  1.00  0.00    +0.000 C 
ATOM     17  C14 UNL A   1      12.677   5.589  31.187  1.00  0.00    +0.000 C 
ATOM     18  C15 UNL A   1      12.885   4.175  31.673  1.00  0.00    +0.000 C 
ATOM     19  F2  UNL A   1      13.560   4.132  32.861  1.00  0.00    +0.000 F 
ATOM     20  F3  UNL A   1      11.709   3.529  31.909  1.00  0.00    +0.000 F 
ATOM     21  F4  UNL A   1      13.605   3.386  30.833  1.00  0.00    +0.000 F 
ENDBRANCH   10   11
ENDBRANCH    9   10
ENDBRANCH    3    4
ENDBRANCH    2    3
ENDBRANCH   22    2
ENDBRANCH   23   22
ENDBRANCH   24   23
ENDBRANCH   25   24
ENDBRANCH   26   25
ENDBRANCH   27   26
ENDBRANCH   28   27
ENDBRANCH   29   28
ENDBRANCH   30   29
ENDBRANCH   32   30
ENDBRANCH   36   35
BRANCH   40   41
ATOM     41  C31 UNL A   1      12.697   5.143  16.061  1.00  0.00    +0.000 C 
ATOM     42  C32 UNL A   1      14.052   5.509  16.063  1.00  0.00    +0.000 C 
ATOM     43  F5  UNL A   1      14.562   6.206  17.090  1.00  0.00    +0.000 F 
ATOM     44  C33 UNL A   1      14.880   5.201  14.986  1.00  0.00    +0.000 C 
ATOM     45  F6  UNL A   1      16.157   5.609  14.986  1.00  0.00    +0.000 F 
ATOM     46  C34 UNL A   1      14.383   4.485  13.907  1.00  0.00    +0.000 C 
ATOM     47  F7  UNL A   1      15.182   4.187  12.874  1.00  0.00    +0.000 F 
ATOM     48  C35 UNL A   1      13.054   4.088  13.897  1.00  0.00    +0.000 C 
ATOM     49  F8  UNL A   1      12.576   3.385  12.861  1.00  0.00    +0.000 F 
ATOM     50  C36 UNL A   1      12.216   4.422  14.958  1.00  0.00    +0.000 C 
ATOM     51  F9  UNL A   1      10.931   4.040  14.907  1.00  0.00    +0.000 F 
ENDBRANCH   40   41
BRANCH   57   58
ATOM     65  C46 UNL A   1       6.981  12.038  17.021  1.00  0.00    +0.000 C 
ATOM     66  F13 UNL A   1       5.862  12.153  16.292  1.00  0.00    +0.000 F 
ATOM     67  C47 UNL A   1       7.377  10.789  17.493  1.00  0.00    +0.000 C 
ATOM     68  F14 UNL A   1       6.613   9.723  17.213  1.00  0.00    +0.000 F 
ATOM     58  C42 UNL A   1       8.553  10.641  18.244  1.00  0.00    +0.000 C 
ATOM     59  C43 UNL A   1       9.316  11.788  18.503  1.00  0.00    +0.000 C 
ATOM     60  F10 UNL A   1      10.440  11.702  19.231  1.00  0.00    +0.000 F 
ATOM     61  C44 UNL A   1       8.901  13.041  18.056  1.00  0.00    +0.000 C 
ATOM     62  F11 UNL A   1       9.616  14.131  18.365  1.00  0.00    +0.000 F 
ATOM     63  C45 UNL A   1       7.737  13.164  17.312  1.00  0.00    +0.000 C 
ATOM     64  F12 UNL A   1       7.339  14.369  16.883  1.00  0.00    +0.000 F 
ENDBRANCH   57   58
BRANCH   72   73
ATOM     73  C51 UNL A   1       7.095   7.133  24.077  1.00  0.00    +0.000 C 
ATOM     74  C52 UNL A   1       5.778   6.660  24.162  1.00  0.00    +0.000 C 
ATOM     75  F15 UNL A   1       5.253   5.956  23.149  1.00  0.00    +0.000 F 
ATOM     76  C53 UNL A   1       4.984   6.940  25.272  1.00  0.00    +0.000 C 
ATOM     77  F16 UNL A   1       3.716   6.509  25.311  1.00  0.00    +0.000 F 
ATOM     78  C54 UNL A   1       5.500   7.673  26.330  1.00  0.00    +0.000 C 
ATOM     79  F17 UNL A   1       4.739   7.934  27.401  1.00  0.00    +0.000 F 
ATOM     80  C55 UNL A   1       6.805   8.140  26.274  1.00  0.00    +0.000 C 
ATOM     81  F18 UNL A   1       7.312   8.835  27.300  1.00  0.00    +0.000 F 
ATOM     82  C56 UNL A   1       7.591   7.883  25.152  1.00  0.00    +0.000 C 
ATOM     83  F19 UNL A   1       8.847   8.354  25.121  1.00  0.00    +0.000 F 
ENDBRANCH   72   73
TORSDOF 18
ENDMDL
MODEL 8
REMARK VINA RESULT:      -9.0     65.989     71.345
ROOT
ATOM    129  H35 UNL A   1      16.410  56.812   2.300  1.00  0.00    +0.000 H 
ATOM    130  H36 UNL A   1      14.988  56.619   4.421  1.00  0.00    +0.000 H 
ATOM     36  C27 UNL A   1      13.878  54.024   4.823  1.00  0.00    +0.000 C 
ATOM     37  C28 UNL A   1      14.844  54.456   3.756  1.00  0.00    +0.000 C 
ATOM     38  N4  UNL A   1      15.386  53.750   2.794  1.00  0.00    +0.000 N 
ATOM     39  C29 UNL A   1      16.169  54.636   2.067  1.00  0.00    +0.000 C 
ATOM     40  C30 UNL A   1      16.976  54.380   1.008  1.00  0.00    +0.000 C 
ATOM     52  C37 UNL A   1      17.161  53.075   0.426  1.00  0.00    +0.000 C 
ATOM     53  C38 UNL A   1      18.016  52.698  -0.595  1.00  0.00    +0.000 C 
ATOM     54  C39 UNL A   1      17.806  51.340  -0.865  1.00  0.00    +0.000 C 
ATOM     55  C40 UNL A   1      16.856  50.859   0.022  1.00  0.00    +0.000 C 
ATOM     56  N5  UNL A   1      16.469  51.934   0.808  1.00  0.00    +0.000 N 
ATOM     57  C41 UNL A   1      16.338  49.520   0.146  1.00  0.00    +0.000 C 
ATOM     69  C48 UNL A   1      15.428  49.122   1.071  1.00  0.00    +0.000 C 
ATOM     70  N6  UNL A   1      14.804  49.871   2.060  1.00  0.00    +0.000 N 
ATOM     71  C49 UNL A   1      13.997  49.046   2.680  1.00  0.00    +0.000 C 
ATOM     72  C50 UNL A   1      13.091  49.304   3.851  1.00  0.00    +0.000 C 
ATOM     84  C57 UNL A   1      13.038  50.540   4.382  1.00  0.00    +0.000 C 
ATOM     85  C58 UNL A   1      12.226  50.933   5.529  1.00  0.00    +0.000 C 
ATOM     86  C59 UNL A   1      12.427  52.236   5.782  1.00  0.00    +0.000 C 
ATOM     87  C60 UNL A   1      13.410  52.762   4.833  1.00  0.00    +0.000 C 
ATOM     88  N7  UNL A   1      13.696  51.691   4.023  1.00  0.00    +0.000 N 
ATOM     89  C61 UNL A   1      14.004  47.679   2.142  1.00  0.00    +0.000 C 
ATOM     90  C62 UNL A   1      14.924  47.770   1.192  1.00  0.00    +0.000 C 
ATOM     91  C63 UNL A   1      15.996  55.941   2.668  1.00  0.00    +0.000 C 
ATOM     92  C64 UNL A   1      15.238  55.872   3.753  1.00  0.00    +0.000 C 
ATOM    121  H27 UNL A   1      18.693  53.311  -1.075  1.00  0.00    +0.000 H 
ATOM    122  H28 UNL A   1      18.278  50.791  -1.599  1.00  0.00    +0.000 H 
ATOM    123  H29 UNL A   1      15.802  51.894   1.531  1.00  0.00    +0.000 H 
ATOM    124  H30 UNL A   1      11.597  50.310   6.060  1.00  0.00    +0.000 H 
ATOM    125  H31 UNL A   1      11.964  52.779   6.526  1.00  0.00    +0.000 H 
ATOM    126  H32 UNL A   1      14.314  51.744   3.258  1.00  0.00    +0.000 H 
ATOM    127  H33 UNL A   1      13.441  46.863   2.428  1.00  0.00    +0.000 H 
ATOM    128  H34 UNL A   1      15.241  46.977   0.612  1.00  0.00    +0.000 H 
ENDROOT
BRANCH   36   35
ATOM     33  C24 UNL A   1      11.734  56.600   6.597  1.00  0.00    +0.000 C 
ATOM     34  C25 UNL A   1      12.149  55.629   5.683  1.00  0.00    +0.000 C 
ATOM     35  C26 UNL A   1      13.388  54.986   5.842  1.00  0.00    +0.000 C 
ATOM    132  H38 UNL A   1      14.273  56.372   8.774  1.00  0.00    +0.000 H 
ATOM    131  H37 UNL A   1      15.082  54.819   7.096  1.00  0.00    +0.000 H 
ATOM    119  H25 UNL A   1      10.836  57.089   6.458  1.00  0.00    +0.000 H 
ATOM    120  H26 UNL A   1      11.543  55.384   4.885  1.00  0.00    +0.000 H 
ATOM     93  C65 UNL A   1      14.170  55.284   6.968  1.00  0.00    +0.000 C 
ATOM     94  C66 UNL A   1      13.724  56.207   7.914  1.00  0.00    +0.000 C 
ATOM     32  C23 UNL A   1      12.536  56.911   7.701  1.00  0.00    +0.000 C 
BRANCH   32   30
ATOM     30  C22 UNL A   1      12.065  57.961   8.635  1.00  0.00    +0.000 C 
ATOM     31  O2  UNL A   1      12.814  58.882   8.933  1.00  0.00    +0.000 O 
BRANCH   30   29
ATOM     29  N3  UNL A   1      10.810  57.898   9.190  1.00  0.00    +0.000 N 
ATOM    118  H24 UNL A   1      10.143  58.492   8.777  1.00  0.00    +0.000 H 
BRANCH   29   28
ATOM    116  H22 UNL A   1      10.108  57.732  11.122  1.00  0.00    +0.000 H 
ATOM     28  C21 UNL A   1      10.314  57.090  10.291  1.00  0.00    +0.000 C 
ATOM    117  H23 UNL A   1       9.432  56.588   9.950  1.00  0.00    +0.000 H 
BRANCH   28   27
ATOM    114  H20 UNL A   1      12.287  56.337  10.440  1.00  0.00    +0.000 H 
ATOM     27  C20 UNL A   1      11.309  56.020  10.736  1.00  0.00    +0.000 C 
ATOM    115  H21 UNL A   1      11.187  55.926  11.795  1.00  0.00    +0.000 H 
BRANCH   27   26
ATOM    113  H19 UNL A   1      11.620  53.953  10.787  1.00  0.00    +0.000 H 
ATOM     26  C19 UNL A   1      11.070  54.622  10.159  1.00  0.00    +0.000 C 
ATOM    112  H18 UNL A   1      11.391  54.629   9.138  1.00  0.00    +0.000 H 
BRANCH   26   25
ATOM     25  C18 UNL A   1       9.625  54.121  10.189  1.00  0.00    +0.000 C 
ATOM    110  H16 UNL A   1       9.018  54.903  10.593  1.00  0.00    +0.000 H 
ATOM    111  H17 UNL A   1       9.397  53.859   9.177  1.00  0.00    +0.000 H 
BRANCH   25   24
ATOM    108  H14 UNL A   1      10.168  52.725  11.688  1.00  0.00    +0.000 H 
ATOM    109  H15 UNL A   1       8.406  53.013  11.474  1.00  0.00    +0.000 H 
ATOM     24  C17 UNL A   1       9.355  52.852  11.006  1.00  0.00    +0.000 C 
BRANCH   24   23
ATOM    106  H12 UNL A   1       8.236  51.148  10.414  1.00  0.00    +0.000 H 
ATOM    107  H13 UNL A   1       9.335  51.799   9.181  1.00  0.00    +0.000 H 
ATOM     23  C16 UNL A   1       9.204  51.556  10.215  1.00  0.00    +0.000 C 
BRANCH   23   22
ATOM    105  H11 UNL A   1       9.939  49.734  11.015  1.00  0.00    +0.000 H 
ATOM     22  N2  UNL A   1      10.203  50.561  10.553  1.00  0.00    +0.000 N 
BRANCH   22    2
ATOM      1  O1  UNL A   1      11.903  51.075   9.091  1.00  0.00    +0.000 O 
ATOM      2  C1  UNL A   1      11.525  50.782  10.223  1.00  0.00    +0.000 C 
BRANCH    2    3
ATOM      3  C2  UNL A   1      12.488  50.710  11.383  1.00  0.00    +0.000 C 
ATOM     95  H1  UNL A   1      13.365  50.202  11.040  1.00  0.00    +0.000 H 
ATOM     96  H2  UNL A   1      11.941  50.214  12.158  1.00  0.00    +0.000 H 
BRANCH    3    4
ATOM     97  H3  UNL A   1      11.473  51.768  13.521  1.00  0.00    +0.000 H 
ATOM     98  H4  UNL A   1      11.935  53.833  14.686  1.00  0.00    +0.000 H 
ATOM     99  H5  UNL A   1      13.604  55.355  13.808  1.00  0.00    +0.000 H 
ATOM      4  C3  UNL A   1      12.940  52.019  12.012  1.00  0.00    +0.000 C 
ATOM      5  C4  UNL A   1      12.211  52.395  13.166  1.00  0.00    +0.000 C 
ATOM      6  C5  UNL A   1      12.464  53.591  13.833  1.00  0.00    +0.000 C 
ATOM    100  H6  UNL A   1      14.866  54.758  11.837  1.00  0.00    +0.000 H 
ATOM      8  C7  UNL A   1      14.172  54.093  12.213  1.00  0.00    +0.000 C 
ATOM      9  C8  UNL A   1      14.000  52.849  11.575  1.00  0.00    +0.000 C 
ATOM      7  C6  UNL A   1      13.432  54.452  13.342  1.00  0.00    +0.000 C 
BRANCH    9   10
ATOM     10  N1  UNL A   1      14.796  52.517  10.448  1.00  0.00    +0.000 N 
ATOM    101  H7  UNL A   1      14.619  53.034   9.629  1.00  0.00    +0.000 H 
BRANCH   10   11
ATOM    102  H8  UNL A   1      18.216  50.229  12.350  1.00  0.00    +0.000 H 
ATOM    103  H9  UNL A   1      18.844  49.137  10.275  1.00  0.00    +0.000 H 
ATOM    104  H10 UNL A   1      17.578  49.577   8.262  1.00  0.00    +0.000 H 
ATOM     11  C9  UNL A   1      15.817  51.533  10.351  1.00  0.00    +0.000 C 
ATOM     12  C10 UNL A   1      16.589  51.267  11.498  1.00  0.00    +0.000 C 
ATOM     13  F1  UNL A   1      16.279  51.851  12.662  1.00  0.00    +0.000 F 
ATOM     14  C11 UNL A   1      17.681  50.405  11.486  1.00  0.00    +0.000 C 
ATOM     15  C12 UNL A   1      18.042  49.785  10.301  1.00  0.00    +0.000 C 
ATOM     16  C13 UNL A   1      17.310  50.046   9.141  1.00  0.00    +0.000 C 
ATOM     17  C14 UNL A   1      16.211  50.938   9.140  1.00  0.00    +0.000 C 
ATOM     18  C15 UNL A   1      15.500  51.184   7.832  1.00  0.00    +0.000 C 
ATOM     19  F2  UNL A   1      16.326  51.012   6.756  1.00  0.00    +0.000 F 
ATOM     20  F3  UNL A   1      14.469  50.317   7.630  1.00  0.00    +0.000 F 
ATOM     21  F4  UNL A   1      14.994  52.438   7.688  1.00  0.00    +0.000 F 
ENDBRANCH   10   11
ENDBRANCH    9   10
ENDBRANCH    3    4
ENDBRANCH    2    3
ENDBRANCH   22    2
ENDBRANCH   23   22
ENDBRANCH   24   23
ENDBRANCH   25   24
ENDBRANCH   26   25
ENDBRANCH   27   26
ENDBRANCH   28   27
ENDBRANCH   29   28
ENDBRANCH   30   29
ENDBRANCH   32   30
ENDBRANCH   36   35
BRANCH   40   41
ATOM     41  C31 UNL A   1      17.716  55.540   0.405  1.00  0.00    +0.000 C 
ATOM     42  C32 UNL A   1      18.984  55.926   0.864  1.00  0.00    +0.000 C 
ATOM     43  F5  UNL A   1      19.558  55.276   1.889  1.00  0.00    +0.000 F 
ATOM     44  C33 UNL A   1      19.653  57.010   0.301  1.00  0.00    +0.000 C 
ATOM     45  F6  UNL A   1      20.839  57.393   0.793  1.00  0.00    +0.000 F 
ATOM     46  C34 UNL A   1      19.086  57.705  -0.757  1.00  0.00    +0.000 C 
ATOM     47  F7  UNL A   1      19.732  58.746  -1.299  1.00  0.00    +0.000 F 
ATOM     48  C35 UNL A   1      17.846  57.324  -1.246  1.00  0.00    +0.000 C 
ATOM     49  F8  UNL A   1      17.303  57.986  -2.277  1.00  0.00    +0.000 F 
ATOM     50  C36 UNL A   1      17.161  56.260  -0.665  1.00  0.00    +0.000 C 
ATOM     51  F9  UNL A   1      15.954  55.930  -1.149  1.00  0.00    +0.000 F 
ENDBRANCH   40   41
BRANCH   57   58
ATOM     65  C46 UNL A   1      18.569  46.867  -1.428  1.00  0.00    +0.000 C 
ATOM     66  F13 UNL A   1      19.752  46.284  -1.185  1.00  0.00    +0.000 F 
ATOM     67  C47 UNL A   1      18.079  47.835  -0.555  1.00  0.00    +0.000 C 
ATOM     68  F14 UNL A   1      18.805  48.153   0.526  1.00  0.00    +0.000 F 
ATOM     58  C42 UNL A   1      16.852  48.471  -0.798  1.00  0.00    +0.000 C 
ATOM     59  C43 UNL A   1      16.137  48.103  -1.947  1.00  0.00    +0.000 C 
ATOM     60  F10 UNL A   1      14.951  48.669  -2.215  1.00  0.00    +0.000 F 
ATOM     61  C44 UNL A   1      16.616  47.111  -2.801  1.00  0.00    +0.000 C 
ATOM     62  F11 UNL A   1      15.887  46.735  -3.861  1.00  0.00    +0.000 F 
ATOM     63  C45 UNL A   1      17.832  46.499  -2.544  1.00  0.00    +0.000 C 
ATOM     64  F12 UNL A   1      18.291  45.546  -3.367  1.00  0.00    +0.000 F 
ENDBRANCH   57   58
BRANCH   72   73
ATOM     73  C51 UNL A   1      12.288  48.208   4.451  1.00  0.00    +0.000 C 
ATOM     74  C52 UNL A   1      11.026  47.880   3.936  1.00  0.00    +0.000 C 
ATOM     75  F15 UNL A   1      10.520  48.581   2.910  1.00  0.00    +0.000 F 
ATOM     76  C53 UNL A   1      10.265  46.856   4.494  1.00  0.00    +0.000 C 
ATOM     77  F16 UNL A   1       9.046  46.588   4.007  1.00  0.00    +0.000 F 
ATOM     78  C54 UNL A   1      10.762  46.122   5.560  1.00  0.00    +0.000 C 
ATOM     79  F17 UNL A   1      10.034  45.130   6.091  1.00  0.00    +0.000 F 
ATOM     80  C55 UNL A   1      12.013  46.419   6.078  1.00  0.00    +0.000 C 
ATOM     81  F18 UNL A   1      12.503  45.702   7.098  1.00  0.00    +0.000 F 
ATOM     82  C56 UNL A   1      12.764  47.461   5.538  1.00  0.00    +0.000 C 
ATOM     83  F19 UNL A   1      13.968  47.732   6.065  1.00  0.00    +0.000 F 
ENDBRANCH   72   73
TORSDOF 18
ENDMDL
MODEL 9
REMARK VINA RESULT:      -9.0     32.396     39.271
ROOT
ATOM    129  H35 UNL A   1      23.900  12.022   8.458  1.00  0.00    +0.000 H 
ATOM    130  H36 UNL A   1      23.943  14.308   9.610  1.00  0.00    +0.000 H 
ATOM     36  C27 UNL A   1      21.793  16.016   8.845  1.00  0.00    +0.000 C 
ATOM     37  C28 UNL A   1      22.010  14.581   8.458  1.00  0.00    +0.000 C 
ATOM     38  N4  UNL A   1      21.272  13.807   7.700  1.00  0.00    +0.000 N 
ATOM     39  C29 UNL A   1      21.941  12.592   7.632  1.00  0.00    +0.000 C 
ATOM     40  C30 UNL A   1      21.556  11.448   7.016  1.00  0.00    +0.000 C 
ATOM     52  C37 UNL A   1      20.324  11.295   6.285  1.00  0.00    +0.000 C 
ATOM     53  C38 UNL A   1      19.806  10.155   5.695  1.00  0.00    +0.000 C 
ATOM     54  C39 UNL A   1      18.615  10.499   5.045  1.00  0.00    +0.000 C 
ATOM     55  C40 UNL A   1      18.364  11.843   5.273  1.00  0.00    +0.000 C 
ATOM     56  N5  UNL A   1      19.421  12.318   6.035  1.00  0.00    +0.000 N 
ATOM     57  C41 UNL A   1      17.246  12.638   4.831  1.00  0.00    +0.000 C 
ATOM     69  C48 UNL A   1      17.058  13.947   5.130  1.00  0.00    +0.000 C 
ATOM     70  N6  UNL A   1      17.859  14.794   5.883  1.00  0.00    +0.000 N 
ATOM     71  C49 UNL A   1      17.266  15.963   5.863  1.00  0.00    +0.000 C 
ATOM     72  C50 UNL A   1      17.672  17.246   6.532  1.00  0.00    +0.000 C 
ATOM     84  C57 UNL A   1      18.804  17.278   7.262  1.00  0.00    +0.000 C 
ATOM     85  C58 UNL A   1      19.311  18.441   7.983  1.00  0.00    +0.000 C 
ATOM     86  C59 UNL A   1      20.454  18.108   8.601  1.00  0.00    +0.000 C 
ATOM     87  C60 UNL A   1      20.743  16.695   8.345  1.00  0.00    +0.000 C 
ATOM     88  N7  UNL A   1      19.724  16.292   7.518  1.00  0.00    +0.000 N 
ATOM     89  C61 UNL A   1      16.026  15.995   5.076  1.00  0.00    +0.000 C 
ATOM     90  C62 UNL A   1      15.923  14.732   4.687  1.00  0.00    +0.000 C 
ATOM     91  C63 UNL A   1      23.168  12.745   8.385  1.00  0.00    +0.000 C 
ATOM     92  C64 UNL A   1      23.228  13.934   8.967  1.00  0.00    +0.000 C 
ATOM    121  H27 UNL A   1      20.225   9.212   5.728  1.00  0.00    +0.000 H 
ATOM    122  H28 UNL A   1      18.024   9.862   4.490  1.00  0.00    +0.000 H 
ATOM    123  H29 UNL A   1      19.517  13.245   6.353  1.00  0.00    +0.000 H 
ATOM    124  H30 UNL A   1      18.863  19.370   8.013  1.00  0.00    +0.000 H 
ATOM    125  H31 UNL A   1      21.036  18.744   9.167  1.00  0.00    +0.000 H 
ATOM    126  H32 UNL A   1      19.660  15.383   7.146  1.00  0.00    +0.000 H 
ATOM    127  H33 UNL A   1      15.400  16.791   4.878  1.00  0.00    +0.000 H 
ATOM    128  H34 UNL A   1      15.134  14.355   4.139  1.00  0.00    +0.000 H 
ENDROOT
BRANCH   36   35
ATOM     33  C24 UNL A   1      23.498  17.332  11.967  1.00  0.00    +0.000 C 
ATOM     34  C25 UNL A   1      22.652  16.597  11.132  1.00  0.00    +0.000 C 
ATOM     35  C26 UNL A   1      22.751  16.719   9.736  1.00  0.00    +0.000 C 
ATOM    132  H38 UNL A   1      25.414  18.767   9.620  1.00  0.00    +0.000 H 
ATOM    131  H37 UNL A   1      23.835  17.636   8.169  1.00  0.00    +0.000 H 
ATOM    119  H25 UNL A   1      23.401  17.259  12.992  1.00  0.00    +0.000 H 
ATOM    120  H26 UNL A   1      21.952  15.961  11.543  1.00  0.00    +0.000 H 
ATOM     93  C65 UNL A   1      23.752  17.538   9.192  1.00  0.00    +0.000 C 
ATOM     94  C66 UNL A   1      24.637  18.221  10.027  1.00  0.00    +0.000 C 
ATOM     32  C23 UNL A   1      24.474  18.168  11.415  1.00  0.00    +0.000 C 
BRANCH   32   30
ATOM     30  C22 UNL A   1      25.336  18.944  12.338  1.00  0.00    +0.000 C 
ATOM     31  O2  UNL A   1      25.620  18.477  13.433  1.00  0.00    +0.000 O 
BRANCH   30   29
ATOM     29  N3  UNL A   1      25.797  20.190  11.989  1.00  0.00    +0.000 N 
ATOM    118  H24 UNL A   1      25.282  20.942  12.359  1.00  0.00    +0.000 H 
BRANCH   29   28
ATOM    116  H22 UNL A   1      26.619  20.560  10.134  1.00  0.00    +0.000 H 
ATOM     28  C21 UNL A   1      26.927  20.571  11.158  1.00  0.00    +0.000 C 
ATOM    117  H23 UNL A   1      27.240  21.547  11.468  1.00  0.00    +0.000 H 
BRANCH   28   27
ATOM    114  H20 UNL A   1      29.003  20.234  11.402  1.00  0.00    +0.000 H 
ATOM     27  C20 UNL A   1      28.122  19.634  11.319  1.00  0.00    +0.000 C 
ATOM    115  H21 UNL A   1      27.918  19.043  12.188  1.00  0.00    +0.000 H 
BRANCH   27   26
ATOM    113  H19 UNL A   1      27.704  17.803  10.398  1.00  0.00    +0.000 H 
ATOM     26  C19 UNL A   1      28.334  18.639  10.174  1.00  0.00    +0.000 C 
ATOM    112  H18 UNL A   1      29.377  18.403  10.133  1.00  0.00    +0.000 H 
BRANCH   26   25
ATOM     25  C18 UNL A   1      27.908  19.114   8.784  1.00  0.00    +0.000 C 
ATOM    110  H16 UNL A   1      27.006  19.678   8.895  1.00  0.00    +0.000 H 
ATOM    111  H17 UNL A   1      28.740  19.674   8.411  1.00  0.00    +0.000 H 
BRANCH   25   24
ATOM    108  H14 UNL A   1      28.407  17.278   7.849  1.00  0.00    +0.000 H 
ATOM    109  H15 UNL A   1      26.655  17.680   7.924  1.00  0.00    +0.000 H 
ATOM     24  C17 UNL A   1      27.650  18.026   7.736  1.00  0.00    +0.000 C 
BRANCH   24   23
ATOM    106  H12 UNL A   1      28.669  18.619   5.970  1.00  0.00    +0.000 H 
ATOM    107  H13 UNL A   1      27.164  17.713   5.710  1.00  0.00    +0.000 H 
ATOM     23  C16 UNL A   1      27.655  18.475   6.278  1.00  0.00    +0.000 C 
BRANCH   23   22
ATOM    105  H11 UNL A   1      27.415  20.548   5.893  1.00  0.00    +0.000 H 
ATOM     22  N2  UNL A   1      26.928  19.710   6.058  1.00  0.00    +0.000 N 
BRANCH   22    2
ATOM      1  O1  UNL A   1      24.884  20.081   7.046  1.00  0.00    +0.000 O 
ATOM      2  C1  UNL A   1      25.547  19.703   6.082  1.00  0.00    +0.000 C 
BRANCH    2    3
ATOM      3  C2  UNL A   1      24.892  19.264   4.795  1.00  0.00    +0.000 C 
ATOM     95  H1  UNL A   1      24.968  18.198   4.746  1.00  0.00    +0.000 H 
ATOM     96  H2  UNL A   1      25.414  19.801   4.030  1.00  0.00    +0.000 H 
BRANCH    3    4
ATOM     97  H3  UNL A   1      24.037  21.393   3.589  1.00  0.00    +0.000 H 
ATOM     98  H4  UNL A   1      21.814  22.242   3.177  1.00  0.00    +0.000 H 
ATOM     99  H5  UNL A   1      19.893  21.028   4.020  1.00  0.00    +0.000 H 
ATOM      4  C3  UNL A   1      23.429  19.624   4.585  1.00  0.00    +0.000 C 
ATOM      5  C4  UNL A   1      23.221  20.854   3.916  1.00  0.00    +0.000 C 
ATOM      6  C5  UNL A   1      21.942  21.355   3.688  1.00  0.00    +0.000 C 
ATOM    100  H6  UNL A   1      20.202  18.930   5.175  1.00  0.00    +0.000 H 
ATOM      8  C7  UNL A   1      21.027  19.428   4.803  1.00  0.00    +0.000 C 
ATOM      9  C8  UNL A   1      22.303  18.855   4.964  1.00  0.00    +0.000 C 
ATOM      7  C6  UNL A   1      20.843  20.650   4.153  1.00  0.00    +0.000 C 
BRANCH    9   10
ATOM     10  N1  UNL A   1      22.437  17.596   5.606  1.00  0.00    +0.000 N 
ATOM    101  H7  UNL A   1      22.555  17.622   6.583  1.00  0.00    +0.000 H 
BRANCH   10   11
ATOM    102  H8  UNL A   1      20.180  14.293   3.475  1.00  0.00    +0.000 H 
ATOM    103  H9  UNL A   1      22.025  12.723   3.625  1.00  0.00    +0.000 H 
ATOM    104  H10 UNL A   1      24.096  13.409   4.670  1.00  0.00    +0.000 H 
ATOM     11  C9  UNL A   1      22.424  16.303   5.018  1.00  0.00    +0.000 C 
ATOM     12  C10 UNL A   1      21.227  15.860   4.420  1.00  0.00    +0.000 C 
ATOM     13  F1  UNL A   1      20.184  16.693   4.320  1.00  0.00    +0.000 F 
ATOM     14  C11 UNL A   1      21.070  14.575   3.913  1.00  0.00    +0.000 C 
ATOM     15  C12 UNL A   1      22.121  13.678   4.003  1.00  0.00    +0.000 C 
ATOM     16  C13 UNL A   1      23.313  14.078   4.610  1.00  0.00    +0.000 C 
ATOM     17  C14 UNL A   1      23.474  15.378   5.148  1.00  0.00    +0.000 C 
ATOM     18  C15 UNL A   1      24.785  15.710   5.816  1.00  0.00    +0.000 C 
ATOM     19  F2  UNL A   1      25.394  14.603   6.338  1.00  0.00    +0.000 F 
ATOM     20  F3  UNL A   1      25.693  16.236   4.946  1.00  0.00    +0.000 F 
ATOM     21  F4  UNL A   1      24.689  16.580   6.856  1.00  0.00    +0.000 F 
ENDBRANCH   10   11
ENDBRANCH    9   10
ENDBRANCH    3    4
ENDBRANCH    2    3
ENDBRANCH   22    2
ENDBRANCH   23   22
ENDBRANCH   24   23
ENDBRANCH   25   24
ENDBRANCH   26   25
ENDBRANCH   27   26
ENDBRANCH   28   27
ENDBRANCH   29   28
ENDBRANCH   30   29
ENDBRANCH   32   30
ENDBRANCH   36   35
BRANCH   40   41
ATOM     41  C31 UNL A   1      22.485  10.270   7.101  1.00  0.00    +0.000 C 
ATOM     42  C32 UNL A   1      22.477   9.402   8.203  1.00  0.00    +0.000 C 
ATOM     43  F5  UNL A   1      21.650   9.628   9.235  1.00  0.00    +0.000 F 
ATOM     44  C33 UNL A   1      23.352   8.320   8.272  1.00  0.00    +0.000 C 
ATOM     45  F6  UNL A   1      23.364   7.537   9.360  1.00  0.00    +0.000 F 
ATOM     46  C34 UNL A   1      24.223   8.061   7.224  1.00  0.00    +0.000 C 
ATOM     47  F7  UNL A   1      25.062   7.019   7.291  1.00  0.00    +0.000 F 
ATOM     48  C35 UNL A   1      24.229   8.889   6.112  1.00  0.00    +0.000 C 
ATOM     49  F8  UNL A   1      25.060   8.632   5.093  1.00  0.00    +0.000 F 
ATOM     50  C36 UNL A   1      23.377   9.989   6.054  1.00  0.00    +0.000 C 
ATOM     51  F9  UNL A   1      23.421  10.782   4.973  1.00  0.00    +0.000 F 
ENDBRANCH   40   41
BRANCH   57   58
ATOM     65  C46 UNL A   1      15.262  11.438   1.811  1.00  0.00    +0.000 C 
ATOM     66  F13 UNL A   1      15.321  11.535   0.475  1.00  0.00    +0.000 F 
ATOM     67  C47 UNL A   1      16.240  12.044   2.595  1.00  0.00    +0.000 C 
ATOM     68  F14 UNL A   1      17.234  12.707   1.985  1.00  0.00    +0.000 F 
ATOM     58  C42 UNL A   1      16.190  11.972   3.995  1.00  0.00    +0.000 C 
ATOM     59  C43 UNL A   1      15.125  11.271   4.579  1.00  0.00    +0.000 C 
ATOM     60  F10 UNL A   1      15.042  11.158   5.913  1.00  0.00    +0.000 F 
ATOM     61  C44 UNL A   1      14.166  10.638   3.790  1.00  0.00    +0.000 C 
ATOM     62  F11 UNL A   1      13.190   9.926   4.370  1.00  0.00    +0.000 F 
ATOM     63  C45 UNL A   1      14.233  10.727   2.409  1.00  0.00    +0.000 C 
ATOM     64  F12 UNL A   1      13.309  10.118   1.652  1.00  0.00    +0.000 F 
ENDBRANCH   57   58
BRANCH   72   73
ATOM     73  C51 UNL A   1      16.824  18.461   6.432  1.00  0.00    +0.000 C 
ATOM     74  C52 UNL A   1      16.941  19.328   5.335  1.00  0.00    +0.000 C 
ATOM     75  F15 UNL A   1      17.849  19.078   4.380  1.00  0.00    +0.000 F 
ATOM     76  C53 UNL A   1      16.152  20.470   5.235  1.00  0.00    +0.000 C 
ATOM     77  F16 UNL A   1      16.310  21.302   4.196  1.00  0.00    +0.000 F 
ATOM     78  C54 UNL A   1      15.211  20.755   6.213  1.00  0.00    +0.000 C 
ATOM     79  F17 UNL A   1      14.445  21.850   6.111  1.00  0.00    +0.000 F 
ATOM     80  C55 UNL A   1      15.068  19.906   7.299  1.00  0.00    +0.000 C 
ATOM     81  F18 UNL A   1      14.149  20.169   8.238  1.00  0.00    +0.000 F 
ATOM     82  C56 UNL A   1      15.876  18.776   7.415  1.00  0.00    +0.000 C 
ATOM     83  F19 UNL A   1      15.722  17.977   8.481  1.00  0.00    +0.000 F 
ENDBRANCH   72   73
TORSDOF 18
ENDMDL
MODEL 10
REMARK VINA RESULT:      -9.0      1.284      2.843
ROOT
ATOM    129  H35 UNL A   1      22.048  -9.917  32.264  1.00  0.00    +0.000 H 
ATOM    130  H36 UNL A   1      22.795 -10.680  29.937  1.00  0.00    +0.000 H 
ATOM     36  C27 UNL A   1      25.131 -12.313  29.962  1.00  0.00    +0.000 C 
ATOM     37  C28 UNL A   1      24.360 -11.792  31.141  1.00  0.00    +0.000 C 
ATOM     38  N4  UNL A   1      24.582 -11.973  32.421  1.00  0.00    +0.000 N 
ATOM     39  C29 UNL A   1      23.602 -11.245  33.082  1.00  0.00    +0.000 C 
ATOM     40  C30 UNL A   1      23.369 -11.156  34.415  1.00  0.00    +0.000 C 
ATOM     52  C37 UNL A   1      24.144 -11.836  35.421  1.00  0.00    +0.000 C 
ATOM     53  C38 UNL A   1      23.938 -11.876  36.789  1.00  0.00    +0.000 C 
ATOM     54  C39 UNL A   1      24.980 -12.609  37.369  1.00  0.00    +0.000 C 
ATOM     55  C40 UNL A   1      25.807 -13.070  36.358  1.00  0.00    +0.000 C 
ATOM     56  N5  UNL A   1      25.283 -12.588  35.168  1.00  0.00    +0.000 N 
ATOM     57  C41 UNL A   1      26.989 -13.888  36.464  1.00  0.00    +0.000 C 
ATOM     69  C48 UNL A   1      27.727 -14.327  35.413  1.00  0.00    +0.000 C 
ATOM     70  N6  UNL A   1      27.537 -14.097  34.057  1.00  0.00    +0.000 N 
ATOM     71  C49 UNL A   1      28.521 -14.712  33.447  1.00  0.00    +0.000 C 
ATOM     72  C50 UNL A   1      28.805 -14.821  31.975  1.00  0.00    +0.000 C 
ATOM     84  C57 UNL A   1      27.981 -14.216  31.099  1.00  0.00    +0.000 C 
ATOM     85  C58 UNL A   1      28.117 -14.254  29.646  1.00  0.00    +0.000 C 
ATOM     86  C59 UNL A   1      27.119 -13.547  29.095  1.00  0.00    +0.000 C 
ATOM     87  C60 UNL A   1      26.252 -13.033  30.157  1.00  0.00    +0.000 C 
ATOM     88  N7  UNL A   1      26.858 -13.457  31.314  1.00  0.00    +0.000 N 
ATOM     89  C61 UNL A   1      29.461 -15.388  34.352  1.00  0.00    +0.000 C 
ATOM     90  C62 UNL A   1      28.907 -15.158  35.534  1.00  0.00    +0.000 C 
ATOM     91  C63 UNL A   1      22.813 -10.581  32.066  1.00  0.00    +0.000 C 
ATOM     92  C64 UNL A   1      23.201 -10.937  30.850  1.00  0.00    +0.000 C 
ATOM    121  H27 UNL A   1      23.151 -11.440  37.296  1.00  0.00    +0.000 H 
ATOM    122  H28 UNL A   1      25.111 -12.778  38.378  1.00  0.00    +0.000 H 
ATOM    123  H29 UNL A   1      25.661 -12.755  34.275  1.00  0.00    +0.000 H 
ATOM    124  H30 UNL A   1      28.861 -14.745  29.127  1.00  0.00    +0.000 H 
ATOM    125  H31 UNL A   1      26.983 -13.391  28.084  1.00  0.00    +0.000 H 
ATOM    126  H32 UNL A   1      26.518 -13.237  32.212  1.00  0.00    +0.000 H 
ATOM    127  H33 UNL A   1      30.324 -15.905  34.126  1.00  0.00    +0.000 H 
ATOM    128  H34 UNL A   1      29.270 -15.527  36.427  1.00  0.00    +0.000 H 
ENDROOT
BRANCH   36   35
ATOM     33  C24 UNL A   1      23.514 -12.619  26.545  1.00  0.00    +0.000 C 
ATOM     34  C25 UNL A   1      23.840 -12.868  27.881  1.00  0.00    +0.000 C 
ATOM     35  C26 UNL A   1      24.703 -12.003  28.574  1.00  0.00    +0.000 C 
ATOM    132  H38 UNL A   1      25.100  -9.690  26.167  1.00  0.00    +0.000 H 
ATOM    131  H37 UNL A   1      25.814 -10.211  28.425  1.00  0.00    +0.000 H 
ATOM    119  H25 UNL A   1      22.902 -13.274  26.033  1.00  0.00    +0.000 H 
ATOM    120  H26 UNL A   1      23.445 -13.691  28.360  1.00  0.00    +0.000 H 
ATOM     93  C65 UNL A   1      25.179 -10.853  27.927  1.00  0.00    +0.000 C 
ATOM     94  C66 UNL A   1      24.801 -10.572  26.614  1.00  0.00    +0.000 C 
ATOM     32  C23 UNL A   1      24.017 -11.484  25.901  1.00  0.00    +0.000 C 
BRANCH   32   30
ATOM     30  C22 UNL A   1      23.661 -11.270  24.477  1.00  0.00    +0.000 C 
ATOM     31  O2  UNL A   1      22.556 -11.609  24.075  1.00  0.00    +0.000 O 
BRANCH   30   29
ATOM     29  N3  UNL A   1      24.566 -10.722  23.601  1.00  0.00    +0.000 N 
ATOM    118  H24 UNL A   1      24.321  -9.835  23.252  1.00  0.00    +0.000 H 
BRANCH   29   28
ATOM    116  H22 UNL A   1      25.725 -11.467  22.067  1.00  0.00    +0.000 H 
ATOM     28  C21 UNL A   1      25.828 -11.247  23.109  1.00  0.00    +0.000 C 
ATOM    117  H23 UNL A   1      26.577 -10.502  23.284  1.00  0.00    +0.000 H 
BRANCH   28   27
ATOM    114  H20 UNL A   1      25.432 -12.873  24.406  1.00  0.00    +0.000 H 
ATOM     27  C20 UNL A   1      26.265 -12.517  23.836  1.00  0.00    +0.000 C 
ATOM    115  H21 UNL A   1      26.589 -13.196  23.075  1.00  0.00    +0.000 H 
BRANCH   27   26
ATOM    113  H19 UNL A   1      27.040 -12.394  25.774  1.00  0.00    +0.000 H 
ATOM     26  C19 UNL A   1      27.453 -12.353  24.788  1.00  0.00    +0.000 C 
ATOM    112  H18 UNL A   1      27.935 -11.427  24.553  1.00  0.00    +0.000 H 
BRANCH   26   25
ATOM     25  C18 UNL A   1      28.511 -13.456  24.737  1.00  0.00    +0.000 C 
ATOM    110  H16 UNL A   1      28.019 -14.366  24.468  1.00  0.00    +0.000 H 
ATOM    111  H17 UNL A   1      29.238 -13.116  24.029  1.00  0.00    +0.000 H 
BRANCH   25   24
ATOM    108  H14 UNL A   1      28.651 -14.240  26.701  1.00  0.00    +0.000 H 
ATOM    109  H15 UNL A   1      30.163 -14.264  25.728  1.00  0.00    +0.000 H 
ATOM     24  C17 UNL A   1      29.296 -13.715  26.028  1.00  0.00    +0.000 C 
BRANCH   24   23
ATOM    106  H12 UNL A   1      30.329 -11.860  26.049  1.00  0.00    +0.000 H 
ATOM    107  H13 UNL A   1      28.986 -11.993  27.203  1.00  0.00    +0.000 H 
ATOM     23  C16 UNL A   1      29.826 -12.484  26.758  1.00  0.00    +0.000 C 
BRANCH   23   22
ATOM    105  H11 UNL A   1      30.661 -13.653  28.319  1.00  0.00    +0.000 H 
ATOM     22  N2  UNL A   1      30.751 -12.806  27.826  1.00  0.00    +0.000 N 
BRANCH   22    2
ATOM      1  O1  UNL A   1      32.676 -12.186  28.921  1.00  0.00    +0.000 O 
ATOM      2  C1  UNL A   1      31.758 -11.918  28.148  1.00  0.00    +0.000 C 
BRANCH    2    3
ATOM      3  C2  UNL A   1      31.699 -10.599  27.418  1.00  0.00    +0.000 C 
ATOM     95  H1  UNL A   1      30.756 -10.555  26.915  1.00  0.00    +0.000 H 
ATOM     96  H2  UNL A   1      32.561 -10.602  26.784  1.00  0.00    +0.000 H 
BRANCH    3    4
ATOM     97  H3  UNL A   1      33.570  -8.828  27.133  1.00  0.00    +0.000 H 
ATOM     98  H4  UNL A   1      34.065  -6.784  28.321  1.00  0.00    +0.000 H 
ATOM     99  H5  UNL A   1      32.681  -6.126  30.199  1.00  0.00    +0.000 H 
ATOM      4  C3  UNL A   1      31.834  -9.327  28.240  1.00  0.00    +0.000 C 
ATOM      5  C4  UNL A   1      32.957  -8.532  27.907  1.00  0.00    +0.000 C 
ATOM      6  C5  UNL A   1      33.254  -7.360  28.597  1.00  0.00    +0.000 C 
ATOM    100  H6  UNL A   1      30.761  -7.457  30.809  1.00  0.00    +0.000 H 
ATOM      8  C7  UNL A   1      31.330  -7.737  29.995  1.00  0.00    +0.000 C 
ATOM      9  C8  UNL A   1      30.955  -8.874  29.255  1.00  0.00    +0.000 C 
ATOM      7  C6  UNL A   1      32.451  -6.974  29.659  1.00  0.00    +0.000 C 
BRANCH    9   10
ATOM     10  N1  UNL A   1      29.791  -9.602  29.616  1.00  0.00    +0.000 N 
ATOM    101  H7  UNL A   1      29.866 -10.582  29.568  1.00  0.00    +0.000 H 
BRANCH   10   11
ATOM    102  H8  UNL A   1      26.582  -9.265  32.800  1.00  0.00    +0.000 H 
ATOM    103  H9  UNL A   1      25.033  -8.105  31.335  1.00  0.00    +0.000 H 
ATOM    104  H10 UNL A   1      25.688  -7.598  29.062  1.00  0.00    +0.000 H 
ATOM     11  C9  UNL A   1      28.533  -9.095  30.040  1.00  0.00    +0.000 C 
ATOM     12  C10 UNL A   1      28.109  -9.390  31.350  1.00  0.00    +0.000 C 
ATOM     13  F1  UNL A   1      28.931 -10.032  32.189  1.00  0.00    +0.000 F 
ATOM     14  C11 UNL A   1      26.852  -9.038  31.830  1.00  0.00    +0.000 C 
ATOM     15  C12 UNL A   1      25.966  -8.380  30.993  1.00  0.00    +0.000 C 
ATOM     16  C13 UNL A   1      26.348  -8.094  29.681  1.00  0.00    +0.000 C 
ATOM     17  C14 UNL A   1      27.618  -8.467  29.178  1.00  0.00    +0.000 C 
ATOM     18  C15 UNL A   1      27.931  -8.146  27.737  1.00  0.00    +0.000 C 
ATOM     19  F2  UNL A   1      26.805  -8.093  26.964  1.00  0.00    +0.000 F 
ATOM     20  F3  UNL A   1      28.518  -6.924  27.593  1.00  0.00    +0.000 F 
ATOM     21  F4  UNL A   1      28.739  -9.046  27.117  1.00  0.00    +0.000 F 
ENDBRANCH   10   11
ENDBRANCH    9   10
ENDBRANCH    3    4
ENDBRANCH    2    3
ENDBRANCH   22    2
ENDBRANCH   23   22
ENDBRANCH   24   23
ENDBRANCH   25   24
ENDBRANCH   26   25
ENDBRANCH   27   26
ENDBRANCH   28   27
ENDBRANCH   29   28
ENDBRANCH   30   29
ENDBRANCH   32   30
ENDBRANCH   36   35
BRANCH   40   41
ATOM     41  C31 UNL A   1      22.229 -10.285  34.861  1.00  0.00    +0.000 C 
ATOM     42  C32 UNL A   1      20.908 -10.756  34.893  1.00  0.00    +0.000 C 
ATOM     43  F5  UNL A   1      20.626 -12.004  34.489  1.00  0.00    +0.000 F 
ATOM     44  C33 UNL A   1      19.861  -9.932  35.300  1.00  0.00    +0.000 C 
ATOM     45  F6  UNL A   1      18.601 -10.388  35.270  1.00  0.00    +0.000 F 
ATOM     46  C34 UNL A   1      20.118  -8.636  35.721  1.00  0.00    +0.000 C 
ATOM     47  F7  UNL A   1      19.110  -7.846  36.114  1.00  0.00    +0.000 F 
ATOM     48  C35 UNL A   1      21.419  -8.158  35.724  1.00  0.00    +0.000 C 
ATOM     49  F8  UNL A   1      21.671  -6.910  36.143  1.00  0.00    +0.000 F 
ATOM     50  C36 UNL A   1      22.464  -8.969  35.289  1.00  0.00    +0.000 C 
ATOM     51  F9  UNL A   1      23.709  -8.469  35.286  1.00  0.00    +0.000 F 
ENDBRANCH   40   41
BRANCH   57   58
ATOM     65  C46 UNL A   1      28.981 -14.109  39.700  1.00  0.00    +0.000 C 
ATOM     66  F13 UNL A   1      30.063 -13.537  40.248  1.00  0.00    +0.000 F 
ATOM     67  C47 UNL A   1      28.554 -13.716  38.435  1.00  0.00    +0.000 C 
ATOM     68  F14 UNL A   1      29.236 -12.756  37.794  1.00  0.00    +0.000 F 
ATOM     58  C42 UNL A   1      27.435 -14.313  37.834  1.00  0.00    +0.000 C 
ATOM     59  C43 UNL A   1      26.763 -15.317  38.546  1.00  0.00    +0.000 C 
ATOM     60  F10 UNL A   1      25.678 -15.905  38.023  1.00  0.00    +0.000 F 
ATOM     61  C44 UNL A   1      27.175 -15.684  39.826  1.00  0.00    +0.000 C 
ATOM     62  F11 UNL A   1      26.482 -16.604  40.511  1.00  0.00    +0.000 F 
ATOM     63  C45 UNL A   1      28.285 -15.085  40.399  1.00  0.00    +0.000 C 
ATOM     64  F12 UNL A   1      28.680 -15.440  41.629  1.00  0.00    +0.000 F 
ENDBRANCH   57   58
BRANCH   72   73
ATOM     73  C51 UNL A   1      29.955 -15.620  31.477  1.00  0.00    +0.000 C 
ATOM     74  C52 UNL A   1      31.189 -15.010  31.215  1.00  0.00    +0.000 C 
ATOM     75  F15 UNL A   1      31.331 -13.687  31.384  1.00  0.00    +0.000 F 
ATOM     76  C53 UNL A   1      32.271 -15.750  30.745  1.00  0.00    +0.000 C 
ATOM     77  F16 UNL A   1      33.429 -15.136  30.466  1.00  0.00    +0.000 F 
ATOM     78  C54 UNL A   1      32.148 -17.118  30.555  1.00  0.00    +0.000 C 
ATOM     79  F17 UNL A   1      33.193 -17.831  30.112  1.00  0.00    +0.000 F 
ATOM     80  C55 UNL A   1      30.941 -17.745  30.820  1.00  0.00    +0.000 C 
ATOM     81  F18 UNL A   1      30.823 -19.069  30.653  1.00  0.00    +0.000 F 
ATOM     82  C56 UNL A   1      29.850 -17.001  31.265  1.00  0.00    +0.000 C 
ATOM     83  F19 UNL A   1      28.691 -17.633  31.506  1.00  0.00    +0.000 F 
ENDBRANCH   72   73
TORSDOF 18
ENDMDL
