MODEL 1
REMARK VINA RESULT:     -10.9      0.000      0.000
ROOT
ATOM     32  C23 UNL A   1      23.047  36.013  47.015  1.00  0.00    +0.000 C 
ATOM     33  C24 UNL A   1      24.076  37.106  46.955  1.00  0.00    +0.000 C 
ATOM     34  N6  UNL A   1      23.980  38.356  47.334  1.00  0.00    +0.000 N 
ATOM     35  C25 UNL A   1      25.229  38.917  47.104  1.00  0.00    +0.000 C 
ATOM     36  C26 UNL A   1      25.624  40.200  47.279  1.00  0.00    +0.000 C 
ATOM     48  C33 UNL A   1      24.766  41.254  47.753  1.00  0.00    +0.000 C 
ATOM     49  C34 UNL A   1      25.053  42.600  47.901  1.00  0.00    +0.000 C 
ATOM     50  C35 UNL A   1      23.923  43.233  48.432  1.00  0.00    +0.000 C 
ATOM     51  C36 UNL A   1      22.917  42.288  48.573  1.00  0.00    +0.000 C 
ATOM     52  N7  UNL A   1      23.450  41.079  48.156  1.00  0.00    +0.000 N 
ATOM     53  C37 UNL A   1      21.572  42.475  49.051  1.00  0.00    +0.000 C 
ATOM     65  C44 UNL A   1      20.638  41.497  49.151  1.00  0.00    +0.000 C 
ATOM     66  N8  UNL A   1      20.748  40.151  48.828  1.00  0.00    +0.000 N 
ATOM     67  C45 UNL A   1      19.584  39.618  49.108  1.00  0.00    +0.000 C 
ATOM     68  C46 UNL A   1      19.126  38.197  48.933  1.00  0.00    +0.000 C 
ATOM     80  C53 UNL A   1      19.967  37.294  48.395  1.00  0.00    +0.000 C 
ATOM     81  C54 UNL A   1      19.661  35.887  48.156  1.00  0.00    +0.000 C 
ATOM     82  C55 UNL A   1      20.747  35.283  47.647  1.00  0.00    +0.000 C 
ATOM     83  C56 UNL A   1      21.815  36.269  47.495  1.00  0.00    +0.000 C 
ATOM     84  N9  UNL A   1      21.261  37.436  47.957  1.00  0.00    +0.000 N 
ATOM     85  C57 UNL A   1      18.610  40.564  49.669  1.00  0.00    +0.000 C 
ATOM     86  C58 UNL A   1      19.291  41.701  49.639  1.00  0.00    +0.000 C 
ATOM     87  C59 UNL A   1      26.080  37.861  46.600  1.00  0.00    +0.000 C 
ATOM     88  C60 UNL A   1      25.397  36.738  46.425  1.00  0.00    +0.000 C 
ATOM    117  H27 UNL A   1      25.945  43.059  47.661  1.00  0.00    +0.000 H 
ATOM    118  H28 UNL A   1      23.850  44.232  48.677  1.00  0.00    +0.000 H 
ATOM    119  H29 UNL A   1      22.966  40.222  48.147  1.00  0.00    +0.000 H 
ATOM    120  H30 UNL A   1      18.755  35.431  48.347  1.00  0.00    +0.000 H 
ATOM    121  H31 UNL A   1      20.816  34.282  47.404  1.00  0.00    +0.000 H 
ATOM    122  H32 UNL A   1      21.743  38.295  47.973  1.00  0.00    +0.000 H 
ATOM    123  H33 UNL A   1      17.647  40.389  49.999  1.00  0.00    +0.000 H 
ATOM    124  H34 UNL A   1      18.908  42.616  49.927  1.00  0.00    +0.000 H 
ATOM    125  H35 UNL A   1      27.087  37.967  46.402  1.00  0.00    +0.000 H 
ATOM    126  H36 UNL A   1      25.711  35.841  46.023  1.00  0.00    +0.000 H 
ENDROOT
BRANCH   32   31
ATOM    115  H25 UNL A   1      23.410  32.556  43.966  1.00  0.00    +0.000 H 
ATOM    116  H26 UNL A   1      22.931  34.860  44.564  1.00  0.00    +0.000 H 
ATOM     89  C61 UNL A   1      23.901  33.737  47.575  1.00  0.00    +0.000 C 
ATOM     90  C62 UNL A   1      24.249  32.438  47.214  1.00  0.00    +0.000 C 
ATOM    127  H37 UNL A   1      24.010  34.044  48.554  1.00  0.00    +0.000 H 
ATOM     28  C19 UNL A   1      24.014  31.991  45.911  1.00  0.00    +0.000 C 
ATOM     29  C20 UNL A   1      23.544  32.876  44.939  1.00  0.00    +0.000 C 
ATOM     30  C21 UNL A   1      23.255  34.198  45.286  1.00  0.00    +0.000 C 
ATOM     31  C22 UNL A   1      23.405  34.630  46.613  1.00  0.00    +0.000 C 
ATOM    128  H38 UNL A   1      24.680  31.807  47.909  1.00  0.00    +0.000 H 
BRANCH   28   26
ATOM     26  C18 UNL A   1      24.268  30.584  45.531  1.00  0.00    +0.000 C 
ATOM     27  O3  UNL A   1      25.397  30.115  45.655  1.00  0.00    +0.000 O 
BRANCH   26   25
ATOM     25  N5  UNL A   1      23.252  29.817  45.023  1.00  0.00    +0.000 N 
ATOM    114  H24 UNL A   1      23.408  29.452  44.122  1.00  0.00    +0.000 H 
BRANCH   25   24
ATOM    113  H23 UNL A   1      22.040  29.686  46.672  1.00  0.00    +0.000 H 
ATOM    112  H22 UNL A   1      21.790  28.427  45.455  1.00  0.00    +0.000 H 
ATOM     24  C17 UNL A   1      21.977  29.466  45.627  1.00  0.00    +0.000 C 
BRANCH   24   23
ATOM    111  H21 UNL A   1      19.955  29.648  45.111  1.00  0.00    +0.000 H 
ATOM    110  H20 UNL A   1      21.074  30.547  44.045  1.00  0.00    +0.000 H 
ATOM     23  C16 UNL A   1      20.821  30.274  45.049  1.00  0.00    +0.000 C 
BRANCH   23   22
ATOM    108  H18 UNL A   1      20.514  31.330  46.863  1.00  0.00    +0.000 H 
ATOM    109  H19 UNL A   1      21.202  32.283  45.513  1.00  0.00    +0.000 H 
ATOM     22  C15 UNL A   1      20.481  31.554  45.818  1.00  0.00    +0.000 C 
BRANCH   22   21
ATOM    106  H16 UNL A   1      18.558  31.451  44.924  1.00  0.00    +0.000 H 
ATOM    107  H17 UNL A   1      18.657  32.376  46.453  1.00  0.00    +0.000 H 
ATOM     21  C14 UNL A   1      19.108  32.160  45.507  1.00  0.00    +0.000 C 
BRANCH   21   20
ATOM    105  H15 UNL A   1      19.755  33.329  43.876  1.00  0.00    +0.000 H 
ATOM     20  C13 UNL A   1      19.138  33.485  44.737  1.00  0.00    +0.000 C 
ATOM    104  H14 UNL A   1      19.522  34.243  45.387  1.00  0.00    +0.000 H 
BRANCH   20   19
ATOM     19  C12 UNL A   1      17.774  33.940  44.224  1.00  0.00    +0.000 C 
ATOM    102  H12 UNL A   1      17.492  34.840  44.729  1.00  0.00    +0.000 H 
ATOM    103  H13 UNL A   1      17.844  34.112  43.170  1.00  0.00    +0.000 H 
BRANCH   19   18
ATOM     18  N4  UNL A   1      16.768  32.922  44.464  1.00  0.00    +0.000 N 
ATOM    101  H11 UNL A   1      16.840  32.473  45.336  1.00  0.00    +0.000 H 
BRANCH   18   16
ATOM     17  O2  UNL A   1      14.632  32.997  43.882  1.00  0.00    +0.000 O 
ATOM     16  C11 UNL A   1      15.740  32.487  43.684  1.00  0.00    +0.000 C 
BRANCH   16    2
ATOM      2  C2  UNL A   1      15.924  31.419  42.601  1.00  0.00    +0.000 C 
ATOM     94  H4  UNL A   1      14.978  31.026  42.291  1.00  0.00    +0.000 H 
BRANCH    2    1
ATOM      1  C1  UNL A   1      16.457  31.991  41.292  1.00  0.00    +0.000 C 
ATOM     91  H1  UNL A   1      17.319  32.594  41.492  1.00  0.00    +0.000 H 
ATOM     92  H2  UNL A   1      15.701  32.592  40.830  1.00  0.00    +0.000 H 
ATOM     93  H3  UNL A   1      16.726  31.190  40.636  1.00  0.00    +0.000 H 
ENDBRANCH    2    1
BRANCH    2    3
ATOM      3  S1  UNL A   1      16.863  30.025  43.324  1.00  0.00    +0.000 S 
BRANCH    3    4
ATOM     97  H7  UNL A   1      13.792  24.201  39.356  1.00  0.00    +0.000 H 
ATOM     98  H8  UNL A   1      13.843  24.468  41.772  1.00  0.00    +0.000 H 
ATOM      4  C3  UNL A   1      15.984  28.646  42.713  1.00  0.00    +0.000 C 
ATOM      5  N1  UNL A   1      15.910  28.527  41.428  1.00  0.00    +0.000 N 
ATOM      6  C4  UNL A   1      15.309  27.373  40.906  1.00  0.00    +0.000 C 
ATOM      7  C5  UNL A   1      15.268  27.209  39.519  1.00  0.00    +0.000 C 
ATOM      8  C6  UNL A   1      14.717  26.054  38.954  1.00  0.00    +0.000 C 
ATOM      9  C7  UNL A   1      14.199  25.053  39.773  1.00  0.00    +0.000 C 
ATOM     10  C8  UNL A   1      14.229  25.204  41.159  1.00  0.00    +0.000 C 
ATOM     11  C9  UNL A   1      14.787  26.363  41.714  1.00  0.00    +0.000 C 
ATOM     12  C10 UNL A   1      14.867  26.537  43.175  1.00  0.00    +0.000 C 
ATOM     13  O1  UNL A   1      14.436  25.673  43.938  1.00  0.00    +0.000 O 
ATOM     14  N2  UNL A   1      15.481  27.712  43.612  1.00  0.00    +0.000 N 
ATOM     95  H5  UNL A   1      15.647  27.947  38.905  1.00  0.00    +0.000 H 
ATOM     96  H6  UNL A   1      14.696  25.943  37.928  1.00  0.00    +0.000 H 
BRANCH   14   15
ATOM     99  H9  UNL A   1      15.520  28.797  45.416  1.00  0.00    +0.000 H 
ATOM    100  H10 UNL A   1      15.708  27.115  45.619  1.00  0.00    +0.000 H 
ATOM     15  N3  UNL A   1      15.580  27.893  45.030  1.00  0.00    +0.000 N 
ENDBRANCH   14   15
ENDBRANCH    3    4
ENDBRANCH    2    3
ENDBRANCH   16    2
ENDBRANCH   18   16
ENDBRANCH   19   18
ENDBRANCH   20   19
ENDBRANCH   21   20
ENDBRANCH   22   21
ENDBRANCH   23   22
ENDBRANCH   24   23
ENDBRANCH   25   24
ENDBRANCH   26   25
ENDBRANCH   28   26
ENDBRANCH   32   31
BRANCH   36   37
ATOM     37  C27 UNL A   1      27.051  40.535  46.953  1.00  0.00    +0.000 C 
ATOM     38  C28 UNL A   1      28.049  40.533  47.938  1.00  0.00    +0.000 C 
ATOM     39  F1  UNL A   1      27.738  40.261  49.215  1.00  0.00    +0.000 F 
ATOM     40  C29 UNL A   1      29.367  40.853  47.625  1.00  0.00    +0.000 C 
ATOM     41  F2  UNL A   1      30.294  40.896  48.592  1.00  0.00    +0.000 F 
ATOM     42  C30 UNL A   1      29.719  41.146  46.316  1.00  0.00    +0.000 C 
ATOM     43  F3  UNL A   1      30.988  41.451  46.013  1.00  0.00    +0.000 F 
ATOM     44  C31 UNL A   1      28.753  41.130  45.320  1.00  0.00    +0.000 C 
ATOM     45  F4  UNL A   1      29.094  41.400  44.053  1.00  0.00    +0.000 F 
ATOM     46  C32 UNL A   1      27.429  40.839  45.637  1.00  0.00    +0.000 C 
ATOM     47  F5  UNL A   1      26.514  40.849  44.655  1.00  0.00    +0.000 F 
ENDBRANCH   36   37
BRANCH   53   54
ATOM     54  C38 UNL A   1      21.159  43.861  49.450  1.00  0.00    +0.000 C 
ATOM     55  C39 UNL A   1      20.658  44.776  48.514  1.00  0.00    +0.000 C 
ATOM     56  F6  UNL A   1      20.587  44.444  47.215  1.00  0.00    +0.000 F 
ATOM     57  C40 UNL A   1      20.260  46.052  48.904  1.00  0.00    +0.000 C 
ATOM     58  F7  UNL A   1      19.824  46.925  47.986  1.00  0.00    +0.000 F 
ATOM     59  C41 UNL A   1      20.327  46.425  50.238  1.00  0.00    +0.000 C 
ATOM     60  F8  UNL A   1      19.937  47.652  50.613  1.00  0.00    +0.000 F 
ATOM     61  C42 UNL A   1      20.804  45.530  51.183  1.00  0.00    +0.000 C 
ATOM     62  F9  UNL A   1      20.859  45.884  52.474  1.00  0.00    +0.000 F 
ATOM     63  C43 UNL A   1      21.228  44.263  50.792  1.00  0.00    +0.000 C 
ATOM     64  F10 UNL A   1      21.695  43.422  51.727  1.00  0.00    +0.000 F 
ENDBRANCH   53   54
BRANCH   68   69
ATOM     69  C47 UNL A   1      17.751  37.785  49.315  1.00  0.00    +0.000 C 
ATOM     70  C48 UNL A   1      16.810  37.437  48.337  1.00  0.00    +0.000 C 
ATOM     71  F11 UNL A   1      17.139  37.503  47.038  1.00  0.00    +0.000 F 
ATOM     72  C49 UNL A   1      15.519  37.050  48.686  1.00  0.00    +0.000 C 
ATOM     73  F12 UNL A   1      14.626  36.757  47.729  1.00  0.00    +0.000 F 
ATOM     74  C50 UNL A   1      15.150  36.981  50.022  1.00  0.00    +0.000 C 
ATOM     75  F13 UNL A   1      13.909  36.603  50.358  1.00  0.00    +0.000 F 
ATOM     76  C51 UNL A   1      16.069  37.309  51.008  1.00  0.00    +0.000 C 
ATOM     77  F14 UNL A   1      15.721  37.232  52.299  1.00  0.00    +0.000 F 
ATOM     78  C52 UNL A   1      17.353  37.719  50.658  1.00  0.00    +0.000 C 
ATOM     79  F15 UNL A   1      18.219  38.039  51.631  1.00  0.00    +0.000 F 
ENDBRANCH   68   69
TORSDOF 19
ENDMDL
MODEL 2
REMARK VINA RESULT:     -10.9     46.141     51.100
ROOT
ATOM     32  C23 UNL A   1      53.574  19.602  11.693  1.00  0.00    +0.000 C 
ATOM     33  C24 UNL A   1      54.935  18.978  11.575  1.00  0.00    +0.000 C 
ATOM     34  N6  UNL A   1      55.912  18.949  12.447  1.00  0.00    +0.000 N 
ATOM     35  C25 UNL A   1      56.924  18.205  11.855  1.00  0.00    +0.000 C 
ATOM     36  C26 UNL A   1      58.163  17.936  12.330  1.00  0.00    +0.000 C 
ATOM     48  C33 UNL A   1      58.665  18.406  13.595  1.00  0.00    +0.000 C 
ATOM     49  C34 UNL A   1      59.928  18.243  14.136  1.00  0.00    +0.000 C 
ATOM     50  C35 UNL A   1      59.942  18.838  15.403  1.00  0.00    +0.000 C 
ATOM     51  C36 UNL A   1      58.699  19.410  15.632  1.00  0.00    +0.000 C 
ATOM     52  N7  UNL A   1      57.926  19.134  14.516  1.00  0.00    +0.000 N 
ATOM     53  C37 UNL A   1      58.251  20.152  16.782  1.00  0.00    +0.000 C 
ATOM     65  C44 UNL A   1      57.016  20.691  16.928  1.00  0.00    +0.000 C 
ATOM     66  N8  UNL A   1      55.943  20.663  16.047  1.00  0.00    +0.000 N 
ATOM     67  C45 UNL A   1      54.973  21.313  16.641  1.00  0.00    +0.000 C 
ATOM     68  C46 UNL A   1      53.588  21.615  16.140  1.00  0.00    +0.000 C 
ATOM     80  C53 UNL A   1      53.232  21.216  14.904  1.00  0.00    +0.000 C 
ATOM     81  C54 UNL A   1      51.933  21.445  14.280  1.00  0.00    +0.000 C 
ATOM     82  C55 UNL A   1      51.923  20.873  13.066  1.00  0.00    +0.000 C 
ATOM     83  C56 UNL A   1      53.229  20.265  12.813  1.00  0.00    +0.000 C 
ATOM     84  N9  UNL A   1      53.944  20.524  13.955  1.00  0.00    +0.000 N 
ATOM     85  C57 UNL A   1      55.313  21.805  17.983  1.00  0.00    +0.000 C 
ATOM     86  C58 UNL A   1      56.580  21.431  18.093  1.00  0.00    +0.000 C 
ATOM     87  C59 UNL A   1      56.426  17.759  10.571  1.00  0.00    +0.000 C 
ATOM     88  C60 UNL A   1      55.227  18.266  10.322  1.00  0.00    +0.000 C 
ATOM    117  H27 UNL A   1      60.724  17.766  13.684  1.00  0.00    +0.000 H 
ATOM    118  H28 UNL A   1      60.740  18.849  16.057  1.00  0.00    +0.000 H 
ATOM    119  H29 UNL A   1      56.989  19.412  14.394  1.00  0.00    +0.000 H 
ATOM    120  H30 UNL A   1      51.148  21.963  14.706  1.00  0.00    +0.000 H 
ATOM    121  H31 UNL A   1      51.122  20.863  12.416  1.00  0.00    +0.000 H 
ATOM    122  H32 UNL A   1      54.879  20.241  14.083  1.00  0.00    +0.000 H 
ATOM    123  H33 UNL A   1      54.721  22.310  18.662  1.00  0.00    +0.000 H 
ATOM    124  H34 UNL A   1      57.180  21.641  18.907  1.00  0.00    +0.000 H 
ATOM    125  H35 UNL A   1      56.937  17.129   9.934  1.00  0.00    +0.000 H 
ATOM    126  H36 UNL A   1      54.649  18.183   9.470  1.00  0.00    +0.000 H 
ENDROOT
BRANCH   32   31
ATOM    115  H25 UNL A   1      51.230  21.027   7.970  1.00  0.00    +0.000 H 
ATOM    116  H26 UNL A   1      52.952  21.288   9.662  1.00  0.00    +0.000 H 
ATOM     89  C61 UNL A   1      51.828  18.248  10.535  1.00  0.00    +0.000 C 
ATOM     90  C62 UNL A   1      50.894  18.067   9.518  1.00  0.00    +0.000 C 
ATOM    127  H37 UNL A   1      51.967  17.507  11.241  1.00  0.00    +0.000 H 
ATOM     28  C19 UNL A   1      50.636  19.105   8.618  1.00  0.00    +0.000 C 
ATOM     29  C20 UNL A   1      51.394  20.277   8.662  1.00  0.00    +0.000 C 
ATOM     30  C21 UNL A   1      52.374  20.433   9.644  1.00  0.00    +0.000 C 
ATOM     31  C22 UNL A   1      52.579  19.431  10.606  1.00  0.00    +0.000 C 
ATOM    128  H38 UNL A   1      50.396  17.167   9.429  1.00  0.00    +0.000 H 
BRANCH   28   26
ATOM     26  C18 UNL A   1      49.571  18.982   7.599  1.00  0.00    +0.000 C 
ATOM     27  O3  UNL A   1      48.910  19.968   7.287  1.00  0.00    +0.000 O 
BRANCH   26   25
ATOM     25  N5  UNL A   1      49.314  17.765   7.022  1.00  0.00    +0.000 N 
ATOM    114  H24 UNL A   1      49.621  16.981   7.533  1.00  0.00    +0.000 H 
BRANCH   25   24
ATOM    113  H23 UNL A   1      49.176  16.661   5.299  1.00  0.00    +0.000 H 
ATOM    112  H22 UNL A   1      48.661  18.347   5.154  1.00  0.00    +0.000 H 
ATOM     24  C17 UNL A   1      48.650  17.468   5.763  1.00  0.00    +0.000 C 
BRANCH   24   23
ATOM    111  H21 UNL A   1      46.962  17.237   6.983  1.00  0.00    +0.000 H 
ATOM    110  H20 UNL A   1      47.134  15.989   5.715  1.00  0.00    +0.000 H 
ATOM     23  C16 UNL A   1      47.203  17.028   5.962  1.00  0.00    +0.000 C 
BRANCH   23   22
ATOM    108  H18 UNL A   1      46.053  17.258   4.194  1.00  0.00    +0.000 H 
ATOM    109  H19 UNL A   1      45.285  17.835   5.704  1.00  0.00    +0.000 H 
ATOM     22  C15 UNL A   1      46.177  17.787   5.115  1.00  0.00    +0.000 C 
BRANCH   22   21
ATOM    106  H16 UNL A   1      46.756  19.743   5.701  1.00  0.00    +0.000 H 
ATOM    107  H17 UNL A   1      47.385  19.185   4.122  1.00  0.00    +0.000 H 
ATOM     21  C14 UNL A   1      46.546  19.236   4.783  1.00  0.00    +0.000 C 
BRANCH   21   20
ATOM    105  H15 UNL A   1      45.974  20.678   3.355  1.00  0.00    +0.000 H 
ATOM     20  C13 UNL A   1      45.466  20.031   4.039  1.00  0.00    +0.000 C 
ATOM    104  H14 UNL A   1      44.885  20.566   4.761  1.00  0.00    +0.000 H 
BRANCH   20   19
ATOM     19  C12 UNL A   1      44.520  19.168   3.208  1.00  0.00    +0.000 C 
ATOM    102  H12 UNL A   1      45.007  18.891   2.296  1.00  0.00    +0.000 H 
ATOM    103  H13 UNL A   1      44.265  18.296   3.773  1.00  0.00    +0.000 H 
BRANCH   19   18
ATOM     18  N4  UNL A   1      43.302  19.892   2.896  1.00  0.00    +0.000 N 
ATOM    101  H11 UNL A   1      42.598  19.824   3.581  1.00  0.00    +0.000 H 
BRANCH   18   16
ATOM     17  O2  UNL A   1      43.681  21.636   1.584  1.00  0.00    +0.000 O 
ATOM     16  C11 UNL A   1      42.970  20.653   1.816  1.00  0.00    +0.000 C 
BRANCH   16    2
ATOM      2  C2  UNL A   1      41.778  20.322   0.912  1.00  0.00    +0.000 C 
ATOM     94  H4  UNL A   1      41.312  21.217   0.556  1.00  0.00    +0.000 H 
BRANCH    2    1
ATOM      1  C1  UNL A   1      42.194  19.656  -0.395  1.00  0.00    +0.000 C 
ATOM     91  H1  UNL A   1      41.860  18.639  -0.398  1.00  0.00    +0.000 H 
ATOM     92  H2  UNL A   1      43.261  19.681  -0.485  1.00  0.00    +0.000 H 
ATOM     93  H3  UNL A   1      41.754  20.179  -1.217  1.00  0.00    +0.000 H 
ENDBRANCH    2    1
BRANCH    2    3
ATOM      3  S1  UNL A   1      40.527  19.440   1.914  1.00  0.00    +0.000 S 
BRANCH    3    4
ATOM     97  H7  UNL A   1      34.737  23.502  -1.099  1.00  0.00    +0.000 H 
ATOM     98  H8  UNL A   1      34.680  22.124   0.904  1.00  0.00    +0.000 H 
ATOM      4  C3  UNL A   1      39.076  20.339   1.548  1.00  0.00    +0.000 C 
ATOM      5  N1  UNL A   1      39.117  21.113   0.513  1.00  0.00    +0.000 N 
ATOM      6  C4  UNL A   1      37.936  21.762   0.127  1.00  0.00    +0.000 C 
ATOM      7  C5  UNL A   1      37.955  22.561  -1.019  1.00  0.00    +0.000 C 
ATOM      8  C6  UNL A   1      36.791  23.193  -1.467  1.00  0.00    +0.000 C 
ATOM      9  C7  UNL A   1      35.595  23.034  -0.768  1.00  0.00    +0.000 C 
ATOM     10  C8  UNL A   1      35.561  22.243   0.380  1.00  0.00    +0.000 C 
ATOM     11  C9  UNL A   1      36.732  21.611   0.817  1.00  0.00    +0.000 C 
ATOM     12  C10 UNL A   1      36.722  20.740   2.005  1.00  0.00    +0.000 C 
ATOM     13  O1  UNL A   1      35.687  20.558   2.645  1.00  0.00    +0.000 O 
ATOM     14  N2  UNL A   1      37.937  20.131   2.319  1.00  0.00    +0.000 N 
ATOM     95  H5  UNL A   1      38.837  22.686  -1.541  1.00  0.00    +0.000 H 
ATOM     96  H6  UNL A   1      36.817  23.777  -2.317  1.00  0.00    +0.000 H 
BRANCH   14   15
ATOM     99  H9  UNL A   1      37.172  19.256   4.075  1.00  0.00    +0.000 H 
ATOM    100  H10 UNL A   1      38.720  18.689   3.640  1.00  0.00    +0.000 H 
ATOM     15  N3  UNL A   1      37.944  19.269   3.464  1.00  0.00    +0.000 N 
ENDBRANCH   14   15
ENDBRANCH    3    4
ENDBRANCH    2    3
ENDBRANCH   16    2
ENDBRANCH   18   16
ENDBRANCH   19   18
ENDBRANCH   20   19
ENDBRANCH   21   20
ENDBRANCH   22   21
ENDBRANCH   23   22
ENDBRANCH   24   23
ENDBRANCH   25   24
ENDBRANCH   26   25
ENDBRANCH   28   26
ENDBRANCH   32   31
BRANCH   36   37
ATOM     37  C27 UNL A   1      59.064  17.092  11.475  1.00  0.00    +0.000 C 
ATOM     38  C28 UNL A   1      59.079  15.694  11.581  1.00  0.00    +0.000 C 
ATOM     39  F1  UNL A   1      58.303  15.076  12.485  1.00  0.00    +0.000 F 
ATOM     40  C29 UNL A   1      59.925  14.924  10.788  1.00  0.00    +0.000 C 
ATOM     41  F2  UNL A   1      59.960  13.593  10.943  1.00  0.00    +0.000 F 
ATOM     42  C30 UNL A   1      60.743  15.533   9.849  1.00  0.00    +0.000 C 
ATOM     43  F3  UNL A   1      61.555  14.791   9.083  1.00  0.00    +0.000 F 
ATOM     44  C31 UNL A   1      60.727  16.913   9.709  1.00  0.00    +0.000 C 
ATOM     45  F4  UNL A   1      61.509  17.502   8.794  1.00  0.00    +0.000 F 
ATOM     46  C32 UNL A   1      59.904  17.687  10.522  1.00  0.00    +0.000 C 
ATOM     47  F5  UNL A   1      59.923  19.021  10.376  1.00  0.00    +0.000 F 
ENDBRANCH   36   37
BRANCH   53   54
ATOM     54  C38 UNL A   1      59.230  20.367  17.898  1.00  0.00    +0.000 C 
ATOM     55  C39 UNL A   1      59.887  21.594  18.072  1.00  0.00    +0.000 C 
ATOM     56  F6  UNL A   1      59.691  22.595  17.201  1.00  0.00    +0.000 F 
ATOM     57  C40 UNL A   1      60.777  21.784  19.125  1.00  0.00    +0.000 C 
ATOM     58  F7  UNL A   1      61.426  22.950  19.249  1.00  0.00    +0.000 F 
ATOM     59  C41 UNL A   1      61.004  20.765  20.039  1.00  0.00    +0.000 C 
ATOM     60  F8  UNL A   1      61.857  20.953  21.056  1.00  0.00    +0.000 F 
ATOM     61  C42 UNL A   1      60.353  19.550  19.895  1.00  0.00    +0.000 C 
ATOM     62  F9  UNL A   1      60.562  18.568  20.782  1.00  0.00    +0.000 F 
ATOM     63  C43 UNL A   1      59.482  19.348  18.827  1.00  0.00    +0.000 C 
ATOM     64  F10 UNL A   1      58.874  18.157  18.707  1.00  0.00    +0.000 F 
ENDBRANCH   53   54
BRANCH   68   69
ATOM     69  C47 UNL A   1      52.622  22.375  16.974  1.00  0.00    +0.000 C 
ATOM     70  C48 UNL A   1      52.451  23.754  16.795  1.00  0.00    +0.000 C 
ATOM     71  F11 UNL A   1      53.187  24.407  15.883  1.00  0.00    +0.000 F 
ATOM     72  C49 UNL A   1      51.548  24.474  17.573  1.00  0.00    +0.000 C 
ATOM     73  F12 UNL A   1      51.430  25.799  17.407  1.00  0.00    +0.000 F 
ATOM     74  C50 UNL A   1      50.781  23.824  18.529  1.00  0.00    +0.000 C 
ATOM     75  F13 UNL A   1      49.908  24.516  19.274  1.00  0.00    +0.000 F 
ATOM     76  C51 UNL A   1      50.925  22.457  18.715  1.00  0.00    +0.000 C 
ATOM     77  F14 UNL A   1      50.176  21.824  19.628  1.00  0.00    +0.000 F 
ATOM     78  C52 UNL A   1      51.845  21.741  17.953  1.00  0.00    +0.000 C 
ATOM     79  F15 UNL A   1      51.969  20.422  18.159  1.00  0.00    +0.000 F 
ENDBRANCH   68   69
TORSDOF 19
ENDMDL
MODEL 3
REMARK VINA RESULT:     -10.8     46.140     51.104
ROOT
ATOM     32  C23 UNL A   1      52.869  20.649  11.408  1.00  0.00    +0.000 C 
ATOM     33  C24 UNL A   1      54.156  19.919  11.142  1.00  0.00    +0.000 C 
ATOM     34  N6  UNL A   1      55.171  19.712  11.942  1.00  0.00    +0.000 N 
ATOM     35  C25 UNL A   1      56.072  18.944  11.217  1.00  0.00    +0.000 C 
ATOM     36  C26 UNL A   1      57.304  18.517  11.583  1.00  0.00    +0.000 C 
ATOM     48  C33 UNL A   1      57.918  18.805  12.852  1.00  0.00    +0.000 C 
ATOM     49  C34 UNL A   1      59.187  18.473  13.293  1.00  0.00    +0.000 C 
ATOM     50  C35 UNL A   1      59.327  18.929  14.609  1.00  0.00    +0.000 C 
ATOM     51  C36 UNL A   1      58.160  19.585  14.972  1.00  0.00    +0.000 C 
ATOM     52  N7  UNL A   1      57.304  19.497  13.886  1.00  0.00    +0.000 N 
ATOM     53  C37 UNL A   1      57.849  20.241  16.215  1.00  0.00    +0.000 C 
ATOM     65  C44 UNL A   1      56.682  20.872  16.492  1.00  0.00    +0.000 C 
ATOM     66  N8  UNL A   1      55.565  21.033  15.684  1.00  0.00    +0.000 N 
ATOM     67  C45 UNL A   1      54.696  21.703  16.400  1.00  0.00    +0.000 C 
ATOM     68  C46 UNL A   1      53.321  22.180  16.021  1.00  0.00    +0.000 C 
ATOM     80  C53 UNL A   1      52.862  21.945  14.778  1.00  0.00    +0.000 C 
ATOM     81  C54 UNL A   1      51.558  22.354  14.264  1.00  0.00    +0.000 C 
ATOM     82  C55 UNL A   1      51.427  21.914  13.002  1.00  0.00    +0.000 C 
ATOM     83  C56 UNL A   1      52.652  21.220  12.608  1.00  0.00    +0.000 C 
ATOM     84  N9  UNL A   1      53.450  21.293  13.721  1.00  0.00    +0.000 N 
ATOM     85  C57 UNL A   1      55.155  22.020  17.760  1.00  0.00    +0.000 C 
ATOM     86  C58 UNL A   1      56.384  21.524  17.750  1.00  0.00    +0.000 C 
ATOM     87  C59 UNL A   1      55.464  18.681   9.930  1.00  0.00    +0.000 C 
ATOM     88  C60 UNL A   1      54.308  19.318   9.809  1.00  0.00    +0.000 C 
ATOM    117  H27 UNL A   1      59.906  17.976  12.746  1.00  0.00    +0.000 H 
ATOM    118  H28 UNL A   1      60.157  18.800  15.208  1.00  0.00    +0.000 H 
ATOM    119  H29 UNL A   1      56.393  19.871  13.853  1.00  0.00    +0.000 H 
ATOM    120  H30 UNL A   1      50.852  22.894  14.787  1.00  0.00    +0.000 H 
ATOM    121  H31 UNL A   1      50.594  22.045  12.407  1.00  0.00    +0.000 H 
ATOM    122  H32 UNL A   1      54.359  20.916  13.760  1.00  0.00    +0.000 H 
ATOM    123  H33 UNL A   1      54.653  22.503  18.521  1.00  0.00    +0.000 H 
ATOM    124  H34 UNL A   1      57.045  21.593  18.541  1.00  0.00    +0.000 H 
ATOM    125  H35 UNL A   1      55.876  18.077   9.202  1.00  0.00    +0.000 H 
ATOM    126  H36 UNL A   1      53.679  19.376   8.992  1.00  0.00    +0.000 H 
ENDROOT
BRANCH   32   31
ATOM    115  H25 UNL A   1      50.490  22.649   7.985  1.00  0.00    +0.000 H 
ATOM    116  H26 UNL A   1      52.318  22.575   9.580  1.00  0.00    +0.000 H 
ATOM     89  C61 UNL A   1      50.931  19.592  10.247  1.00  0.00    +0.000 C 
ATOM     90  C62 UNL A   1      49.929  19.603   9.279  1.00  0.00    +0.000 C 
ATOM    127  H37 UNL A   1      51.030  18.777  10.874  1.00  0.00    +0.000 H 
ATOM     28  C19 UNL A   1      49.733  20.743   8.495  1.00  0.00    +0.000 C 
ATOM     29  C20 UNL A   1      50.611  21.824   8.595  1.00  0.00    +0.000 C 
ATOM     30  C21 UNL A   1      51.654  21.787   9.522  1.00  0.00    +0.000 C 
ATOM     31  C22 UNL A   1      51.804  20.682  10.376  1.00  0.00    +0.000 C 
ATOM    128  H38 UNL A   1      49.335  18.770   9.142  1.00  0.00    +0.000 H 
BRANCH   28   26
ATOM     26  C18 UNL A   1      48.608  20.824   7.538  1.00  0.00    +0.000 C 
ATOM     27  O3  UNL A   1      48.188  21.922   7.185  1.00  0.00    +0.000 O 
BRANCH   26   25
ATOM     25  N5  UNL A   1      48.026  19.676   7.066  1.00  0.00    +0.000 N 
ATOM    114  H24 UNL A   1      47.210  19.391   7.539  1.00  0.00    +0.000 H 
BRANCH   25   24
ATOM    113  H23 UNL A   1      49.423  19.126   5.670  1.00  0.00    +0.000 H 
ATOM    112  H22 UNL A   1      47.740  18.923   5.167  1.00  0.00    +0.000 H 
ATOM     24  C17 UNL A   1      48.442  18.821   5.967  1.00  0.00    +0.000 C 
BRANCH   24   23
ATOM    111  H21 UNL A   1      48.240  17.310   7.405  1.00  0.00    +0.000 H 
ATOM    110  H20 UNL A   1      49.508  17.002   6.183  1.00  0.00    +0.000 H 
ATOM     23  C16 UNL A   1      48.514  17.352   6.371  1.00  0.00    +0.000 C 
BRANCH   23   22
ATOM    108  H18 UNL A   1      47.642  16.614   4.583  1.00  0.00    +0.000 H 
ATOM    109  H19 UNL A   1      47.796  15.434   5.921  1.00  0.00    +0.000 H 
ATOM     22  C15 UNL A   1      47.538  16.431   5.632  1.00  0.00    +0.000 C 
BRANCH   22   21
ATOM    106  H16 UNL A   1      45.776  15.799   6.633  1.00  0.00    +0.000 H 
ATOM    107  H17 UNL A   1      45.989  17.569   6.474  1.00  0.00    +0.000 H 
ATOM     21  C14 UNL A   1      46.062  16.612   6.000  1.00  0.00    +0.000 C 
BRANCH   21   20
ATOM    105  H15 UNL A   1      44.231  17.199   5.133  1.00  0.00    +0.000 H 
ATOM     20  C13 UNL A   1      45.093  16.652   4.812  1.00  0.00    +0.000 C 
ATOM    104  H14 UNL A   1      44.863  15.645   4.532  1.00  0.00    +0.000 H 
BRANCH   20   19
ATOM     19  C12 UNL A   1      45.641  17.376   3.585  1.00  0.00    +0.000 C 
ATOM    102  H12 UNL A   1      46.565  17.852   3.841  1.00  0.00    +0.000 H 
ATOM    103  H13 UNL A   1      45.797  16.659   2.805  1.00  0.00    +0.000 H 
BRANCH   19   18
ATOM     18  N4  UNL A   1      44.703  18.378   3.115  1.00  0.00    +0.000 N 
ATOM    101  H11 UNL A   1      43.939  18.018   2.609  1.00  0.00    +0.000 H 
BRANCH   18   16
ATOM     17  O2  UNL A   1      45.512  20.212   4.059  1.00  0.00    +0.000 O 
ATOM     16  C11 UNL A   1      44.701  19.732   3.259  1.00  0.00    +0.000 C 
BRANCH   16    2
ATOM      2  C2  UNL A   1      43.750  20.642   2.474  1.00  0.00    +0.000 C 
ATOM     94  H4  UNL A   1      42.935  20.959   3.089  1.00  0.00    +0.000 H 
BRANCH    2    1
ATOM      1  C1  UNL A   1      44.385  21.976   2.099  1.00  0.00    +0.000 C 
ATOM     91  H1  UNL A   1      44.661  21.961   1.065  1.00  0.00    +0.000 H 
ATOM     92  H2  UNL A   1      45.257  22.138   2.699  1.00  0.00    +0.000 H 
ATOM     93  H3  UNL A   1      43.683  22.765   2.270  1.00  0.00    +0.000 H 
ENDBRANCH    2    1
BRANCH    2    3
ATOM      3  S1  UNL A   1      43.028  19.669   1.104  1.00  0.00    +0.000 S 
BRANCH    3    4
ATOM     97  H7  UNL A   1      35.965  22.384  -0.250  1.00  0.00    +0.000 H 
ATOM     98  H8  UNL A   1      36.637  20.848   1.511  1.00  0.00    +0.000 H 
ATOM      4  C3  UNL A   1      41.365  20.196   1.126  1.00  0.00    +0.000 C 
ATOM      5  N1  UNL A   1      41.014  21.053   0.224  1.00  0.00    +0.000 N 
ATOM      6  C4  UNL A   1      39.662  21.412   0.144  1.00  0.00    +0.000 C 
ATOM      7  C5  UNL A   1      39.262  22.299  -0.860  1.00  0.00    +0.000 C 
ATOM      8  C6  UNL A   1      37.917  22.652  -1.005  1.00  0.00    +0.000 C 
ATOM      9  C7  UNL A   1      36.958  22.123  -0.143  1.00  0.00    +0.000 C 
ATOM     10  C8  UNL A   1      37.342  21.240   0.867  1.00  0.00    +0.000 C 
ATOM     11  C9  UNL A   1      38.691  20.890   1.000  1.00  0.00    +0.000 C 
ATOM     12  C10 UNL A   1      39.124  19.932   2.032  1.00  0.00    +0.000 C 
ATOM     13  O1  UNL A   1      38.311  19.428   2.806  1.00  0.00    +0.000 O 
ATOM     14  N2  UNL A   1      40.486  19.628   2.042  1.00  0.00    +0.000 N 
ATOM     95  H5  UNL A   1      39.967  22.697  -1.500  1.00  0.00    +0.000 H 
ATOM     96  H6  UNL A   1      37.633  23.304  -1.752  1.00  0.00    +0.000 H 
BRANCH   14   15
ATOM     99  H9  UNL A   1      40.617  18.774   3.963  1.00  0.00    +0.000 H 
ATOM    100  H10 UNL A   1      41.533  17.956   2.780  1.00  0.00    +0.000 H 
ATOM     15  N3  UNL A   1      40.925  18.688   3.031  1.00  0.00    +0.000 N 
ENDBRANCH   14   15
ENDBRANCH    3    4
ENDBRANCH    2    3
ENDBRANCH   16    2
ENDBRANCH   18   16
ENDBRANCH   19   18
ENDBRANCH   20   19
ENDBRANCH   21   20
ENDBRANCH   22   21
ENDBRANCH   23   22
ENDBRANCH   24   23
ENDBRANCH   25   24
ENDBRANCH   26   25
ENDBRANCH   28   26
ENDBRANCH   32   31
BRANCH   36   37
ATOM     37  C27 UNL A   1      58.070  17.688  10.593  1.00  0.00    +0.000 C 
ATOM     38  C28 UNL A   1      57.978  16.288  10.578  1.00  0.00    +0.000 C 
ATOM     39  F1  UNL A   1      57.218  15.652  11.483  1.00  0.00    +0.000 F 
ATOM     40  C29 UNL A   1      58.700  15.531   9.660  1.00  0.00    +0.000 C 
ATOM     41  F2  UNL A   1      58.637  14.193   9.698  1.00  0.00    +0.000 F 
ATOM     42  C30 UNL A   1      59.499  16.160   8.717  1.00  0.00    +0.000 C 
ATOM     43  F3  UNL A   1      60.193  15.430   7.831  1.00  0.00    +0.000 F 
ATOM     44  C31 UNL A   1      59.587  17.544   8.696  1.00  0.00    +0.000 C 
ATOM     45  F4  UNL A   1      60.350  18.152   7.777  1.00  0.00    +0.000 F 
ATOM     46  C32 UNL A   1      58.889  18.301   9.633  1.00  0.00    +0.000 C 
ATOM     47  F5  UNL A   1      59.008  19.637   9.599  1.00  0.00    +0.000 F 
ENDBRANCH   36   37
BRANCH   53   54
ATOM     54  C38 UNL A   1      58.904  20.250  17.282  1.00  0.00    +0.000 C 
ATOM     55  C39 UNL A   1      59.145  19.127  18.086  1.00  0.00    +0.000 C 
ATOM     56  F6  UNL A   1      58.389  18.026  17.952  1.00  0.00    +0.000 F 
ATOM     57  C40 UNL A   1      60.141  19.145  19.058  1.00  0.00    +0.000 C 
ATOM     58  F7  UNL A   1      60.326  18.076  19.845  1.00  0.00    +0.000 F 
ATOM     59  C41 UNL A   1      60.934  20.271  19.223  1.00  0.00    +0.000 C 
ATOM     60  F8  UNL A   1      61.898  20.283  20.155  1.00  0.00    +0.000 F 
ATOM     61  C42 UNL A   1      60.724  21.387  18.428  1.00  0.00    +0.000 C 
ATOM     62  F9  UNL A   1      61.496  22.471  18.578  1.00  0.00    +0.000 F 
ATOM     63  C43 UNL A   1      59.711  21.381  17.473  1.00  0.00    +0.000 C 
ATOM     64  F10 UNL A   1      59.524  22.479  16.725  1.00  0.00    +0.000 F 
ENDBRANCH   53   54
BRANCH   68   69
ATOM     69  C47 UNL A   1      52.481  22.933  16.985  1.00  0.00    +0.000 C 
ATOM     70  C48 UNL A   1      51.668  22.259  17.907  1.00  0.00    +0.000 C 
ATOM     71  F11 UNL A   1      51.621  20.918  17.902  1.00  0.00    +0.000 F 
ATOM     72  C49 UNL A   1      50.876  22.958  18.814  1.00  0.00    +0.000 C 
ATOM     73  F12 UNL A   1      50.080  22.290  19.661  1.00  0.00    +0.000 F 
ATOM     74  C50 UNL A   1      50.900  24.345  18.834  1.00  0.00    +0.000 C 
ATOM     75  F13 UNL A   1      50.142  25.018  19.711  1.00  0.00    +0.000 F 
ATOM     76  C51 UNL A   1      51.706  25.033  17.939  1.00  0.00    +0.000 C 
ATOM     77  F14 UNL A   1      51.741  26.372  17.964  1.00  0.00    +0.000 F 
ATOM     78  C52 UNL A   1      52.480  24.335  17.016  1.00  0.00    +0.000 C 
ATOM     79  F15 UNL A   1      53.244  25.026  16.157  1.00  0.00    +0.000 F 
ENDBRANCH   68   69
TORSDOF 19
ENDMDL
MODEL 4
REMARK VINA RESULT:     -10.7     46.074     51.035
ROOT
ATOM     32  C23 UNL A   1      53.368  19.887  11.671  1.00  0.00    +0.000 C 
ATOM     33  C24 UNL A   1      54.726  19.262  11.521  1.00  0.00    +0.000 C 
ATOM     34  N6  UNL A   1      55.715  19.215  12.377  1.00  0.00    +0.000 N 
ATOM     35  C25 UNL A   1      56.716  18.480  11.756  1.00  0.00    +0.000 C 
ATOM     36  C26 UNL A   1      57.961  18.199  12.208  1.00  0.00    +0.000 C 
ATOM     48  C33 UNL A   1      58.484  18.644  13.473  1.00  0.00    +0.000 C 
ATOM     49  C34 UNL A   1      59.755  18.467  13.992  1.00  0.00    +0.000 C 
ATOM     50  C35 UNL A   1      59.788  19.037  15.271  1.00  0.00    +0.000 C 
ATOM     51  C36 UNL A   1      58.551  19.607  15.529  1.00  0.00    +0.000 C 
ATOM     52  N7  UNL A   1      57.760  19.354  14.419  1.00  0.00    +0.000 N 
ATOM     53  C37 UNL A   1      58.121  20.328  16.700  1.00  0.00    +0.000 C 
ATOM     65  C44 UNL A   1      56.890  20.867  16.874  1.00  0.00    +0.000 C 
ATOM     66  N8  UNL A   1      55.804  20.858  16.010  1.00  0.00    +0.000 N 
ATOM     67  C45 UNL A   1      54.845  21.498  16.630  1.00  0.00    +0.000 C 
ATOM     68  C46 UNL A   1      53.453  21.813  16.156  1.00  0.00    +0.000 C 
ATOM     80  C53 UNL A   1      53.078  21.439  14.918  1.00  0.00    +0.000 C 
ATOM     81  C54 UNL A   1      51.769  21.682  14.318  1.00  0.00    +0.000 C 
ATOM     82  C55 UNL A   1      51.740  21.134  13.093  1.00  0.00    +0.000 C 
ATOM     83  C56 UNL A   1      53.041  20.529  12.809  1.00  0.00    +0.000 C 
ATOM     84  N9  UNL A   1      53.774  20.764  13.945  1.00  0.00    +0.000 N 
ATOM     85  C57 UNL A   1      55.206  21.963  17.977  1.00  0.00    +0.000 C 
ATOM     86  C58 UNL A   1      56.473  21.585  18.060  1.00  0.00    +0.000 C 
ATOM     87  C59 UNL A   1      56.198  18.060  10.472  1.00  0.00    +0.000 C 
ATOM     88  C60 UNL A   1      54.997  18.574  10.250  1.00  0.00    +0.000 C 
ATOM    117  H27 UNL A   1      60.542  17.998  13.520  1.00  0.00    +0.000 H 
ATOM    118  H28 UNL A   1      60.596  19.034  15.913  1.00  0.00    +0.000 H 
ATOM    119  H29 UNL A   1      56.823  19.638  14.317  1.00  0.00    +0.000 H 
ATOM    120  H30 UNL A   1      50.992  22.194  14.765  1.00  0.00    +0.000 H 
ATOM    121  H31 UNL A   1      50.929  21.139  12.455  1.00  0.00    +0.000 H 
ATOM    122  H32 UNL A   1      54.710  20.477  14.053  1.00  0.00    +0.000 H 
ATOM    123  H33 UNL A   1      54.625  22.456  18.674  1.00  0.00    +0.000 H 
ATOM    124  H34 UNL A   1      57.086  21.778  18.869  1.00  0.00    +0.000 H 
ATOM    125  H35 UNL A   1      56.698  17.441   9.815  1.00  0.00    +0.000 H 
ATOM    126  H36 UNL A   1      54.407  18.509   9.406  1.00  0.00    +0.000 H 
ENDROOT
BRANCH   32   31
ATOM    115  H25 UNL A   1      50.983  21.383   8.003  1.00  0.00    +0.000 H 
ATOM    116  H26 UNL A   1      52.730  21.607   9.674  1.00  0.00    +0.000 H 
ATOM     89  C61 UNL A   1      51.595  18.563  10.520  1.00  0.00    +0.000 C 
ATOM     90  C62 UNL A   1      50.646  18.403   9.513  1.00  0.00    +0.000 C 
ATOM    127  H37 UNL A   1      51.739  17.811  11.213  1.00  0.00    +0.000 H 
ATOM     28  C19 UNL A   1      50.383  19.457   8.632  1.00  0.00    +0.000 C 
ATOM     29  C20 UNL A   1      51.150  20.622   8.682  1.00  0.00    +0.000 C 
ATOM     30  C21 UNL A   1      52.145  20.756   9.651  1.00  0.00    +0.000 C 
ATOM     31  C22 UNL A   1      52.356  19.739  10.596  1.00  0.00    +0.000 C 
ATOM    128  H38 UNL A   1      50.139  17.509   9.418  1.00  0.00    +0.000 H 
BRANCH   28   26
ATOM     26  C18 UNL A   1      49.303  19.356   7.626  1.00  0.00    +0.000 C 
ATOM     27  O3  UNL A   1      48.235  19.929   7.821  1.00  0.00    +0.000 O 
BRANCH   26   25
ATOM     25  N5  UNL A   1      49.491  18.608   6.492  1.00  0.00    +0.000 N 
ATOM    114  H24 UNL A   1      49.897  19.087   5.733  1.00  0.00    +0.000 H 
BRANCH   25   24
ATOM    113  H23 UNL A   1      49.125  16.720   7.204  1.00  0.00    +0.000 H 
ATOM    112  H22 UNL A   1      49.943  16.786   5.637  1.00  0.00    +0.000 H 
ATOM     24  C17 UNL A   1      49.179  17.209   6.254  1.00  0.00    +0.000 C 
BRANCH   24   23
ATOM    111  H21 UNL A   1      47.084  17.221   6.298  1.00  0.00    +0.000 H 
ATOM    110  H20 UNL A   1      47.792  16.031   5.168  1.00  0.00    +0.000 H 
ATOM     23  C16 UNL A   1      47.833  17.026   5.559  1.00  0.00    +0.000 C 
BRANCH   23   22
ATOM    108  H18 UNL A   1      47.424  18.975   4.827  1.00  0.00    +0.000 H 
ATOM    109  H19 UNL A   1      48.411  17.931   3.759  1.00  0.00    +0.000 H 
ATOM     22  C15 UNL A   1      47.564  18.001   4.409  1.00  0.00    +0.000 C 
BRANCH   22   21
ATOM    106  H16 UNL A   1      46.679  17.180   2.662  1.00  0.00    +0.000 H 
ATOM    107  H17 UNL A   1      45.701  17.069   4.157  1.00  0.00    +0.000 H 
ATOM     21  C14 UNL A   1      46.340  17.675   3.548  1.00  0.00    +0.000 C 
BRANCH   21   20
ATOM    105  H15 UNL A   1      45.966  19.294   2.250  1.00  0.00    +0.000 H 
ATOM     20  C13 UNL A   1      45.500  18.885   3.122  1.00  0.00    +0.000 C 
ATOM    104  H14 UNL A   1      45.470  19.577   3.938  1.00  0.00    +0.000 H 
BRANCH   20   19
ATOM     19  C12 UNL A   1      44.064  18.541   2.735  1.00  0.00    +0.000 C 
ATOM    102  H12 UNL A   1      43.988  17.486   2.570  1.00  0.00    +0.000 H 
ATOM    103  H13 UNL A   1      43.413  18.841   3.529  1.00  0.00    +0.000 H 
BRANCH   19   18
ATOM     18  N4  UNL A   1      43.675  19.241   1.525  1.00  0.00    +0.000 N 
ATOM    101  H11 UNL A   1      44.024  18.848   0.694  1.00  0.00    +0.000 H 
BRANCH   18   16
ATOM     17  O2  UNL A   1      43.381  21.429   1.718  1.00  0.00    +0.000 O 
ATOM     16  C11 UNL A   1      42.905  20.351   1.348  1.00  0.00    +0.000 C 
BRANCH   16    2
ATOM      2  C2  UNL A   1      41.509  20.291   0.717  1.00  0.00    +0.000 C 
ATOM     94  H4  UNL A   1      41.128  21.276   0.546  1.00  0.00    +0.000 H 
BRANCH    2    1
ATOM      1  C1  UNL A   1      41.524  19.721  -0.697  1.00  0.00    +0.000 C 
ATOM     91  H1  UNL A   1      41.184  20.467  -1.385  1.00  0.00    +0.000 H 
ATOM     92  H2  UNL A   1      40.878  18.869  -0.745  1.00  0.00    +0.000 H 
ATOM     93  H3  UNL A   1      42.521  19.428  -0.952  1.00  0.00    +0.000 H 
ENDBRANCH    2    1
BRANCH    2    3
ATOM      3  S1  UNL A   1      40.376  19.488   1.908  1.00  0.00    +0.000 S 
BRANCH    3    4
ATOM     97  H7  UNL A   1      34.350  23.408  -0.816  1.00  0.00    +0.000 H 
ATOM     98  H8  UNL A   1      34.402  21.963   1.139  1.00  0.00    +0.000 H 
ATOM      4  C3  UNL A   1      38.881  20.338   1.610  1.00  0.00    +0.000 C 
ATOM      5  N1  UNL A   1      38.864  21.147   0.602  1.00  0.00    +0.000 N 
ATOM      6  C4  UNL A   1      37.648  21.760   0.268  1.00  0.00    +0.000 C 
ATOM      7  C5  UNL A   1      37.605  22.598  -0.850  1.00  0.00    +0.000 C 
ATOM      8  C6  UNL A   1      36.405  23.196  -1.246  1.00  0.00    +0.000 C 
ATOM      9  C7  UNL A   1      35.235  22.965  -0.523  1.00  0.00    +0.000 C 
ATOM     10  C8  UNL A   1      35.263  22.135   0.597  1.00  0.00    +0.000 C 
ATOM     11  C9  UNL A   1      36.470  21.537   0.982  1.00  0.00    +0.000 C 
ATOM     12  C10 UNL A   1      36.526  20.627   2.139  1.00  0.00    +0.000 C 
ATOM     13  O1  UNL A   1      35.516  20.381   2.798  1.00  0.00    +0.000 O 
ATOM     14  N2  UNL A   1      37.773  20.058   2.402  1.00  0.00    +0.000 N 
ATOM     95  H5  UNL A   1      38.467  22.776  -1.389  1.00  0.00    +0.000 H 
ATOM     96  H6  UNL A   1      36.384  23.809  -2.076  1.00  0.00    +0.000 H 
BRANCH   14   15
ATOM     99  H9  UNL A   1      37.025  18.912   4.002  1.00  0.00    +0.000 H 
ATOM    100  H10 UNL A   1      38.713  18.788   3.795  1.00  0.00    +0.000 H 
ATOM     15  N3  UNL A   1      37.845  19.159   3.516  1.00  0.00    +0.000 N 
ENDBRANCH   14   15
ENDBRANCH    3    4
ENDBRANCH    2    3
ENDBRANCH   16    2
ENDBRANCH   18   16
ENDBRANCH   19   18
ENDBRANCH   20   19
ENDBRANCH   21   20
ENDBRANCH   22   21
ENDBRANCH   23   22
ENDBRANCH   24   23
ENDBRANCH   25   24
ENDBRANCH   26   25
ENDBRANCH   28   26
ENDBRANCH   32   31
BRANCH   36   37
ATOM     37  C27 UNL A   1      58.847  17.370  11.323  1.00  0.00    +0.000 C 
ATOM     38  C28 UNL A   1      59.677  17.958  10.357  1.00  0.00    +0.000 C 
ATOM     39  F1  UNL A   1      59.670  19.288  10.178  1.00  0.00    +0.000 F 
ATOM     40  C29 UNL A   1      60.488  17.177   9.537  1.00  0.00    +0.000 C 
ATOM     41  F2  UNL A   1      61.233  17.757   8.586  1.00  0.00    +0.000 F 
ATOM     42  C30 UNL A   1      60.513  15.800   9.693  1.00  0.00    +0.000 C 
ATOM     43  F3  UNL A   1      61.296  15.049   8.906  1.00  0.00    +0.000 F 
ATOM     44  C31 UNL A   1      59.719  15.198  10.659  1.00  0.00    +0.000 C 
ATOM     45  F4  UNL A   1      59.751  13.868  10.818  1.00  0.00    +0.000 F 
ATOM     46  C32 UNL A   1      58.885  15.975  11.459  1.00  0.00    +0.000 C 
ATOM     47  F5  UNL A   1      58.116  15.363  12.372  1.00  0.00    +0.000 F 
ENDBRANCH   36   37
BRANCH   53   54
ATOM     54  C38 UNL A   1      59.117  20.519  17.805  1.00  0.00    +0.000 C 
ATOM     55  C39 UNL A   1      59.791  21.736  17.984  1.00  0.00    +0.000 C 
ATOM     56  F6  UNL A   1      59.596  22.749  17.125  1.00  0.00    +0.000 F 
ATOM     57  C40 UNL A   1      60.698  21.904  19.026  1.00  0.00    +0.000 C 
ATOM     58  F7  UNL A   1      61.363  23.060  19.154  1.00  0.00    +0.000 F 
ATOM     59  C41 UNL A   1      60.924  20.873  19.926  1.00  0.00    +0.000 C 
ATOM     60  F8  UNL A   1      61.792  21.039  20.935  1.00  0.00    +0.000 F 
ATOM     61  C42 UNL A   1      60.256  19.667  19.778  1.00  0.00    +0.000 C 
ATOM     62  F9  UNL A   1      60.464  18.673  20.652  1.00  0.00    +0.000 F 
ATOM     63  C43 UNL A   1      59.369  19.487  18.720  1.00  0.00    +0.000 C 
ATOM     64  F10 UNL A   1      58.745  18.306  18.596  1.00  0.00    +0.000 F 
ENDBRANCH   53   54
BRANCH   68   69
ATOM     69  C47 UNL A   1      52.501  22.558  17.018  1.00  0.00    +0.000 C 
ATOM     70  C48 UNL A   1      51.735  21.891  17.983  1.00  0.00    +0.000 C 
ATOM     71  F11 UNL A   1      51.834  20.560  18.113  1.00  0.00    +0.000 F 
ATOM     72  C49 UNL A   1      50.840  22.582  18.795  1.00  0.00    +0.000 C 
ATOM     73  F12 UNL A   1      50.091  21.915  19.686  1.00  0.00    +0.000 F 
ATOM     74  C50 UNL A   1      50.711  23.958  18.676  1.00  0.00    +0.000 C 
ATOM     75  F13 UNL A   1      49.854  24.625  19.462  1.00  0.00    +0.000 F 
ATOM     76  C51 UNL A   1      51.469  24.642  17.736  1.00  0.00    +0.000 C 
ATOM     77  F14 UNL A   1      51.357  25.972  17.626  1.00  0.00    +0.000 F 
ATOM     78  C52 UNL A   1      52.347  23.948  16.907  1.00  0.00    +0.000 C 
ATOM     79  F15 UNL A   1      53.061  24.632  16.002  1.00  0.00    +0.000 F 
ENDBRANCH   68   69
TORSDOF 19
ENDMDL
MODEL 5
REMARK VINA RESULT:     -10.7     42.961     46.674
ROOT
ATOM     32  C23 UNL A   1      14.598  49.892   4.375  1.00  0.00    +0.000 C 
ATOM     33  C24 UNL A   1      14.612  51.359   4.695  1.00  0.00    +0.000 C 
ATOM     34  N6  UNL A   1      15.020  52.363   3.960  1.00  0.00    +0.000 N 
ATOM     35  C25 UNL A   1      14.767  53.506   4.708  1.00  0.00    +0.000 C 
ATOM     36  C26 UNL A   1      15.061  54.793   4.410  1.00  0.00    +0.000 C 
ATOM     48  C33 UNL A   1      15.726  55.214   3.204  1.00  0.00    +0.000 C 
ATOM     49  C34 UNL A   1      16.128  56.487   2.840  1.00  0.00    +0.000 C 
ATOM     50  C35 UNL A   1      16.697  56.417   1.562  1.00  0.00    +0.000 C 
ATOM     51  C36 UNL A   1      16.689  55.093   1.151  1.00  0.00    +0.000 C 
ATOM     52  N7  UNL A   1      16.087  54.367   2.166  1.00  0.00    +0.000 N 
ATOM     53  C37 UNL A   1      17.192  54.531  -0.077  1.00  0.00    +0.000 C 
ATOM     65  C44 UNL A   1      17.156  53.216  -0.404  1.00  0.00    +0.000 C 
ATOM     66  N8  UNL A   1      16.655  52.149   0.329  1.00  0.00    +0.000 N 
ATOM     67  C45 UNL A   1      16.841  51.085  -0.412  1.00  0.00    +0.000 C 
ATOM     68  C46 UNL A   1      16.513  49.649  -0.108  1.00  0.00    +0.000 C 
ATOM     80  C53 UNL A   1      15.976  49.334   1.085  1.00  0.00    +0.000 C 
ATOM     81  C54 UNL A   1      15.616  47.989   1.524  1.00  0.00    +0.000 C 
ATOM     82  C55 UNL A   1      15.070  48.059   2.749  1.00  0.00    +0.000 C 
ATOM     83  C56 UNL A   1      15.072  49.452   3.194  1.00  0.00    +0.000 C 
ATOM     84  N9  UNL A   1      15.634  50.137   2.146  1.00  0.00    +0.000 N 
ATOM     85  C57 UNL A   1      17.458  51.362  -1.716  1.00  0.00    +0.000 C 
ATOM     86  C58 UNL A   1      17.662  52.669  -1.645  1.00  0.00    +0.000 C 
ATOM     87  C59 UNL A   1      14.125  53.076   5.932  1.00  0.00    +0.000 C 
ATOM     88  C60 UNL A   1      14.067  51.754   6.003  1.00  0.00    +0.000 C 
ATOM    117  H27 UNL A   1      16.027  57.340   3.410  1.00  0.00    +0.000 H 
ATOM    118  H28 UNL A   1      17.060  57.215   1.019  1.00  0.00    +0.000 H 
ATOM    119  H29 UNL A   1      15.937  53.394   2.153  1.00  0.00    +0.000 H 
ATOM    120  H30 UNL A   1      15.758  47.124   0.980  1.00  0.00    +0.000 H 
ATOM    121  H31 UNL A   1      14.706  47.258   3.289  1.00  0.00    +0.000 H 
ATOM    122  H32 UNL A   1      15.780  51.111   2.153  1.00  0.00    +0.000 H 
ATOM    123  H33 UNL A   1      17.675  50.709  -2.486  1.00  0.00    +0.000 H 
ATOM    124  H34 UNL A   1      18.125  53.227  -2.381  1.00  0.00    +0.000 H 
ATOM    125  H35 UNL A   1      13.760  53.715   6.655  1.00  0.00    +0.000 H 
ATOM    126  H36 UNL A   1      13.728  51.157   6.774  1.00  0.00    +0.000 H 
ENDROOT
BRANCH   32   31
ATOM    115  H25 UNL A   1      11.062  47.525   6.187  1.00  0.00    +0.000 H 
ATOM    116  H26 UNL A   1      12.037  49.015   4.536  1.00  0.00    +0.000 H 
ATOM     89  C61 UNL A   1      14.806  48.320   6.302  1.00  0.00    +0.000 C 
ATOM     90  C62 UNL A   1      14.260  47.406   7.200  1.00  0.00    +0.000 C 
ATOM    127  H37 UNL A   1      15.810  48.553   6.353  1.00  0.00    +0.000 H 
ATOM     28  C19 UNL A   1      12.884  47.162   7.194  1.00  0.00    +0.000 C 
ATOM     29  C20 UNL A   1      12.072  47.739   6.215  1.00  0.00    +0.000 C 
ATOM     30  C21 UNL A   1      12.630  48.607   5.275  1.00  0.00    +0.000 C 
ATOM     31  C22 UNL A   1      13.997  48.926   5.329  1.00  0.00    +0.000 C 
ATOM    128  H38 UNL A   1      14.872  46.910   7.867  1.00  0.00    +0.000 H 
BRANCH   28   26
ATOM     26  C18 UNL A   1      12.263  46.283   8.208  1.00  0.00    +0.000 C 
ATOM     27  O3  UNL A   1      11.229  45.678   7.938  1.00  0.00    +0.000 O 
BRANCH   26   25
ATOM     25  N5  UNL A   1      12.830  46.163   9.451  1.00  0.00    +0.000 N 
ATOM    114  H24 UNL A   1      13.806  46.026   9.458  1.00  0.00    +0.000 H 
BRANCH   25   24
ATOM    113  H23 UNL A   1      12.347  45.263  11.229  1.00  0.00    +0.000 H 
ATOM    112  H22 UNL A   1      11.156  46.424  10.628  1.00  0.00    +0.000 H 
ATOM     24  C17 UNL A   1      12.196  46.211  10.758  1.00  0.00    +0.000 C 
BRANCH   24   23
ATOM    111  H21 UNL A   1      13.514  46.780  12.284  1.00  0.00    +0.000 H 
ATOM    110  H20 UNL A   1      12.013  47.748  12.205  1.00  0.00    +0.000 H 
ATOM     23  C16 UNL A   1      12.806  47.281  11.658  1.00  0.00    +0.000 C 
BRANCH   23   22
ATOM    108  H18 UNL A   1      14.453  48.610  11.500  1.00  0.00    +0.000 H 
ATOM    109  H19 UNL A   1      13.808  47.979   9.954  1.00  0.00    +0.000 H 
ATOM     22  C15 UNL A   1      13.584  48.376  10.922  1.00  0.00    +0.000 C 
BRANCH   22   21
ATOM    106  H16 UNL A   1      11.889  49.619  11.216  1.00  0.00    +0.000 H 
ATOM    107  H17 UNL A   1      13.451  50.468  11.013  1.00  0.00    +0.000 H 
ATOM     21  C14 UNL A   1      12.812  49.677  10.680  1.00  0.00    +0.000 C 
BRANCH   21   20
ATOM    105  H15 UNL A   1      12.447  49.040   8.703  1.00  0.00    +0.000 H 
ATOM     20  C13 UNL A   1      12.490  49.981   9.212  1.00  0.00    +0.000 C 
ATOM    104  H14 UNL A   1      13.252  50.625   8.826  1.00  0.00    +0.000 H 
BRANCH   20   19
ATOM     19  C12 UNL A   1      11.139  50.658   8.998  1.00  0.00    +0.000 C 
ATOM    102  H12 UNL A   1      11.126  51.119   8.032  1.00  0.00    +0.000 H 
ATOM    103  H13 UNL A   1      10.369  49.917   9.067  1.00  0.00    +0.000 H 
BRANCH   19   18
ATOM     18  N4  UNL A   1      10.902  51.669  10.012  1.00  0.00    +0.000 N 
ATOM    101  H11 UNL A   1      10.477  51.333  10.834  1.00  0.00    +0.000 H 
BRANCH   18   16
ATOM     17  O2  UNL A   1      10.799  53.647  11.004  1.00  0.00    +0.000 O 
ATOM     16  C11 UNL A   1      11.173  53.004  10.017  1.00  0.00    +0.000 C 
BRANCH   16    2
ATOM      2  C2  UNL A   1      11.909  53.699   8.867  1.00  0.00    +0.000 C 
ATOM     94  H4  UNL A   1      12.318  52.979   8.189  1.00  0.00    +0.000 H 
BRANCH    2    1
ATOM      1  C1  UNL A   1      10.973  54.480   7.952  1.00  0.00    +0.000 C 
ATOM     91  H1  UNL A   1      11.437  54.612   6.997  1.00  0.00    +0.000 H 
ATOM     92  H2  UNL A   1      10.767  55.437   8.384  1.00  0.00    +0.000 H 
ATOM     93  H3  UNL A   1      10.058  53.938   7.832  1.00  0.00    +0.000 H 
ENDBRANCH    2    1
BRANCH    2    3
ATOM      3  S1  UNL A   1      13.323  54.625   9.568  1.00  0.00    +0.000 S 
BRANCH    3    4
ATOM     97  H7  UNL A   1      18.292  48.951  11.055  1.00  0.00    +0.000 H 
ATOM     98  H8  UNL A   1      17.152  50.368  12.669  1.00  0.00    +0.000 H 
ATOM      4  C3  UNL A   1      14.306  53.339  10.221  1.00  0.00    +0.000 C 
ATOM      5  N1  UNL A   1      14.873  52.551   9.368  1.00  0.00    +0.000 N 
ATOM      6  C4  UNL A   1      15.758  51.578   9.854  1.00  0.00    +0.000 C 
ATOM      7  C5  UNL A   1      16.416  50.753   8.938  1.00  0.00    +0.000 C 
ATOM      8  C6  UNL A   1      17.339  49.798   9.374  1.00  0.00    +0.000 C 
ATOM      9  C7  UNL A   1      17.611  49.657  10.734  1.00  0.00    +0.000 C 
ATOM     10  C8  UNL A   1      16.959  50.470  11.661  1.00  0.00    +0.000 C 
ATOM     11  C9  UNL A   1      16.039  51.426  11.213  1.00  0.00    +0.000 C 
ATOM     12  C10 UNL A   1      15.361  52.325  12.163  1.00  0.00    +0.000 C 
ATOM     13  O1  UNL A   1      15.580  52.247  13.371  1.00  0.00    +0.000 O 
ATOM     14  N2  UNL A   1      14.498  53.265  11.596  1.00  0.00    +0.000 N 
ATOM     95  H5  UNL A   1      16.218  50.849   7.929  1.00  0.00    +0.000 H 
ATOM     96  H6  UNL A   1      17.822  49.197   8.688  1.00  0.00    +0.000 H 
BRANCH   14   15
ATOM     99  H9  UNL A   1      13.151  54.778  12.170  1.00  0.00    +0.000 H 
ATOM    100  H10 UNL A   1      14.073  54.149  13.460  1.00  0.00    +0.000 H 
ATOM     15  N3  UNL A   1      13.839  54.157  12.504  1.00  0.00    +0.000 N 
ENDBRANCH   14   15
ENDBRANCH    3    4
ENDBRANCH    2    3
ENDBRANCH   16    2
ENDBRANCH   18   16
ENDBRANCH   19   18
ENDBRANCH   20   19
ENDBRANCH   21   20
ENDBRANCH   22   21
ENDBRANCH   23   22
ENDBRANCH   24   23
ENDBRANCH   25   24
ENDBRANCH   26   25
ENDBRANCH   28   26
ENDBRANCH   32   31
BRANCH   36   37
ATOM     37  C27 UNL A   1      14.666  55.842   5.408  1.00  0.00    +0.000 C 
ATOM     38  C28 UNL A   1      13.325  56.211   5.594  1.00  0.00    +0.000 C 
ATOM     39  F1  UNL A   1      12.360  55.650   4.848  1.00  0.00    +0.000 F 
ATOM     40  C29 UNL A   1      12.972  57.191   6.518  1.00  0.00    +0.000 C 
ATOM     41  F2  UNL A   1      11.691  57.565   6.640  1.00  0.00    +0.000 F 
ATOM     42  C30 UNL A   1      13.947  57.794   7.298  1.00  0.00    +0.000 C 
ATOM     43  F3  UNL A   1      13.606  58.736   8.189  1.00  0.00    +0.000 F 
ATOM     44  C31 UNL A   1      15.276  57.428   7.149  1.00  0.00    +0.000 C 
ATOM     45  F4  UNL A   1      16.218  58.001   7.911  1.00  0.00    +0.000 F 
ATOM     46  C32 UNL A   1      15.635  56.469   6.205  1.00  0.00    +0.000 C 
ATOM     47  F5  UNL A   1      16.931  56.149   6.072  1.00  0.00    +0.000 F 
ENDBRANCH   36   37
BRANCH   53   54
ATOM     54  C38 UNL A   1      17.827  55.467  -1.063  1.00  0.00    +0.000 C 
ATOM     55  C39 UNL A   1      17.087  56.053  -2.100  1.00  0.00    +0.000 C 
ATOM     56  F6  UNL A   1      15.792  55.742  -2.266  1.00  0.00    +0.000 F 
ATOM     57  C40 UNL A   1      17.687  56.934  -2.995  1.00  0.00    +0.000 C 
ATOM     58  F7  UNL A   1      16.972  57.450  -4.004  1.00  0.00    +0.000 F 
ATOM     59  C41 UNL A   1      19.025  57.270  -2.852  1.00  0.00    +0.000 C 
ATOM     60  F8  UNL A   1      19.598  58.125  -3.710  1.00  0.00    +0.000 F 
ATOM     61  C42 UNL A   1      19.771  56.715  -1.823  1.00  0.00    +0.000 C 
ATOM     62  F9  UNL A   1      21.061  57.046  -1.676  1.00  0.00    +0.000 F 
ATOM     63  C43 UNL A   1      19.181  55.812  -0.943  1.00  0.00    +0.000 C 
ATOM     64  F10 UNL A   1      19.930  55.282   0.036  1.00  0.00    +0.000 F 
ENDBRANCH   53   54
BRANCH   68   69
ATOM     69  C47 UNL A   1      16.805  48.574  -1.090  1.00  0.00    +0.000 C 
ATOM     70  C48 UNL A   1      15.944  48.339  -2.171  1.00  0.00    +0.000 C 
ATOM     71  F11 UNL A   1      14.827  49.068  -2.308  1.00  0.00    +0.000 F 
ATOM     72  C49 UNL A   1      16.210  47.332  -3.096  1.00  0.00    +0.000 C 
ATOM     73  F12 UNL A   1      15.352  47.103  -4.100  1.00  0.00    +0.000 F 
ATOM     74  C50 UNL A   1      17.355  46.558  -2.973  1.00  0.00    +0.000 C 
ATOM     75  F13 UNL A   1      17.614  45.593  -3.866  1.00  0.00    +0.000 F 
ATOM     76  C51 UNL A   1      18.227  46.782  -1.918  1.00  0.00    +0.000 C 
ATOM     77  F14 UNL A   1      19.340  46.045  -1.802  1.00  0.00    +0.000 F 
ATOM     78  C52 UNL A   1      17.950  47.772  -0.979  1.00  0.00    +0.000 C 
ATOM     79  F15 UNL A   1      18.806  47.962   0.036  1.00  0.00    +0.000 F 
ENDBRANCH   68   69
TORSDOF 19
ENDMDL
MODEL 6
REMARK VINA RESULT:     -10.7      4.251      9.885
ROOT
ATOM     32  C23 UNL A   1      25.678  36.435  45.613  1.00  0.00    +0.000 C 
ATOM     33  C24 UNL A   1      25.607  37.617  46.537  1.00  0.00    +0.000 C 
ATOM     34  N6  UNL A   1      26.542  38.477  46.855  1.00  0.00    +0.000 N 
ATOM     35  C25 UNL A   1      25.938  39.395  47.704  1.00  0.00    +0.000 C 
ATOM     36  C26 UNL A   1      26.499  40.445  48.349  1.00  0.00    +0.000 C 
ATOM     48  C33 UNL A   1      27.891  40.801  48.261  1.00  0.00    +0.000 C 
ATOM     49  C34 UNL A   1      28.568  41.806  48.928  1.00  0.00    +0.000 C 
ATOM     50  C35 UNL A   1      29.899  41.799  48.494  1.00  0.00    +0.000 C 
ATOM     51  C36 UNL A   1      30.060  40.761  47.589  1.00  0.00    +0.000 C 
ATOM     52  N7  UNL A   1      28.819  40.159  47.454  1.00  0.00    +0.000 N 
ATOM     53  C37 UNL A   1      31.255  40.347  46.901  1.00  0.00    +0.000 C 
ATOM     65  C44 UNL A   1      31.335  39.308  46.033  1.00  0.00    +0.000 C 
ATOM     66  N8  UNL A   1      30.336  38.435  45.625  1.00  0.00    +0.000 N 
ATOM     67  C45 UNL A   1      30.901  37.614  44.776  1.00  0.00    +0.000 C 
ATOM     68  C46 UNL A   1      30.298  36.449  44.040  1.00  0.00    +0.000 C 
ATOM     80  C53 UNL A   1      29.008  36.130  44.253  1.00  0.00    +0.000 C 
ATOM     81  C54 UNL A   1      28.292  35.026  43.622  1.00  0.00    +0.000 C 
ATOM     82  C55 UNL A   1      27.016  35.035  44.039  1.00  0.00    +0.000 C 
ATOM     83  C56 UNL A   1      26.834  36.128  44.994  1.00  0.00    +0.000 C 
ATOM     84  N9  UNL A   1      28.070  36.719  45.065  1.00  0.00    +0.000 N 
ATOM     85  C57 UNL A   1      32.322  37.890  44.528  1.00  0.00    +0.000 C 
ATOM     86  C58 UNL A   1      32.544  38.909  45.346  1.00  0.00    +0.000 C 
ATOM     87  C59 UNL A   1      24.545  39.016  47.813  1.00  0.00    +0.000 C 
ATOM     88  C60 UNL A   1      24.305  37.886  47.165  1.00  0.00    +0.000 C 
ATOM    117  H27 UNL A   1      28.164  42.450  49.625  1.00  0.00    +0.000 H 
ATOM    118  H28 UNL A   1      30.636  42.456  48.795  1.00  0.00    +0.000 H 
ATOM    119  H29 UNL A   1      28.624  39.391  46.870  1.00  0.00    +0.000 H 
ATOM    120  H30 UNL A   1      28.701  34.347  42.961  1.00  0.00    +0.000 H 
ATOM    121  H31 UNL A   1      26.282  34.378  43.735  1.00  0.00    +0.000 H 
ATOM    122  H32 UNL A   1      28.267  37.492  45.643  1.00  0.00    +0.000 H 
ATOM    123  H33 UNL A   1      32.976  37.416  43.885  1.00  0.00    +0.000 H 
ATOM    124  H34 UNL A   1      33.464  39.360  45.476  1.00  0.00    +0.000 H 
ATOM    125  H35 UNL A   1      23.833  39.556  48.328  1.00  0.00    +0.000 H 
ATOM    126  H36 UNL A   1      23.432  37.337  47.115  1.00  0.00    +0.000 H 
ENDROOT
BRANCH   32   31
ATOM    115  H25 UNL A   1      22.913  32.764  46.123  1.00  0.00    +0.000 H 
ATOM    116  H26 UNL A   1      24.857  34.095  46.710  1.00  0.00    +0.000 H 
ATOM     89  C61 UNL A   1      23.536  36.112  44.375  1.00  0.00    +0.000 C 
ATOM     90  C62 UNL A   1      22.382  35.385  44.095  1.00  0.00    +0.000 C 
ATOM    127  H37 UNL A   1      23.714  37.002  43.882  1.00  0.00    +0.000 H 
ATOM     28  C19 UNL A   1      22.185  34.136  44.690  1.00  0.00    +0.000 C 
ATOM     29  C20 UNL A   1      23.082  33.668  45.653  1.00  0.00    +0.000 C 
ATOM     30  C21 UNL A   1      24.207  34.427  45.981  1.00  0.00    +0.000 C 
ATOM     31  C22 UNL A   1      24.458  35.642  45.323  1.00  0.00    +0.000 C 
ATOM    128  H38 UNL A   1      21.673  35.770  43.450  1.00  0.00    +0.000 H 
BRANCH   28   26
ATOM     26  C18 UNL A   1      21.026  33.293  44.326  1.00  0.00    +0.000 C 
ATOM     27  O3  UNL A   1      21.197  32.108  44.052  1.00  0.00    +0.000 O 
BRANCH   26   25
ATOM     25  N5  UNL A   1      19.770  33.841  44.276  1.00  0.00    +0.000 N 
ATOM    114  H24 UNL A   1      19.630  34.630  44.849  1.00  0.00    +0.000 H 
BRANCH   25   24
ATOM    113  H23 UNL A   1      18.948  32.690  42.790  1.00  0.00    +0.000 H 
ATOM    112  H22 UNL A   1      18.205  34.280  43.006  1.00  0.00    +0.000 H 
ATOM     24  C17 UNL A   1      18.617  33.424  43.495  1.00  0.00    +0.000 C 
BRANCH   24   23
ATOM    111  H21 UNL A   1      16.631  32.826  43.788  1.00  0.00    +0.000 H 
ATOM    110  H20 UNL A   1      17.479  33.327  45.280  1.00  0.00    +0.000 H 
ATOM     23  C16 UNL A   1      17.534  32.784  44.359  1.00  0.00    +0.000 C 
BRANCH   23   22
ATOM    108  H18 UNL A   1      18.704  31.224  45.195  1.00  0.00    +0.000 H 
ATOM    109  H19 UNL A   1      16.929  31.006  45.288  1.00  0.00    +0.000 H 
ATOM     22  C15 UNL A   1      17.764  31.307  44.691  1.00  0.00    +0.000 C 
BRANCH   22   21
ATOM    106  H16 UNL A   1      17.135  30.761  42.739  1.00  0.00    +0.000 H 
ATOM    107  H17 UNL A   1      18.810  30.304  43.174  1.00  0.00    +0.000 H 
ATOM     21  C14 UNL A   1      17.788  30.361  43.486  1.00  0.00    +0.000 C 
BRANCH   21   20
ATOM    105  H15 UNL A   1      17.142  28.867  44.826  1.00  0.00    +0.000 H 
ATOM     20  C13 UNL A   1      17.351  28.921  43.777  1.00  0.00    +0.000 C 
ATOM    104  H14 UNL A   1      18.140  28.263  43.479  1.00  0.00    +0.000 H 
BRANCH   20   19
ATOM     19  C12 UNL A   1      16.076  28.498  43.053  1.00  0.00    +0.000 C 
ATOM    102  H12 UNL A   1      15.418  29.339  42.980  1.00  0.00    +0.000 H 
ATOM    103  H13 UNL A   1      16.337  28.146  42.076  1.00  0.00    +0.000 H 
BRANCH   19   18
ATOM     18  N4  UNL A   1      15.406  27.429  43.768  1.00  0.00    +0.000 N 
ATOM    101  H11 UNL A   1      14.863  27.726  44.534  1.00  0.00    +0.000 H 
BRANCH   18   16
ATOM     17  O2  UNL A   1      16.392  25.452  43.936  1.00  0.00    +0.000 O 
ATOM     16  C11 UNL A   1      15.400  26.084  43.556  1.00  0.00    +0.000 C 
BRANCH   16    2
ATOM      2  C2  UNL A   1      14.227  25.362  42.884  1.00  0.00    +0.000 C 
ATOM     94  H4  UNL A   1      14.324  24.302  42.988  1.00  0.00    +0.000 H 
BRANCH    2    1
ATOM      1  C1  UNL A   1      12.897  25.615  43.587  1.00  0.00    +0.000 C 
ATOM     91  H1  UNL A   1      12.458  24.679  43.866  1.00  0.00    +0.000 H 
ATOM     92  H2  UNL A   1      12.237  26.135  42.925  1.00  0.00    +0.000 H 
ATOM     93  H3  UNL A   1      13.064  26.206  44.462  1.00  0.00    +0.000 H 
ENDBRANCH    2    1
BRANCH    2    3
ATOM      3  S1  UNL A   1      14.283  25.723  41.092  1.00  0.00    +0.000 S 
BRANCH    3    4
ATOM     97  H7  UNL A   1      12.892  18.389  39.258  1.00  0.00    +0.000 H 
ATOM     98  H8  UNL A   1      13.631  20.162  37.768  1.00  0.00    +0.000 H 
ATOM      4  C3  UNL A   1      14.167  24.125  40.400  1.00  0.00    +0.000 C 
ATOM      5  N1  UNL A   1      13.824  23.169  41.200  1.00  0.00    +0.000 N 
ATOM      6  C4  UNL A   1      13.613  21.895  40.654  1.00  0.00    +0.000 C 
ATOM      7  C5  UNL A   1      13.193  20.865  41.500  1.00  0.00    +0.000 C 
ATOM      8  C6  UNL A   1      12.929  19.589  40.992  1.00  0.00    +0.000 C 
ATOM      9  C7  UNL A   1      13.086  19.331  39.632  1.00  0.00    +0.000 C 
ATOM     10  C8  UNL A   1      13.509  20.348  38.775  1.00  0.00    +0.000 C 
ATOM     11  C9  UNL A   1      13.767  21.623  39.294  1.00  0.00    +0.000 C 
ATOM     12  C10 UNL A   1      14.179  22.727  38.411  1.00  0.00    +0.000 C 
ATOM     13  O1  UNL A   1      14.317  22.550  37.201  1.00  0.00    +0.000 O 
ATOM     14  N2  UNL A   1      14.366  23.962  39.033  1.00  0.00    +0.000 N 
ATOM     95  H5  UNL A   1      13.077  21.048  42.509  1.00  0.00    +0.000 H 
ATOM     96  H6  UNL A   1      12.615  18.838  41.626  1.00  0.00    +0.000 H 
BRANCH   14   15
ATOM     99  H9  UNL A   1      15.704  25.308  38.120  1.00  0.00    +0.000 H 
ATOM    100  H10 UNL A   1      14.075  25.547  37.676  1.00  0.00    +0.000 H 
ATOM     15  N3  UNL A   1      14.755  25.053  38.189  1.00  0.00    +0.000 N 
ENDBRANCH   14   15
ENDBRANCH    3    4
ENDBRANCH    2    3
ENDBRANCH   16    2
ENDBRANCH   18   16
ENDBRANCH   19   18
ENDBRANCH   20   19
ENDBRANCH   21   20
ENDBRANCH   22   21
ENDBRANCH   23   22
ENDBRANCH   24   23
ENDBRANCH   25   24
ENDBRANCH   26   25
ENDBRANCH   28   26
ENDBRANCH   32   31
BRANCH   36   37
ATOM     37  C27 UNL A   1      25.602  41.286  49.211  1.00  0.00    +0.000 C 
ATOM     38  C28 UNL A   1      25.404  40.995  50.569  1.00  0.00    +0.000 C 
ATOM     39  F1  UNL A   1      25.993  39.925  51.123  1.00  0.00    +0.000 F 
ATOM     40  C29 UNL A   1      24.563  41.779  51.355  1.00  0.00    +0.000 C 
ATOM     41  F2  UNL A   1      24.348  41.451  52.636  1.00  0.00    +0.000 F 
ATOM     42  C30 UNL A   1      23.934  42.888  50.808  1.00  0.00    +0.000 C 
ATOM     43  F3  UNL A   1      23.128  43.644  51.566  1.00  0.00    +0.000 F 
ATOM     44  C31 UNL A   1      24.135  43.209  49.474  1.00  0.00    +0.000 C 
ATOM     45  F4  UNL A   1      23.537  44.287  48.948  1.00  0.00    +0.000 F 
ATOM     46  C32 UNL A   1      24.952  42.409  48.679  1.00  0.00    +0.000 C 
ATOM     47  F5  UNL A   1      25.112  42.736  47.387  1.00  0.00    +0.000 F 
ENDBRANCH   36   37
BRANCH   53   54
ATOM     54  C38 UNL A   1      32.519  41.107  47.178  1.00  0.00    +0.000 C 
ATOM     55  C39 UNL A   1      33.494  40.615  48.056  1.00  0.00    +0.000 C 
ATOM     56  F6  UNL A   1      33.291  39.464  48.716  1.00  0.00    +0.000 F 
ATOM     57  C40 UNL A   1      34.670  41.323  48.288  1.00  0.00    +0.000 C 
ATOM     58  F7  UNL A   1      35.571  40.855  49.163  1.00  0.00    +0.000 F 
ATOM     59  C41 UNL A   1      34.906  42.518  47.624  1.00  0.00    +0.000 C 
ATOM     60  F8  UNL A   1      36.043  43.195  47.843  1.00  0.00    +0.000 F 
ATOM     61  C42 UNL A   1      33.962  43.015  46.739  1.00  0.00    +0.000 C 
ATOM     62  F9  UNL A   1      34.192  44.164  46.089  1.00  0.00    +0.000 F 
ATOM     63  C43 UNL A   1      32.773  42.323  46.527  1.00  0.00    +0.000 C 
ATOM     64  F10 UNL A   1      31.873  42.834  45.673  1.00  0.00    +0.000 F 
ENDBRANCH   53   54
BRANCH   68   69
ATOM     69  C47 UNL A   1      31.114  35.628  43.109  1.00  0.00    +0.000 C 
ATOM     70  C48 UNL A   1      31.313  36.034  41.783  1.00  0.00    +0.000 C 
ATOM     71  F11 UNL A   1      30.737  37.159  41.333  1.00  0.00    +0.000 F 
ATOM     72  C49 UNL A   1      32.076  35.270  40.904  1.00  0.00    +0.000 C 
ATOM     73  F12 UNL A   1      32.220  35.661  39.629  1.00  0.00    +0.000 F 
ATOM     74  C50 UNL A   1      32.676  34.098  41.340  1.00  0.00    +0.000 C 
ATOM     75  F13 UNL A   1      33.415  33.365  40.496  1.00  0.00    +0.000 F 
ATOM     76  C51 UNL A   1      32.503  33.683  42.653  1.00  0.00    +0.000 C 
ATOM     77  F14 UNL A   1      33.091  32.558  43.082  1.00  0.00    +0.000 F 
ATOM     78  C52 UNL A   1      31.720  34.434  43.526  1.00  0.00    +0.000 C 
ATOM     79  F15 UNL A   1      31.563  34.006  44.787  1.00  0.00    +0.000 F 
ENDBRANCH   68   69
TORSDOF 19
ENDMDL
MODEL 7
REMARK VINA RESULT:     -10.6     37.610     42.164
ROOT
ATOM     32  C23 UNL A   1      10.694   3.011  21.206  1.00  0.00    +0.000 C 
ATOM     33  C24 UNL A   1      11.220   3.474  19.877  1.00  0.00    +0.000 C 
ATOM     34  N6  UNL A   1      11.021   4.611  19.258  1.00  0.00    +0.000 N 
ATOM     35  C25 UNL A   1      11.773   4.543  18.093  1.00  0.00    +0.000 C 
ATOM     36  C26 UNL A   1      11.858   5.446  17.088  1.00  0.00    +0.000 C 
ATOM     48  C33 UNL A   1      11.140   6.693  17.057  1.00  0.00    +0.000 C 
ATOM     49  C34 UNL A   1      11.108   7.646  16.054  1.00  0.00    +0.000 C 
ATOM     50  C35 UNL A   1      10.306   8.710  16.486  1.00  0.00    +0.000 C 
ATOM     51  C36 UNL A   1       9.804   8.398  17.740  1.00  0.00    +0.000 C 
ATOM     52  N7  UNL A   1      10.327   7.161  18.079  1.00  0.00    +0.000 N 
ATOM     53  C37 UNL A   1       8.914   9.171  18.567  1.00  0.00    +0.000 C 
ATOM     65  C44 UNL A   1       8.457   8.792  19.786  1.00  0.00    +0.000 C 
ATOM     66  N8  UNL A   1       8.720   7.626  20.491  1.00  0.00    +0.000 N 
ATOM     67  C45 UNL A   1       8.058   7.728  21.616  1.00  0.00    +0.000 C 
ATOM     68  C46 UNL A   1       7.956   6.746  22.750  1.00  0.00    +0.000 C 
ATOM     80  C53 UNL A   1       8.588   5.561  22.654  1.00  0.00    +0.000 C 
ATOM     81  C54 UNL A   1       8.573   4.507  23.665  1.00  0.00    +0.000 C 
ATOM     82  C55 UNL A   1       9.343   3.490  23.248  1.00  0.00    +0.000 C 
ATOM     83  C56 UNL A   1       9.879   3.806  21.925  1.00  0.00    +0.000 C 
ATOM     84  N9  UNL A   1       9.373   5.052  21.649  1.00  0.00    +0.000 N 
ATOM     85  C57 UNL A   1       7.318   8.989  21.765  1.00  0.00    +0.000 C 
ATOM     86  C58 UNL A   1       7.566   9.584  20.607  1.00  0.00    +0.000 C 
ATOM     87  C59 UNL A   1      12.470   3.274  18.113  1.00  0.00    +0.000 C 
ATOM     88  C60 UNL A   1      12.110   2.548  19.162  1.00  0.00    +0.000 C 
ATOM    117  H27 UNL A   1      11.590   7.584  15.144  1.00  0.00    +0.000 H 
ATOM    118  H28 UNL A   1      10.120   9.578  15.960  1.00  0.00    +0.000 H 
ATOM    119  H29 UNL A   1      10.148   6.683  18.922  1.00  0.00    +0.000 H 
ATOM    120  H30 UNL A   1       8.053   4.541  24.556  1.00  0.00    +0.000 H 
ATOM    121  H31 UNL A   1       9.527   2.623  23.777  1.00  0.00    +0.000 H 
ATOM    122  H32 UNL A   1       9.555   5.535  20.810  1.00  0.00    +0.000 H 
ATOM    123  H33 UNL A   1       6.754   9.324  22.562  1.00  0.00    +0.000 H 
ATOM    124  H34 UNL A   1       7.173  10.497  20.326  1.00  0.00    +0.000 H 
ATOM    125  H35 UNL A   1      13.157   2.974  17.404  1.00  0.00    +0.000 H 
ATOM    126  H36 UNL A   1      12.383   1.584  19.410  1.00  0.00    +0.000 H 
ENDROOT
BRANCH   32   31
ATOM    115  H25 UNL A   1      10.124  -1.481  22.141  1.00  0.00    +0.000 H 
ATOM    116  H26 UNL A   1       9.442   0.608  21.108  1.00  0.00    +0.000 H 
ATOM     89  C61 UNL A   1      12.357   1.615  22.435  1.00  0.00    +0.000 C 
ATOM     90  C62 UNL A   1      12.782   0.397  22.960  1.00  0.00    +0.000 C 
ATOM    127  H37 UNL A   1      12.949   2.454  22.539  1.00  0.00    +0.000 H 
ATOM     28  C19 UNL A   1      11.940  -0.717  22.903  1.00  0.00    +0.000 C 
ATOM     29  C20 UNL A   1      10.726  -0.645  22.218  1.00  0.00    +0.000 C 
ATOM     30  C21 UNL A   1      10.328   0.560  21.636  1.00  0.00    +0.000 C 
ATOM     31  C22 UNL A   1      11.127   1.707  21.765  1.00  0.00    +0.000 C 
ATOM    128  H38 UNL A   1      13.718   0.319  23.388  1.00  0.00    +0.000 H 
BRANCH   28   26
ATOM     26  C18 UNL A   1      12.320  -1.991  23.551  1.00  0.00    +0.000 C 
ATOM     27  O3  UNL A   1      11.806  -3.041  23.175  1.00  0.00    +0.000 O 
BRANCH   26   25
ATOM     25  N5  UNL A   1      13.226  -1.993  24.579  1.00  0.00    +0.000 N 
ATOM    114  H24 UNL A   1      14.173  -1.954  24.309  1.00  0.00    +0.000 H 
BRANCH   25   24
ATOM    113  H23 UNL A   1      13.533  -2.876  26.405  1.00  0.00    +0.000 H 
ATOM    112  H22 UNL A   1      11.937  -2.146  26.183  1.00  0.00    +0.000 H 
ATOM     24  C17 UNL A   1      12.988  -2.043  26.012  1.00  0.00    +0.000 C 
BRANCH   24   23
ATOM    111  H21 UNL A   1      13.748  -1.089  27.715  1.00  0.00    +0.000 H 
ATOM    110  H20 UNL A   1      12.692  -0.062  26.702  1.00  0.00    +0.000 H 
ATOM     23  C16 UNL A   1      13.479  -0.787  26.725  1.00  0.00    +0.000 C 
BRANCH   23   22
ATOM    108  H18 UNL A   1      15.549  -0.326  26.782  1.00  0.00    +0.000 H 
ATOM    109  H19 UNL A   1      14.855  -0.601  25.155  1.00  0.00    +0.000 H 
ATOM     22  C15 UNL A   1      14.731  -0.149  26.116  1.00  0.00    +0.000 C 
BRANCH   22   21
ATOM    106  H16 UNL A   1      15.616   1.712  25.606  1.00  0.00    +0.000 H 
ATOM    107  H17 UNL A   1      13.917   1.491  25.090  1.00  0.00    +0.000 H 
ATOM     21  C14 UNL A   1      14.641   1.360  25.868  1.00  0.00    +0.000 C 
BRANCH   21   20
ATOM    105  H15 UNL A   1      13.430   1.582  27.580  1.00  0.00    +0.000 H 
ATOM     20  C13 UNL A   1      14.140   2.189  27.057  1.00  0.00    +0.000 C 
ATOM    104  H14 UNL A   1      13.712   3.094  26.680  1.00  0.00    +0.000 H 
BRANCH   20   19
ATOM     19  C12 UNL A   1      15.229   2.556  28.062  1.00  0.00    +0.000 C 
ATOM    102  H12 UNL A   1      15.043   2.045  28.983  1.00  0.00    +0.000 H 
ATOM    103  H13 UNL A   1      16.178   2.266  27.661  1.00  0.00    +0.000 H 
BRANCH   19   18
ATOM     18  N4  UNL A   1      15.244   3.986  28.305  1.00  0.00    +0.000 N 
ATOM    101  H11 UNL A   1      15.925   4.481  27.795  1.00  0.00    +0.000 H 
BRANCH   18   16
ATOM     17  O2  UNL A   1      14.707   5.972  29.128  1.00  0.00    +0.000 O 
ATOM     16  C11 UNL A   1      14.473   4.759  29.120  1.00  0.00    +0.000 C 
BRANCH   16    2
ATOM      2  C2  UNL A   1      13.358   4.174  29.994  1.00  0.00    +0.000 C 
ATOM     94  H4  UNL A   1      13.012   3.244  29.595  1.00  0.00    +0.000 H 
BRANCH    2    1
ATOM      1  C1  UNL A   1      13.849   3.749  31.373  1.00  0.00    +0.000 C 
ATOM     91  H1  UNL A   1      14.044   2.696  31.373  1.00  0.00    +0.000 H 
ATOM     92  H2  UNL A   1      13.100   3.972  32.104  1.00  0.00    +0.000 H 
ATOM     93  H3  UNL A   1      14.748   4.278  31.610  1.00  0.00    +0.000 H 
ENDBRANCH    2    1
BRANCH    2    3
ATOM      3  S1  UNL A   1      11.937   5.325  29.954  1.00  0.00    +0.000 S 
BRANCH    3    4
ATOM     97  H7  UNL A   1       7.825   0.474  25.634  1.00  0.00    +0.000 H 
ATOM     98  H8  UNL A   1       7.235   2.748  26.259  1.00  0.00    +0.000 H 
ATOM      4  C3  UNL A   1      10.846   4.512  28.860  1.00  0.00    +0.000 C 
ATOM      5  N1  UNL A   1      11.181   3.321  28.484  1.00  0.00    +0.000 N 
ATOM      6  C4  UNL A   1      10.275   2.598  27.696  1.00  0.00    +0.000 C 
ATOM      7  C5  UNL A   1      10.604   1.292  27.325  1.00  0.00    +0.000 C 
ATOM      8  C6  UNL A   1       9.713   0.517  26.577  1.00  0.00    +0.000 C 
ATOM      9  C7  UNL A   1       8.483   1.046  26.188  1.00  0.00    +0.000 C 
ATOM     10  C8  UNL A   1       8.142   2.350  26.547  1.00  0.00    +0.000 C 
ATOM     11  C9  UNL A   1       9.041   3.115  27.301  1.00  0.00    +0.000 C 
ATOM     12  C10 UNL A   1       8.696   4.482  27.727  1.00  0.00    +0.000 C 
ATOM     13  O1  UNL A   1       7.616   4.985  27.420  1.00  0.00    +0.000 O 
ATOM     14  N2  UNL A   1       9.652   5.131  28.509  1.00  0.00    +0.000 N 
ATOM     95  H5  UNL A   1      11.514   0.894  27.607  1.00  0.00    +0.000 H 
ATOM     96  H6  UNL A   1       9.965  -0.448  26.312  1.00  0.00    +0.000 H 
BRANCH   14   15
ATOM     99  H9  UNL A   1      10.021   7.159  28.941  1.00  0.00    +0.000 H 
ATOM    100  H10 UNL A   1       8.416   6.669  29.246  1.00  0.00    +0.000 H 
ATOM     15  N3  UNL A   1       9.329   6.458  28.945  1.00  0.00    +0.000 N 
ENDBRANCH   14   15
ENDBRANCH    3    4
ENDBRANCH    2    3
ENDBRANCH   16    2
ENDBRANCH   18   16
ENDBRANCH   19   18
ENDBRANCH   20   19
ENDBRANCH   21   20
ENDBRANCH   22   21
ENDBRANCH   23   22
ENDBRANCH   24   23
ENDBRANCH   25   24
ENDBRANCH   26   25
ENDBRANCH   28   26
ENDBRANCH   32   31
BRANCH   36   37
ATOM     37  C27 UNL A   1      12.761   5.115  15.935  1.00  0.00    +0.000 C 
ATOM     38  C28 UNL A   1      12.287   4.439  14.801  1.00  0.00    +0.000 C 
ATOM     39  F1  UNL A   1      11.008   4.038  14.739  1.00  0.00    +0.000 F 
ATOM     40  C29 UNL A   1      13.137   4.132  13.742  1.00  0.00    +0.000 C 
ATOM     41  F2  UNL A   1      12.675   3.438  12.693  1.00  0.00    +0.000 F 
ATOM     42  C30 UNL A   1      14.466   4.526  13.780  1.00  0.00    +0.000 C 
ATOM     43  F3  UNL A   1      15.283   4.233  12.759  1.00  0.00    +0.000 F 
ATOM     44  C31 UNL A   1      14.951   5.218  14.880  1.00  0.00    +0.000 C 
ATOM     45  F4  UNL A   1      16.232   5.611  14.912  1.00  0.00    +0.000 F 
ATOM     46  C32 UNL A   1      14.110   5.500  15.953  1.00  0.00    +0.000 C 
ATOM     47  F5  UNL A   1      14.612   6.155  17.011  1.00  0.00    +0.000 F 
ENDBRANCH   36   37
BRANCH   53   54
ATOM     54  C38 UNL A   1       8.434  10.489  18.034  1.00  0.00    +0.000 C 
ATOM     55  C39 UNL A   1       9.147  11.675  18.258  1.00  0.00    +0.000 C 
ATOM     56  F6  UNL A   1      10.259  11.664  19.009  1.00  0.00    +0.000 F 
ATOM     57  C40 UNL A   1       8.699  12.887  17.739  1.00  0.00    +0.000 C 
ATOM     58  F7  UNL A   1       9.372  14.015  18.000  1.00  0.00    +0.000 F 
ATOM     59  C41 UNL A   1       7.549  12.930  16.963  1.00  0.00    +0.000 C 
ATOM     60  F8  UNL A   1       7.124  14.097  16.459  1.00  0.00    +0.000 F 
ATOM     61  C42 UNL A   1       6.838  11.766  16.716  1.00  0.00    +0.000 C 
ATOM     62  F9  UNL A   1       5.734  11.804  15.958  1.00  0.00    +0.000 F 
ATOM     63  C43 UNL A   1       7.269  10.558  17.256  1.00  0.00    +0.000 C 
ATOM     64  F10 UNL A   1       6.554   9.449  17.009  1.00  0.00    +0.000 F 
ENDBRANCH   53   54
BRANCH   68   69
ATOM     69  C47 UNL A   1       7.144   7.051  23.956  1.00  0.00    +0.000 C 
ATOM     70  C48 UNL A   1       7.665   7.840  24.989  1.00  0.00    +0.000 C 
ATOM     71  F11 UNL A   1       8.921   8.304  24.910  1.00  0.00    +0.000 F 
ATOM     72  C49 UNL A   1       6.911   8.130  26.123  1.00  0.00    +0.000 C 
ATOM     73  F12 UNL A   1       7.446   8.858  27.115  1.00  0.00    +0.000 F 
ATOM     74  C50 UNL A   1       5.612   7.656  26.235  1.00  0.00    +0.000 C 
ATOM     75  F13 UNL A   1       4.884   7.940  27.324  1.00  0.00    +0.000 F 
ATOM     76  C51 UNL A   1       5.071   6.883  25.218  1.00  0.00    +0.000 C 
ATOM     77  F14 UNL A   1       3.813   6.434  25.317  1.00  0.00    +0.000 F 
ATOM     78  C52 UNL A   1       5.834   6.572  24.095  1.00  0.00    +0.000 C 
ATOM     79  F15 UNL A   1       5.289   5.816  23.131  1.00  0.00    +0.000 F 
ENDBRANCH   68   69
TORSDOF 19
ENDMDL
MODEL 8
REMARK VINA RESULT:     -10.6     46.159     51.424
ROOT
ATOM     32  C23 UNL A   1      53.331  20.000  11.691  1.00  0.00    +0.000 C 
ATOM     33  C24 UNL A   1      53.068  20.617  13.036  1.00  0.00    +0.000 C 
ATOM     34  N6  UNL A   1      53.882  20.772  14.049  1.00  0.00    +0.000 N 
ATOM     35  C25 UNL A   1      53.150  21.441  15.022  1.00  0.00    +0.000 C 
ATOM     36  C26 UNL A   1      53.527  21.784  16.276  1.00  0.00    +0.000 C 
ATOM     48  C33 UNL A   1      54.817  21.492  16.842  1.00  0.00    +0.000 C 
ATOM     49  C34 UNL A   1      55.273  21.739  18.125  1.00  0.00    +0.000 C 
ATOM     50  C35 UNL A   1      56.606  21.320  18.205  1.00  0.00    +0.000 C 
ATOM     51  C36 UNL A   1      56.966  20.771  16.984  1.00  0.00    +0.000 C 
ATOM     52  N7  UNL A   1      55.861  20.887  16.157  1.00  0.00    +0.000 N 
ATOM     53  C37 UNL A   1      58.225  20.184  16.600  1.00  0.00    +0.000 C 
ATOM     65  C44 UNL A   1      58.498  19.657  15.382  1.00  0.00    +0.000 C 
ATOM     66  N8  UNL A   1      57.673  19.555  14.270  1.00  0.00    +0.000 N 
ATOM     67  C45 UNL A   1      58.393  18.981  13.339  1.00  0.00    +0.000 C 
ATOM     68  C46 UNL A   1      58.001  18.600  11.938  1.00  0.00    +0.000 C 
ATOM     80  C53 UNL A   1      56.742  18.827  11.520  1.00  0.00    +0.000 C 
ATOM     81  C54 UNL A   1      56.215  18.503  10.198  1.00  0.00    +0.000 C 
ATOM     82  C55 UNL A   1      54.937  18.907  10.125  1.00  0.00    +0.000 C 
ATOM     83  C56 UNL A   1      54.545  19.489  11.408  1.00  0.00    +0.000 C 
ATOM     84  N9  UNL A   1      55.676  19.393  12.178  1.00  0.00    +0.000 N 
ATOM     85  C57 UNL A   1      59.771  18.676  13.747  1.00  0.00    +0.000 C 
ATOM     86  C58 UNL A   1      59.771  19.075  15.011  1.00  0.00    +0.000 C 
ATOM     87  C59 UNL A   1      51.843  21.706  14.459  1.00  0.00    +0.000 C 
ATOM     88  C60 UNL A   1      51.719  21.158  13.259  1.00  0.00    +0.000 C 
ATOM    117  H27 UNL A   1      54.725  22.160  18.892  1.00  0.00    +0.000 H 
ATOM    118  H28 UNL A   1      57.218  21.405  19.032  1.00  0.00    +0.000 H 
ATOM    119  H29 UNL A   1      55.821  20.585  15.221  1.00  0.00    +0.000 H 
ATOM    120  H30 UNL A   1      56.741  18.038   9.442  1.00  0.00    +0.000 H 
ATOM    121  H31 UNL A   1      54.329  18.821   9.295  1.00  0.00    +0.000 H 
ATOM    122  H32 UNL A   1      55.722  19.700  13.112  1.00  0.00    +0.000 H 
ATOM    123  H33 UNL A   1      60.538  18.261  13.194  1.00  0.00    +0.000 H 
ATOM    124  H34 UNL A   1      60.577  18.981  15.650  1.00  0.00    +0.000 H 
ATOM    125  H35 UNL A   1      51.104  22.250  14.930  1.00  0.00    +0.000 H 
ATOM    126  H36 UNL A   1      50.892  21.120  12.643  1.00  0.00    +0.000 H 
ENDROOT
BRANCH   32   31
ATOM    115  H25 UNL A   1      50.879  21.998   8.319  1.00  0.00    +0.000 H 
ATOM    116  H26 UNL A   1      52.689  21.965   9.937  1.00  0.00    +0.000 H 
ATOM     89  C61 UNL A   1      51.474  18.879  10.459  1.00  0.00    +0.000 C 
ATOM     90  C62 UNL A   1      50.486  18.872   9.477  1.00  0.00    +0.000 C 
ATOM    127  H37 UNL A   1      51.614  18.046  11.053  1.00  0.00    +0.000 H 
ATOM     28  C19 UNL A   1      50.232  20.030   8.737  1.00  0.00    +0.000 C 
ATOM     29  C20 UNL A   1      51.042  21.157   8.896  1.00  0.00    +0.000 C 
ATOM     30  C21 UNL A   1      52.074  21.143   9.836  1.00  0.00    +0.000 C 
ATOM     31  C22 UNL A   1      52.279  20.014  10.645  1.00  0.00    +0.000 C 
ATOM    128  H38 UNL A   1      49.945  18.012   9.296  1.00  0.00    +0.000 H 
BRANCH   28   26
ATOM     26  C18 UNL A   1      49.116  20.084   7.768  1.00  0.00    +0.000 C 
ATOM     27  O3  UNL A   1      48.495  21.132   7.614  1.00  0.00    +0.000 O 
BRANCH   26   25
ATOM     25  N5  UNL A   1      48.767  18.962   7.062  1.00  0.00    +0.000 N 
ATOM    114  H24 UNL A   1      48.006  18.454   7.425  1.00  0.00    +0.000 H 
BRANCH   25   24
ATOM    113  H23 UNL A   1      50.411  18.306   6.025  1.00  0.00    +0.000 H 
ATOM    112  H22 UNL A   1      49.166  19.088   5.042  1.00  0.00    +0.000 H 
ATOM     24  C17 UNL A   1      49.361  18.418   5.852  1.00  0.00    +0.000 C 
BRANCH   24   23
ATOM    111  H21 UNL A   1      49.506  16.328   5.858  1.00  0.00    +0.000 H 
ATOM    110  H20 UNL A   1      48.658  17.006   4.437  1.00  0.00    +0.000 H 
ATOM     23  C16 UNL A   1      48.798  17.045   5.498  1.00  0.00    +0.000 C 
BRANCH   23   22
ATOM    108  H18 UNL A   1      47.577  15.769   6.673  1.00  0.00    +0.000 H 
ATOM    109  H19 UNL A   1      47.243  17.521   6.821  1.00  0.00    +0.000 H 
ATOM     22  C15 UNL A   1      47.463  16.704   6.167  1.00  0.00    +0.000 C 
BRANCH   22   21
ATOM    106  H16 UNL A   1      46.554  15.960   4.399  1.00  0.00    +0.000 H 
ATOM    107  H17 UNL A   1      45.463  16.187   5.799  1.00  0.00    +0.000 H 
ATOM     21  C14 UNL A   1      46.267  16.586   5.216  1.00  0.00    +0.000 C 
BRANCH   21   20
ATOM    105  H15 UNL A   1      46.476  18.661   4.906  1.00  0.00    +0.000 H 
ATOM     20  C13 UNL A   1      45.758  17.913   4.641  1.00  0.00    +0.000 C 
ATOM    104  H14 UNL A   1      44.788  18.107   5.051  1.00  0.00    +0.000 H 
BRANCH   20   19
ATOM     19  C12 UNL A   1      45.646  17.930   3.119  1.00  0.00    +0.000 C 
ATOM    102  H12 UNL A   1      46.627  17.977   2.695  1.00  0.00    +0.000 H 
ATOM    103  H13 UNL A   1      45.147  17.037   2.802  1.00  0.00    +0.000 H 
BRANCH   19   18
ATOM     18  N4  UNL A   1      44.877  19.076   2.671  1.00  0.00    +0.000 N 
ATOM    101  H11 UNL A   1      45.413  19.880   2.482  1.00  0.00    +0.000 H 
BRANCH   18   16
ATOM     17  O2  UNL A   1      42.819  18.260   2.744  1.00  0.00    +0.000 O 
ATOM     16  C11 UNL A   1      43.539  19.224   2.466  1.00  0.00    +0.000 C 
BRANCH   16    2
ATOM      2  C2  UNL A   1      42.929  20.520   1.920  1.00  0.00    +0.000 C 
ATOM     94  H4  UNL A   1      42.178  20.894   2.583  1.00  0.00    +0.000 H 
BRANCH    2    1
ATOM      1  C1  UNL A   1      43.921  21.678   1.903  1.00  0.00    +0.000 C 
ATOM     91  H1  UNL A   1      43.405  22.586   1.669  1.00  0.00    +0.000 H 
ATOM     92  H2  UNL A   1      44.673  21.494   1.163  1.00  0.00    +0.000 H 
ATOM     93  H3  UNL A   1      44.382  21.767   2.865  1.00  0.00    +0.000 H 
ENDBRANCH    2    1
BRANCH    2    3
ATOM      3  S1  UNL A   1      42.094  20.140   0.338  1.00  0.00    +0.000 S 
BRANCH    3    4
ATOM     97  H7  UNL A   1      35.161  20.159   3.660  1.00  0.00    +0.000 H 
ATOM     98  H8  UNL A   1      35.846  21.391   1.678  1.00  0.00    +0.000 H 
ATOM      4  C3  UNL A   1      40.411  20.258   0.783  1.00  0.00    +0.000 C 
ATOM      5  N1  UNL A   1      40.030  19.564   1.806  1.00  0.00    +0.000 N 
ATOM      6  C4  UNL A   1      38.712  19.722   2.257  1.00  0.00    +0.000 C 
ATOM      7  C5  UNL A   1      38.304  19.017   3.392  1.00  0.00    +0.000 C 
ATOM      8  C6  UNL A   1      37.012  19.176   3.904  1.00  0.00    +0.000 C 
ATOM      9  C7  UNL A   1      36.115  20.043   3.282  1.00  0.00    +0.000 C 
ATOM     10  C8  UNL A   1      36.507  20.751   2.146  1.00  0.00    +0.000 C 
ATOM     11  C9  UNL A   1      37.804  20.587   1.644  1.00  0.00    +0.000 C 
ATOM     12  C10 UNL A   1      38.260  21.347   0.468  1.00  0.00    +0.000 C 
ATOM     13  O1  UNL A   1      37.508  22.135  -0.105  1.00  0.00    +0.000 O 
ATOM     14  N2  UNL A   1      39.585  21.133   0.086  1.00  0.00    +0.000 N 
ATOM     95  H5  UNL A   1      38.962  18.371   3.857  1.00  0.00    +0.000 H 
ATOM     96  H6  UNL A   1      36.723  18.652   4.745  1.00  0.00    +0.000 H 
BRANCH   14   15
ATOM     99  H9  UNL A   1      40.385  22.794  -0.933  1.00  0.00    +0.000 H 
ATOM    100  H10 UNL A   1      40.041  21.464  -1.944  1.00  0.00    +0.000 H 
ATOM     15  N3  UNL A   1      40.052  21.874  -1.049  1.00  0.00    +0.000 N 
ENDBRANCH   14   15
ENDBRANCH    3    4
ENDBRANCH    2    3
ENDBRANCH   16    2
ENDBRANCH   18   16
ENDBRANCH   19   18
ENDBRANCH   20   19
ENDBRANCH   21   20
ENDBRANCH   22   21
ENDBRANCH   23   22
ENDBRANCH   24   23
ENDBRANCH   25   24
ENDBRANCH   26   25
ENDBRANCH   28   26
ENDBRANCH   32   31
BRANCH   36   37
ATOM     37  C27 UNL A   1      52.526  22.515  17.123  1.00  0.00    +0.000 C 
ATOM     38  C28 UNL A   1      51.721  21.842  18.055  1.00  0.00    +0.000 C 
ATOM     39  F1  UNL A   1      51.807  20.509  18.184  1.00  0.00    +0.000 F 
ATOM     40  C29 UNL A   1      50.792  22.531  18.829  1.00  0.00    +0.000 C 
ATOM     41  F2  UNL A   1      49.997  21.860  19.675  1.00  0.00    +0.000 F 
ATOM     42  C30 UNL A   1      50.674  23.908  18.714  1.00  0.00    +0.000 C 
ATOM     43  F3  UNL A   1      49.781  24.571  19.461  1.00  0.00    +0.000 F 
ATOM     44  C31 UNL A   1      51.477  24.597  17.817  1.00  0.00    +0.000 C 
ATOM     45  F4  UNL A   1      51.372  25.929  17.713  1.00  0.00    +0.000 F 
ATOM     46  C32 UNL A   1      52.386  23.907  17.020  1.00  0.00    +0.000 C 
ATOM     47  F5  UNL A   1      53.136  24.599  16.149  1.00  0.00    +0.000 F 
ENDBRANCH   36   37
BRANCH   53   54
ATOM     54  C38 UNL A   1      59.313  20.130  17.632  1.00  0.00    +0.000 C 
ATOM     55  C39 UNL A   1      60.078  21.260  17.951  1.00  0.00    +0.000 C 
ATOM     56  F6  UNL A   1      59.887  22.415  17.293  1.00  0.00    +0.000 F 
ATOM     57  C40 UNL A   1      61.071  21.199  18.925  1.00  0.00    +0.000 C 
ATOM     58  F7  UNL A   1      61.820  22.279  19.185  1.00  0.00    +0.000 F 
ATOM     59  C41 UNL A   1      61.295  20.018  19.618  1.00  0.00    +0.000 C 
ATOM     60  F8  UNL A   1      62.247  19.963  20.561  1.00  0.00    +0.000 F 
ATOM     61  C42 UNL A   1      60.539  18.893  19.329  1.00  0.00    +0.000 C 
ATOM     62  F9  UNL A   1      60.746  17.755  20.004  1.00  0.00    +0.000 F 
ATOM     63  C43 UNL A   1      59.564  18.944  18.337  1.00  0.00    +0.000 C 
ATOM     64  F10 UNL A   1      58.854  17.837  18.072  1.00  0.00    +0.000 F 
ENDBRANCH   53   54
BRANCH   68   69
ATOM     69  C47 UNL A   1      58.973  17.949  11.023  1.00  0.00    +0.000 C 
ATOM     70  C48 UNL A   1      59.767  18.714  10.158  1.00  0.00    +0.000 C 
ATOM     71  F11 UNL A   1      59.631  20.048  10.130  1.00  0.00    +0.000 F 
ATOM     72  C49 UNL A   1      60.679  18.111   9.297  1.00  0.00    +0.000 C 
ATOM     73  F12 UNL A   1      61.401  18.863   8.453  1.00  0.00    +0.000 F 
ATOM     74  C50 UNL A   1      60.834  16.732   9.300  1.00  0.00    +0.000 C 
ATOM     75  F13 UNL A   1      61.717  16.152   8.476  1.00  0.00    +0.000 F 
ATOM     76  C51 UNL A   1      60.067  15.955  10.157  1.00  0.00    +0.000 C 
ATOM     77  F14 UNL A   1      60.222  14.625  10.172  1.00  0.00    +0.000 F 
ATOM     78  C52 UNL A   1      59.137  16.556  11.001  1.00  0.00    +0.000 C 
ATOM     79  F15 UNL A   1      58.403  15.781  11.813  1.00  0.00    +0.000 F 
ENDBRANCH   68   69
TORSDOF 19
ENDMDL
MODEL 9
REMARK VINA RESULT:     -10.6      1.131      2.025
ROOT
ATOM     32  C23 UNL A   1      23.909  36.076  46.968  1.00  0.00    +0.000 C 
ATOM     33  C24 UNL A   1      24.931  37.171  46.853  1.00  0.00    +0.000 C 
ATOM     34  N6  UNL A   1      24.823  38.440  47.155  1.00  0.00    +0.000 N 
ATOM     35  C25 UNL A   1      26.072  38.995  46.906  1.00  0.00    +0.000 C 
ATOM     36  C26 UNL A   1      26.456  40.289  47.007  1.00  0.00    +0.000 C 
ATOM     48  C33 UNL A   1      25.586  41.364  47.408  1.00  0.00    +0.000 C 
ATOM     49  C34 UNL A   1      25.863  42.718  47.478  1.00  0.00    +0.000 C 
ATOM     50  C35 UNL A   1      24.723  43.374  47.957  1.00  0.00    +0.000 C 
ATOM     51  C36 UNL A   1      23.722  42.432  48.144  1.00  0.00    +0.000 C 
ATOM     52  N7  UNL A   1      24.267  41.204  47.806  1.00  0.00    +0.000 N 
ATOM     53  C37 UNL A   1      22.370  42.638  48.595  1.00  0.00    +0.000 C 
ATOM     65  C44 UNL A   1      21.442  41.661  48.744  1.00  0.00    +0.000 C 
ATOM     66  N8  UNL A   1      21.563  40.300  48.504  1.00  0.00    +0.000 N 
ATOM     67  C45 UNL A   1      20.400  39.776  48.802  1.00  0.00    +0.000 C 
ATOM     68  C46 UNL A   1      19.952  38.344  48.709  1.00  0.00    +0.000 C 
ATOM     80  C53 UNL A   1      20.805  37.416  48.235  1.00  0.00    +0.000 C 
ATOM     81  C54 UNL A   1      20.511  35.995  48.077  1.00  0.00    +0.000 C 
ATOM     82  C55 UNL A   1      21.606  35.369  47.618  1.00  0.00    +0.000 C 
ATOM     83  C56 UNL A   1      22.670  36.352  47.418  1.00  0.00    +0.000 C 
ATOM     84  N9  UNL A   1      22.103  37.541  47.803  1.00  0.00    +0.000 N 
ATOM     85  C57 UNL A   1      19.413  40.748  49.295  1.00  0.00    +0.000 C 
ATOM     86  C58 UNL A   1      20.088  41.885  49.204  1.00  0.00    +0.000 C 
ATOM     87  C59 UNL A   1      26.935  37.916  46.475  1.00  0.00    +0.000 C 
ATOM     88  C60 UNL A   1      26.261  36.781  46.361  1.00  0.00    +0.000 C 
ATOM    117  H27 UNL A   1      26.755  43.167  47.220  1.00  0.00    +0.000 H 
ATOM    118  H28 UNL A   1      24.641  44.386  48.141  1.00  0.00    +0.000 H 
ATOM    119  H29 UNL A   1      23.789  40.344  47.844  1.00  0.00    +0.000 H 
ATOM    120  H30 UNL A   1      19.606  35.545  48.285  1.00  0.00    +0.000 H 
ATOM    121  H31 UNL A   1      21.684  34.356  47.437  1.00  0.00    +0.000 H 
ATOM    122  H32 UNL A   1      22.580  38.402  47.772  1.00  0.00    +0.000 H 
ATOM    123  H33 UNL A   1      18.448  40.586  49.624  1.00  0.00    +0.000 H 
ATOM    124  H34 UNL A   1      19.696  42.813  49.432  1.00  0.00    +0.000 H 
ATOM    125  H35 UNL A   1      27.943  38.017  46.282  1.00  0.00    +0.000 H 
ATOM    126  H36 UNL A   1      26.585  35.863  46.017  1.00  0.00    +0.000 H 
ENDROOT
BRANCH   32   31
ATOM    115  H25 UNL A   1      24.014  32.336  44.251  1.00  0.00    +0.000 H 
ATOM    116  H26 UNL A   1      23.502  34.669  44.686  1.00  0.00    +0.000 H 
ATOM     89  C61 UNL A   1      24.959  33.907  47.613  1.00  0.00    +0.000 C 
ATOM     90  C62 UNL A   1      25.321  32.591  47.333  1.00  0.00    +0.000 C 
ATOM    127  H37 UNL A   1      25.192  34.319  48.530  1.00  0.00    +0.000 H 
ATOM     28  C19 UNL A   1      24.924  32.002  46.129  1.00  0.00    +0.000 C 
ATOM     29  C20 UNL A   1      24.270  32.761  45.157  1.00  0.00    +0.000 C 
ATOM     30  C21 UNL A   1      23.963  34.099  45.413  1.00  0.00    +0.000 C 
ATOM     31  C22 UNL A   1      24.279  34.674  46.654  1.00  0.00    +0.000 C 
ATOM    128  H38 UNL A   1      25.882  32.055  48.013  1.00  0.00    +0.000 H 
BRANCH   28   26
ATOM     26  C18 UNL A   1      25.197  30.575  45.854  1.00  0.00    +0.000 C 
ATOM     27  O3  UNL A   1      26.347  30.150  45.932  1.00  0.00    +0.000 O 
BRANCH   26   25
ATOM     25  N5  UNL A   1      24.173  29.738  45.495  1.00  0.00    +0.000 N 
ATOM    114  H24 UNL A   1      24.243  29.347  44.593  1.00  0.00    +0.000 H 
BRANCH   25   24
ATOM    113  H23 UNL A   1      23.143  29.663  47.267  1.00  0.00    +0.000 H 
ATOM    112  H22 UNL A   1      22.886  28.283  46.190  1.00  0.00    +0.000 H 
ATOM     24  C17 UNL A   1      22.998  29.345  46.256  1.00  0.00    +0.000 C 
BRANCH   24   23
ATOM    111  H21 UNL A   1      20.930  29.315  45.927  1.00  0.00    +0.000 H 
ATOM    110  H20 UNL A   1      21.861  30.220  44.697  1.00  0.00    +0.000 H 
ATOM     23  C16 UNL A   1      21.725  30.005  45.737  1.00  0.00    +0.000 C 
BRANCH   23   22
ATOM    108  H18 UNL A   1      21.128  31.078  47.468  1.00  0.00    +0.000 H 
ATOM    109  H19 UNL A   1      22.172  31.969  46.319  1.00  0.00    +0.000 H 
ATOM     22  C15 UNL A   1      21.341  31.308  46.445  1.00  0.00    +0.000 C 
BRANCH   22   21
ATOM    106  H16 UNL A   1      19.321  31.336  45.793  1.00  0.00    +0.000 H 
ATOM    107  H17 UNL A   1      19.925  32.855  46.519  1.00  0.00    +0.000 H 
ATOM     21  C14 UNL A   1      20.126  32.036  45.860  1.00  0.00    +0.000 C 
BRANCH   21   20
ATOM    105  H15 UNL A   1      21.019  32.008  43.951  1.00  0.00    +0.000 H 
ATOM     20  C13 UNL A   1      20.339  32.650  44.472  1.00  0.00    +0.000 C 
ATOM    104  H14 UNL A   1      20.722  33.641  44.597  1.00  0.00    +0.000 H 
BRANCH   20   19
ATOM     19  C12 UNL A   1      19.072  32.730  43.625  1.00  0.00    +0.000 C 
ATOM    102  H12 UNL A   1      18.483  33.562  43.953  1.00  0.00    +0.000 H 
ATOM    103  H13 UNL A   1      19.352  32.855  42.599  1.00  0.00    +0.000 H 
BRANCH   19   18
ATOM     18  N4  UNL A   1      18.291  31.514  43.749  1.00  0.00    +0.000 N 
ATOM    101  H11 UNL A   1      18.393  31.048  44.609  1.00  0.00    +0.000 H 
BRANCH   18   16
ATOM     17  O2  UNL A   1      16.926  31.628  42.007  1.00  0.00    +0.000 O 
ATOM     16  C11 UNL A   1      17.438  30.912  42.874  1.00  0.00    +0.000 C 
BRANCH   16    2
ATOM      2  C2  UNL A   1      17.115  29.415  42.939  1.00  0.00    +0.000 C 
ATOM     94  H4  UNL A   1      17.396  28.927  42.030  1.00  0.00    +0.000 H 
BRANCH    2    1
ATOM      1  C1  UNL A   1      17.968  28.671  43.960  1.00  0.00    +0.000 C 
ATOM     91  H1  UNL A   1      18.069  29.268  44.843  1.00  0.00    +0.000 H 
ATOM     92  H2  UNL A   1      18.936  28.480  43.546  1.00  0.00    +0.000 H 
ATOM     93  H3  UNL A   1      17.497  27.743  44.209  1.00  0.00    +0.000 H 
ENDBRANCH    2    1
BRANCH    2    3
ATOM      3  S1  UNL A   1      15.302  29.227  43.099  1.00  0.00    +0.000 S 
BRANCH    3    4
ATOM     97  H7  UNL A   1      14.728  23.108  38.481  1.00  0.00    +0.000 H 
ATOM     98  H8  UNL A   1      14.704  23.122  40.912  1.00  0.00    +0.000 H 
ATOM      4  C3  UNL A   1      15.032  27.684  42.329  1.00  0.00    +0.000 C 
ATOM      5  N1  UNL A   1      14.993  27.679  41.036  1.00  0.00    +0.000 N 
ATOM      6  C4  UNL A   1      14.890  26.442  40.384  1.00  0.00    +0.000 C 
ATOM      7  C5  UNL A   1      14.897  26.419  38.987  1.00  0.00    +0.000 C 
ATOM      8  C6  UNL A   1      14.840  25.206  38.294  1.00  0.00    +0.000 C 
ATOM      9  C7  UNL A   1      14.771  24.003  38.994  1.00  0.00    +0.000 C 
ATOM     10  C8  UNL A   1      14.759  24.010  40.388  1.00  0.00    +0.000 C 
ATOM     11  C9  UNL A   1      14.821  25.230  41.072  1.00  0.00    +0.000 C 
ATOM     12  C10 UNL A   1      14.847  25.270  42.545  1.00  0.00    +0.000 C 
ATOM     13  O1  UNL A   1      14.803  24.232  43.205  1.00  0.00    +0.000 O 
ATOM     14  N2  UNL A   1      14.952  26.539  43.114  1.00  0.00    +0.000 N 
ATOM     95  H5  UNL A   1      14.944  27.307  38.461  1.00  0.00    +0.000 H 
ATOM     96  H6  UNL A   1      14.849  25.202  37.262  1.00  0.00    +0.000 H 
BRANCH   14   15
ATOM     99  H9  UNL A   1      15.849  26.744  45.009  1.00  0.00    +0.000 H 
ATOM    100  H10 UNL A   1      14.164  26.492  45.067  1.00  0.00    +0.000 H 
ATOM     15  N3  UNL A   1      14.992  26.598  44.546  1.00  0.00    +0.000 N 
ENDBRANCH   14   15
ENDBRANCH    3    4
ENDBRANCH    2    3
ENDBRANCH   16    2
ENDBRANCH   18   16
ENDBRANCH   19   18
ENDBRANCH   20   19
ENDBRANCH   21   20
ENDBRANCH   22   21
ENDBRANCH   23   22
ENDBRANCH   24   23
ENDBRANCH   25   24
ENDBRANCH   26   25
ENDBRANCH   28   26
ENDBRANCH   32   31
BRANCH   36   37
ATOM     37  C27 UNL A   1      27.884  40.614  46.678  1.00  0.00    +0.000 C 
ATOM     38  C28 UNL A   1      28.817  40.927  47.678  1.00  0.00    +0.000 C 
ATOM     39  F1  UNL A   1      28.436  40.976  48.964  1.00  0.00    +0.000 F 
ATOM     40  C29 UNL A   1      30.136  41.234  47.358  1.00  0.00    +0.000 C 
ATOM     41  F2  UNL A   1      30.996  41.581  48.326  1.00  0.00    +0.000 F 
ATOM     42  C30 UNL A   1      30.558  41.198  46.038  1.00  0.00    +0.000 C 
ATOM     43  F3  UNL A   1      31.829  41.491  45.731  1.00  0.00    +0.000 F 
ATOM     44  C31 UNL A   1      29.660  40.867  45.034  1.00  0.00    +0.000 C 
ATOM     45  F4  UNL A   1      30.070  40.820  43.759  1.00  0.00    +0.000 F 
ATOM     46  C32 UNL A   1      28.332  40.588  45.349  1.00  0.00    +0.000 C 
ATOM     47  F5  UNL A   1      27.483  40.289  44.354  1.00  0.00    +0.000 F 
ENDBRANCH   36   37
BRANCH   53   54
ATOM     54  C38 UNL A   1      21.944  44.043  48.906  1.00  0.00    +0.000 C 
ATOM     55  C39 UNL A   1      22.049  44.573  50.199  1.00  0.00    +0.000 C 
ATOM     56  F6  UNL A   1      22.486  43.806  51.211  1.00  0.00    +0.000 F 
ATOM     57  C40 UNL A   1      21.668  45.885  50.467  1.00  0.00    +0.000 C 
ATOM     58  F7  UNL A   1      21.736  46.358  51.719  1.00  0.00    +0.000 F 
ATOM     59  C41 UNL A   1      21.206  46.698  49.443  1.00  0.00    +0.000 C 
ATOM     60  F8  UNL A   1      20.847  47.964  49.701  1.00  0.00    +0.000 F 
ATOM     61  C42 UNL A   1      21.111  46.200  48.153  1.00  0.00    +0.000 C 
ATOM     62  F9  UNL A   1      20.676  46.987  47.160  1.00  0.00    +0.000 F 
ATOM     63  C43 UNL A   1      21.465  44.880  47.888  1.00  0.00    +0.000 C 
ATOM     64  F10 UNL A   1      21.352  44.421  46.632  1.00  0.00    +0.000 F 
ENDBRANCH   53   54
BRANCH   68   69
ATOM     69  C47 UNL A   1      18.576  37.946  49.099  1.00  0.00    +0.000 C 
ATOM     70  C48 UNL A   1      18.192  37.924  50.447  1.00  0.00    +0.000 C 
ATOM     71  F11 UNL A   1      19.082  38.235  51.402  1.00  0.00    +0.000 F 
ATOM     72  C49 UNL A   1      16.903  37.551  50.822  1.00  0.00    +0.000 C 
ATOM     73  F12 UNL A   1      16.572  37.503  52.120  1.00  0.00    +0.000 F 
ATOM     74  C50 UNL A   1      15.967  37.217  49.855  1.00  0.00    +0.000 C 
ATOM     75  F13 UNL A   1      14.725  36.865  50.215  1.00  0.00    +0.000 F 
ATOM     76  C51 UNL A   1      16.321  37.244  48.514  1.00  0.00    +0.000 C 
ATOM     77  F14 UNL A   1      15.416  36.934  47.576  1.00  0.00    +0.000 F 
ATOM     78  C52 UNL A   1      17.616  37.593  48.140  1.00  0.00    +0.000 C 
ATOM     79  F15 UNL A   1      17.934  37.603  46.837  1.00  0.00    +0.000 F 
ENDBRANCH   68   69
TORSDOF 19
ENDMDL
MODEL 10
REMARK VINA RESULT:     -10.6      4.186      8.003
ROOT
ATOM     32  C23 UNL A   1      25.898  35.790  45.386  1.00  0.00    +0.000 C 
ATOM     33  C24 UNL A   1      27.229  35.714  44.694  1.00  0.00    +0.000 C 
ATOM     34  N6  UNL A   1      28.293  36.458  44.862  1.00  0.00    +0.000 N 
ATOM     35  C25 UNL A   1      29.258  35.934  44.012  1.00  0.00    +0.000 C 
ATOM     36  C26 UNL A   1      30.512  36.386  43.777  1.00  0.00    +0.000 C 
ATOM     48  C33 UNL A   1      31.083  37.552  44.400  1.00  0.00    +0.000 C 
ATOM     49  C34 UNL A   1      32.321  38.129  44.179  1.00  0.00    +0.000 C 
ATOM     50  C35 UNL A   1      32.455  39.222  45.043  1.00  0.00    +0.000 C 
ATOM     51  C36 UNL A   1      31.281  39.352  45.771  1.00  0.00    +0.000 C 
ATOM     52  N7  UNL A   1      30.451  38.318  45.368  1.00  0.00    +0.000 N 
ATOM     53  C37 UNL A   1      30.943  40.343  46.759  1.00  0.00    +0.000 C 
ATOM     65  C44 UNL A   1      29.764  40.409  47.424  1.00  0.00    +0.000 C 
ATOM     66  N8  UNL A   1      28.654  39.582  47.315  1.00  0.00    +0.000 N 
ATOM     67  C45 UNL A   1      27.774  40.046  48.166  1.00  0.00    +0.000 C 
ATOM     68  C46 UNL A   1      26.381  39.556  48.453  1.00  0.00    +0.000 C 
ATOM     80  C53 UNL A   1      25.893  38.513  47.756  1.00  0.00    +0.000 C 
ATOM     81  C54 UNL A   1      24.562  37.935  47.915  1.00  0.00    +0.000 C 
ATOM     82  C55 UNL A   1      24.437  36.887  47.086  1.00  0.00    +0.000 C 
ATOM     83  C56 UNL A   1      25.670  36.740  46.313  1.00  0.00    +0.000 C 
ATOM     84  N9  UNL A   1      26.475  37.752  46.771  1.00  0.00    +0.000 N 
ATOM     85  C57 UNL A   1      28.238  41.209  48.936  1.00  0.00    +0.000 C 
ATOM     86  C58 UNL A   1      29.441  41.411  48.418  1.00  0.00    +0.000 C 
ATOM     87  C59 UNL A   1      28.670  34.780  43.366  1.00  0.00    +0.000 C 
ATOM     88  C60 UNL A   1      27.396  34.642  43.702  1.00  0.00    +0.000 C 
ATOM    117  H27 UNL A   1      33.025  37.810  43.495  1.00  0.00    +0.000 H 
ATOM    118  H28 UNL A   1      33.285  39.829  45.125  1.00  0.00    +0.000 H 
ATOM    119  H29 UNL A   1      29.546  38.151  45.718  1.00  0.00    +0.000 H 
ATOM    120  H30 UNL A   1      23.834  38.279  48.561  1.00  0.00    +0.000 H 
ATOM    121  H31 UNL A   1      23.605  36.282  47.007  1.00  0.00    +0.000 H 
ATOM    122  H32 UNL A   1      27.383  37.918  46.428  1.00  0.00    +0.000 H 
ATOM    123  H33 UNL A   1      27.753  41.732  49.683  1.00  0.00    +0.000 H 
ATOM    124  H34 UNL A   1      30.069  42.185  48.689  1.00  0.00    +0.000 H 
ATOM    125  H35 UNL A   1      29.177  34.148  42.726  1.00  0.00    +0.000 H 
ATOM    126  H36 UNL A   1      26.702  33.959  43.358  1.00  0.00    +0.000 H 
ENDROOT
BRANCH   32   31
ATOM    115  H25 UNL A   1      22.062  34.277  43.294  1.00  0.00    +0.000 H 
ATOM    116  H26 UNL A   1      23.825  35.909  43.641  1.00  0.00    +0.000 H 
ATOM     89  C61 UNL A   1      24.883  33.545  45.777  1.00  0.00    +0.000 C 
ATOM     90  C62 UNL A   1      23.914  32.578  45.519  1.00  0.00    +0.000 C 
ATOM    127  H37 UNL A   1      25.627  33.354  46.467  1.00  0.00    +0.000 H 
ATOM     28  C19 UNL A   1      22.852  32.869  44.657  1.00  0.00    +0.000 C 
ATOM     29  C20 UNL A   1      22.824  34.080  43.962  1.00  0.00    +0.000 C 
ATOM     30  C21 UNL A   1      23.831  35.024  44.172  1.00  0.00    +0.000 C 
ATOM     31  C22 UNL A   1      24.852  34.775  45.103  1.00  0.00    +0.000 C 
ATOM    128  H38 UNL A   1      23.981  31.649  45.963  1.00  0.00    +0.000 H 
BRANCH   28   26
ATOM     26  C18 UNL A   1      21.751  31.903  44.453  1.00  0.00    +0.000 C 
ATOM     27  O3  UNL A   1      21.921  30.719  44.730  1.00  0.00    +0.000 O 
BRANCH   26   25
ATOM     25  N5  UNL A   1      20.555  32.329  43.936  1.00  0.00    +0.000 N 
ATOM    114  H24 UNL A   1      20.519  33.279  43.679  1.00  0.00    +0.000 H 
BRANCH   25   24
ATOM    113  H23 UNL A   1      18.803  31.527  44.640  1.00  0.00    +0.000 H 
ATOM    112  H22 UNL A   1      19.590  30.600  43.356  1.00  0.00    +0.000 H 
ATOM     24  C17 UNL A   1      19.332  31.575  43.712  1.00  0.00    +0.000 C 
BRANCH   24   23
ATOM    111  H21 UNL A   1      18.036  31.460  42.070  1.00  0.00    +0.000 H 
ATOM    110  H20 UNL A   1      18.996  32.966  42.149  1.00  0.00    +0.000 H 
ATOM     23  C16 UNL A   1      18.419  32.244  42.689  1.00  0.00    +0.000 C 
BRANCH   23   22
ATOM    108  H18 UNL A   1      17.553  33.767  43.885  1.00  0.00    +0.000 H 
ATOM    109  H19 UNL A   1      16.607  33.269  42.450  1.00  0.00    +0.000 H 
ATOM     22  C15 UNL A   1      17.200  32.957  43.282  1.00  0.00    +0.000 C 
BRANCH   22   21
ATOM    106  H16 UNL A   1      16.853  31.753  44.996  1.00  0.00    +0.000 H 
ATOM    107  H17 UNL A   1      15.449  32.693  44.408  1.00  0.00    +0.000 H 
ATOM     21  C14 UNL A   1      16.289  32.082  44.150  1.00  0.00    +0.000 C 
BRANCH   21   20
ATOM    105  H15 UNL A   1      15.942  30.943  42.410  1.00  0.00    +0.000 H 
ATOM     20  C13 UNL A   1      15.715  30.844  43.451  1.00  0.00    +0.000 C 
ATOM    104  H14 UNL A   1      14.663  30.807  43.644  1.00  0.00    +0.000 H 
BRANCH   20   19
ATOM     19  C12 UNL A   1      16.333  29.527  43.913  1.00  0.00    +0.000 C 
ATOM    102  H12 UNL A   1      17.219  29.336  43.344  1.00  0.00    +0.000 H 
ATOM    103  H13 UNL A   1      16.570  29.605  44.954  1.00  0.00    +0.000 H 
BRANCH   19   18
ATOM     18  N4  UNL A   1      15.403  28.429  43.728  1.00  0.00    +0.000 N 
ATOM    101  H11 UNL A   1      14.746  28.323  44.453  1.00  0.00    +0.000 H 
BRANCH   18   16
ATOM     17  O2  UNL A   1      15.035  27.964  41.594  1.00  0.00    +0.000 O 
ATOM     16  C11 UNL A   1      15.287  27.521  42.719  1.00  0.00    +0.000 C 
BRANCH   16    2
ATOM      2  C2  UNL A   1      15.460  26.015  42.943  1.00  0.00    +0.000 C 
ATOM     94  H4  UNL A   1      16.010  25.573  42.140  1.00  0.00    +0.000 H 
BRANCH    2    1
ATOM      1  C1  UNL A   1      16.355  25.695  44.135  1.00  0.00    +0.000 C 
ATOM     91  H1  UNL A   1      17.379  25.692  43.821  1.00  0.00    +0.000 H 
ATOM     92  H2  UNL A   1      16.100  24.731  44.525  1.00  0.00    +0.000 H 
ATOM     93  H3  UNL A   1      16.217  26.435  44.894  1.00  0.00    +0.000 H 
ENDBRANCH    2    1
BRANCH    2    3
ATOM      3  S1  UNL A   1      13.803  25.240  42.938  1.00  0.00    +0.000 S 
BRANCH    3    4
ATOM     97  H7  UNL A   1      14.943  22.364  35.901  1.00  0.00    +0.000 H 
ATOM     98  H8  UNL A   1      14.019  21.208  37.829  1.00  0.00    +0.000 H 
ATOM      4  C3  UNL A   1      13.828  24.350  41.437  1.00  0.00    +0.000 C 
ATOM      5  N1  UNL A   1      14.271  24.977  40.396  1.00  0.00    +0.000 N 
ATOM      6  C4  UNL A   1      14.409  24.258  39.201  1.00  0.00    +0.000 C 
ATOM      7  C5  UNL A   1      14.934  24.911  38.083  1.00  0.00    +0.000 C 
ATOM      8  C6  UNL A   1      15.131  24.222  36.882  1.00  0.00    +0.000 C 
ATOM      9  C7  UNL A   1      14.799  22.872  36.788  1.00  0.00    +0.000 C 
ATOM     10  C8  UNL A   1      14.270  22.207  37.894  1.00  0.00    +0.000 C 
ATOM     11  C9  UNL A   1      14.082  22.905  39.093  1.00  0.00    +0.000 C 
ATOM     12  C10 UNL A   1      13.559  22.223  40.290  1.00  0.00    +0.000 C 
ATOM     13  O1  UNL A   1      13.267  21.028  40.258  1.00  0.00    +0.000 O 
ATOM     14  N2  UNL A   1      13.454  23.010  41.437  1.00  0.00    +0.000 N 
ATOM     95  H5  UNL A   1      15.179  25.912  38.144  1.00  0.00    +0.000 H 
ATOM     96  H6  UNL A   1      15.523  24.715  36.065  1.00  0.00    +0.000 H 
BRANCH   14   15
ATOM     99  H9  UNL A   1      13.021  21.382  42.700  1.00  0.00    +0.000 H 
ATOM    100  H10 UNL A   1      12.561  22.894  43.341  1.00  0.00    +0.000 H 
ATOM     15  N3  UNL A   1      12.960  22.361  42.616  1.00  0.00    +0.000 N 
ENDBRANCH   14   15
ENDBRANCH    3    4
ENDBRANCH    2    3
ENDBRANCH   16    2
ENDBRANCH   18   16
ENDBRANCH   19   18
ENDBRANCH   20   19
ENDBRANCH   21   20
ENDBRANCH   22   21
ENDBRANCH   23   22
ENDBRANCH   24   23
ENDBRANCH   25   24
ENDBRANCH   26   25
ENDBRANCH   28   26
ENDBRANCH   32   31
BRANCH   36   37
ATOM     37  C27 UNL A   1      31.354  35.616  42.801  1.00  0.00    +0.000 C 
ATOM     38  C28 UNL A   1      32.097  34.494  43.197  1.00  0.00    +0.000 C 
ATOM     39  F1  UNL A   1      32.098  34.103  44.481  1.00  0.00    +0.000 F 
ATOM     40  C29 UNL A   1      32.880  33.793  42.283  1.00  0.00    +0.000 C 
ATOM     41  F2  UNL A   1      33.622  32.757  42.695  1.00  0.00    +0.000 F 
ATOM     42  C30 UNL A   1      32.905  34.177  40.951  1.00  0.00    +0.000 C 
ATOM     43  F3  UNL A   1      33.657  33.501  40.071  1.00  0.00    +0.000 F 
ATOM     44  C31 UNL A   1      32.159  35.268  40.531  1.00  0.00    +0.000 C 
ATOM     45  F4  UNL A   1      32.173  35.633  39.242  1.00  0.00    +0.000 F 
ATOM     46  C32 UNL A   1      31.399  35.989  41.449  1.00  0.00    +0.000 C 
ATOM     47  F5  UNL A   1      30.701  37.050  41.017  1.00  0.00    +0.000 F 
ENDBRANCH   36   37
BRANCH   53   54
ATOM     54  C38 UNL A   1      31.962  41.402  47.063  1.00  0.00    +0.000 C 
ATOM     55  C39 UNL A   1      33.099  41.126  47.834  1.00  0.00    +0.000 C 
ATOM     56  F6  UNL A   1      33.274  39.907  48.369  1.00  0.00    +0.000 F 
ATOM     57  C40 UNL A   1      34.046  42.114  48.091  1.00  0.00    +0.000 C 
ATOM     58  F7  UNL A   1      35.104  41.840  48.866  1.00  0.00    +0.000 F 
ATOM     59  C41 UNL A   1      33.889  43.384  47.556  1.00  0.00    +0.000 C 
ATOM     60  F8  UNL A   1      34.806  44.332  47.798  1.00  0.00    +0.000 F 
ATOM     61  C42 UNL A   1      32.781  43.674  46.776  1.00  0.00    +0.000 C 
ATOM     62  F9  UNL A   1      32.633  44.897  46.250  1.00  0.00    +0.000 F 
ATOM     63  C43 UNL A   1      31.819  42.695  46.541  1.00  0.00    +0.000 C 
ATOM     64  F10 UNL A   1      30.750  43.008  45.791  1.00  0.00    +0.000 F 
ENDBRANCH   53   54
BRANCH   68   69
ATOM     69  C47 UNL A   1      25.529  40.226  49.468  1.00  0.00    +0.000 C 
ATOM     70  C48 UNL A   1      25.527  39.792  50.800  1.00  0.00    +0.000 C 
ATOM     71  F11 UNL A   1      26.277  38.741  51.163  1.00  0.00    +0.000 F 
ATOM     72  C49 UNL A   1      24.729  40.414  51.758  1.00  0.00    +0.000 C 
ATOM     73  F12 UNL A   1      24.717  39.956  53.018  1.00  0.00    +0.000 F 
ATOM     74  C50 UNL A   1      23.938  41.498  51.408  1.00  0.00    +0.000 C 
ATOM     75  F13 UNL A   1      23.176  42.100  52.330  1.00  0.00    +0.000 F 
ATOM     76  C51 UNL A   1      23.934  41.953  50.097  1.00  0.00    +0.000 C 
ATOM     77  F14 UNL A   1      23.181  43.007  49.757  1.00  0.00    +0.000 F 
ATOM     78  C52 UNL A   1      24.712  41.315  49.134  1.00  0.00    +0.000 C 
ATOM     79  F15 UNL A   1      24.684  41.771  47.872  1.00  0.00    +0.000 F 
ENDBRANCH   68   69
TORSDOF 19
ENDMDL
