MODEL 1
REMARK VINA RESULT:     -10.9      0.000      0.000
ROOT
ATOM     30  C24 UNL A   1      40.773  27.728  29.139  1.00  0.00    +0.000 C 
ATOM     31  C25 UNL A   1      40.959  26.320  28.562  1.00  0.00    +0.000 C 
ATOM     32  N4  UNL A   1      41.777  25.373  28.911  1.00  0.00    +0.000 N 
ATOM     33  C26 UNL A   1      41.622  24.317  27.989  1.00  0.00    +0.000 C 
ATOM     34  C27 UNL A   1      42.492  23.271  27.883  1.00  0.00    +0.000 C 
ATOM     46  C34 UNL A   1      43.514  23.359  28.869  1.00  0.00    +0.000 C 
ATOM     47  C35 UNL A   1      43.549  23.048  30.202  1.00  0.00    +0.000 C 
ATOM     48  C36 UNL A   1      44.518  23.917  30.746  1.00  0.00    +0.000 C 
ATOM     49  C37 UNL A   1      45.092  24.670  29.717  1.00  0.00    +0.000 C 
ATOM     50  N5  UNL A   1      44.636  24.086  28.558  1.00  0.00    +0.000 N 
ATOM     51  C38 UNL A   1      45.804  25.924  29.608  1.00  0.00    +0.000 C 
ATOM     63  C45 UNL A   1      46.016  26.624  30.750  1.00  0.00    +0.000 C 
ATOM     64  N6  UNL A   1      45.832  27.990  30.758  1.00  0.00    +0.000 N 
ATOM     65  C46 UNL A   1      45.156  28.181  31.852  1.00  0.00    +0.000 C 
ATOM     66  C47 UNL A   1      44.371  29.393  32.157  1.00  0.00    +0.000 C 
ATOM     78  C54 UNL A   1      43.276  29.340  31.337  1.00  0.00    +0.000 C 
ATOM     79  C55 UNL A   1      42.221  30.322  31.190  1.00  0.00    +0.000 C 
ATOM     80  C56 UNL A   1      41.264  29.845  30.375  1.00  0.00    +0.000 C 
ATOM     81  C57 UNL A   1      41.601  28.487  29.912  1.00  0.00    +0.000 C 
ATOM     82  N7  UNL A   1      42.852  28.302  30.468  1.00  0.00    +0.000 N 
ATOM     83  C58 UNL A   1      45.117  27.056  32.795  1.00  0.00    +0.000 C 
ATOM     84  C59 UNL A   1      45.839  26.175  32.110  1.00  0.00    +0.000 C 
ATOM     85  C60 UNL A   1      40.494  24.650  27.172  1.00  0.00    +0.000 C 
ATOM     86  C61 UNL A   1      40.068  25.883  27.454  1.00  0.00    +0.000 C 
ATOM    114  H26 UNL A   1      42.991  22.335  30.698  1.00  0.00    +0.000 H 
ATOM    115  H27 UNL A   1      44.764  23.986  31.746  1.00  0.00    +0.000 H 
ATOM    116  H28 UNL A   1      45.041  24.174  27.665  1.00  0.00    +0.000 H 
ATOM    117  H29 UNL A   1      42.208  31.249  31.643  1.00  0.00    +0.000 H 
ATOM    118  H30 UNL A   1      40.409  30.361  30.111  1.00  0.00    +0.000 H 
ATOM    119  H31 UNL A   1      43.406  27.512  30.274  1.00  0.00    +0.000 H 
ATOM    120  H32 UNL A   1      44.663  26.974  33.718  1.00  0.00    +0.000 H 
ATOM    121  H33 UNL A   1      46.220  25.297  32.495  1.00  0.00    +0.000 H 
ATOM    122  H34 UNL A   1      40.070  24.025  26.468  1.00  0.00    +0.000 H 
ATOM    123  H35 UNL A   1      39.300  26.408  27.008  1.00  0.00    +0.000 H 
ENDROOT
BRANCH   30   29
ATOM    124  H36 UNL A   1      38.484  27.747  30.561  1.00  0.00    +0.000 H 
ATOM     29  C23 UNL A   1      39.474  28.343  28.785  1.00  0.00    +0.000 C 
ATOM    112  H24 UNL A   1      38.101  30.270  26.418  1.00  0.00    +0.000 H 
ATOM    113  H25 UNL A   1      40.133  29.030  26.894  1.00  0.00    +0.000 H 
ATOM     87  C62 UNL A   1      38.402  28.289  29.687  1.00  0.00    +0.000 C 
ATOM     88  C63 UNL A   1      37.229  28.972  29.394  1.00  0.00    +0.000 C 
ATOM     26  C20 UNL A   1      37.148  29.746  28.232  1.00  0.00    +0.000 C 
ATOM     27  C21 UNL A   1      38.194  29.747  27.303  1.00  0.00    +0.000 C 
ATOM     28  C22 UNL A   1      39.359  29.040  27.576  1.00  0.00    +0.000 C 
ATOM    125  H37 UNL A   1      36.418  28.907  30.031  1.00  0.00    +0.000 H 
BRANCH   26   24
ATOM     25  O2  UNL A   1      36.059  31.763  27.770  1.00  0.00    +0.000 O 
ATOM     24  C19 UNL A   1      35.952  30.559  27.927  1.00  0.00    +0.000 C 
BRANCH   24   23
ATOM    111  H23 UNL A   1      34.364  29.594  28.705  1.00  0.00    +0.000 H 
ATOM     23  N3  UNL A   1      34.714  29.961  27.861  1.00  0.00    +0.000 N 
BRANCH   23   22
ATOM    110  H22 UNL A   1      34.147  28.916  26.179  1.00  0.00    +0.000 H 
ATOM    109  H21 UNL A   1      33.979  30.665  26.061  1.00  0.00    +0.000 H 
ATOM     22  C18 UNL A   1      33.860  29.809  26.693  1.00  0.00    +0.000 C 
BRANCH   22   21
ATOM    107  H19 UNL A   1      32.269  30.119  28.060  1.00  0.00    +0.000 H 
ATOM    108  H20 UNL A   1      31.826  30.190  26.336  1.00  0.00    +0.000 H 
ATOM     21  C17 UNL A   1      32.394  29.685  27.090  1.00  0.00    +0.000 C 
BRANCH   21   20
ATOM    105  H17 UNL A   1      31.779  27.969  28.167  1.00  0.00    +0.000 H 
ATOM    106  H18 UNL A   1      30.964  28.253  26.584  1.00  0.00    +0.000 H 
ATOM     20  C16 UNL A   1      31.880  28.243  27.138  1.00  0.00    +0.000 C 
BRANCH   20   19
ATOM     19  C15 UNL A   1      32.747  27.182  26.459  1.00  0.00    +0.000 C 
ATOM    103  H15 UNL A   1      33.703  27.620  26.261  1.00  0.00    +0.000 H 
ATOM    104  H16 UNL A   1      32.774  26.356  27.139  1.00  0.00    +0.000 H 
BRANCH   19   18
ATOM     18  C14 UNL A   1      32.213  26.612  25.141  1.00  0.00    +0.000 C 
ATOM    101  H13 UNL A   1      32.300  25.546  25.188  1.00  0.00    +0.000 H 
ATOM    102  H14 UNL A   1      31.207  26.968  25.064  1.00  0.00    +0.000 H 
BRANCH   18   17
ATOM     17  C13 UNL A   1      32.913  27.082  23.867  1.00  0.00    +0.000 C 
ATOM     99  H11 UNL A   1      32.169  27.438  23.186  1.00  0.00    +0.000 H 
ATOM    100  H12 UNL A   1      33.604  27.844  24.158  1.00  0.00    +0.000 H 
BRANCH   17   16
ATOM     98  H10 UNL A   1      34.648  25.964  23.373  1.00  0.00    +0.000 H 
ATOM     16  N2  UNL A   1      33.683  26.049  23.201  1.00  0.00    +0.000 N 
BRANCH   16    2
ATOM      1  O1  UNL A   1      32.289  25.562  21.437  1.00  0.00    +0.000 O 
ATOM      2  C1  UNL A   1      33.053  25.183  22.321  1.00  0.00    +0.000 C 
BRANCH    2    3
ATOM     89  H1  UNL A   1      34.373  23.564  22.510  1.00  0.00    +0.000 H 
ATOM     90  H2  UNL A   1      32.723  23.203  21.855  1.00  0.00    +0.000 H 
ATOM      3  C2  UNL A   1      33.316  23.715  22.583  1.00  0.00    +0.000 C 
BRANCH    3    4
ATOM      4  C3  UNL A   1      32.871  23.142  23.902  1.00  0.00    +0.000 C 
ATOM      5  C4  UNL A   1      31.546  23.024  24.311  1.00  0.00    +0.000 C 
ATOM      6  C5  UNL A   1      31.512  22.345  25.545  1.00  0.00    +0.000 C 
ATOM      7  C6  UNL A   1      32.812  22.055  25.873  1.00  0.00    +0.000 C 
ATOM      8  N1  UNL A   1      33.646  22.549  24.890  1.00  0.00    +0.000 N 
ATOM     91  H3  UNL A   1      30.724  23.375  23.795  1.00  0.00    +0.000 H 
ATOM     92  H4  UNL A   1      30.671  22.113  26.097  1.00  0.00    +0.000 H 
ATOM     93  H5  UNL A   1      33.118  21.547  26.718  1.00  0.00    +0.000 H 
BRANCH    8    9
ATOM     97  H9  UNL A   1      37.534  24.487  26.081  1.00  0.00    +0.000 H 
ATOM      9  C7  UNL A   1      35.040  22.523  25.022  1.00  0.00    +0.000 C 
ATOM     10  C8  UNL A   1      35.751  21.351  24.768  1.00  0.00    +0.000 C 
ATOM     11  C9  UNL A   1      37.136  21.349  24.961  1.00  0.00    +0.000 C 
ATOM     12  C10 UNL A   1      37.789  22.496  25.424  1.00  0.00    +0.000 C 
ATOM     13  C11 UNL A   1      37.057  23.646  25.720  1.00  0.00    +0.000 C 
ATOM     14  C12 UNL A   1      35.681  23.650  25.526  1.00  0.00    +0.000 C 
ATOM     15  F1  UNL A   1      34.975  24.749  25.828  1.00  0.00    +0.000 F 
ATOM     94  H6  UNL A   1      35.265  20.501  24.444  1.00  0.00    +0.000 H 
ATOM     95  H7  UNL A   1      37.680  20.495  24.761  1.00  0.00    +0.000 H 
ATOM     96  H8  UNL A   1      38.814  22.491  25.548  1.00  0.00    +0.000 H 
ENDBRANCH    8    9
ENDBRANCH    3    4
ENDBRANCH    2    3
ENDBRANCH   16    2
ENDBRANCH   17   16
ENDBRANCH   18   17
ENDBRANCH   19   18
ENDBRANCH   20   19
ENDBRANCH   21   20
ENDBRANCH   22   21
ENDBRANCH   23   22
ENDBRANCH   24   23
ENDBRANCH   26   24
ENDBRANCH   30   29
BRANCH   34   35
ATOM     35  C28 UNL A   1      42.630  22.194  26.842  1.00  0.00    +0.000 C 
ATOM     36  C29 UNL A   1      43.583  22.232  25.816  1.00  0.00    +0.000 C 
ATOM     37  F2  UNL A   1      44.256  23.356  25.541  1.00  0.00    +0.000 F 
ATOM     38  C30 UNL A   1      43.933  21.079  25.104  1.00  0.00    +0.000 C 
ATOM     39  F3  UNL A   1      44.878  21.146  24.155  1.00  0.00    +0.000 F 
ATOM     40  C31 UNL A   1      43.364  19.853  25.413  1.00  0.00    +0.000 C 
ATOM     41  F4  UNL A   1      43.776  18.738  24.797  1.00  0.00    +0.000 F 
ATOM     42  C32 UNL A   1      42.388  19.788  26.387  1.00  0.00    +0.000 C 
ATOM     43  F5  UNL A   1      41.846  18.607  26.718  1.00  0.00    +0.000 F 
ATOM     44  C33 UNL A   1      42.005  20.943  27.067  1.00  0.00    +0.000 C 
ATOM     45  F6  UNL A   1      41.048  20.812  28.000  1.00  0.00    +0.000 F 
ENDBRANCH   34   35
BRANCH   51   52
ATOM     52  C39 UNL A   1      45.948  26.765  28.358  1.00  0.00    +0.000 C 
ATOM     53  C40 UNL A   1      44.860  27.317  27.660  1.00  0.00    +0.000 C 
ATOM     54  F7  UNL A   1      43.610  27.006  27.997  1.00  0.00    +0.000 F 
ATOM     55  C41 UNL A   1      45.027  28.199  26.595  1.00  0.00    +0.000 C 
ATOM     56  F8  UNL A   1      43.953  28.685  25.951  1.00  0.00    +0.000 F 
ATOM     57  C42 UNL A   1      46.297  28.570  26.199  1.00  0.00    +0.000 C 
ATOM     58  F9  UNL A   1      46.462  29.420  25.176  1.00  0.00    +0.000 F 
ATOM     59  C43 UNL A   1      47.395  28.045  26.861  1.00  0.00    +0.000 C 
ATOM     60  F10 UNL A   1      48.630  28.397  26.478  1.00  0.00    +0.000 F 
ATOM     61  C44 UNL A   1      47.224  27.151  27.921  1.00  0.00    +0.000 C 
ATOM     62  F11 UNL A   1      48.315  26.661  28.530  1.00  0.00    +0.000 F 
ENDBRANCH   51   52
BRANCH   66   67
ATOM     67  C48 UNL A   1      44.859  30.276  33.290  1.00  0.00    +0.000 C 
ATOM     68  C49 UNL A   1      46.052  31.039  33.134  1.00  0.00    +0.000 C 
ATOM     69  F12 UNL A   1      46.633  31.197  31.938  1.00  0.00    +0.000 F 
ATOM     70  C50 UNL A   1      46.709  31.670  34.193  1.00  0.00    +0.000 C 
ATOM     71  F13 UNL A   1      47.885  32.276  33.978  1.00  0.00    +0.000 F 
ATOM     72  C51 UNL A   1      46.163  31.647  35.453  1.00  0.00    +0.000 C 
ATOM     73  F14 UNL A   1      46.801  32.223  36.480  1.00  0.00    +0.000 F 
ATOM     74  C52 UNL A   1      44.938  31.034  35.631  1.00  0.00    +0.000 C 
ATOM     75  F15 UNL A   1      44.361  31.061  36.841  1.00  0.00    +0.000 F 
ATOM     76  C53 UNL A   1      44.297  30.370  34.570  1.00  0.00    +0.000 C 
ATOM     77  F16 UNL A   1      43.099  29.855  34.852  1.00  0.00    +0.000 F 
ENDBRANCH   66   67
TORSDOF 17
ENDMDL
MODEL 2
REMARK VINA RESULT:     -10.9      0.970      1.846
ROOT
ATOM     30  C24 UNL A   1      40.711  27.775  29.112  1.00  0.00    +0.000 C 
ATOM     31  C25 UNL A   1      40.900  26.371  28.529  1.00  0.00    +0.000 C 
ATOM     32  N4  UNL A   1      41.701  25.414  28.891  1.00  0.00    +0.000 N 
ATOM     33  C26 UNL A   1      41.561  24.367  27.956  1.00  0.00    +0.000 C 
ATOM     34  C27 UNL A   1      42.426  23.314  27.864  1.00  0.00    +0.000 C 
ATOM     46  C34 UNL A   1      43.423  23.387  28.876  1.00  0.00    +0.000 C 
ATOM     47  C35 UNL A   1      43.422  23.064  30.206  1.00  0.00    +0.000 C 
ATOM     48  C36 UNL A   1      44.383  23.921  30.781  1.00  0.00    +0.000 C 
ATOM     49  C37 UNL A   1      44.989  24.678  29.774  1.00  0.00    +0.000 C 
ATOM     50  N5  UNL A   1      44.557  24.106  28.599  1.00  0.00    +0.000 N 
ATOM     51  C38 UNL A   1      45.713  25.927  29.693  1.00  0.00    +0.000 C 
ATOM     63  C45 UNL A   1      45.902  26.616  30.845  1.00  0.00    +0.000 C 
ATOM     64  N6  UNL A   1      45.729  27.983  30.860  1.00  0.00    +0.000 N 
ATOM     65  C46 UNL A   1      45.026  28.171  31.939  1.00  0.00    +0.000 C 
ATOM     66  C47 UNL A   1      44.244  29.387  32.234  1.00  0.00    +0.000 C 
ATOM     78  C54 UNL A   1      43.170  29.349  31.386  1.00  0.00    +0.000 C 
ATOM     79  C55 UNL A   1      42.127  30.340  31.221  1.00  0.00    +0.000 C 
ATOM     80  C56 UNL A   1      41.187  29.878  30.378  1.00  0.00    +0.000 C 
ATOM     81  C57 UNL A   1      41.524  28.521  29.912  1.00  0.00    +0.000 C 
ATOM     82  N7  UNL A   1      42.759  28.322  30.498  1.00  0.00    +0.000 N 
ATOM     83  C58 UNL A   1      44.956  27.039  32.871  1.00  0.00    +0.000 C 
ATOM     84  C59 UNL A   1      45.688  26.158  32.197  1.00  0.00    +0.000 C 
ATOM     85  C60 UNL A   1      40.456  24.715  27.114  1.00  0.00    +0.000 C 
ATOM     86  C61 UNL A   1      40.033  25.949  27.394  1.00  0.00    +0.000 C 
ATOM    114  H26 UNL A   1      42.846  22.352  30.682  1.00  0.00    +0.000 H 
ATOM    115  H27 UNL A   1      44.605  23.980  31.788  1.00  0.00    +0.000 H 
ATOM    116  H28 UNL A   1      44.986  24.198  27.717  1.00  0.00    +0.000 H 
ATOM    117  H29 UNL A   1      42.109  31.264  31.681  1.00  0.00    +0.000 H 
ATOM    118  H30 UNL A   1      40.343  30.403  30.096  1.00  0.00    +0.000 H 
ATOM    119  H31 UNL A   1      43.312  27.528  30.312  1.00  0.00    +0.000 H 
ATOM    120  H32 UNL A   1      44.478  26.953  33.781  1.00  0.00    +0.000 H 
ATOM    121  H33 UNL A   1      46.051  25.273  32.584  1.00  0.00    +0.000 H 
ATOM    122  H34 UNL A   1      40.046  24.100  26.394  1.00  0.00    +0.000 H 
ATOM    123  H35 UNL A   1      39.281  26.485  26.934  1.00  0.00    +0.000 H 
ENDROOT
BRANCH   30   29
ATOM    124  H36 UNL A   1      38.395  27.825  30.489  1.00  0.00    +0.000 H 
ATOM     29  C23 UNL A   1      39.426  28.403  28.731  1.00  0.00    +0.000 C 
ATOM    112  H24 UNL A   1      38.121  30.337  26.331  1.00  0.00    +0.000 H 
ATOM    113  H25 UNL A   1      40.129  29.076  26.851  1.00  0.00    +0.000 H 
ATOM     87  C62 UNL A   1      38.336  28.365  29.612  1.00  0.00    +0.000 C 
ATOM     88  C63 UNL A   1      37.176  29.060  29.293  1.00  0.00    +0.000 C 
ATOM     26  C20 UNL A   1      37.126  29.830  28.127  1.00  0.00    +0.000 C 
ATOM     27  C21 UNL A   1      38.190  29.817  27.219  1.00  0.00    +0.000 C 
ATOM     28  C22 UNL A   1      39.342  29.098  27.518  1.00  0.00    +0.000 C 
ATOM    125  H37 UNL A   1      36.353  29.006  29.915  1.00  0.00    +0.000 H 
BRANCH   26   24
ATOM     25  O2  UNL A   1      36.043  31.870  27.765  1.00  0.00    +0.000 O 
ATOM     24  C19 UNL A   1      35.946  30.655  27.796  1.00  0.00    +0.000 C 
BRANCH   24   23
ATOM    111  H23 UNL A   1      33.941  30.515  27.929  1.00  0.00    +0.000 H 
ATOM     23  N3  UNL A   1      34.730  30.053  27.564  1.00  0.00    +0.000 N 
BRANCH   23   22
ATOM    110  H22 UNL A   1      35.250  28.120  27.080  1.00  0.00    +0.000 H 
ATOM    109  H21 UNL A   1      34.458  29.023  25.792  1.00  0.00    +0.000 H 
ATOM     22  C18 UNL A   1      34.474  28.817  26.842  1.00  0.00    +0.000 C 
BRANCH   22   21
ATOM    107  H19 UNL A   1      33.265  27.145  27.330  1.00  0.00    +0.000 H 
ATOM    108  H20 UNL A   1      32.857  28.660  28.173  1.00  0.00    +0.000 H 
ATOM     21  C17 UNL A   1      33.138  28.204  27.247  1.00  0.00    +0.000 C 
BRANCH   21   20
ATOM    105  H17 UNL A   1      31.147  28.788  26.821  1.00  0.00    +0.000 H 
ATOM    106  H18 UNL A   1      32.387  29.213  25.583  1.00  0.00    +0.000 H 
ATOM     20  C16 UNL A   1      32.002  28.476  26.257  1.00  0.00    +0.000 C 
BRANCH   20   19
ATOM     19  C15 UNL A   1      31.569  27.308  25.370  1.00  0.00    +0.000 C 
ATOM    103  H15 UNL A   1      31.032  27.713  24.538  1.00  0.00    +0.000 H 
ATOM    104  H16 UNL A   1      32.472  26.800  25.106  1.00  0.00    +0.000 H 
BRANCH   19   18
ATOM     18  C14 UNL A   1      30.679  26.250  26.029  1.00  0.00    +0.000 C 
ATOM    101  H13 UNL A   1      30.216  26.698  26.884  1.00  0.00    +0.000 H 
ATOM    102  H14 UNL A   1      29.994  25.939  25.269  1.00  0.00    +0.000 H 
BRANCH   18   17
ATOM     17  C13 UNL A   1      31.379  24.973  26.495  1.00  0.00    +0.000 C 
ATOM     99  H11 UNL A   1      32.418  25.053  26.258  1.00  0.00    +0.000 H 
ATOM    100  H12 UNL A   1      31.200  24.890  27.546  1.00  0.00    +0.000 H 
BRANCH   17   16
ATOM     98  H10 UNL A   1      29.894  23.601  25.848  1.00  0.00    +0.000 H 
ATOM     16  N2  UNL A   1      30.864  23.762  25.886  1.00  0.00    +0.000 N 
BRANCH   16    2
ATOM      1  O1  UNL A   1      32.445  22.099  26.050  1.00  0.00    +0.000 O 
ATOM      2  C1  UNL A   1      31.745  22.833  25.356  1.00  0.00    +0.000 C 
BRANCH    2    3
ATOM     89  H1  UNL A   1      30.856  22.659  23.464  1.00  0.00    +0.000 H 
ATOM     90  H2  UNL A   1      32.571  22.095  23.617  1.00  0.00    +0.000 H 
ATOM      3  C2  UNL A   1      31.840  22.841  23.845  1.00  0.00    +0.000 C 
BRANCH    3    4
ATOM      4  C3  UNL A   1      32.354  24.089  23.177  1.00  0.00    +0.000 C 
ATOM      5  C4  UNL A   1      31.580  24.964  22.421  1.00  0.00    +0.000 C 
ATOM      6  C5  UNL A   1      32.373  26.068  22.053  1.00  0.00    +0.000 C 
ATOM      7  C6  UNL A   1      33.618  25.858  22.591  1.00  0.00    +0.000 C 
ATOM      8  N1  UNL A   1      33.621  24.652  23.261  1.00  0.00    +0.000 N 
ATOM     91  H3  UNL A   1      30.588  24.825  22.171  1.00  0.00    +0.000 H 
ATOM     92  H4  UNL A   1      32.076  26.878  21.486  1.00  0.00    +0.000 H 
ATOM     93  H5  UNL A   1      34.422  26.500  22.508  1.00  0.00    +0.000 H 
BRANCH    8    9
ATOM     97  H9  UNL A   1      36.616  24.229  26.600  1.00  0.00    +0.000 H 
ATOM      9  C7  UNL A   1      34.796  24.106  23.795  1.00  0.00    +0.000 C 
ATOM     10  C8  UNL A   1      35.487  23.109  23.106  1.00  0.00    +0.000 C 
ATOM     11  C9  UNL A   1      36.626  22.551  23.694  1.00  0.00    +0.000 C 
ATOM     12  C10 UNL A   1      37.048  22.970  24.960  1.00  0.00    +0.000 C 
ATOM     13  C11 UNL A   1      36.318  23.933  25.657  1.00  0.00    +0.000 C 
ATOM     14  C12 UNL A   1      35.187  24.491  25.072  1.00  0.00    +0.000 C 
ATOM     15  F1  UNL A   1      34.475  25.403  25.749  1.00  0.00    +0.000 F 
ATOM     94  H6  UNL A   1      35.163  22.790  22.180  1.00  0.00    +0.000 H 
ATOM     95  H7  UNL A   1      37.159  21.825  23.190  1.00  0.00    +0.000 H 
ATOM     96  H8  UNL A   1      37.899  22.565  25.380  1.00  0.00    +0.000 H 
ENDBRANCH    8    9
ENDBRANCH    3    4
ENDBRANCH    2    3
ENDBRANCH   16    2
ENDBRANCH   17   16
ENDBRANCH   18   17
ENDBRANCH   19   18
ENDBRANCH   20   19
ENDBRANCH   21   20
ENDBRANCH   22   21
ENDBRANCH   23   22
ENDBRANCH   24   23
ENDBRANCH   26   24
ENDBRANCH   30   29
BRANCH   34   35
ATOM     35  C28 UNL A   1      42.581  22.245  26.817  1.00  0.00    +0.000 C 
ATOM     36  C29 UNL A   1      43.532  22.305  25.790  1.00  0.00    +0.000 C 
ATOM     37  F2  UNL A   1      44.185  23.442  25.520  1.00  0.00    +0.000 F 
ATOM     38  C30 UNL A   1      43.902  21.160  25.072  1.00  0.00    +0.000 C 
ATOM     39  F3  UNL A   1      44.844  21.248  24.123  1.00  0.00    +0.000 F 
ATOM     40  C31 UNL A   1      43.354  19.924  25.377  1.00  0.00    +0.000 C 
ATOM     41  F4  UNL A   1      43.785  18.818  24.755  1.00  0.00    +0.000 F 
ATOM     42  C32 UNL A   1      42.380  19.837  26.352  1.00  0.00    +0.000 C 
ATOM     43  F5  UNL A   1      41.860  18.645  26.677  1.00  0.00    +0.000 F 
ATOM     44  C33 UNL A   1      41.978  20.982  27.038  1.00  0.00    +0.000 C 
ATOM     45  F6  UNL A   1      41.025  20.830  27.970  1.00  0.00    +0.000 F 
ENDBRANCH   34   35
BRANCH   51   52
ATOM     52  C39 UNL A   1      45.896  26.777  28.454  1.00  0.00    +0.000 C 
ATOM     53  C40 UNL A   1      47.149  27.084  27.898  1.00  0.00    +0.000 C 
ATOM     54  F7  UNL A   1      48.272  26.745  28.528  1.00  0.00    +0.000 F 
ATOM     55  C41 UNL A   1      47.283  27.751  26.682  1.00  0.00    +0.000 C 
ATOM     56  F8  UNL A   1      48.505  28.035  26.203  1.00  0.00    +0.000 F 
ATOM     57  C42 UNL A   1      46.158  28.123  25.972  1.00  0.00    +0.000 C 
ATOM     58  F9  UNL A   1      46.282  28.763  24.801  1.00  0.00    +0.000 F 
ATOM     59  C43 UNL A   1      44.904  27.839  26.489  1.00  0.00    +0.000 C 
ATOM     60  F10 UNL A   1      43.809  28.202  25.808  1.00  0.00    +0.000 F 
ATOM     61  C44 UNL A   1      44.774  27.181  27.715  1.00  0.00    +0.000 C 
ATOM     62  F11 UNL A   1      43.540  26.932  28.182  1.00  0.00    +0.000 F 
ENDBRANCH   51   52
BRANCH   66   67
ATOM     67  C48 UNL A   1      44.710  30.257  33.385  1.00  0.00    +0.000 C 
ATOM     68  C49 UNL A   1      45.918  31.003  33.271  1.00  0.00    +0.000 C 
ATOM     69  F12 UNL A   1      46.538  31.157  32.093  1.00  0.00    +0.000 F 
ATOM     70  C50 UNL A   1      46.552  31.618  34.352  1.00  0.00    +0.000 C 
ATOM     71  F13 UNL A   1      47.743  32.208  34.177  1.00  0.00    +0.000 F 
ATOM     72  C51 UNL A   1      45.968  31.597  35.595  1.00  0.00    +0.000 C 
ATOM     73  F14 UNL A   1      46.582  32.158  36.644  1.00  0.00    +0.000 F 
ATOM     74  C52 UNL A   1      44.729  31.001  35.732  1.00  0.00    +0.000 C 
ATOM     75  F15 UNL A   1      44.116  31.030  36.924  1.00  0.00    +0.000 F 
ATOM     76  C53 UNL A   1      44.111  30.353  34.649  1.00  0.00    +0.000 C 
ATOM     77  F16 UNL A   1      42.897  29.854  34.891  1.00  0.00    +0.000 F 
ENDBRANCH   66   67
TORSDOF 17
ENDMDL
MODEL 3
REMARK VINA RESULT:     -10.8     21.553     25.859
ROOT
ATOM     30  C24 UNL A   1      25.203  33.126  46.326  1.00  0.00    +0.000 C 
ATOM     31  C25 UNL A   1      26.093  32.045  46.950  1.00  0.00    +0.000 C 
ATOM     32  N4  UNL A   1      27.131  32.158  47.723  1.00  0.00    +0.000 N 
ATOM     33  C26 UNL A   1      27.652  30.862  47.925  1.00  0.00    +0.000 C 
ATOM     34  C27 UNL A   1      28.882  30.617  48.464  1.00  0.00    +0.000 C 
ATOM     46  C34 UNL A   1      29.516  31.830  48.853  1.00  0.00    +0.000 C 
ATOM     47  C35 UNL A   1      29.375  32.642  49.946  1.00  0.00    +0.000 C 
ATOM     48  C36 UNL A   1      29.733  33.926  49.484  1.00  0.00    +0.000 C 
ATOM     49  C37 UNL A   1      30.151  33.837  48.153  1.00  0.00    +0.000 C 
ATOM     50  N5  UNL A   1      30.263  32.488  47.909  1.00  0.00    +0.000 N 
ATOM     51  C38 UNL A   1      30.270  34.740  47.029  1.00  0.00    +0.000 C 
ATOM     63  C45 UNL A   1      29.899  36.030  47.221  1.00  0.00    +0.000 C 
ATOM     64  N6  UNL A   1      29.159  36.679  46.257  1.00  0.00    +0.000 N 
ATOM     65  C46 UNL A   1      28.235  37.270  46.956  1.00  0.00    +0.000 C 
ATOM     66  C47 UNL A   1      26.965  37.786  46.410  1.00  0.00    +0.000 C 
ATOM     78  C54 UNL A   1      26.215  36.679  46.116  1.00  0.00    +0.000 C 
ATOM     79  C55 UNL A   1      24.907  36.626  45.494  1.00  0.00    +0.000 C 
ATOM     80  C56 UNL A   1      24.456  35.359  45.488  1.00  0.00    +0.000 C 
ATOM     81  C57 UNL A   1      25.431  34.454  46.121  1.00  0.00    +0.000 C 
ATOM     82  N7  UNL A   1      26.479  35.312  46.389  1.00  0.00    +0.000 N 
ATOM     83  C58 UNL A   1      28.463  37.338  48.405  1.00  0.00    +0.000 C 
ATOM     84  C59 UNL A   1      29.625  36.696  48.471  1.00  0.00    +0.000 C 
ATOM     85  C60 UNL A   1      26.708  29.948  47.355  1.00  0.00    +0.000 C 
ATOM     86  C61 UNL A   1      25.749  30.617  46.712  1.00  0.00    +0.000 C 
ATOM    114  H26 UNL A   1      29.074  32.375  50.896  1.00  0.00    +0.000 H 
ATOM    115  H27 UNL A   1      29.692  34.794  50.041  1.00  0.00    +0.000 H 
ATOM    116  H28 UNL A   1      30.785  32.069  47.187  1.00  0.00    +0.000 H 
ATOM    117  H29 UNL A   1      24.400  37.439  45.111  1.00  0.00    +0.000 H 
ATOM    118  H30 UNL A   1      23.548  35.063  45.095  1.00  0.00    +0.000 H 
ATOM    119  H31 UNL A   1      27.344  34.999  46.741  1.00  0.00    +0.000 H 
ATOM    120  H32 UNL A   1      27.889  37.759  49.152  1.00  0.00    +0.000 H 
ATOM    121  H33 UNL A   1      30.242  36.677  49.298  1.00  0.00    +0.000 H 
ATOM    122  H34 UNL A   1      26.762  28.921  47.433  1.00  0.00    +0.000 H 
ATOM    123  H35 UNL A   1      24.955  30.233  46.177  1.00  0.00    +0.000 H 
ENDROOT
BRANCH   30   29
ATOM    124  H36 UNL A   1      24.399  32.490  43.834  1.00  0.00    +0.000 H 
ATOM     29  C23 UNL A   1      23.884  32.620  45.884  1.00  0.00    +0.000 C 
ATOM    112  H24 UNL A   1      20.957  31.614  47.159  1.00  0.00    +0.000 H 
ATOM    113  H25 UNL A   1      23.029  32.691  47.820  1.00  0.00    +0.000 H 
ATOM     87  C62 UNL A   1      23.670  32.296  44.537  1.00  0.00    +0.000 C 
ATOM     88  C63 UNL A   1      22.468  31.712  44.158  1.00  0.00    +0.000 C 
ATOM     26  C20 UNL A   1      21.509  31.405  45.128  1.00  0.00    +0.000 C 
ATOM     27  C21 UNL A   1      21.697  31.786  46.461  1.00  0.00    +0.000 C 
ATOM     28  C22 UNL A   1      22.885  32.400  46.841  1.00  0.00    +0.000 C 
ATOM    125  H37 UNL A   1      22.284  31.505  43.163  1.00  0.00    +0.000 H 
BRANCH   26   24
ATOM     25  O2  UNL A   1      20.133  29.517  45.037  1.00  0.00    +0.000 O 
ATOM     24  C19 UNL A   1      20.256  30.703  44.781  1.00  0.00    +0.000 C 
BRANCH   24   23
ATOM    111  H23 UNL A   1      19.155  32.334  44.351  1.00  0.00    +0.000 H 
ATOM     23  N3  UNL A   1      19.247  31.378  44.132  1.00  0.00    +0.000 N 
BRANCH   23   22
ATOM    110  H22 UNL A   1      18.580  29.838  42.938  1.00  0.00    +0.000 H 
ATOM    109  H21 UNL A   1      18.334  31.453  42.278  1.00  0.00    +0.000 H 
ATOM     22  C18 UNL A   1      18.304  30.848  43.161  1.00  0.00    +0.000 C 
BRANCH   22   21
ATOM    107  H19 UNL A   1      16.203  30.929  42.889  1.00  0.00    +0.000 H 
ATOM    108  H20 UNL A   1      16.762  29.931  44.254  1.00  0.00    +0.000 H 
ATOM     21  C17 UNL A   1      16.882  30.846  43.711  1.00  0.00    +0.000 C 
BRANCH   21   20
ATOM    105  H17 UNL A   1      16.024  31.577  45.503  1.00  0.00    +0.000 H 
ATOM    106  H18 UNL A   1      17.551  32.370  44.967  1.00  0.00    +0.000 H 
ATOM     20  C16 UNL A   1      16.591  31.984  44.693  1.00  0.00    +0.000 C 
BRANCH   20   19
ATOM     19  C15 UNL A   1      15.818  33.184  44.144  1.00  0.00    +0.000 C 
ATOM    103  H15 UNL A   1      15.307  32.866  43.259  1.00  0.00    +0.000 H 
ATOM    104  H16 UNL A   1      15.172  33.496  44.937  1.00  0.00    +0.000 H 
BRANCH   19   18
ATOM     18  C14 UNL A   1      16.650  34.419  43.784  1.00  0.00    +0.000 C 
ATOM    101  H13 UNL A   1      17.677  34.118  43.736  1.00  0.00    +0.000 H 
ATOM    102  H14 UNL A   1      16.251  34.771  42.856  1.00  0.00    +0.000 H 
BRANCH   18   17
ATOM     17  C13 UNL A   1      16.556  35.603  44.746  1.00  0.00    +0.000 C 
ATOM     99  H11 UNL A   1      17.543  35.975  44.918  1.00  0.00    +0.000 H 
ATOM    100  H12 UNL A   1      15.917  36.326  44.283  1.00  0.00    +0.000 H 
BRANCH   17   16
ATOM     98  H10 UNL A   1      15.659  34.359  46.213  1.00  0.00    +0.000 H 
ATOM     16  N2  UNL A   1      15.960  35.277  46.027  1.00  0.00    +0.000 N 
BRANCH   16    2
ATOM      1  O1  UNL A   1      14.807  36.393  47.675  1.00  0.00    +0.000 O 
ATOM      2  C1  UNL A   1      15.818  36.264  46.988  1.00  0.00    +0.000 C 
BRANCH    2    3
ATOM     89  H1  UNL A   1      16.578  38.187  47.344  1.00  0.00    +0.000 H 
ATOM     90  H2  UNL A   1      17.449  37.176  46.118  1.00  0.00    +0.000 H 
ATOM      3  C2  UNL A   1      16.980  37.231  47.078  1.00  0.00    +0.000 C 
BRANCH    3    4
ATOM      4  C3  UNL A   1      18.083  36.920  48.055  1.00  0.00    +0.000 C 
ATOM      5  C4  UNL A   1      17.976  37.031  49.438  1.00  0.00    +0.000 C 
ATOM      6  C5  UNL A   1      19.163  36.552  50.024  1.00  0.00    +0.000 C 
ATOM      7  C6  UNL A   1      19.979  36.152  48.996  1.00  0.00    +0.000 C 
ATOM      8  N1  UNL A   1      19.339  36.386  47.796  1.00  0.00    +0.000 N 
ATOM     91  H3  UNL A   1      17.159  37.403  49.948  1.00  0.00    +0.000 H 
ATOM     92  H4  UNL A   1      19.379  36.512  51.033  1.00  0.00    +0.000 H 
ATOM     93  H5  UNL A   1      20.919  35.740  49.103  1.00  0.00    +0.000 H 
BRANCH    8    9
ATOM     97  H9  UNL A   1      20.309  33.885  44.177  1.00  0.00    +0.000 H 
ATOM      9  C7  UNL A   1      19.985  36.205  46.566  1.00  0.00    +0.000 C 
ATOM     10  C8  UNL A   1      20.666  37.264  45.965  1.00  0.00    +0.000 C 
ATOM     11  C9  UNL A   1      21.254  37.061  44.713  1.00  0.00    +0.000 C 
ATOM     12  C10 UNL A   1      21.138  35.825  44.067  1.00  0.00    +0.000 C 
ATOM     13  C11 UNL A   1      20.413  34.792  44.660  1.00  0.00    +0.000 C 
ATOM     14  C12 UNL A   1      19.830  34.992  45.906  1.00  0.00    +0.000 C 
ATOM     15  F1  UNL A   1      19.117  34.005  46.467  1.00  0.00    +0.000 F 
ATOM     94  H6  UNL A   1      20.734  38.180  46.435  1.00  0.00    +0.000 H 
ATOM     95  H7  UNL A   1      21.777  37.828  44.262  1.00  0.00    +0.000 H 
ATOM     96  H8  UNL A   1      21.590  35.678  43.151  1.00  0.00    +0.000 H 
ENDBRANCH    8    9
ENDBRANCH    3    4
ENDBRANCH    2    3
ENDBRANCH   16    2
ENDBRANCH   17   16
ENDBRANCH   18   17
ENDBRANCH   19   18
ENDBRANCH   20   19
ENDBRANCH   21   20
ENDBRANCH   22   21
ENDBRANCH   23   22
ENDBRANCH   24   23
ENDBRANCH   26   24
ENDBRANCH   30   29
BRANCH   34   35
ATOM     35  C28 UNL A   1      29.696  29.355  48.549  1.00  0.00    +0.000 C 
ATOM     36  C29 UNL A   1      30.865  29.140  47.807  1.00  0.00    +0.000 C 
ATOM     37  F2  UNL A   1      31.186  29.936  46.779  1.00  0.00    +0.000 F 
ATOM     38  C30 UNL A   1      31.784  28.147  48.167  1.00  0.00    +0.000 C 
ATOM     39  F3  UNL A   1      32.911  27.997  47.457  1.00  0.00    +0.000 F 
ATOM     40  C31 UNL A   1      31.577  27.362  49.291  1.00  0.00    +0.000 C 
ATOM     41  F4  UNL A   1      32.508  26.484  49.686  1.00  0.00    +0.000 F 
ATOM     42  C32 UNL A   1      30.414  27.516  50.018  1.00  0.00    +0.000 C 
ATOM     43  F5  UNL A   1      30.210  26.783  51.122  1.00  0.00    +0.000 F 
ATOM     44  C33 UNL A   1      29.475  28.473  49.635  1.00  0.00    +0.000 C 
ATOM     45  F6  UNL A   1      28.365  28.569  50.382  1.00  0.00    +0.000 F 
ENDBRANCH   34   35
BRANCH   51   52
ATOM     52  C39 UNL A   1      30.326  34.347  45.568  1.00  0.00    +0.000 C 
ATOM     53  C40 UNL A   1      29.200  33.959  44.823  1.00  0.00    +0.000 C 
ATOM     54  F7  UNL A   1      28.020  33.785  45.415  1.00  0.00    +0.000 F 
ATOM     55  C41 UNL A   1      29.255  33.737  43.448  1.00  0.00    +0.000 C 
ATOM     56  F8  UNL A   1      28.153  33.351  42.785  1.00  0.00    +0.000 F 
ATOM     57  C42 UNL A   1      30.446  33.909  42.769  1.00  0.00    +0.000 C 
ATOM     58  F9  UNL A   1      30.504  33.696  41.447  1.00  0.00    +0.000 F 
ATOM     59  C43 UNL A   1      31.579  34.287  43.471  1.00  0.00    +0.000 C 
ATOM     60  F10 UNL A   1      32.738  34.450  42.819  1.00  0.00    +0.000 F 
ATOM     61  C44 UNL A   1      31.522  34.498  44.851  1.00  0.00    +0.000 C 
ATOM     62  F11 UNL A   1      32.645  34.858  45.492  1.00  0.00    +0.000 F 
ENDBRANCH   51   52
BRANCH   66   67
ATOM     67  C48 UNL A   1      26.761  39.288  46.410  1.00  0.00    +0.000 C 
ATOM     68  C49 UNL A   1      27.602  40.121  45.618  1.00  0.00    +0.000 C 
ATOM     69  F12 UNL A   1      28.413  39.612  44.682  1.00  0.00    +0.000 F 
ATOM     70  C50 UNL A   1      27.658  41.511  45.749  1.00  0.00    +0.000 C 
ATOM     71  F13 UNL A   1      28.557  42.209  45.040  1.00  0.00    +0.000 F 
ATOM     72  C51 UNL A   1      26.813  42.154  46.619  1.00  0.00    +0.000 C 
ATOM     73  F14 UNL A   1      26.881  43.482  46.774  1.00  0.00    +0.000 F 
ATOM     74  C52 UNL A   1      25.885  41.404  47.314  1.00  0.00    +0.000 C 
ATOM     75  F15 UNL A   1      25.009  42.025  48.118  1.00  0.00    +0.000 F 
ATOM     76  C53 UNL A   1      25.854  40.003  47.206  1.00  0.00    +0.000 C 
ATOM     77  F16 UNL A   1      24.885  39.391  47.889  1.00  0.00    +0.000 F 
ENDBRANCH   66   67
TORSDOF 17
ENDMDL
MODEL 4
REMARK VINA RESULT:     -10.7     21.437     25.814
ROOT
ATOM     30  C24 UNL A   1      25.458  32.834  46.351  1.00  0.00    +0.000 C 
ATOM     31  C25 UNL A   1      26.394  31.782  46.955  1.00  0.00    +0.000 C 
ATOM     32  N4  UNL A   1      27.456  31.928  47.690  1.00  0.00    +0.000 N 
ATOM     33  C26 UNL A   1      28.014  30.648  47.888  1.00  0.00    +0.000 C 
ATOM     34  C27 UNL A   1      29.268  30.439  48.387  1.00  0.00    +0.000 C 
ATOM     46  C34 UNL A   1      29.885  31.670  48.741  1.00  0.00    +0.000 C 
ATOM     47  C35 UNL A   1      29.762  32.492  49.829  1.00  0.00    +0.000 C 
ATOM     48  C36 UNL A   1      30.073  33.779  49.341  1.00  0.00    +0.000 C 
ATOM     49  C37 UNL A   1      30.448  33.684  47.997  1.00  0.00    +0.000 C 
ATOM     50  N5  UNL A   1      30.583  32.335  47.765  1.00  0.00    +0.000 N 
ATOM     51  C38 UNL A   1      30.506  34.576  46.860  1.00  0.00    +0.000 C 
ATOM     63  C45 UNL A   1      30.111  35.859  47.051  1.00  0.00    +0.000 C 
ATOM     64  N6  UNL A   1      29.322  36.479  46.106  1.00  0.00    +0.000 N 
ATOM     65  C46 UNL A   1      28.409  37.056  46.830  1.00  0.00    +0.000 C 
ATOM     66  C47 UNL A   1      27.109  37.535  46.322  1.00  0.00    +0.000 C 
ATOM     78  C54 UNL A   1      26.376  36.407  46.066  1.00  0.00    +0.000 C 
ATOM     79  C55 UNL A   1      25.050  36.316  45.490  1.00  0.00    +0.000 C 
ATOM     80  C56 UNL A   1      24.629  35.039  45.514  1.00  0.00    +0.000 C 
ATOM     81  C57 UNL A   1      25.646  34.165  46.123  1.00  0.00    +0.000 C 
ATOM     82  N7  UNL A   1      26.683  35.050  46.345  1.00  0.00    +0.000 N 
ATOM     83  C58 UNL A   1      28.685  37.146  48.269  1.00  0.00    +0.000 C 
ATOM     84  C59 UNL A   1      29.863  36.533  48.302  1.00  0.00    +0.000 C 
ATOM     85  C60 UNL A   1      27.074  29.705  47.362  1.00  0.00    +0.000 C 
ATOM     86  C61 UNL A   1      26.077  30.343  46.745  1.00  0.00    +0.000 C 
ATOM    114  H26 UNL A   1      29.501  32.229  50.792  1.00  0.00    +0.000 H 
ATOM    115  H27 UNL A   1      30.030  34.652  49.889  1.00  0.00    +0.000 H 
ATOM    116  H28 UNL A   1      31.090  31.920  47.030  1.00  0.00    +0.000 H 
ATOM    117  H29 UNL A   1      24.510  37.112  45.116  1.00  0.00    +0.000 H 
ATOM    118  H30 UNL A   1      23.716  34.716  45.156  1.00  0.00    +0.000 H 
ATOM    119  H31 UNL A   1      27.566  34.762  46.670  1.00  0.00    +0.000 H 
ATOM    120  H32 UNL A   1      28.127  37.563  49.030  1.00  0.00    +0.000 H 
ATOM    121  H33 UNL A   1      30.509  36.538  49.107  1.00  0.00    +0.000 H 
ATOM    122  H34 UNL A   1      27.155  28.680  47.449  1.00  0.00    +0.000 H 
ATOM    123  H35 UNL A   1      25.275  29.934  46.242  1.00  0.00    +0.000 H 
ENDROOT
BRANCH   30   29
ATOM    124  H36 UNL A   1      24.613  32.072  43.908  1.00  0.00    +0.000 H 
ATOM     29  C23 UNL A   1      24.137  32.292  45.960  1.00  0.00    +0.000 C 
ATOM    112  H24 UNL A   1      21.250  31.311  47.341  1.00  0.00    +0.000 H 
ATOM    113  H25 UNL A   1      23.321  32.443  47.908  1.00  0.00    +0.000 H 
ATOM     87  C62 UNL A   1      23.900  31.903  44.634  1.00  0.00    +0.000 C 
ATOM     88  C63 UNL A   1      22.699  31.286  44.308  1.00  0.00    +0.000 C 
ATOM     26  C20 UNL A   1      21.764  31.014  45.311  1.00  0.00    +0.000 C 
ATOM     27  C21 UNL A   1      21.973  31.459  46.620  1.00  0.00    +0.000 C 
ATOM     28  C22 UNL A   1      23.160  32.105  46.946  1.00  0.00    +0.000 C 
ATOM    125  H37 UNL A   1      22.498  31.031  43.328  1.00  0.00    +0.000 H 
BRANCH   26   24
ATOM     25  O2  UNL A   1      20.507  29.062  45.035  1.00  0.00    +0.000 O 
ATOM     24  C19 UNL A   1      20.513  30.280  45.023  1.00  0.00    +0.000 C 
BRANCH   24   23
ATOM    111  H23 UNL A   1      18.675  31.013  45.397  1.00  0.00    +0.000 H 
ATOM     23  N3  UNL A   1      19.369  30.974  44.700  1.00  0.00    +0.000 N 
BRANCH   23   22
ATOM    110  H22 UNL A   1      18.178  31.225  43.039  1.00  0.00    +0.000 H 
ATOM    109  H21 UNL A   1      19.892  31.542  42.782  1.00  0.00    +0.000 H 
ATOM     22  C18 UNL A   1      19.065  31.657  43.453  1.00  0.00    +0.000 C 
BRANCH   22   21
ATOM    107  H19 UNL A   1      19.601  33.693  43.207  1.00  0.00    +0.000 H 
ATOM    108  H20 UNL A   1      17.852  33.360  43.266  1.00  0.00    +0.000 H 
ATOM     21  C17 UNL A   1      18.814  33.143  43.680  1.00  0.00    +0.000 C 
BRANCH   21   20
ATOM    105  H17 UNL A   1      17.883  34.139  45.300  1.00  0.00    +0.000 H 
ATOM    106  H18 UNL A   1      18.780  32.628  45.700  1.00  0.00    +0.000 H 
ATOM     20  C16 UNL A   1      18.764  33.549  45.155  1.00  0.00    +0.000 C 
BRANCH   20   19
ATOM     19  C15 UNL A   1      19.951  34.352  45.688  1.00  0.00    +0.000 C 
ATOM    103  H15 UNL A   1      19.580  35.296  46.030  1.00  0.00    +0.000 H 
ATOM    104  H16 UNL A   1      20.385  33.746  46.456  1.00  0.00    +0.000 H 
BRANCH   19   18
ATOM     18  C14 UNL A   1      21.084  34.627  44.694  1.00  0.00    +0.000 C 
ATOM    101  H13 UNL A   1      21.996  34.282  45.135  1.00  0.00    +0.000 H 
ATOM    102  H14 UNL A   1      20.807  34.114  43.797  1.00  0.00    +0.000 H 
BRANCH   18   17
ATOM     17  C13 UNL A   1      21.286  36.086  44.286  1.00  0.00    +0.000 C 
ATOM     99  H11 UNL A   1      22.336  36.269  44.200  1.00  0.00    +0.000 H 
ATOM    100  H12 UNL A   1      20.766  36.221  43.360  1.00  0.00    +0.000 H 
BRANCH   17   16
ATOM     98  H10 UNL A   1      19.755  37.131  45.320  1.00  0.00    +0.000 H 
ATOM     16  N2  UNL A   1      20.730  37.044  45.222  1.00  0.00    +0.000 N 
BRANCH   16    2
ATOM      1  O1  UNL A   1      22.560  38.409  45.508  1.00  0.00    +0.000 O 
ATOM      2  C1  UNL A   1      21.580  37.836  45.978  1.00  0.00    +0.000 C 
BRANCH    2    3
ATOM     89  H1  UNL A   1      20.239  38.208  47.548  1.00  0.00    +0.000 H 
ATOM     90  H2  UNL A   1      21.992  38.533  47.873  1.00  0.00    +0.000 H 
ATOM      3  C2  UNL A   1      21.254  37.881  47.456  1.00  0.00    +0.000 C 
BRANCH    3    4
ATOM      4  C3  UNL A   1      21.387  36.607  48.247  1.00  0.00    +0.000 C 
ATOM      5  C4  UNL A   1      22.532  35.818  48.300  1.00  0.00    +0.000 C 
ATOM      6  C5  UNL A   1      22.323  34.775  49.222  1.00  0.00    +0.000 C 
ATOM      7  C6  UNL A   1      21.055  34.938  49.723  1.00  0.00    +0.000 C 
ATOM      8  N1  UNL A   1      20.473  36.038  49.126  1.00  0.00    +0.000 N 
ATOM     91  H3  UNL A   1      23.394  35.975  47.753  1.00  0.00    +0.000 H 
ATOM     92  H4  UNL A   1      22.991  34.029  49.471  1.00  0.00    +0.000 H 
ATOM     93  H5  UNL A   1      20.610  34.337  50.433  1.00  0.00    +0.000 H 
BRANCH    8    9
ATOM     97  H9  UNL A   1      17.287  38.531  51.108  1.00  0.00    +0.000 H 
ATOM      9  C7  UNL A   1      19.129  36.369  49.338  1.00  0.00    +0.000 C 
ATOM     10  C8  UNL A   1      18.126  35.770  48.576  1.00  0.00    +0.000 C 
ATOM     11  C9  UNL A   1      16.801  36.164  48.779  1.00  0.00    +0.000 C 
ATOM     12  C10 UNL A   1      16.491  37.158  49.713  1.00  0.00    +0.000 C 
ATOM     13  C11 UNL A   1      17.511  37.782  50.433  1.00  0.00    +0.000 C 
ATOM     14  C12 UNL A   1      18.829  37.389  50.234  1.00  0.00    +0.000 C 
ATOM     15  F1  UNL A   1      19.810  38.002  50.911  1.00  0.00    +0.000 F 
ATOM     94  H6  UNL A   1      18.359  35.050  47.875  1.00  0.00    +0.000 H 
ATOM     95  H7  UNL A   1      16.044  35.718  48.236  1.00  0.00    +0.000 H 
ATOM     96  H8  UNL A   1      15.508  37.431  49.870  1.00  0.00    +0.000 H 
ENDBRANCH    8    9
ENDBRANCH    3    4
ENDBRANCH    2    3
ENDBRANCH   16    2
ENDBRANCH   17   16
ENDBRANCH   18   17
ENDBRANCH   19   18
ENDBRANCH   20   19
ENDBRANCH   21   20
ENDBRANCH   22   21
ENDBRANCH   23   22
ENDBRANCH   24   23
ENDBRANCH   26   24
ENDBRANCH   30   29
BRANCH   34   35
ATOM     35  C28 UNL A   1      30.114  29.198  48.458  1.00  0.00    +0.000 C 
ATOM     36  C29 UNL A   1      31.262  29.001  47.679  1.00  0.00    +0.000 C 
ATOM     37  F2  UNL A   1      31.529  29.793  46.633  1.00  0.00    +0.000 F 
ATOM     38  C30 UNL A   1      32.217  28.035  48.019  1.00  0.00    +0.000 C 
ATOM     39  F3  UNL A   1      33.322  27.903  47.272  1.00  0.00    +0.000 F 
ATOM     40  C31 UNL A   1      32.067  27.258  49.157  1.00  0.00    +0.000 C 
ATOM     41  F4  UNL A   1      33.031  26.407  49.530  1.00  0.00    +0.000 F 
ATOM     42  C32 UNL A   1      30.925  27.392  49.922  1.00  0.00    +0.000 C 
ATOM     43  F5  UNL A   1      30.777  26.668  51.040  1.00  0.00    +0.000 F 
ATOM     44  C33 UNL A   1      29.952  28.323  49.561  1.00  0.00    +0.000 C 
ATOM     45  F6  UNL A   1      28.865  28.401  50.345  1.00  0.00    +0.000 F 
ENDBRANCH   34   35
BRANCH   51   52
ATOM     52  C39 UNL A   1      30.521  34.167  45.403  1.00  0.00    +0.000 C 
ATOM     53  C40 UNL A   1      29.373  33.781  44.690  1.00  0.00    +0.000 C 
ATOM     54  F7  UNL A   1      28.208  33.622  45.315  1.00  0.00    +0.000 F 
ATOM     55  C41 UNL A   1      29.392  33.543  43.317  1.00  0.00    +0.000 C 
ATOM     56  F8  UNL A   1      28.270  33.159  42.687  1.00  0.00    +0.000 F 
ATOM     57  C42 UNL A   1      30.566  33.698  42.606  1.00  0.00    +0.000 C 
ATOM     58  F9  UNL A   1      30.588  33.472  41.286  1.00  0.00    +0.000 F 
ATOM     59  C43 UNL A   1      31.719  34.075  43.275  1.00  0.00    +0.000 C 
ATOM     60  F10 UNL A   1      32.862  34.222  42.592  1.00  0.00    +0.000 F 
ATOM     61  C44 UNL A   1      31.700  34.301  44.654  1.00  0.00    +0.000 C 
ATOM     62  F11 UNL A   1      32.841  34.658  45.262  1.00  0.00    +0.000 F 
ENDBRANCH   51   52
BRANCH   66   67
ATOM     67  C48 UNL A   1      26.869  39.032  46.313  1.00  0.00    +0.000 C 
ATOM     68  C49 UNL A   1      27.728  39.887  45.564  1.00  0.00    +0.000 C 
ATOM     69  F12 UNL A   1      28.598  39.398  44.670  1.00  0.00    +0.000 F 
ATOM     70  C50 UNL A   1      27.745  41.277  45.698  1.00  0.00    +0.000 C 
ATOM     71  F13 UNL A   1      28.660  41.998  45.036  1.00  0.00    +0.000 F 
ATOM     72  C51 UNL A   1      26.841  41.898  46.526  1.00  0.00    +0.000 C 
ATOM     73  F14 UNL A   1      26.869  43.227  46.685  1.00  0.00    +0.000 F 
ATOM     74  C52 UNL A   1      25.898  41.125  47.173  1.00  0.00    +0.000 C 
ATOM     75  F15 UNL A   1      24.968  41.723  47.932  1.00  0.00    +0.000 F 
ATOM     76  C53 UNL A   1      25.906  39.723  47.062  1.00  0.00    +0.000 C 
ATOM     77  F16 UNL A   1      24.919  39.087  47.696  1.00  0.00    +0.000 F 
ENDBRANCH   66   67
TORSDOF 17
ENDMDL
MODEL 5
REMARK VINA RESULT:     -10.6     21.345     25.169
ROOT
ATOM     30  C24 UNL A   1      25.207  33.276  46.218  1.00  0.00    +0.000 C 
ATOM     31  C25 UNL A   1      26.040  32.176  46.887  1.00  0.00    +0.000 C 
ATOM     32  N4  UNL A   1      27.036  32.267  47.715  1.00  0.00    +0.000 N 
ATOM     33  C26 UNL A   1      27.519  30.961  47.943  1.00  0.00    +0.000 C 
ATOM     34  C27 UNL A   1      28.713  30.690  48.547  1.00  0.00    +0.000 C 
ATOM     46  C34 UNL A   1      29.349  31.889  48.974  1.00  0.00    +0.000 C 
ATOM     47  C35 UNL A   1      29.165  32.703  50.059  1.00  0.00    +0.000 C 
ATOM     48  C36 UNL A   1      29.574  33.979  49.620  1.00  0.00    +0.000 C 
ATOM     49  C37 UNL A   1      30.062  33.884  48.314  1.00  0.00    +0.000 C 
ATOM     50  N5  UNL A   1      30.159  32.532  48.074  1.00  0.00    +0.000 N 
ATOM     51  C38 UNL A   1      30.261  34.784  47.199  1.00  0.00    +0.000 C 
ATOM     63  C45 UNL A   1      29.907  36.082  47.374  1.00  0.00    +0.000 C 
ATOM     64  N6  UNL A   1      29.233  36.747  46.372  1.00  0.00    +0.000 N 
ATOM     65  C46 UNL A   1      28.285  37.356  47.021  1.00  0.00    +0.000 C 
ATOM     66  C47 UNL A   1      27.058  37.898  46.408  1.00  0.00    +0.000 C 
ATOM     78  C54 UNL A   1      26.302  36.808  46.071  1.00  0.00    +0.000 C 
ATOM     79  C55 UNL A   1      25.030  36.782  45.378  1.00  0.00    +0.000 C 
ATOM     80  C56 UNL A   1      24.553  35.525  45.345  1.00  0.00    +0.000 C 
ATOM     81  C57 UNL A   1      25.473  34.599  46.028  1.00  0.00    +0.000 C 
ATOM     82  N7  UNL A   1      26.523  35.435  46.355  1.00  0.00    +0.000 N 
ATOM     83  C58 UNL A   1      28.435  37.418  48.480  1.00  0.00    +0.000 C 
ATOM     84  C59 UNL A   1      29.578  36.752  48.609  1.00  0.00    +0.000 C 
ATOM     85  C60 UNL A   1      26.589  30.067  47.321  1.00  0.00    +0.000 C 
ATOM     86  C61 UNL A   1      25.680  30.755  46.627  1.00  0.00    +0.000 C 
ATOM    114  H26 UNL A   1      28.807  32.441  50.991  1.00  0.00    +0.000 H 
ATOM    115  H27 UNL A   1      29.520  34.848  50.175  1.00  0.00    +0.000 H 
ATOM    116  H28 UNL A   1      30.711  32.104  47.380  1.00  0.00    +0.000 H 
ATOM    117  H29 UNL A   1      24.561  37.606  44.970  1.00  0.00    +0.000 H 
ATOM    118  H30 UNL A   1      23.662  35.248  44.902  1.00  0.00    +0.000 H 
ATOM    119  H31 UNL A   1      27.361  35.104  46.753  1.00  0.00    +0.000 H 
ATOM    120  H32 UNL A   1      27.830  37.850  49.196  1.00  0.00    +0.000 H 
ATOM    121  H33 UNL A   1      30.149  36.719  49.468  1.00  0.00    +0.000 H 
ATOM    122  H34 UNL A   1      26.617  29.038  47.399  1.00  0.00    +0.000 H 
ATOM    123  H35 UNL A   1      24.909  30.389  46.049  1.00  0.00    +0.000 H 
ENDROOT
BRANCH   30   29
ATOM    124  H36 UNL A   1      22.962  32.713  47.599  1.00  0.00    +0.000 H 
ATOM     29  C23 UNL A   1      23.904  32.798  45.703  1.00  0.00    +0.000 C 
ATOM    112  H24 UNL A   1      22.356  32.182  42.800  1.00  0.00    +0.000 H 
ATOM    113  H25 UNL A   1      24.553  32.704  43.690  1.00  0.00    +0.000 H 
ATOM     87  C62 UNL A   1      22.829  32.606  46.581  1.00  0.00    +0.000 C 
ATOM     88  C63 UNL A   1      21.581  32.274  46.070  1.00  0.00    +0.000 C 
ATOM     26  C20 UNL A   1      21.399  32.184  44.686  1.00  0.00    +0.000 C 
ATOM     27  C21 UNL A   1      22.487  32.312  43.815  1.00  0.00    +0.000 C 
ATOM     28  C22 UNL A   1      23.744  32.615  44.324  1.00  0.00    +0.000 C 
ATOM    125  H37 UNL A   1      20.790  32.091  46.709  1.00  0.00    +0.000 H 
BRANCH   26   24
ATOM     25  O2  UNL A   1      19.341  32.852  43.801  1.00  0.00    +0.000 O 
ATOM     24  C19 UNL A   1      20.070  31.921  44.097  1.00  0.00    +0.000 C 
BRANCH   24   23
ATOM    111  H23 UNL A   1      20.109  30.103  43.229  1.00  0.00    +0.000 H 
ATOM     23  N3  UNL A   1      19.641  30.625  43.921  1.00  0.00    +0.000 N 
BRANCH   23   22
ATOM    110  H22 UNL A   1      18.481  30.381  45.605  1.00  0.00    +0.000 H 
ATOM    109  H21 UNL A   1      18.836  28.898  44.724  1.00  0.00    +0.000 H 
ATOM     22  C18 UNL A   1      18.581  29.934  44.638  1.00  0.00    +0.000 C 
BRANCH   22   21
ATOM    107  H19 UNL A   1      16.692  30.855  44.361  1.00  0.00    +0.000 H 
ATOM    108  H20 UNL A   1      17.472  30.241  42.882  1.00  0.00    +0.000 H 
ATOM     21  C17 UNL A   1      17.247  30.058  43.911  1.00  0.00    +0.000 C 
BRANCH   21   20
ATOM    105  H17 UNL A   1      16.637  28.264  44.857  1.00  0.00    +0.000 H 
ATOM    106  H18 UNL A   1      15.378  29.132  43.902  1.00  0.00    +0.000 H 
ATOM     20  C16 UNL A   1      16.391  28.789  43.958  1.00  0.00    +0.000 C 
BRANCH   20   19
ATOM     19  C15 UNL A   1      16.548  27.811  42.793  1.00  0.00    +0.000 C 
ATOM    103  H15 UNL A   1      16.814  28.377  41.925  1.00  0.00    +0.000 H 
ATOM    104  H16 UNL A   1      17.294  27.110  43.107  1.00  0.00    +0.000 H 
BRANCH   19   18
ATOM     18  C14 UNL A   1      15.316  26.970  42.443  1.00  0.00    +0.000 C 
ATOM    101  H13 UNL A   1      14.463  27.616  42.467  1.00  0.00    +0.000 H 
ATOM    102  H14 UNL A   1      15.523  26.548  41.482  1.00  0.00    +0.000 H 
BRANCH   18   17
ATOM     17  C13 UNL A   1      15.026  25.780  43.358  1.00  0.00    +0.000 C 
ATOM     99  H11 UNL A   1      15.462  24.907  42.922  1.00  0.00    +0.000 H 
ATOM    100  H12 UNL A   1      15.445  26.017  44.313  1.00  0.00    +0.000 H 
BRANCH   17   16
ATOM     98  H10 UNL A   1      13.128  26.005  44.280  1.00  0.00    +0.000 H 
ATOM     16  N2  UNL A   1      13.614  25.529  43.570  1.00  0.00    +0.000 N 
BRANCH   16    2
ATOM      1  O1  UNL A   1      11.772  24.734  42.443  1.00  0.00    +0.000 O 
ATOM      2  C1  UNL A   1      12.952  24.615  42.766  1.00  0.00    +0.000 C 
BRANCH    2    3
ATOM     89  H1  UNL A   1      13.243  22.538  42.705  1.00  0.00    +0.000 H 
ATOM     90  H2  UNL A   1      14.727  23.569  42.834  1.00  0.00    +0.000 H 
ATOM      3  C2  UNL A   1      13.775  23.405  42.374  1.00  0.00    +0.000 C 
BRANCH    3    4
ATOM      4  C3  UNL A   1      14.090  23.209  40.915  1.00  0.00    +0.000 C 
ATOM      5  C4  UNL A   1      14.766  24.126  40.116  1.00  0.00    +0.000 C 
ATOM      6  C5  UNL A   1      14.973  23.554  38.846  1.00  0.00    +0.000 C 
ATOM      7  C6  UNL A   1      14.425  22.296  38.884  1.00  0.00    +0.000 C 
ATOM      8  N1  UNL A   1      13.873  22.083  40.130  1.00  0.00    +0.000 N 
ATOM     91  H3  UNL A   1      15.067  25.069  40.408  1.00  0.00    +0.000 H 
ATOM     92  H4  UNL A   1      15.444  23.996  38.040  1.00  0.00    +0.000 H 
ATOM     93  H5  UNL A   1      14.428  21.618  38.106  1.00  0.00    +0.000 H 
BRANCH    8    9
ATOM     97  H9  UNL A   1      10.105  19.640  39.765  1.00  0.00    +0.000 H 
ATOM      9  C7  UNL A   1      13.119  20.938  40.419  1.00  0.00    +0.000 C 
ATOM     10  C8  UNL A   1      13.698  19.866  41.097  1.00  0.00    +0.000 C 
ATOM     11  C9  UNL A   1      12.932  18.718  41.321  1.00  0.00    +0.000 C 
ATOM     12  C10 UNL A   1      11.617  18.641  40.850  1.00  0.00    +0.000 C 
ATOM     13  C11 UNL A   1      11.069  19.703  40.131  1.00  0.00    +0.000 C 
ATOM     14  C12 UNL A   1      11.829  20.845  39.910  1.00  0.00    +0.000 C 
ATOM     15  F1  UNL A   1      11.308  21.858  39.203  1.00  0.00    +0.000 F 
ATOM     94  H6  UNL A   1      14.674  19.918  41.428  1.00  0.00    +0.000 H 
ATOM     95  H7  UNL A   1      13.339  17.923  41.838  1.00  0.00    +0.000 H 
ATOM     96  H8  UNL A   1      11.052  17.797  41.035  1.00  0.00    +0.000 H 
ENDBRANCH    8    9
ENDBRANCH    3    4
ENDBRANCH    2    3
ENDBRANCH   16    2
ENDBRANCH   17   16
ENDBRANCH   18   17
ENDBRANCH   19   18
ENDBRANCH   20   19
ENDBRANCH   21   20
ENDBRANCH   22   21
ENDBRANCH   23   22
ENDBRANCH   24   23
ENDBRANCH   26   24
ENDBRANCH   30   29
BRANCH   34   35
ATOM     35  C28 UNL A   1      29.495  29.411  48.674  1.00  0.00    +0.000 C 
ATOM     36  C29 UNL A   1      30.687  29.165  47.981  1.00  0.00    +0.000 C 
ATOM     37  F2  UNL A   1      31.066  29.946  46.962  1.00  0.00    +0.000 F 
ATOM     38  C30 UNL A   1      31.569  28.156  48.386  1.00  0.00    +0.000 C 
ATOM     39  F3  UNL A   1      32.720  27.975  47.722  1.00  0.00    +0.000 F 
ATOM     40  C31 UNL A   1      31.300  27.384  49.505  1.00  0.00    +0.000 C 
ATOM     41  F4  UNL A   1      32.194  26.489  49.945  1.00  0.00    +0.000 F 
ATOM     42  C32 UNL A   1      30.112  27.568  50.184  1.00  0.00    +0.000 C 
ATOM     43  F5  UNL A   1      29.848  26.849  51.284  1.00  0.00    +0.000 F 
ATOM     44  C33 UNL A   1      29.211  28.543  49.757  1.00  0.00    +0.000 C 
ATOM     45  F6  UNL A   1      28.073  28.669  50.458  1.00  0.00    +0.000 F 
ENDBRANCH   34   35
BRANCH   51   52
ATOM     52  C39 UNL A   1      30.388  34.392  45.743  1.00  0.00    +0.000 C 
ATOM     53  C40 UNL A   1      29.302  33.991  44.947  1.00  0.00    +0.000 C 
ATOM     54  F7  UNL A   1      28.099  33.804  45.485  1.00  0.00    +0.000 F 
ATOM     55  C41 UNL A   1      29.423  33.769  43.576  1.00  0.00    +0.000 C 
ATOM     56  F8  UNL A   1      28.357  33.371  42.864  1.00  0.00    +0.000 F 
ATOM     57  C42 UNL A   1      30.642  33.955  42.953  1.00  0.00    +0.000 C 
ATOM     58  F9  UNL A   1      30.763  33.743  41.635  1.00  0.00    +0.000 F 
ATOM     59  C43 UNL A   1      31.737  34.347  43.706  1.00  0.00    +0.000 C 
ATOM     60  F10 UNL A   1      32.923  34.523  43.108  1.00  0.00    +0.000 F 
ATOM     61  C44 UNL A   1      31.614  34.557  45.082  1.00  0.00    +0.000 C 
ATOM     62  F11 UNL A   1      32.702  34.930  45.774  1.00  0.00    +0.000 F 
ENDBRANCH   51   52
BRANCH   66   67
ATOM     67  C48 UNL A   1      26.885  39.405  46.400  1.00  0.00    +0.000 C 
ATOM     68  C49 UNL A   1      27.744  40.216  45.605  1.00  0.00    +0.000 C 
ATOM     69  F12 UNL A   1      28.547  39.685  44.673  1.00  0.00    +0.000 F 
ATOM     70  C50 UNL A   1      27.829  41.605  45.729  1.00  0.00    +0.000 C 
ATOM     71  F13 UNL A   1      28.743  42.281  45.019  1.00  0.00    +0.000 F 
ATOM     72  C51 UNL A   1      26.995  42.270  46.595  1.00  0.00    +0.000 C 
ATOM     73  F14 UNL A   1      27.090  43.597  46.744  1.00  0.00    +0.000 F 
ATOM     74  C52 UNL A   1      26.051  41.543  47.292  1.00  0.00    +0.000 C 
ATOM     75  F15 UNL A   1      25.186  42.186  48.090  1.00  0.00    +0.000 F 
ATOM     76  C53 UNL A   1      25.991  40.142  47.190  1.00  0.00    +0.000 C 
ATOM     77  F16 UNL A   1      25.009  39.554  47.875  1.00  0.00    +0.000 F 
ENDBRANCH   66   67
TORSDOF 17
ENDMDL
MODEL 6
REMARK VINA RESULT:     -10.6      4.193      9.285
ROOT
ATOM     30  C24 UNL A   1      40.014  29.293  29.430  1.00  0.00    +0.000 C 
ATOM     31  C25 UNL A   1      38.809  30.237  29.356  1.00  0.00    +0.000 C 
ATOM     32  N4  UNL A   1      38.749  31.530  29.468  1.00  0.00    +0.000 N 
ATOM     33  C26 UNL A   1      37.387  31.896  29.434  1.00  0.00    +0.000 C 
ATOM     34  C27 UNL A   1      36.927  33.133  29.784  1.00  0.00    +0.000 C 
ATOM     46  C34 UNL A   1      38.006  34.003  30.107  1.00  0.00    +0.000 C 
ATOM     47  C35 UNL A   1      38.883  34.720  29.339  1.00  0.00    +0.000 C 
ATOM     48  C36 UNL A   1      40.045  34.828  30.131  1.00  0.00    +0.000 C 
ATOM     49  C37 UNL A   1      39.809  34.242  31.378  1.00  0.00    +0.000 C 
ATOM     50  N5  UNL A   1      38.454  34.004  31.403  1.00  0.00    +0.000 N 
ATOM     51  C38 UNL A   1      40.614  33.689  32.445  1.00  0.00    +0.000 C 
ATOM     63  C45 UNL A   1      41.959  33.695  32.281  1.00  0.00    +0.000 C 
ATOM     64  N6  UNL A   1      42.696  32.585  32.632  1.00  0.00    +0.000 N 
ATOM     65  C46 UNL A   1      43.494  32.437  31.615  1.00  0.00    +0.000 C 
ATOM     66  C47 UNL A   1      44.226  31.198  31.291  1.00  0.00    +0.000 C 
ATOM     78  C54 UNL A   1      43.279  30.318  30.839  1.00  0.00    +0.000 C 
ATOM     79  C55 UNL A   1      43.458  28.934  30.452  1.00  0.00    +0.000 C 
ATOM     80  C56 UNL A   1      42.309  28.448  29.950  1.00  0.00    +0.000 C 
ATOM     81  C57 UNL A   1      41.259  29.481  29.954  1.00  0.00    +0.000 C 
ATOM     82  N7  UNL A   1      41.901  30.534  30.576  1.00  0.00    +0.000 N 
ATOM     83  C58 UNL A   1      43.585  33.576  30.693  1.00  0.00    +0.000 C 
ATOM     84  C59 UNL A   1      42.727  34.402  31.284  1.00  0.00    +0.000 C 
ATOM     85  C60 UNL A   1      36.654  30.713  29.095  1.00  0.00    +0.000 C 
ATOM     86  C61 UNL A   1      37.469  29.657  29.070  1.00  0.00    +0.000 C 
ATOM    114  H26 UNL A   1      38.727  35.098  28.391  1.00  0.00    +0.000 H 
ATOM    115  H27 UNL A   1      40.930  35.270  29.836  1.00  0.00    +0.000 H 
ATOM    116  H28 UNL A   1      37.905  33.859  32.207  1.00  0.00    +0.000 H 
ATOM    117  H29 UNL A   1      44.336  28.401  30.548  1.00  0.00    +0.000 H 
ATOM    118  H30 UNL A   1      42.181  27.482  29.609  1.00  0.00    +0.000 H 
ATOM    119  H31 UNL A   1      41.439  31.369  30.817  1.00  0.00    +0.000 H 
ATOM    120  H32 UNL A   1      44.149  33.699  29.837  1.00  0.00    +0.000 H 
ATOM    121  H33 UNL A   1      42.625  35.405  31.062  1.00  0.00    +0.000 H 
ATOM    122  H34 UNL A   1      35.641  30.683  28.899  1.00  0.00    +0.000 H 
ATOM    123  H35 UNL A   1      37.226  28.670  28.893  1.00  0.00    +0.000 H 
ENDROOT
BRANCH   30   29
ATOM    124  H36 UNL A   1      40.498  28.482  26.905  1.00  0.00    +0.000 H 
ATOM     29  C23 UNL A   1      39.762  27.966  28.824  1.00  0.00    +0.000 C 
ATOM    112  H24 UNL A   1      38.732  24.900  29.685  1.00  0.00    +0.000 H 
ATOM    113  H25 UNL A   1      38.904  27.151  30.579  1.00  0.00    +0.000 H 
ATOM     87  C62 UNL A   1      40.131  27.718  27.494  1.00  0.00    +0.000 C 
ATOM     88  C63 UNL A   1      39.998  26.436  26.977  1.00  0.00    +0.000 C 
ATOM     26  C20 UNL A   1      39.549  25.399  27.799  1.00  0.00    +0.000 C 
ATOM     27  C21 UNL A   1      39.121  25.660  29.106  1.00  0.00    +0.000 C 
ATOM     28  C22 UNL A   1      39.223  26.948  29.619  1.00  0.00    +0.000 C 
ATOM    125  H37 UNL A   1      40.229  26.250  25.987  1.00  0.00    +0.000 H 
BRANCH   26   24
ATOM     25  O2  UNL A   1      40.232  23.163  27.772  1.00  0.00    +0.000 O 
ATOM     24  C19 UNL A   1      39.478  24.004  27.315  1.00  0.00    +0.000 C 
BRANCH   24   23
ATOM    111  H23 UNL A   1      38.036  24.401  25.966  1.00  0.00    +0.000 H 
ATOM     23  N3  UNL A   1      38.589  23.667  26.320  1.00  0.00    +0.000 N 
BRANCH   23   22
ATOM    110  H22 UNL A   1      38.331  21.633  26.517  1.00  0.00    +0.000 H 
ATOM    109  H21 UNL A   1      39.174  22.140  25.055  1.00  0.00    +0.000 H 
ATOM     22  C18 UNL A   1      38.370  22.357  25.729  1.00  0.00    +0.000 C 
BRANCH   22   21
ATOM    107  H19 UNL A   1      37.261  22.006  23.957  1.00  0.00    +0.000 H 
ATOM    108  H20 UNL A   1      36.424  21.610  25.478  1.00  0.00    +0.000 H 
ATOM     21  C17 UNL A   1      37.053  22.305  24.964  1.00  0.00    +0.000 C 
BRANCH   21   20
ATOM    105  H17 UNL A   1      36.979  24.403  25.242  1.00  0.00    +0.000 H 
ATOM    106  H18 UNL A   1      35.957  23.736  23.916  1.00  0.00    +0.000 H 
ATOM     20  C16 UNL A   1      36.301  23.638  24.924  1.00  0.00    +0.000 C 
BRANCH   20   19
ATOM     19  C15 UNL A   1      35.045  23.744  25.790  1.00  0.00    +0.000 C 
ATOM    103  H15 UNL A   1      35.293  23.391  26.769  1.00  0.00    +0.000 H 
ATOM    104  H16 UNL A   1      34.758  24.774  25.753  1.00  0.00    +0.000 H 
BRANCH   19   18
ATOM     18  C14 UNL A   1      33.821  22.960  25.307  1.00  0.00    +0.000 C 
ATOM    101  H13 UNL A   1      33.455  23.438  24.422  1.00  0.00    +0.000 H 
ATOM    102  H14 UNL A   1      34.166  21.958  25.156  1.00  0.00    +0.000 H 
BRANCH   18   17
ATOM     17  C13 UNL A   1      32.657  22.848  26.291  1.00  0.00    +0.000 C 
ATOM     99  H11 UNL A   1      31.893  22.250  25.842  1.00  0.00    +0.000 H 
ATOM    100  H12 UNL A   1      33.051  22.411  27.185  1.00  0.00    +0.000 H 
BRANCH   17   16
ATOM     98  H10 UNL A   1      32.647  24.835  27.037  1.00  0.00    +0.000 H 
ATOM     16  N2  UNL A   1      32.077  24.123  26.668  1.00  0.00    +0.000 N 
BRANCH   16    2
ATOM      1  O1  UNL A   1      29.866  23.510  26.836  1.00  0.00    +0.000 O 
ATOM      2  C1  UNL A   1      30.718  24.332  26.505  1.00  0.00    +0.000 C 
BRANCH    2    3
ATOM     89  H1  UNL A   1      30.435  26.411  26.537  1.00  0.00    +0.000 H 
ATOM     90  H2  UNL A   1      29.378  25.458  25.415  1.00  0.00    +0.000 H 
ATOM      3  C2  UNL A   1      30.357  25.629  25.810  1.00  0.00    +0.000 C 
BRANCH    3    4
ATOM      4  C3  UNL A   1      31.177  26.042  24.617  1.00  0.00    +0.000 C 
ATOM      5  C4  UNL A   1      31.230  25.352  23.410  1.00  0.00    +0.000 C 
ATOM      6  C5  UNL A   1      32.007  26.091  22.498  1.00  0.00    +0.000 C 
ATOM      7  C6  UNL A   1      32.417  27.224  23.156  1.00  0.00    +0.000 C 
ATOM      8  N1  UNL A   1      31.932  27.196  24.447  1.00  0.00    +0.000 N 
ATOM     91  H3  UNL A   1      30.773  24.447  23.216  1.00  0.00    +0.000 H 
ATOM     92  H4  UNL A   1      32.229  25.831  21.524  1.00  0.00    +0.000 H 
ATOM     93  H5  UNL A   1      32.995  27.977  22.749  1.00  0.00    +0.000 H 
BRANCH    8    9
ATOM     97  H9  UNL A   1      34.653  28.650  27.731  1.00  0.00    +0.000 H 
ATOM      9  C7  UNL A   1      32.305  28.155  25.398  1.00  0.00    +0.000 C 
ATOM     10  C8  UNL A   1      31.655  29.388  25.448  1.00  0.00    +0.000 C 
ATOM     11  C9  UNL A   1      32.089  30.340  26.375  1.00  0.00    +0.000 C 
ATOM     12  C10 UNL A   1      33.171  30.066  27.219  1.00  0.00    +0.000 C 
ATOM     13  C11 UNL A   1      33.841  28.847  27.123  1.00  0.00    +0.000 C 
ATOM     14  C12 UNL A   1      33.409  27.898  26.204  1.00  0.00    +0.000 C 
ATOM     15  F1  UNL A   1      34.064  26.734  26.099  1.00  0.00    +0.000 F 
ATOM     94  H6  UNL A   1      30.869  29.593  24.812  1.00  0.00    +0.000 H 
ATOM     95  H7  UNL A   1      31.608  31.251  26.438  1.00  0.00    +0.000 H 
ATOM     96  H8  UNL A   1      33.474  30.768  27.913  1.00  0.00    +0.000 H 
ENDBRANCH    8    9
ENDBRANCH    3    4
ENDBRANCH    2    3
ENDBRANCH   16    2
ENDBRANCH   17   16
ENDBRANCH   18   17
ENDBRANCH   19   18
ENDBRANCH   20   19
ENDBRANCH   21   20
ENDBRANCH   22   21
ENDBRANCH   23   22
ENDBRANCH   24   23
ENDBRANCH   26   24
ENDBRANCH   30   29
BRANCH   34   35
ATOM     35  C28 UNL A   1      35.534  33.641  30.032  1.00  0.00    +0.000 C 
ATOM     36  C29 UNL A   1      34.969  33.751  31.309  1.00  0.00    +0.000 C 
ATOM     37  F2  UNL A   1      35.539  33.163  32.368  1.00  0.00    +0.000 F 
ATOM     38  C30 UNL A   1      33.845  34.554  31.542  1.00  0.00    +0.000 C 
ATOM     39  F3  UNL A   1      33.357  34.666  32.785  1.00  0.00    +0.000 F 
ATOM     40  C31 UNL A   1      33.272  35.288  30.515  1.00  0.00    +0.000 C 
ATOM     41  F4  UNL A   1      32.260  36.130  30.765  1.00  0.00    +0.000 F 
ATOM     42  C32 UNL A   1      33.774  35.167  29.235  1.00  0.00    +0.000 C 
ATOM     43  F5  UNL A   1      33.249  35.890  28.236  1.00  0.00    +0.000 F 
ATOM     44  C33 UNL A   1      34.866  34.334  28.992  1.00  0.00    +0.000 C 
ATOM     45  F6  UNL A   1      35.302  34.258  27.725  1.00  0.00    +0.000 F 
ENDBRANCH   34   35
BRANCH   51   52
ATOM     52  C39 UNL A   1      40.147  32.713  33.503  1.00  0.00    +0.000 C 
ATOM     53  C40 UNL A   1      40.183  32.984  34.882  1.00  0.00    +0.000 C 
ATOM     54  F7  UNL A   1      40.770  34.086  35.342  1.00  0.00    +0.000 F 
ATOM     55  C41 UNL A   1      39.621  32.126  35.826  1.00  0.00    +0.000 C 
ATOM     56  F8  UNL A   1      39.699  32.423  37.133  1.00  0.00    +0.000 F 
ATOM     57  C42 UNL A   1      38.988  30.968  35.415  1.00  0.00    +0.000 C 
ATOM     58  F9  UNL A   1      38.446  30.142  36.319  1.00  0.00    +0.000 F 
ATOM     59  C43 UNL A   1      38.935  30.667  34.064  1.00  0.00    +0.000 C 
ATOM     60  F10 UNL A   1      38.327  29.543  33.661  1.00  0.00    +0.000 F 
ATOM     61  C44 UNL A   1      39.510  31.523  33.122  1.00  0.00    +0.000 C 
ATOM     62  F11 UNL A   1      39.441  31.188  31.824  1.00  0.00    +0.000 F 
ENDBRANCH   51   52
BRANCH   66   67
ATOM     67  C48 UNL A   1      45.737  31.225  31.413  1.00  0.00    +0.000 C 
ATOM     68  C49 UNL A   1      46.345  31.436  32.684  1.00  0.00    +0.000 C 
ATOM     69  F12 UNL A   1      45.638  31.372  33.820  1.00  0.00    +0.000 F 
ATOM     70  C50 UNL A   1      47.700  31.730  32.853  1.00  0.00    +0.000 C 
ATOM     71  F13 UNL A   1      48.169  32.023  34.074  1.00  0.00    +0.000 F 
ATOM     72  C51 UNL A   1      48.542  31.742  31.767  1.00  0.00    +0.000 C 
ATOM     73  F14 UNL A   1      49.836  32.052  31.915  1.00  0.00    +0.000 F 
ATOM     74  C52 UNL A   1      48.028  31.411  30.529  1.00  0.00    +0.000 C 
ATOM     75  F15 UNL A   1      48.850  31.354  29.472  1.00  0.00    +0.000 F 
ATOM     76  C53 UNL A   1      46.657  31.150  30.358  1.00  0.00    +0.000 C 
ATOM     77  F16 UNL A   1      46.285  30.798  29.125  1.00  0.00    +0.000 F 
ENDBRANCH   66   67
TORSDOF 17
ENDMDL
MODEL 7
REMARK VINA RESULT:     -10.6      1.266      2.023
ROOT
ATOM     30  C24 UNL A   1      40.680  27.768  29.192  1.00  0.00    +0.000 C 
ATOM     31  C25 UNL A   1      40.887  26.371  28.597  1.00  0.00    +0.000 C 
ATOM     32  N4  UNL A   1      41.696  25.419  28.954  1.00  0.00    +0.000 N 
ATOM     33  C26 UNL A   1      41.573  24.380  28.009  1.00  0.00    +0.000 C 
ATOM     34  C27 UNL A   1      42.449  23.337  27.912  1.00  0.00    +0.000 C 
ATOM     46  C34 UNL A   1      43.439  23.409  28.931  1.00  0.00    +0.000 C 
ATOM     47  C35 UNL A   1      43.432  23.074  30.258  1.00  0.00    +0.000 C 
ATOM     48  C36 UNL A   1      44.381  23.934  30.848  1.00  0.00    +0.000 C 
ATOM     49  C37 UNL A   1      44.985  24.708  29.853  1.00  0.00    +0.000 C 
ATOM     50  N5  UNL A   1      44.568  24.144  28.669  1.00  0.00    +0.000 N 
ATOM     51  C38 UNL A   1      45.697  25.965  29.788  1.00  0.00    +0.000 C 
ATOM     63  C45 UNL A   1      45.871  26.644  30.949  1.00  0.00    +0.000 C 
ATOM     64  N6  UNL A   1      45.684  28.010  30.976  1.00  0.00    +0.000 N 
ATOM     65  C46 UNL A   1      44.973  28.179  32.051  1.00  0.00    +0.000 C 
ATOM     66  C47 UNL A   1      44.176  29.384  32.353  1.00  0.00    +0.000 C 
ATOM     78  C54 UNL A   1      43.108  29.344  31.498  1.00  0.00    +0.000 C 
ATOM     79  C55 UNL A   1      42.056  30.326  31.335  1.00  0.00    +0.000 C 
ATOM     80  C56 UNL A   1      41.126  29.862  30.481  1.00  0.00    +0.000 C 
ATOM     81  C57 UNL A   1      41.480  28.514  30.005  1.00  0.00    +0.000 C 
ATOM     82  N7  UNL A   1      42.714  28.321  30.597  1.00  0.00    +0.000 N 
ATOM     83  C58 UNL A   1      44.907  27.038  32.972  1.00  0.00    +0.000 C 
ATOM     84  C59 UNL A   1      45.653  26.171  32.294  1.00  0.00    +0.000 C 
ATOM     85  C60 UNL A   1      40.470  24.725  27.163  1.00  0.00    +0.000 C 
ATOM     86  C61 UNL A   1      40.033  25.952  27.452  1.00  0.00    +0.000 C 
ATOM    114  H26 UNL A   1      42.860  22.351  30.723  1.00  0.00    +0.000 H 
ATOM    115  H27 UNL A   1      44.595  23.986  31.857  1.00  0.00    +0.000 H 
ATOM    116  H28 UNL A   1      45.001  24.248  27.791  1.00  0.00    +0.000 H 
ATOM    117  H29 UNL A   1      42.025  31.245  31.804  1.00  0.00    +0.000 H 
ATOM    118  H30 UNL A   1      40.279  30.381  30.199  1.00  0.00    +0.000 H 
ATOM    119  H31 UNL A   1      43.276  27.535  30.407  1.00  0.00    +0.000 H 
ATOM    120  H32 UNL A   1      44.424  26.938  33.878  1.00  0.00    +0.000 H 
ATOM    121  H33 UNL A   1      46.023  25.286  32.676  1.00  0.00    +0.000 H 
ATOM    122  H34 UNL A   1      40.071  24.112  26.434  1.00  0.00    +0.000 H 
ATOM    123  H35 UNL A   1      39.279  26.484  26.992  1.00  0.00    +0.000 H 
ENDROOT
BRANCH   30   29
ATOM    124  H36 UNL A   1      38.365  27.812  30.571  1.00  0.00    +0.000 H 
ATOM     29  C23 UNL A   1      39.391  28.386  28.809  1.00  0.00    +0.000 C 
ATOM    112  H24 UNL A   1      38.074  30.299  26.399  1.00  0.00    +0.000 H 
ATOM    113  H25 UNL A   1      40.089  29.053  26.924  1.00  0.00    +0.000 H 
ATOM     87  C62 UNL A   1      38.302  28.346  29.690  1.00  0.00    +0.000 C 
ATOM     88  C63 UNL A   1      37.138  29.033  29.369  1.00  0.00    +0.000 C 
ATOM     26  C20 UNL A   1      37.083  29.797  28.199  1.00  0.00    +0.000 C 
ATOM     27  C21 UNL A   1      38.147  29.784  27.290  1.00  0.00    +0.000 C 
ATOM     28  C22 UNL A   1      39.303  29.074  27.592  1.00  0.00    +0.000 C 
ATOM    125  H37 UNL A   1      36.316  28.978  29.991  1.00  0.00    +0.000 H 
BRANCH   26   24
ATOM     25  O2  UNL A   1      35.815  31.759  28.270  1.00  0.00    +0.000 O 
ATOM     24  C19 UNL A   1      35.898  30.613  27.864  1.00  0.00    +0.000 C 
BRANCH   24   23
ATOM    111  H23 UNL A   1      35.137  29.511  26.359  1.00  0.00    +0.000 H 
ATOM     23  N3  UNL A   1      34.872  30.065  27.129  1.00  0.00    +0.000 N 
BRANCH   23   22
ATOM    110  H22 UNL A   1      33.021  30.746  26.535  1.00  0.00    +0.000 H 
ATOM    109  H21 UNL A   1      33.285  30.728  28.276  1.00  0.00    +0.000 H 
ATOM     22  C18 UNL A   1      33.442  30.204  27.356  1.00  0.00    +0.000 C 
BRANCH   22   21
ATOM    107  H19 UNL A   1      33.366  28.196  28.029  1.00  0.00    +0.000 H 
ATOM    108  H20 UNL A   1      31.791  29.011  27.864  1.00  0.00    +0.000 H 
ATOM     21  C17 UNL A   1      32.757  28.845  27.436  1.00  0.00    +0.000 C 
BRANCH   21   20
ATOM    105  H17 UNL A   1      31.483  27.975  25.985  1.00  0.00    +0.000 H 
ATOM    106  H18 UNL A   1      32.914  28.873  25.356  1.00  0.00    +0.000 H 
ATOM     20  C16 UNL A   1      32.529  28.180  26.075  1.00  0.00    +0.000 C 
BRANCH   20   19
ATOM     19  C15 UNL A   1      33.280  26.874  25.815  1.00  0.00    +0.000 C 
ATOM    103  H15 UNL A   1      34.061  26.796  26.542  1.00  0.00    +0.000 H 
ATOM    104  H16 UNL A   1      32.542  26.102  25.877  1.00  0.00    +0.000 H 
BRANCH   19   18
ATOM     18  C14 UNL A   1      33.916  26.722  24.429  1.00  0.00    +0.000 C 
ATOM    101  H13 UNL A   1      34.230  27.693  24.106  1.00  0.00    +0.000 H 
ATOM    102  H14 UNL A   1      34.714  26.021  24.557  1.00  0.00    +0.000 H 
BRANCH   18   17
ATOM     17  C13 UNL A   1      33.025  26.133  23.336  1.00  0.00    +0.000 C 
ATOM     99  H11 UNL A   1      32.116  25.796  23.788  1.00  0.00    +0.000 H 
ATOM    100  H12 UNL A   1      32.866  26.908  22.617  1.00  0.00    +0.000 H 
BRANCH   17   16
ATOM     98  H10 UNL A   1      34.286  25.181  21.919  1.00  0.00    +0.000 H 
ATOM     16  N2  UNL A   1      33.621  25.018  22.625  1.00  0.00    +0.000 N 
BRANCH   16    2
ATOM      1  O1  UNL A   1      32.090  23.321  22.887  1.00  0.00    +0.000 O 
ATOM      2  C1  UNL A   1      33.251  23.723  22.947  1.00  0.00    +0.000 C 
BRANCH    2    3
ATOM     89  H1  UNL A   1      35.296  23.355  23.235  1.00  0.00    +0.000 H 
ATOM     90  H2  UNL A   1      34.234  21.911  22.968  1.00  0.00    +0.000 H 
ATOM      3  C2  UNL A   1      34.378  22.851  23.458  1.00  0.00    +0.000 C 
BRANCH    3    4
ATOM      4  C3  UNL A   1      34.399  22.511  24.925  1.00  0.00    +0.000 C 
ATOM      5  C4  UNL A   1      34.621  23.426  25.950  1.00  0.00    +0.000 C 
ATOM      6  C5  UNL A   1      34.456  22.771  27.186  1.00  0.00    +0.000 C 
ATOM      7  C6  UNL A   1      34.134  21.467  26.902  1.00  0.00    +0.000 C 
ATOM      8  N1  UNL A   1      34.112  21.296  25.533  1.00  0.00    +0.000 N 
ATOM     91  H3  UNL A   1      34.865  24.421  25.824  1.00  0.00    +0.000 H 
ATOM     92  H4  UNL A   1      34.561  23.189  28.124  1.00  0.00    +0.000 H 
ATOM     93  H5  UNL A   1      33.937  20.733  27.601  1.00  0.00    +0.000 H 
BRANCH    8    9
ATOM     97  H9  UNL A   1      31.637  18.279  23.281  1.00  0.00    +0.000 H 
ATOM      9  C7  UNL A   1      33.948  20.033  24.949  1.00  0.00    +0.000 C 
ATOM     10  C8  UNL A   1      35.024  19.150  24.865  1.00  0.00    +0.000 C 
ATOM     11  C9  UNL A   1      34.837  17.920  24.228  1.00  0.00    +0.000 C 
ATOM     12  C10 UNL A   1      33.599  17.594  23.664  1.00  0.00    +0.000 C 
ATOM     13  C11 UNL A   1      32.546  18.509  23.714  1.00  0.00    +0.000 C 
ATOM     14  C12 UNL A   1      32.731  19.731  24.350  1.00  0.00    +0.000 C 
ATOM     15  F1  UNL A   1      31.725  20.617  24.381  1.00  0.00    +0.000 F 
ATOM     94  H6  UNL A   1      35.942  19.400  25.266  1.00  0.00    +0.000 H 
ATOM     95  H7  UNL A   1      35.618  17.247  24.173  1.00  0.00    +0.000 H 
ATOM     96  H8  UNL A   1      33.463  16.677  23.211  1.00  0.00    +0.000 H 
ENDBRANCH    8    9
ENDBRANCH    3    4
ENDBRANCH    2    3
ENDBRANCH   16    2
ENDBRANCH   17   16
ENDBRANCH   18   17
ENDBRANCH   19   18
ENDBRANCH   20   19
ENDBRANCH   21   20
ENDBRANCH   22   21
ENDBRANCH   23   22
ENDBRANCH   24   23
ENDBRANCH   26   24
ENDBRANCH   30   29
BRANCH   34   35
ATOM     35  C28 UNL A   1      42.623  22.280  26.856  1.00  0.00    +0.000 C 
ATOM     36  C29 UNL A   1      43.586  22.354  25.842  1.00  0.00    +0.000 C 
ATOM     37  F2  UNL A   1      44.237  23.497  25.592  1.00  0.00    +0.000 F 
ATOM     38  C30 UNL A   1      43.970  21.220  25.117  1.00  0.00    +0.000 C 
ATOM     39  F3  UNL A   1      44.923  21.322  24.180  1.00  0.00    +0.000 F 
ATOM     40  C31 UNL A   1      43.424  19.977  25.401  1.00  0.00    +0.000 C 
ATOM     41  F4  UNL A   1      43.868  18.881  24.773  1.00  0.00    +0.000 F 
ATOM     42  C32 UNL A   1      42.438  19.876  26.362  1.00  0.00    +0.000 C 
ATOM     43  F5  UNL A   1      41.919  18.678  26.669  1.00  0.00    +0.000 F 
ATOM     44  C33 UNL A   1      42.022  21.012  27.055  1.00  0.00    +0.000 C 
ATOM     45  F6  UNL A   1      41.058  20.845  27.974  1.00  0.00    +0.000 F 
ENDBRANCH   34   35
BRANCH   51   52
ATOM     52  C39 UNL A   1      45.879  26.829  28.559  1.00  0.00    +0.000 C 
ATOM     53  C40 UNL A   1      44.812  27.388  27.836  1.00  0.00    +0.000 C 
ATOM     54  F7  UNL A   1      43.553  27.068  28.126  1.00  0.00    +0.000 F 
ATOM     55  C41 UNL A   1      45.010  28.291  26.792  1.00  0.00    +0.000 C 
ATOM     56  F8  UNL A   1      43.957  28.783  26.122  1.00  0.00    +0.000 F 
ATOM     57  C42 UNL A   1      46.292  28.674  26.446  1.00  0.00    +0.000 C 
ATOM     58  F9  UNL A   1      46.486  29.542  25.444  1.00  0.00    +0.000 F 
ATOM     59  C43 UNL A   1      47.369  28.140  27.134  1.00  0.00    +0.000 C 
ATOM     60  F10 UNL A   1      48.614  28.504  26.799  1.00  0.00    +0.000 F 
ATOM     61  C44 UNL A   1      47.167  27.227  28.172  1.00  0.00    +0.000 C 
ATOM     62  F11 UNL A   1      48.240  26.731  28.808  1.00  0.00    +0.000 F 
ENDBRANCH   51   52
BRANCH   66   67
ATOM     67  C48 UNL A   1      44.625  30.248  33.516  1.00  0.00    +0.000 C 
ATOM     68  C49 UNL A   1      43.943  30.171  34.764  1.00  0.00    +0.000 C 
ATOM     69  F12 UNL A   1      43.069  29.190  35.028  1.00  0.00    +0.000 F 
ATOM     70  C50 UNL A   1      44.114  31.096  35.797  1.00  0.00    +0.000 C 
ATOM     71  F13 UNL A   1      43.352  31.014  36.896  1.00  0.00    +0.000 F 
ATOM     72  C51 UNL A   1      45.044  32.100  35.673  1.00  0.00    +0.000 C 
ATOM     73  F14 UNL A   1      45.194  33.009  36.645  1.00  0.00    +0.000 F 
ATOM     74  C52 UNL A   1      45.827  32.138  34.537  1.00  0.00    +0.000 C 
ATOM     75  F15 UNL A   1      46.784  33.072  34.431  1.00  0.00    +0.000 F 
ATOM     76  C53 UNL A   1      45.628  31.227  33.485  1.00  0.00    +0.000 C 
ATOM     77  F16 UNL A   1      46.474  31.334  32.460  1.00  0.00    +0.000 F 
ENDBRANCH   66   67
TORSDOF 17
ENDMDL
MODEL 8
REMARK VINA RESULT:     -10.6      0.966      2.073
ROOT
ATOM     30  C24 UNL A   1      40.950  27.881  29.218  1.00  0.00    +0.000 C 
ATOM     31  C25 UNL A   1      41.100  26.480  28.615  1.00  0.00    +0.000 C 
ATOM     32  N4  UNL A   1      41.877  25.497  28.960  1.00  0.00    +0.000 N 
ATOM     33  C26 UNL A   1      41.704  24.467  28.011  1.00  0.00    +0.000 C 
ATOM     34  C27 UNL A   1      42.540  23.394  27.900  1.00  0.00    +0.000 C 
ATOM     46  C34 UNL A   1      43.544  23.425  28.908  1.00  0.00    +0.000 C 
ATOM     47  C35 UNL A   1      43.540  23.084  30.234  1.00  0.00    +0.000 C 
ATOM     48  C36 UNL A   1      44.527  23.907  30.816  1.00  0.00    +0.000 C 
ATOM     49  C37 UNL A   1      45.147  24.662  29.817  1.00  0.00    +0.000 C 
ATOM     50  N5  UNL A   1      44.696  24.119  28.636  1.00  0.00    +0.000 N 
ATOM     51  C38 UNL A   1      45.904  25.893  29.749  1.00  0.00    +0.000 C 
ATOM     63  C45 UNL A   1      46.116  26.560  30.910  1.00  0.00    +0.000 C 
ATOM     64  N6  UNL A   1      45.980  27.931  30.945  1.00  0.00    +0.000 N 
ATOM     65  C46 UNL A   1      45.288  28.122  32.029  1.00  0.00    +0.000 C 
ATOM     66  C47 UNL A   1      44.540  29.354  32.344  1.00  0.00    +0.000 C 
ATOM     78  C54 UNL A   1      43.461  29.357  31.502  1.00  0.00    +0.000 C 
ATOM     79  C55 UNL A   1      42.444  30.378  31.355  1.00  0.00    +0.000 C 
ATOM     80  C56 UNL A   1      41.488  29.952  30.510  1.00  0.00    +0.000 C 
ATOM     81  C57 UNL A   1      41.787  28.594  30.025  1.00  0.00    +0.000 C 
ATOM     82  N7  UNL A   1      43.019  28.353  30.601  1.00  0.00    +0.000 N 
ATOM     83  C58 UNL A   1      45.191  26.980  32.946  1.00  0.00    +0.000 C 
ATOM     84  C59 UNL A   1      45.896  26.089  32.256  1.00  0.00    +0.000 C 
ATOM     85  C60 UNL A   1      40.606  24.857  27.180  1.00  0.00    +0.000 C 
ATOM     86  C61 UNL A   1      40.217  26.097  27.479  1.00  0.00    +0.000 C 
ATOM    114  H26 UNL A   1      42.948  22.381  30.703  1.00  0.00    +0.000 H 
ATOM    115  H27 UNL A   1      44.755  23.946  31.822  1.00  0.00    +0.000 H 
ATOM    116  H28 UNL A   1      45.123  24.211  27.753  1.00  0.00    +0.000 H 
ATOM    117  H29 UNL A   1      42.453  31.295  31.828  1.00  0.00    +0.000 H 
ATOM    118  H30 UNL A   1      40.657  30.503  30.240  1.00  0.00    +0.000 H 
ATOM    119  H31 UNL A   1      43.549  27.548  30.402  1.00  0.00    +0.000 H 
ATOM    120  H32 UNL A   1      44.715  26.894  33.857  1.00  0.00    +0.000 H 
ATOM    121  H33 UNL A   1      46.238  25.190  32.630  1.00  0.00    +0.000 H 
ATOM    122  H34 UNL A   1      40.176  24.262  26.454  1.00  0.00    +0.000 H 
ATOM    123  H35 UNL A   1      39.477  26.659  27.030  1.00  0.00    +0.000 H 
ENDROOT
BRANCH   30   29
ATOM    124  H36 UNL A   1      40.374  29.285  26.991  1.00  0.00    +0.000 H 
ATOM     29  C23 UNL A   1      39.681  28.548  28.852  1.00  0.00    +0.000 C 
ATOM    112  H24 UNL A   1      36.540  28.881  29.960  1.00  0.00    +0.000 H 
ATOM    113  H25 UNL A   1      38.703  28.028  30.657  1.00  0.00    +0.000 H 
ATOM     87  C62 UNL A   1      39.557  29.195  27.615  1.00  0.00    +0.000 C 
ATOM     88  C63 UNL A   1      38.325  29.712  27.235  1.00  0.00    +0.000 C 
ATOM     26  C20 UNL A   1      37.213  29.537  28.065  1.00  0.00    +0.000 C 
ATOM     27  C21 UNL A   1      37.352  28.949  29.327  1.00  0.00    +0.000 C 
ATOM     28  C22 UNL A   1      38.590  28.457  29.725  1.00  0.00    +0.000 C 
ATOM    125  H37 UNL A   1      38.231  30.225  26.344  1.00  0.00    +0.000 H 
BRANCH   26   24
ATOM     25  O2  UNL A   1      35.595  31.181  27.684  1.00  0.00    +0.000 O 
ATOM     24  C19 UNL A   1      35.867  29.993  27.660  1.00  0.00    +0.000 C 
BRANCH   24   23
ATOM    111  H23 UNL A   1      35.206  28.134  27.256  1.00  0.00    +0.000 H 
ATOM     23  N3  UNL A   1      34.911  29.073  27.296  1.00  0.00    +0.000 N 
BRANCH   23   22
ATOM    110  H22 UNL A   1      33.422  30.340  26.650  1.00  0.00    +0.000 H 
ATOM    109  H21 UNL A   1      32.915  29.135  27.831  1.00  0.00    +0.000 H 
ATOM     22  C18 UNL A   1      33.517  29.322  26.965  1.00  0.00    +0.000 C 
BRANCH   22   21
ATOM    107  H19 UNL A   1      33.670  27.552  25.809  1.00  0.00    +0.000 H 
ATOM    108  H20 UNL A   1      32.021  28.187  26.026  1.00  0.00    +0.000 H 
ATOM     21  C17 UNL A   1      33.046  28.421  25.830  1.00  0.00    +0.000 C 
BRANCH   21   20
ATOM    105  H17 UNL A   1      32.112  29.024  24.028  1.00  0.00    +0.000 H 
ATOM    106  H18 UNL A   1      33.449  30.075  24.625  1.00  0.00    +0.000 H 
ATOM     20  C16 UNL A   1      33.093  29.081  24.449  1.00  0.00    +0.000 C 
BRANCH   20   19
ATOM     19  C15 UNL A   1      34.068  28.481  23.434  1.00  0.00    +0.000 C 
ATOM    103  H15 UNL A   1      34.710  29.267  23.095  1.00  0.00    +0.000 H 
ATOM    104  H16 UNL A   1      34.572  27.693  23.952  1.00  0.00    +0.000 H 
BRANCH   19   18
ATOM     18  C14 UNL A   1      33.441  27.825  22.199  1.00  0.00    +0.000 C 
ATOM    101  H13 UNL A   1      32.763  28.529  21.764  1.00  0.00    +0.000 H 
ATOM    102  H14 UNL A   1      34.264  27.559  21.569  1.00  0.00    +0.000 H 
BRANCH   18   17
ATOM     17  C13 UNL A   1      32.674  26.525  22.440  1.00  0.00    +0.000 C 
ATOM     99  H11 UNL A   1      32.484  26.435  23.488  1.00  0.00    +0.000 H 
ATOM    100  H12 UNL A   1      31.776  26.586  21.861  1.00  0.00    +0.000 H 
BRANCH   17   16
ATOM     98  H10 UNL A   1      33.546  25.187  21.041  1.00  0.00    +0.000 H 
ATOM     16  N2  UNL A   1      33.376  25.335  21.999  1.00  0.00    +0.000 N 
BRANCH   16    2
ATOM      1  O1  UNL A   1      33.904  23.206  22.693  1.00  0.00    +0.000 O 
ATOM      2  C1  UNL A   1      33.806  24.407  22.934  1.00  0.00    +0.000 C 
BRANCH    2    3
ATOM     89  H1  UNL A   1      33.573  25.920  24.368  1.00  0.00    +0.000 H 
ATOM     90  H2  UNL A   1      35.141  25.012  24.384  1.00  0.00    +0.000 H 
ATOM      3  C2  UNL A   1      34.074  24.976  24.312  1.00  0.00    +0.000 C 
BRANCH    3    4
ATOM      4  C3  UNL A   1      33.643  24.167  25.506  1.00  0.00    +0.000 C 
ATOM      5  C4  UNL A   1      32.439  24.330  26.184  1.00  0.00    +0.000 C 
ATOM      6  C5  UNL A   1      32.334  23.329  27.169  1.00  0.00    +0.000 C 
ATOM      7  C6  UNL A   1      33.471  22.565  27.079  1.00  0.00    +0.000 C 
ATOM      8  N1  UNL A   1      34.279  23.075  26.083  1.00  0.00    +0.000 N 
ATOM     91  H3  UNL A   1      31.738  25.065  25.996  1.00  0.00    +0.000 H 
ATOM     92  H4  UNL A   1      31.555  23.196  27.833  1.00  0.00    +0.000 H 
ATOM     93  H5  UNL A   1      33.686  21.740  27.661  1.00  0.00    +0.000 H 
BRANCH    8    9
ATOM     97  H9  UNL A   1      37.085  19.977  24.403  1.00  0.00    +0.000 H 
ATOM      9  C7  UNL A   1      35.571  22.584  25.855  1.00  0.00    +0.000 C 
ATOM     10  C8  UNL A   1      36.686  23.352  26.190  1.00  0.00    +0.000 C 
ATOM     11  C9  UNL A   1      37.958  22.851  25.899  1.00  0.00    +0.000 C 
ATOM     12  C10 UNL A   1      38.106  21.614  25.263  1.00  0.00    +0.000 C 
ATOM     13  C11 UNL A   1      36.979  20.881  24.891  1.00  0.00    +0.000 C 
ATOM     14  C12 UNL A   1      35.714  21.376  25.182  1.00  0.00    +0.000 C 
ATOM     15  F1  UNL A   1      34.631  20.680  24.808  1.00  0.00    +0.000 F 
ATOM     94  H6  UNL A   1      36.574  24.272  26.643  1.00  0.00    +0.000 H 
ATOM     95  H7  UNL A   1      38.795  23.398  26.156  1.00  0.00    +0.000 H 
ATOM     96  H8  UNL A   1      39.049  21.244  25.067  1.00  0.00    +0.000 H 
ENDBRANCH    8    9
ENDBRANCH    3    4
ENDBRANCH    2    3
ENDBRANCH   16    2
ENDBRANCH   17   16
ENDBRANCH   18   17
ENDBRANCH   19   18
ENDBRANCH   20   19
ENDBRANCH   21   20
ENDBRANCH   22   21
ENDBRANCH   23   22
ENDBRANCH   24   23
ENDBRANCH   26   24
ENDBRANCH   30   29
BRANCH   34   35
ATOM     35  C28 UNL A   1      42.663  22.335  26.839  1.00  0.00    +0.000 C 
ATOM     36  C29 UNL A   1      43.657  22.345  25.851  1.00  0.00    +0.000 C 
ATOM     37  F2  UNL A   1      44.398  23.438  25.631  1.00  0.00    +0.000 F 
ATOM     38  C30 UNL A   1      43.974  21.191  25.125  1.00  0.00    +0.000 C 
ATOM     39  F3  UNL A   1      44.957  21.229  24.216  1.00  0.00    +0.000 F 
ATOM     40  C31 UNL A   1      43.328  19.991  25.382  1.00  0.00    +0.000 C 
ATOM     41  F4  UNL A   1      43.705  18.870  24.754  1.00  0.00    +0.000 F 
ATOM     42  C32 UNL A   1      42.312  19.956  26.315  1.00  0.00    +0.000 C 
ATOM     43  F5  UNL A   1      41.696  18.799  26.595  1.00  0.00    +0.000 F 
ATOM     44  C33 UNL A   1      41.964  21.115  27.008  1.00  0.00    +0.000 C 
ATOM     45  F6  UNL A   1      40.965  21.014  27.899  1.00  0.00    +0.000 F 
ENDBRANCH   34   35
BRANCH   51   52
ATOM     52  C39 UNL A   1      46.104  26.754  28.521  1.00  0.00    +0.000 C 
ATOM     53  C40 UNL A   1      47.359  27.005  27.941  1.00  0.00    +0.000 C 
ATOM     54  F7  UNL A   1      48.477  26.596  28.538  1.00  0.00    +0.000 F 
ATOM     55  C41 UNL A   1      47.501  27.686  26.734  1.00  0.00    +0.000 C 
ATOM     56  F8  UNL A   1      48.725  27.914  26.231  1.00  0.00    +0.000 F 
ATOM     57  C42 UNL A   1      46.381  28.130  26.057  1.00  0.00    +0.000 C 
ATOM     58  F9  UNL A   1      46.513  28.785  24.895  1.00  0.00    +0.000 F 
ATOM     59  C43 UNL A   1      45.126  27.904  26.599  1.00  0.00    +0.000 C 
ATOM     60  F10 UNL A   1      44.037  28.337  25.950  1.00  0.00    +0.000 F 
ATOM     61  C44 UNL A   1      44.989  27.231  27.816  1.00  0.00    +0.000 C 
ATOM     62  F11 UNL A   1      43.755  27.040  28.308  1.00  0.00    +0.000 F 
ENDBRANCH   51   52
BRANCH   66   67
ATOM     67  C48 UNL A   1      45.034  30.196  33.506  1.00  0.00    +0.000 C 
ATOM     68  C49 UNL A   1      44.225  30.350  34.668  1.00  0.00    +0.000 C 
ATOM     69  F12 UNL A   1      43.146  29.584  34.879  1.00  0.00    +0.000 F 
ATOM     70  C50 UNL A   1      44.475  31.296  35.664  1.00  0.00    +0.000 C 
ATOM     71  F13 UNL A   1      43.602  31.449  36.670  1.00  0.00    +0.000 F 
ATOM     72  C51 UNL A   1      45.598  32.084  35.598  1.00  0.00    +0.000 C 
ATOM     73  F14 UNL A   1      45.831  33.015  36.531  1.00  0.00    +0.000 F 
ATOM     74  C52 UNL A   1      46.487  31.881  34.560  1.00  0.00    +0.000 C 
ATOM     75  F15 UNL A   1      47.620  32.596  34.517  1.00  0.00    +0.000 F 
ATOM     76  C53 UNL A   1      46.214  30.952  33.541  1.00  0.00    +0.000 C 
ATOM     77  F16 UNL A   1      47.166  30.811  32.617  1.00  0.00    +0.000 F 
ENDBRANCH   66   67
TORSDOF 17
ENDMDL
MODEL 9
REMARK VINA RESULT:     -10.5     37.742     42.526
ROOT
ATOM     30  C24 UNL A   1       9.911  50.204   9.891  1.00  0.00    +0.000 C 
ATOM     31  C25 UNL A   1       9.979  49.668  11.325  1.00  0.00    +0.000 C 
ATOM     32  N4  UNL A   1      10.498  50.195  12.393  1.00  0.00    +0.000 N 
ATOM     33  C26 UNL A   1      10.392  49.244  13.430  1.00  0.00    +0.000 C 
ATOM     34  C27 UNL A   1      11.058  49.342  14.618  1.00  0.00    +0.000 C 
ATOM     46  C34 UNL A   1      11.798  50.556  14.686  1.00  0.00    +0.000 C 
ATOM     47  C35 UNL A   1      11.439  51.848  14.961  1.00  0.00    +0.000 C 
ATOM     48  C36 UNL A   1      12.380  52.635  14.265  1.00  0.00    +0.000 C 
ATOM     49  C37 UNL A   1      13.320  51.799  13.655  1.00  0.00    +0.000 C 
ATOM     50  N5  UNL A   1      13.073  50.552  14.181  1.00  0.00    +0.000 N 
ATOM     51  C38 UNL A   1      14.251  51.896  12.552  1.00  0.00    +0.000 C 
ATOM     63  C45 UNL A   1      14.291  53.067  11.870  1.00  0.00    +0.000 C 
ATOM     64  N6  UNL A   1      14.361  53.054  10.493  1.00  0.00    +0.000 N 
ATOM     65  C46 UNL A   1      13.477  53.945  10.154  1.00  0.00    +0.000 C 
ATOM     66  C47 UNL A   1      12.873  54.064   8.813  1.00  0.00    +0.000 C 
ATOM     78  C54 UNL A   1      12.028  52.993   8.693  1.00  0.00    +0.000 C 
ATOM     79  C55 UNL A   1      11.239  52.603   7.542  1.00  0.00    +0.000 C 
ATOM     80  C56 UNL A   1      10.448  51.563   7.862  1.00  0.00    +0.000 C 
ATOM     81  C57 UNL A   1      10.640  51.176   9.271  1.00  0.00    +0.000 C 
ATOM     82  N7  UNL A   1      11.656  52.026   9.661  1.00  0.00    +0.000 N 
ATOM     83  C58 UNL A   1      13.000  54.827  11.227  1.00  0.00    +0.000 C 
ATOM     84  C59 UNL A   1      13.700  54.330  12.242  1.00  0.00    +0.000 C 
ATOM     85  C60 UNL A   1       9.585  48.175  12.923  1.00  0.00    +0.000 C 
ATOM     86  C61 UNL A   1       9.332  48.362  11.627  1.00  0.00    +0.000 C 
ATOM    114  H26 UNL A   1      10.655  52.174  15.548  1.00  0.00    +0.000 H 
ATOM    115  H27 UNL A   1      12.375  53.666  14.213  1.00  0.00    +0.000 H 
ATOM    116  H28 UNL A   1      13.699  49.791  14.192  1.00  0.00    +0.000 H 
ATOM    117  H29 UNL A   1      11.279  53.054   6.615  1.00  0.00    +0.000 H 
ATOM    118  H30 UNL A   1       9.795  51.101   7.210  1.00  0.00    +0.000 H 
ATOM    119  H31 UNL A   1      12.089  51.964  10.543  1.00  0.00    +0.000 H 
ATOM    120  H32 UNL A   1      12.321  55.603  11.200  1.00  0.00    +0.000 H 
ATOM    121  H33 UNL A   1      13.806  54.782  13.163  1.00  0.00    +0.000 H 
ATOM    122  H34 UNL A   1       9.247  47.376  13.482  1.00  0.00    +0.000 H 
ATOM    123  H35 UNL A   1       8.809  47.747  10.985  1.00  0.00    +0.000 H 
ENDROOT
BRANCH   30   29
ATOM    124  H36 UNL A   1      10.196  48.153   8.166  1.00  0.00    +0.000 H 
ATOM     29  C23 UNL A   1       8.875  49.546   9.064  1.00  0.00    +0.000 C 
ATOM    112  H24 UNL A   1       5.565  49.590   8.574  1.00  0.00    +0.000 H 
ATOM    113  H25 UNL A   1       7.318  50.824   9.713  1.00  0.00    +0.000 H 
ATOM     87  C62 UNL A   1       9.212  48.451   8.256  1.00  0.00    +0.000 C 
ATOM     88  C63 UNL A   1       8.209  47.769   7.578  1.00  0.00    +0.000 C 
ATOM     26  C20 UNL A   1       6.874  48.148   7.749  1.00  0.00    +0.000 C 
ATOM     27  C21 UNL A   1       6.546  49.279   8.504  1.00  0.00    +0.000 C 
ATOM     28  C22 UNL A   1       7.549  49.984   9.160  1.00  0.00    +0.000 C 
ATOM    125  H37 UNL A   1       8.449  46.985   6.949  1.00  0.00    +0.000 H 
BRANCH   26   24
ATOM     25  O2  UNL A   1       5.341  46.386   7.650  1.00  0.00    +0.000 O 
ATOM     24  C19 UNL A   1       5.770  47.395   7.118  1.00  0.00    +0.000 C 
BRANCH   24   23
ATOM    111  H23 UNL A   1       4.706  47.156   5.425  1.00  0.00    +0.000 H 
ATOM     23  N3  UNL A   1       5.257  47.811   5.911  1.00  0.00    +0.000 N 
BRANCH   23   22
ATOM    110  H22 UNL A   1       5.769  49.804   6.006  1.00  0.00    +0.000 H 
ATOM    109  H21 UNL A   1       4.493  49.416   4.855  1.00  0.00    +0.000 H 
ATOM     22  C18 UNL A   1       5.429  49.105   5.270  1.00  0.00    +0.000 C 
BRANCH   22   21
ATOM    107  H19 UNL A   1       7.158  48.253   4.386  1.00  0.00    +0.000 H 
ATOM    108  H20 UNL A   1       5.934  48.866   3.246  1.00  0.00    +0.000 H 
ATOM     21  C17 UNL A   1       6.468  49.039   4.157  1.00  0.00    +0.000 C 
BRANCH   21   20
ATOM    105  H17 UNL A   1       7.762  50.272   3.022  1.00  0.00    +0.000 H 
ATOM    106  H18 UNL A   1       6.537  51.120   4.037  1.00  0.00    +0.000 H 
ATOM     20  C16 UNL A   1       7.261  50.335   3.965  1.00  0.00    +0.000 C 
BRANCH   20   19
ATOM     19  C15 UNL A   1       8.312  50.660   5.027  1.00  0.00    +0.000 C 
ATOM    103  H15 UNL A   1       8.474  51.718   5.012  1.00  0.00    +0.000 H 
ATOM    104  H16 UNL A   1       7.914  50.289   5.947  1.00  0.00    +0.000 H 
BRANCH   19   18
ATOM     18  C14 UNL A   1       9.674  49.978   4.864  1.00  0.00    +0.000 C 
ATOM    101  H13 UNL A   1      10.420  50.641   5.252  1.00  0.00    +0.000 H 
ATOM    102  H14 UNL A   1       9.593  49.050   5.390  1.00  0.00    +0.000 H 
BRANCH   18   17
ATOM     17  C13 UNL A   1      10.078  49.605   3.437  1.00  0.00    +0.000 C 
ATOM     99  H11 UNL A   1       9.213  49.236   2.929  1.00  0.00    +0.000 H 
ATOM    100  H12 UNL A   1      10.474  50.491   2.988  1.00  0.00    +0.000 H 
BRANCH   17   16
ATOM     98  H10 UNL A   1      12.058  48.863   3.253  1.00  0.00    +0.000 H 
ATOM     16  N2  UNL A   1      11.117  48.596   3.363  1.00  0.00    +0.000 N 
BRANCH   16    2
ATOM      1  O1  UNL A   1       9.685  46.815   3.098  1.00  0.00    +0.000 O 
ATOM      2  C1  UNL A   1      10.778  47.255   3.447  1.00  0.00    +0.000 C 
BRANCH    2    3
ATOM     89  H1  UNL A   1      12.787  46.819   3.868  1.00  0.00    +0.000 H 
ATOM     90  H2  UNL A   1      11.671  45.408   3.650  1.00  0.00    +0.000 H 
ATOM      3  C2  UNL A   1      11.836  46.375   4.078  1.00  0.00    +0.000 C 
BRANCH    3    4
ATOM      4  C3  UNL A   1      11.768  46.145   5.565  1.00  0.00    +0.000 C 
ATOM      5  C4  UNL A   1      10.830  45.339   6.203  1.00  0.00    +0.000 C 
ATOM      6  C5  UNL A   1      11.144  45.277   7.574  1.00  0.00    +0.000 C 
ATOM      7  C6  UNL A   1      12.269  46.042   7.758  1.00  0.00    +0.000 C 
ATOM      8  N1  UNL A   1      12.646  46.586   6.546  1.00  0.00    +0.000 N 
ATOM     91  H3  UNL A   1      10.036  44.864   5.745  1.00  0.00    +0.000 H 
ATOM     92  H4  UNL A   1      10.627  44.759   8.302  1.00  0.00    +0.000 H 
ATOM     93  H5  UNL A   1      12.756  46.185   8.656  1.00  0.00    +0.000 H 
BRANCH    8    9
ATOM     97  H9  UNL A   1      14.178  50.815   6.800  1.00  0.00    +0.000 H 
ATOM      9  C7  UNL A   1      13.681  47.524   6.448  1.00  0.00    +0.000 C 
ATOM     10  C8  UNL A   1      14.996  47.105   6.244  1.00  0.00    +0.000 C 
ATOM     11  C9  UNL A   1      16.010  48.067   6.203  1.00  0.00    +0.000 C 
ATOM     12  C10 UNL A   1      15.711  49.421   6.390  1.00  0.00    +0.000 C 
ATOM     13  C11 UNL A   1      14.398  49.818   6.642  1.00  0.00    +0.000 C 
ATOM     14  C12 UNL A   1      13.389  48.864   6.679  1.00  0.00    +0.000 C 
ATOM     15  F1  UNL A   1      12.130  49.244   6.940  1.00  0.00    +0.000 F 
ATOM     94  H6  UNL A   1      15.216  46.104   6.124  1.00  0.00    +0.000 H 
ATOM     95  H7  UNL A   1      16.986  47.776   6.035  1.00  0.00    +0.000 H 
ATOM     96  H8  UNL A   1      16.463  50.126   6.341  1.00  0.00    +0.000 H 
ENDBRANCH    8    9
ENDBRANCH    3    4
ENDBRANCH    2    3
ENDBRANCH   16    2
ENDBRANCH   17   16
ENDBRANCH   18   17
ENDBRANCH   19   18
ENDBRANCH   20   19
ENDBRANCH   21   20
ENDBRANCH   22   21
ENDBRANCH   23   22
ENDBRANCH   24   23
ENDBRANCH   26   24
ENDBRANCH   30   29
BRANCH   34   35
ATOM     35  C28 UNL A   1      11.257  48.350  15.730  1.00  0.00    +0.000 C 
ATOM     36  C29 UNL A   1      10.408  48.255  16.840  1.00  0.00    +0.000 C 
ATOM     37  F2  UNL A   1       9.517  49.217  17.111  1.00  0.00    +0.000 F 
ATOM     38  C30 UNL A   1      10.393  47.113  17.650  1.00  0.00    +0.000 C 
ATOM     39  F3  UNL A   1       9.538  47.042  18.680  1.00  0.00    +0.000 F 
ATOM     40  C31 UNL A   1      11.204  46.027  17.361  1.00  0.00    +0.000 C 
ATOM     41  F4  UNL A   1      11.113  44.900  18.080  1.00  0.00    +0.000 F 
ATOM     42  C32 UNL A   1      12.087  46.105  16.302  1.00  0.00    +0.000 C 
ATOM     43  F5  UNL A   1      12.859  45.053  15.992  1.00  0.00    +0.000 F 
ATOM     44  C33 UNL A   1      12.135  47.258  15.520  1.00  0.00    +0.000 C 
ATOM     45  F6  UNL A   1      13.018  47.271  14.510  1.00  0.00    +0.000 F 
ENDBRANCH   34   35
BRANCH   51   52
ATOM     52  C39 UNL A   1      14.854  50.739  11.786  1.00  0.00    +0.000 C 
ATOM     53  C40 UNL A   1      14.092  49.747  11.146  1.00  0.00    +0.000 C 
ATOM     54  F7  UNL A   1      12.771  49.701  11.300  1.00  0.00    +0.000 F 
ATOM     55  C41 UNL A   1      14.668  48.772  10.333  1.00  0.00    +0.000 C 
ATOM     56  F8  UNL A   1      13.896  47.836   9.759  1.00  0.00    +0.000 F 
ATOM     57  C42 UNL A   1      16.034  48.767  10.124  1.00  0.00    +0.000 C 
ATOM     58  F9  UNL A   1      16.591  47.832   9.342  1.00  0.00    +0.000 F 
ATOM     59  C43 UNL A   1      16.818  49.728  10.741  1.00  0.00    +0.000 C 
ATOM     60  F10 UNL A   1      18.144  49.725  10.545  1.00  0.00    +0.000 F 
ATOM     61  C44 UNL A   1      16.239  50.696  11.565  1.00  0.00    +0.000 C 
ATOM     62  F11 UNL A   1      17.037  51.604  12.147  1.00  0.00    +0.000 F 
ENDBRANCH   51   52
BRANCH   66   67
ATOM     67  C48 UNL A   1      13.210  55.299   8.000  1.00  0.00    +0.000 C 
ATOM     68  C49 UNL A   1      14.569  55.697   7.841  1.00  0.00    +0.000 C 
ATOM     69  F12 UNL A   1      15.581  54.887   8.178  1.00  0.00    +0.000 F 
ATOM     70  C50 UNL A   1      14.956  56.940   7.336  1.00  0.00    +0.000 C 
ATOM     71  F13 UNL A   1      16.254  57.277   7.322  1.00  0.00    +0.000 F 
ATOM     72  C51 UNL A   1      14.008  57.823   6.881  1.00  0.00    +0.000 C 
ATOM     73  F14 UNL A   1      14.367  59.029   6.424  1.00  0.00    +0.000 F 
ATOM     74  C52 UNL A   1      12.683  57.432   6.889  1.00  0.00    +0.000 C 
ATOM     75  F15 UNL A   1      11.753  58.257   6.387  1.00  0.00    +0.000 F 
ATOM     76  C53 UNL A   1      12.294  56.194   7.429  1.00  0.00    +0.000 C 
ATOM     77  F16 UNL A   1      10.994  55.908   7.341  1.00  0.00    +0.000 F 
ENDBRANCH   66   67
TORSDOF 17
ENDMDL
MODEL 10
REMARK VINA RESULT:     -10.5      1.024      2.576
ROOT
ATOM     30  C24 UNL A   1      40.840  27.978  29.278  1.00  0.00    +0.000 C 
ATOM     31  C25 UNL A   1      41.002  26.574  28.687  1.00  0.00    +0.000 C 
ATOM     32  N4  UNL A   1      41.793  25.604  29.036  1.00  0.00    +0.000 N 
ATOM     33  C26 UNL A   1      41.628  24.563  28.098  1.00  0.00    +0.000 C 
ATOM     34  C27 UNL A   1      42.476  23.498  27.992  1.00  0.00    +0.000 C 
ATOM     46  C34 UNL A   1      43.484  23.551  28.995  1.00  0.00    +0.000 C 
ATOM     47  C35 UNL A   1      43.491  23.222  30.324  1.00  0.00    +0.000 C 
ATOM     48  C36 UNL A   1      44.470  24.061  30.894  1.00  0.00    +0.000 C 
ATOM     49  C37 UNL A   1      45.077  24.814  29.885  1.00  0.00    +0.000 C 
ATOM     50  N5  UNL A   1      44.626  24.255  28.711  1.00  0.00    +0.000 N 
ATOM     51  C38 UNL A   1      45.819  26.053  29.803  1.00  0.00    +0.000 C 
ATOM     63  C45 UNL A   1      46.029  26.733  30.957  1.00  0.00    +0.000 C 
ATOM     64  N6  UNL A   1      45.876  28.103  30.980  1.00  0.00    +0.000 N 
ATOM     65  C46 UNL A   1      45.187  28.296  32.066  1.00  0.00    +0.000 C 
ATOM     66  C47 UNL A   1      44.426  29.521  32.374  1.00  0.00    +0.000 C 
ATOM     78  C54 UNL A   1      43.343  29.503  31.537  1.00  0.00    +0.000 C 
ATOM     79  C55 UNL A   1      42.313  30.511  31.386  1.00  0.00    +0.000 C 
ATOM     80  C56 UNL A   1      41.359  30.067  30.549  1.00  0.00    +0.000 C 
ATOM     81  C57 UNL A   1      41.671  28.708  30.074  1.00  0.00    +0.000 C 
ATOM     82  N7  UNL A   1      42.909  28.487  30.647  1.00  0.00    +0.000 N 
ATOM     83  C58 UNL A   1      45.108  27.160  32.994  1.00  0.00    +0.000 C 
ATOM     84  C59 UNL A   1      45.820  26.272  32.308  1.00  0.00    +0.000 C 
ATOM     85  C60 UNL A   1      40.521  24.932  27.268  1.00  0.00    +0.000 C 
ATOM     86  C61 UNL A   1      40.119  26.171  27.558  1.00  0.00    +0.000 C 
ATOM    114  H26 UNL A   1      42.909  22.516  30.802  1.00  0.00    +0.000 H 
ATOM    115  H27 UNL A   1      44.702  24.112  31.899  1.00  0.00    +0.000 H 
ATOM    116  H28 UNL A   1      45.048  24.345  27.826  1.00  0.00    +0.000 H 
ATOM    117  H29 UNL A   1      42.313  31.433  31.850  1.00  0.00    +0.000 H 
ATOM    118  H30 UNL A   1      40.520  30.606  30.278  1.00  0.00    +0.000 H 
ATOM    119  H31 UNL A   1      43.448  27.687  30.452  1.00  0.00    +0.000 H 
ATOM    120  H32 UNL A   1      44.637  27.077  33.908  1.00  0.00    +0.000 H 
ATOM    121  H33 UNL A   1      46.174  25.380  32.688  1.00  0.00    +0.000 H 
ATOM    122  H34 UNL A   1      40.095  24.326  26.549  1.00  0.00    +0.000 H 
ATOM    123  H35 UNL A   1      39.371  26.719  27.107  1.00  0.00    +0.000 H 
ENDROOT
BRANCH   30   29
ATOM    124  H36 UNL A   1      40.224  29.321  27.024  1.00  0.00    +0.000 H 
ATOM     29  C23 UNL A   1      39.560  28.627  28.912  1.00  0.00    +0.000 C 
ATOM    112  H24 UNL A   1      36.432  28.967  30.053  1.00  0.00    +0.000 H 
ATOM    113  H25 UNL A   1      38.610  28.146  30.742  1.00  0.00    +0.000 H 
ATOM     87  C62 UNL A   1      39.416  29.241  27.661  1.00  0.00    +0.000 C 
ATOM     88  C63 UNL A   1      38.175  29.740  27.285  1.00  0.00    +0.000 C 
ATOM     26  C20 UNL A   1      37.076  29.579  28.133  1.00  0.00    +0.000 C 
ATOM     27  C21 UNL A   1      37.235  29.024  29.408  1.00  0.00    +0.000 C 
ATOM     28  C22 UNL A   1      38.481  28.551  29.802  1.00  0.00    +0.000 C 
ATOM    125  H37 UNL A   1      38.066  30.230  26.382  1.00  0.00    +0.000 H 
BRANCH   26   24
ATOM     25  O2  UNL A   1      35.480  31.202  27.598  1.00  0.00    +0.000 O 
ATOM     24  C19 UNL A   1      35.721  30.015  27.734  1.00  0.00    +0.000 C 
BRANCH   24   23
ATOM    111  H23 UNL A   1      34.349  28.689  28.379  1.00  0.00    +0.000 H 
ATOM     23  N3  UNL A   1      34.724  29.083  27.558  1.00  0.00    +0.000 N 
BRANCH   23   22
ATOM    110  H22 UNL A   1      34.022  27.555  26.370  1.00  0.00    +0.000 H 
ATOM    109  H21 UNL A   1      34.825  28.861  25.505  1.00  0.00    +0.000 H 
ATOM     22  C18 UNL A   1      34.157  28.614  26.304  1.00  0.00    +0.000 C 
BRANCH   22   21
ATOM    107  H19 UNL A   1      32.549  29.875  26.867  1.00  0.00    +0.000 H 
ATOM    108  H20 UNL A   1      32.898  29.809  25.122  1.00  0.00    +0.000 H 
ATOM     21  C17 UNL A   1      32.801  29.255  26.032  1.00  0.00    +0.000 C 
BRANCH   21   20
ATOM    105  H17 UNL A   1      30.742  28.762  25.987  1.00  0.00    +0.000 H 
ATOM    106  H18 UNL A   1      31.801  27.880  24.825  1.00  0.00    +0.000 H 
ATOM     20  C16 UNL A   1      31.666  28.249  25.821  1.00  0.00    +0.000 C 
BRANCH   20   19
ATOM     19  C15 UNL A   1      31.673  27.007  26.713  1.00  0.00    +0.000 C 
ATOM    103  H15 UNL A   1      32.690  26.802  26.977  1.00  0.00    +0.000 H 
ATOM    104  H16 UNL A   1      31.043  27.247  27.543  1.00  0.00    +0.000 H 
BRANCH   19   18
ATOM     18  C14 UNL A   1      31.082  25.732  26.104  1.00  0.00    +0.000 C 
ATOM    101  H13 UNL A   1      30.027  25.744  26.281  1.00  0.00    +0.000 H 
ATOM    102  H14 UNL A   1      31.355  25.757  25.069  1.00  0.00    +0.000 H 
BRANCH   18   17
ATOM     17  C13 UNL A   1      31.630  24.409  26.639  1.00  0.00    +0.000 C 
ATOM     99  H11 UNL A   1      32.698  24.454  26.618  1.00  0.00    +0.000 H 
ATOM    100  H12 UNL A   1      31.241  24.293  27.629  1.00  0.00    +0.000 H 
BRANCH   17   16
ATOM     98  H10 UNL A   1      30.314  23.222  25.472  1.00  0.00    +0.000 H 
ATOM     16  N2  UNL A   1      31.207  23.246  25.883  1.00  0.00    +0.000 N 
BRANCH   16    2
ATOM      1  O1  UNL A   1      31.758  21.133  25.159  1.00  0.00    +0.000 O 
ATOM      2  C1  UNL A   1      32.067  22.169  25.744  1.00  0.00    +0.000 C 
BRANCH    2    3
ATOM     89  H1  UNL A   1      33.462  21.573  27.193  1.00  0.00    +0.000 H 
ATOM     90  H2  UNL A   1      33.397  23.340  26.798  1.00  0.00    +0.000 H 
ATOM      3  C2  UNL A   1      33.402  22.332  26.441  1.00  0.00    +0.000 C 
BRANCH    3    4
ATOM      4  C3  UNL A   1      34.651  22.234  25.605  1.00  0.00    +0.000 C 
ATOM      5  C4  UNL A   1      35.740  21.417  25.894  1.00  0.00    +0.000 C 
ATOM      6  C5  UNL A   1      36.666  21.506  24.837  1.00  0.00    +0.000 C 
ATOM      7  C6  UNL A   1      36.132  22.372  23.915  1.00  0.00    +0.000 C 
ATOM      8  N1  UNL A   1      34.917  22.831  24.380  1.00  0.00    +0.000 N 
ATOM     91  H3  UNL A   1      35.849  20.841  26.743  1.00  0.00    +0.000 H 
ATOM     92  H4  UNL A   1      37.572  21.017  24.770  1.00  0.00    +0.000 H 
ATOM     93  H5  UNL A   1      36.569  22.636  23.018  1.00  0.00    +0.000 H 
BRANCH    8    9
ATOM     97  H9  UNL A   1      33.650  27.130  23.922  1.00  0.00    +0.000 H 
ATOM      9  C7  UNL A   1      34.204  23.837  23.714  1.00  0.00    +0.000 C 
ATOM     10  C8  UNL A   1      33.547  23.560  22.515  1.00  0.00    +0.000 C 
ATOM     11  C9  UNL A   1      32.890  24.600  21.852  1.00  0.00    +0.000 C 
ATOM     12  C10 UNL A   1      32.913  25.899  22.372  1.00  0.00    +0.000 C 
ATOM     13  C11 UNL A   1      33.615  26.169  23.547  1.00  0.00    +0.000 C 
ATOM     14  C12 UNL A   1      34.266  25.135  24.209  1.00  0.00    +0.000 C 
ATOM     15  F1  UNL A   1      34.956  25.398  25.327  1.00  0.00    +0.000 F 
ATOM     94  H6  UNL A   1      33.547  22.605  22.125  1.00  0.00    +0.000 H 
ATOM     95  H7  UNL A   1      32.384  24.409  20.973  1.00  0.00    +0.000 H 
ATOM     96  H8  UNL A   1      32.410  26.658  21.886  1.00  0.00    +0.000 H 
ENDBRANCH    8    9
ENDBRANCH    3    4
ENDBRANCH    2    3
ENDBRANCH   16    2
ENDBRANCH   17   16
ENDBRANCH   18   17
ENDBRANCH   19   18
ENDBRANCH   20   19
ENDBRANCH   21   20
ENDBRANCH   22   21
ENDBRANCH   23   22
ENDBRANCH   24   23
ENDBRANCH   26   24
ENDBRANCH   30   29
BRANCH   34   35
ATOM     35  C28 UNL A   1      42.607  22.432  26.940  1.00  0.00    +0.000 C 
ATOM     36  C29 UNL A   1      43.565  22.470  25.919  1.00  0.00    +0.000 C 
ATOM     37  F2  UNL A   1      44.254  23.589  25.660  1.00  0.00    +0.000 F 
ATOM     38  C30 UNL A   1      43.905  21.320  25.195  1.00  0.00    +0.000 C 
ATOM     39  F3  UNL A   1      44.855  21.386  24.253  1.00  0.00    +0.000 F 
ATOM     40  C31 UNL A   1      43.318  20.099  25.488  1.00  0.00    +0.000 C 
ATOM     41  F4  UNL A   1      43.720  18.985  24.861  1.00  0.00    +0.000 F 
ATOM     42  C32 UNL A   1      42.336  20.034  26.456  1.00  0.00    +0.000 C 
ATOM     43  F5  UNL A   1      41.778  18.856  26.770  1.00  0.00    +0.000 F 
ATOM     44  C33 UNL A   1      41.964  21.187  27.147  1.00  0.00    +0.000 C 
ATOM     45  F6  UNL A   1      41.001  21.057  28.073  1.00  0.00    +0.000 F 
ENDBRANCH   34   35
BRANCH   51   52
ATOM     52  C39 UNL A   1      46.003  26.906  28.567  1.00  0.00    +0.000 C 
ATOM     53  C40 UNL A   1      47.255  27.188  27.994  1.00  0.00    +0.000 C 
ATOM     54  F7  UNL A   1      48.379  26.820  28.604  1.00  0.00    +0.000 F 
ATOM     55  C41 UNL A   1      47.386  27.859  26.780  1.00  0.00    +0.000 C 
ATOM     56  F8  UNL A   1      48.606  28.118  26.284  1.00  0.00    +0.000 F 
ATOM     57  C42 UNL A   1      46.259  28.261  26.089  1.00  0.00    +0.000 C 
ATOM     58  F9  UNL A   1      46.380  28.906  24.921  1.00  0.00    +0.000 F 
ATOM     59  C43 UNL A   1      45.007  28.004  26.624  1.00  0.00    +0.000 C 
ATOM     60  F10 UNL A   1      43.911  28.396  25.961  1.00  0.00    +0.000 F 
ATOM     61  C44 UNL A   1      44.880  27.341  27.847  1.00  0.00    +0.000 C 
ATOM     62  F11 UNL A   1      43.648  27.118  28.331  1.00  0.00    +0.000 F 
ENDBRANCH   51   52
BRANCH   66   67
ATOM     67  C48 UNL A   1      44.915  30.379  33.526  1.00  0.00    +0.000 C 
ATOM     68  C49 UNL A   1      44.141  30.478  34.718  1.00  0.00    +0.000 C 
ATOM     69  F12 UNL A   1      43.115  29.652  34.959  1.00  0.00    +0.000 F 
ATOM     70  C50 UNL A   1      44.376  31.429  35.714  1.00  0.00    +0.000 C 
ATOM     71  F13 UNL A   1      43.533  31.525  36.752  1.00  0.00    +0.000 F 
ATOM     72  C51 UNL A   1      45.451  32.277  35.616  1.00  0.00    +0.000 C 
ATOM     73  F14 UNL A   1      45.667  33.212  36.550  1.00  0.00    +0.000 F 
ATOM     74  C52 UNL A   1      46.311  32.133  34.545  1.00  0.00    +0.000 C 
ATOM     75  F15 UNL A   1      47.402  32.909  34.469  1.00  0.00    +0.000 F 
ATOM     76  C53 UNL A   1      46.052  31.198  33.526  1.00  0.00    +0.000 C 
ATOM     77  F16 UNL A   1      46.976  31.118  32.567  1.00  0.00    +0.000 F 
ENDBRANCH   66   67
TORSDOF 17
ENDMDL
