MODEL 1
REMARK VINA RESULT:      -8.7      0.000      0.000
ROOT
ATOM     33  C25 UNL A   1      39.652  29.081  29.271  1.00  0.00    +0.000 C 
ATOM     34  C26 UNL A   1      40.449  30.057  30.085  1.00  0.00    +0.000 C 
ATOM     35  N5  UNL A   1      41.696  29.980  30.480  1.00  0.00    +0.000 N 
ATOM     36  C27 UNL A   1      41.946  31.157  31.172  1.00  0.00    +0.000 C 
ATOM     37  C28 UNL A   1      43.088  31.542  31.793  1.00  0.00    +0.000 C 
ATOM     49  C35 UNL A   1      44.287  30.746  31.847  1.00  0.00    +0.000 C 
ATOM     50  C36 UNL A   1      45.477  31.021  32.499  1.00  0.00    +0.000 C 
ATOM     51  C37 UNL A   1      46.378  29.988  32.219  1.00  0.00    +0.000 C 
ATOM     52  C38 UNL A   1      45.734  29.044  31.434  1.00  0.00    +0.000 C 
ATOM     53  N6  UNL A   1      44.452  29.522  31.214  1.00  0.00    +0.000 N 
ATOM     54  C39 UNL A   1      46.254  27.802  30.919  1.00  0.00    +0.000 C 
ATOM     66  C46 UNL A   1      45.553  26.911  30.176  1.00  0.00    +0.000 C 
ATOM     67  N7  UNL A   1      44.231  26.977  29.759  1.00  0.00    +0.000 N 
ATOM     68  C47 UNL A   1      44.015  25.883  29.072  1.00  0.00    +0.000 C 
ATOM     69  C48 UNL A   1      42.752  25.426  28.402  1.00  0.00    +0.000 C 
ATOM     81  C55 UNL A   1      41.637  26.168  28.520  1.00  0.00    +0.000 C 
ATOM     82  C56 UNL A   1      40.350  25.854  27.908  1.00  0.00    +0.000 C 
ATOM     83  C57 UNL A   1      39.510  26.879  28.112  1.00  0.00    +0.000 C 
ATOM     84  C58 UNL A   1      40.187  27.899  28.915  1.00  0.00    +0.000 C 
ATOM     85  N8  UNL A   1      41.426  27.364  29.162  1.00  0.00    +0.000 N 
ATOM     86  C59 UNL A   1      45.186  25.003  28.955  1.00  0.00    +0.000 C 
ATOM     87  C60 UNL A   1      46.090  25.666  29.665  1.00  0.00    +0.000 C 
ATOM     88  C61 UNL A   1      40.730  31.942  31.122  1.00  0.00    +0.000 C 
ATOM     89  C62 UNL A   1      39.760  31.286  30.501  1.00  0.00    +0.000 C 
ATOM    117  H26 UNL A   1      45.666  31.846  33.090  1.00  0.00    +0.000 H 
ATOM    118  H27 UNL A   1      47.356  29.937  32.542  1.00  0.00    +0.000 H 
ATOM    119  H28 UNL A   1      43.760  29.061  30.686  1.00  0.00    +0.000 H 
ATOM    120  H29 UNL A   1      40.123  24.984  27.402  1.00  0.00    +0.000 H 
ATOM    121  H30 UNL A   1      38.542  26.941  27.759  1.00  0.00    +0.000 H 
ATOM    122  H31 UNL A   1      42.097  27.794  29.741  1.00  0.00    +0.000 H 
ATOM    123  H32 UNL A   1      45.280  24.107  28.452  1.00  0.00    +0.000 H 
ATOM    124  H33 UNL A   1      47.053  25.336  29.832  1.00  0.00    +0.000 H 
ATOM    125  H34 UNL A   1      40.632  32.890  31.520  1.00  0.00    +0.000 H 
ATOM    126  H35 UNL A   1      38.779  31.566  30.348  1.00  0.00    +0.000 H 
ENDROOT
BRANCH   33   32
ATOM    127  H36 UNL A   1      37.348  28.966  30.658  1.00  0.00    +0.000 H 
ATOM     32  C24 UNL A   1      38.283  29.420  28.814  1.00  0.00    +0.000 C 
ATOM    115  H24 UNL A   1      36.651  30.725  26.186  1.00  0.00    +0.000 H 
ATOM    116  H25 UNL A   1      38.861  29.986  26.859  1.00  0.00    +0.000 H 
ATOM     90  C63 UNL A   1      37.194  29.299  29.694  1.00  0.00    +0.000 C 
ATOM     91  C64 UNL A   1      35.907  29.627  29.268  1.00  0.00    +0.000 C 
ATOM     29  C21 UNL A   1      35.704  30.107  27.971  1.00  0.00    +0.000 C 
ATOM     30  C22 UNL A   1      36.793  30.297  27.115  1.00  0.00    +0.000 C 
ATOM     31  C23 UNL A   1      38.069  29.911  27.518  1.00  0.00    +0.000 C 
ATOM    128  H37 UNL A   1      35.106  29.516  29.909  1.00  0.00    +0.000 H 
BRANCH   29    2
ATOM      1  O1  UNL A   1      33.739  29.720  26.753  1.00  0.00    +0.000 O 
ATOM      2  C1  UNL A   1      34.329  30.448  27.547  1.00  0.00    +0.000 C 
BRANCH    2    3
ATOM      3  N1  UNL A   1      33.719  31.578  28.028  1.00  0.00    +0.000 N 
ATOM     92  H1  UNL A   1      32.894  31.424  28.543  1.00  0.00    +0.000 H 
BRANCH    3    4
ATOM      4  C2  UNL A   1      34.114  32.968  27.885  1.00  0.00    +0.000 C 
ATOM     93  H2  UNL A   1      33.259  33.540  27.591  1.00  0.00    +0.000 H 
ATOM     94  H3  UNL A   1      34.888  33.013  27.149  1.00  0.00    +0.000 H 
BRANCH    4    5
ATOM      5  C3  UNL A   1      34.671  33.549  29.181  1.00  0.00    +0.000 C 
ATOM     95  H4  UNL A   1      34.159  33.086  29.999  1.00  0.00    +0.000 H 
ATOM     96  H5  UNL A   1      34.516  34.607  29.125  1.00  0.00    +0.000 H 
BRANCH    5    6
ATOM     97  H6  UNL A   1      36.671  34.245  29.079  1.00  0.00    +0.000 H 
ATOM     98  H7  UNL A   1      36.438  32.488  28.813  1.00  0.00    +0.000 H 
ATOM      6  C4  UNL A   1      36.173  33.350  29.389  1.00  0.00    +0.000 C 
BRANCH    6    7
ATOM     99  H8  UNL A   1      37.316  33.787  31.121  1.00  0.00    +0.000 H 
ATOM    100  H9  UNL A   1      37.001  32.049  30.806  1.00  0.00    +0.000 H 
ATOM      7  C5  UNL A   1      36.606  33.043  30.826  1.00  0.00    +0.000 C 
BRANCH    7    8
ATOM    101  H10 UNL A   1      34.664  32.467  31.463  1.00  0.00    +0.000 H 
ATOM    102  H11 UNL A   1      35.244  34.050  32.063  1.00  0.00    +0.000 H 
ATOM      8  C6  UNL A   1      35.482  33.026  31.867  1.00  0.00    +0.000 C 
BRANCH    8    9
ATOM      9  C7  UNL A   1      35.854  32.413  33.215  1.00  0.00    +0.000 C 
ATOM    103  H12 UNL A   1      35.396  31.449  33.295  1.00  0.00    +0.000 H 
ATOM    104  H13 UNL A   1      35.507  33.071  33.985  1.00  0.00    +0.000 H 
BRANCH    9   10
ATOM    105  H14 UNL A   1      37.841  32.821  32.774  1.00  0.00    +0.000 H 
ATOM     10  N2  UNL A   1      37.291  32.263  33.369  1.00  0.00    +0.000 N 
BRANCH   10   11
ATOM     11  C8  UNL A   1      37.984  31.451  34.229  1.00  0.00    +0.000 C 
ATOM     12  O2  UNL A   1      38.118  31.771  35.406  1.00  0.00    +0.000 O 
BRANCH   11   13
ATOM    106  H15 UNL A   1      36.776  29.535  32.840  1.00  0.00    +0.000 H 
ATOM    107  H16 UNL A   1      37.726  27.464  32.001  1.00  0.00    +0.000 H 
ATOM    108  H17 UNL A   1      40.050  26.938  32.421  1.00  0.00    +0.000 H 
ATOM     13  C9  UNL A   1      38.573  30.188  33.740  1.00  0.00    +0.000 C 
ATOM     14  C10 UNL A   1      37.767  29.307  33.019  1.00  0.00    +0.000 C 
ATOM     15  C11 UNL A   1      38.310  28.118  32.543  1.00  0.00    +0.000 C 
ATOM     16  C12 UNL A   1      39.651  27.811  32.799  1.00  0.00    +0.000 C 
ATOM     17  C13 UNL A   1      40.462  28.664  33.559  1.00  0.00    +0.000 C 
ATOM    114  H23 UNL A   1      40.477  30.501  34.597  1.00  0.00    +0.000 H 
ATOM     28  C20 UNL A   1      39.904  29.858  34.030  1.00  0.00    +0.000 C 
BRANCH   17   18
ATOM     18  N3  UNL A   1      41.831  28.418  33.811  1.00  0.00    +0.000 N 
ATOM    109  H18 UNL A   1      42.420  29.207  33.775  1.00  0.00    +0.000 H 
BRANCH   18   19
ATOM    110  H19 UNL A   1      41.191  26.744  35.731  1.00  0.00    +0.000 H 
ATOM    111  H20 UNL A   1      42.125  24.547  36.153  1.00  0.00    +0.000 H 
ATOM    112  H21 UNL A   1      44.864  25.108  33.004  1.00  0.00    +0.000 H 
ATOM    113  H22 UNL A   1      43.919  27.301  32.583  1.00  0.00    +0.000 H 
ATOM     19  C14 UNL A   1      42.464  27.196  34.108  1.00  0.00    +0.000 C 
ATOM     20  C15 UNL A   1      41.964  26.395  35.142  1.00  0.00    +0.000 C 
ATOM     21  C16 UNL A   1      42.501  25.129  35.388  1.00  0.00    +0.000 C 
ATOM     22  C17 UNL A   1      43.549  24.653  34.594  1.00  0.00    +0.000 C 
ATOM     26  C18 UNL A   1      44.077  25.450  33.576  1.00  0.00    +0.000 C 
ATOM     27  C19 UNL A   1      43.530  26.714  33.338  1.00  0.00    +0.000 C 
BRANCH   22   23
ATOM     25  O4  UNL A   1      44.698  22.991  35.988  1.00  0.00    +0.000 O 
ATOM     23  N4  UNL A   1      44.070  23.323  34.811  1.00  0.00    +0.000 N 
ATOM     24  O3  UNL A   1      43.991  22.472  33.949  1.00  0.00    +0.000 O 
ENDBRANCH   22   23
ENDBRANCH   18   19
ENDBRANCH   17   18
ENDBRANCH   11   13
ENDBRANCH   10   11
ENDBRANCH    9   10
ENDBRANCH    8    9
ENDBRANCH    7    8
ENDBRANCH    6    7
ENDBRANCH    5    6
ENDBRANCH    4    5
ENDBRANCH    3    4
ENDBRANCH    2    3
ENDBRANCH   29    2
ENDBRANCH   33   32
BRANCH   37   38
ATOM     38  C29 UNL A   1      43.103  32.896  32.438  1.00  0.00    +0.000 C 
ATOM     39  C30 UNL A   1      43.462  34.051  31.728  1.00  0.00    +0.000 C 
ATOM     40  F1  UNL A   1      43.836  33.964  30.441  1.00  0.00    +0.000 F 
ATOM     41  C31 UNL A   1      43.480  35.298  32.348  1.00  0.00    +0.000 C 
ATOM     42  F2  UNL A   1      43.878  36.380  31.663  1.00  0.00    +0.000 F 
ATOM     43  C32 UNL A   1      43.106  35.421  33.678  1.00  0.00    +0.000 C 
ATOM     44  F3  UNL A   1      43.126  36.621  34.273  1.00  0.00    +0.000 F 
ATOM     45  C33 UNL A   1      42.723  34.297  34.392  1.00  0.00    +0.000 C 
ATOM     46  F4  UNL A   1      42.350  34.414  35.675  1.00  0.00    +0.000 F 
ATOM     47  C34 UNL A   1      42.730  33.044  33.783  1.00  0.00    +0.000 C 
ATOM     48  F5  UNL A   1      42.371  31.974  34.506  1.00  0.00    +0.000 F 
ENDBRANCH   37   38
BRANCH   54   55
ATOM     65  F10 UNL A   1      48.438  28.393  29.204  1.00  0.00    +0.000 F 
ATOM     55  C40 UNL A   1      47.674  27.454  31.254  1.00  0.00    +0.000 C 
ATOM     56  C41 UNL A   1      48.003  26.774  32.433  1.00  0.00    +0.000 C 
ATOM     57  F6  UNL A   1      47.053  26.489  33.337  1.00  0.00    +0.000 F 
ATOM     58  C42 UNL A   1      49.319  26.404  32.700  1.00  0.00    +0.000 C 
ATOM     59  F7  UNL A   1      49.618  25.778  33.846  1.00  0.00    +0.000 F 
ATOM     60  C43 UNL A   1      50.321  26.686  31.783  1.00  0.00    +0.000 C 
ATOM     61  F8  UNL A   1      51.585  26.315  32.033  1.00  0.00    +0.000 F 
ATOM     62  C44 UNL A   1      50.015  27.354  30.607  1.00  0.00    +0.000 C 
ATOM     63  F9  UNL A   1      50.980  27.617  29.714  1.00  0.00    +0.000 F 
ATOM     64  C45 UNL A   1      48.705  27.746  30.348  1.00  0.00    +0.000 C 
ENDBRANCH   54   55
BRANCH   69   70
ATOM     70  C49 UNL A   1      42.700  24.171  27.610  1.00  0.00    +0.000 C 
ATOM     71  C50 UNL A   1      42.982  24.172  26.239  1.00  0.00    +0.000 C 
ATOM     72  F11 UNL A   1      43.227  25.330  25.608  1.00  0.00    +0.000 F 
ATOM     73  C51 UNL A   1      43.004  22.985  25.511  1.00  0.00    +0.000 C 
ATOM     74  F12 UNL A   1      43.261  23.014  24.196  1.00  0.00    +0.000 F 
ATOM     75  C52 UNL A   1      42.764  21.775  26.144  1.00  0.00    +0.000 C 
ATOM     76  F13 UNL A   1      42.806  20.631  25.447  1.00  0.00    +0.000 F 
ATOM     77  C53 UNL A   1      42.480  21.750  27.502  1.00  0.00    +0.000 C 
ATOM     78  F14 UNL A   1      42.266  20.582  28.121  1.00  0.00    +0.000 F 
ATOM     79  C54 UNL A   1      42.434  22.939  28.226  1.00  0.00    +0.000 C 
ATOM     80  F15 UNL A   1      42.169  22.887  29.539  1.00  0.00    +0.000 F 
ENDBRANCH   69   70
TORSDOF 18
ENDMDL
MODEL 2
REMARK VINA RESULT:      -8.6      4.195     10.752
ROOT
ATOM     33  C25 UNL A   1      38.000  30.076  29.675  1.00  0.00    +0.000 C 
ATOM     34  C26 UNL A   1      39.032  29.134  29.129  1.00  0.00    +0.000 C 
ATOM     35  N5  UNL A   1      40.130  28.693  29.691  1.00  0.00    +0.000 N 
ATOM     36  C27 UNL A   1      40.701  27.823  28.774  1.00  0.00    +0.000 C 
ATOM     37  C28 UNL A   1      41.860  27.129  28.882  1.00  0.00    +0.000 C 
ATOM     49  C35 UNL A   1      42.739  27.192  30.021  1.00  0.00    +0.000 C 
ATOM     50  C36 UNL A   1      43.963  26.573  30.203  1.00  0.00    +0.000 C 
ATOM     51  C37 UNL A   1      44.420  26.876  31.490  1.00  0.00    +0.000 C 
ATOM     52  C38 UNL A   1      43.505  27.725  32.092  1.00  0.00    +0.000 C 
ATOM     53  N6  UNL A   1      42.479  27.911  31.180  1.00  0.00    +0.000 N 
ATOM     54  C39 UNL A   1      43.561  28.318  33.406  1.00  0.00    +0.000 C 
ATOM     66  C46 UNL A   1      42.637  29.165  33.920  1.00  0.00    +0.000 C 
ATOM     67  N7  UNL A   1      41.476  29.646  33.331  1.00  0.00    +0.000 N 
ATOM     68  C47 UNL A   1      40.921  30.434  34.218  1.00  0.00    +0.000 C 
ATOM     69  C48 UNL A   1      39.655  31.232  34.108  1.00  0.00    +0.000 C 
ATOM     81  C55 UNL A   1      38.968  31.222  32.952  1.00  0.00    +0.000 C 
ATOM     82  C56 UNL A   1      37.716  31.934  32.712  1.00  0.00    +0.000 C 
ATOM     83  C57 UNL A   1      37.241  31.583  31.509  1.00  0.00    +0.000 C 
ATOM     84  C58 UNL A   1      38.182  30.661  30.873  1.00  0.00    +0.000 C 
ATOM     85  N8  UNL A   1      39.208  30.551  31.778  1.00  0.00    +0.000 N 
ATOM     86  C59 UNL A   1      41.658  30.527  35.486  1.00  0.00    +0.000 C 
ATOM     87  C60 UNL A   1      42.708  29.754  35.242  1.00  0.00    +0.000 C 
ATOM     88  C61 UNL A   1      39.817  27.777  27.628  1.00  0.00    +0.000 C 
ATOM     89  C62 UNL A   1      38.793  28.605  27.779  1.00  0.00    +0.000 C 
ATOM    117  H26 UNL A   1      44.454  25.987  29.509  1.00  0.00    +0.000 H 
ATOM    118  H27 UNL A   1      45.291  26.527  31.919  1.00  0.00    +0.000 H 
ATOM    119  H28 UNL A   1      41.683  28.471  31.330  1.00  0.00    +0.000 H 
ATOM    120  H29 UNL A   1      37.272  32.600  33.363  1.00  0.00    +0.000 H 
ATOM    121  H30 UNL A   1      36.353  31.909  31.097  1.00  0.00    +0.000 H 
ATOM    122  H31 UNL A   1      40.034  30.043  31.603  1.00  0.00    +0.000 H 
ATOM    123  H32 UNL A   1      41.421  31.055  36.340  1.00  0.00    +0.000 H 
ATOM    124  H33 UNL A   1      43.477  29.591  35.911  1.00  0.00    +0.000 H 
ATOM    125  H34 UNL A   1      39.966  27.178  26.801  1.00  0.00    +0.000 H 
ATOM    126  H35 UNL A   1      38.029  28.822  27.121  1.00  0.00    +0.000 H 
ENDROOT
BRANCH   33   32
ATOM    127  H36 UNL A   1      35.976  28.389  29.127  1.00  0.00    +0.000 H 
ATOM     32  C24 UNL A   1      36.751  30.347  28.923  1.00  0.00    +0.000 C 
ATOM    115  H24 UNL A   1      35.058  32.867  27.490  1.00  0.00    +0.000 H 
ATOM    116  H25 UNL A   1      37.187  32.382  28.543  1.00  0.00    +0.000 H 
ATOM     90  C63 UNL A   1      35.800  29.330  28.742  1.00  0.00    +0.000 C 
ATOM     91  C64 UNL A   1      34.621  29.587  28.043  1.00  0.00    +0.000 C 
ATOM     29  C21 UNL A   1      34.370  30.869  27.548  1.00  0.00    +0.000 C 
ATOM     30  C22 UNL A   1      35.280  31.903  27.788  1.00  0.00    +0.000 C 
ATOM     31  C23 UNL A   1      36.486  31.634  28.430  1.00  0.00    +0.000 C 
ATOM    128  H37 UNL A   1      33.934  28.831  27.892  1.00  0.00    +0.000 H 
BRANCH   29    2
ATOM      1  O1  UNL A   1      32.465  32.134  27.035  1.00  0.00    +0.000 O 
ATOM      2  C1  UNL A   1      33.111  31.114  26.813  1.00  0.00    +0.000 C 
BRANCH    2    3
ATOM      3  N1  UNL A   1      32.660  30.200  25.894  1.00  0.00    +0.000 N 
ATOM     92  H1  UNL A   1      33.123  30.212  25.026  1.00  0.00    +0.000 H 
BRANCH    3    4
ATOM      4  C2  UNL A   1      31.596  29.219  26.020  1.00  0.00    +0.000 C 
ATOM     93  H2  UNL A   1      30.942  29.312  25.179  1.00  0.00    +0.000 H 
ATOM     94  H3  UNL A   1      31.084  29.409  26.939  1.00  0.00    +0.000 H 
BRANCH    4    5
ATOM      5  C3  UNL A   1      32.128  27.790  26.072  1.00  0.00    +0.000 C 
ATOM     95  H4  UNL A   1      32.982  27.778  26.719  1.00  0.00    +0.000 H 
ATOM     96  H5  UNL A   1      32.356  27.519  25.062  1.00  0.00    +0.000 H 
BRANCH    5    6
ATOM     97  H6  UNL A   1      30.152  27.059  26.296  1.00  0.00    +0.000 H 
ATOM     98  H7  UNL A   1      31.280  26.690  27.639  1.00  0.00    +0.000 H 
ATOM      6  C4  UNL A   1      31.134  26.745  26.580  1.00  0.00    +0.000 C 
BRANCH    6    7
ATOM     99  H8  UNL A   1      31.969  25.382  25.186  1.00  0.00    +0.000 H 
ATOM    100  H9  UNL A   1      30.367  24.935  25.858  1.00  0.00    +0.000 H 
ATOM      7  C5  UNL A   1      31.345  25.322  26.053  1.00  0.00    +0.000 C 
BRANCH    7    8
ATOM    101  H10 UNL A   1      31.219  23.890  27.616  1.00  0.00    +0.000 H 
ATOM    102  H11 UNL A   1      32.684  24.918  27.616  1.00  0.00    +0.000 H 
ATOM      8  C6  UNL A   1      31.996  24.342  27.035  1.00  0.00    +0.000 C 
BRANCH    8    9
ATOM      9  C7  UNL A   1      32.816  23.226  26.391  1.00  0.00    +0.000 C 
ATOM    103  H12 UNL A   1      32.441  23.048  25.405  1.00  0.00    +0.000 H 
ATOM    104  H13 UNL A   1      32.722  22.352  27.003  1.00  0.00    +0.000 H 
BRANCH    9   10
ATOM    105  H14 UNL A   1      34.716  23.553  27.157  1.00  0.00    +0.000 H 
ATOM     10  N2  UNL A   1      34.225  23.563  26.305  1.00  0.00    +0.000 N 
BRANCH   10   11
ATOM     11  C8  UNL A   1      34.964  23.894  25.199  1.00  0.00    +0.000 C 
ATOM     12  O2  UNL A   1      36.190  23.877  25.248  1.00  0.00    +0.000 O 
BRANCH   11   13
ATOM    106  H15 UNL A   1      34.379  22.320  23.139  1.00  0.00    +0.000 H 
ATOM    107  H16 UNL A   1      33.242  22.909  21.076  1.00  0.00    +0.000 H 
ATOM    108  H17 UNL A   1      32.505  25.183  20.704  1.00  0.00    +0.000 H 
ATOM     13  C9  UNL A   1      34.286  24.272  23.942  1.00  0.00    +0.000 C 
ATOM     14  C10 UNL A   1      34.065  23.290  22.977  1.00  0.00    +0.000 C 
ATOM     15  C11 UNL A   1      33.418  23.629  21.793  1.00  0.00    +0.000 C 
ATOM     16  C12 UNL A   1      33.004  24.948  21.575  1.00  0.00    +0.000 C 
ATOM     17  C13 UNL A   1      33.257  25.956  22.516  1.00  0.00    +0.000 C 
ATOM    114  H23 UNL A   1      34.111  26.324  24.410  1.00  0.00    +0.000 H 
ATOM     28  C20 UNL A   1      33.907  25.600  23.703  1.00  0.00    +0.000 C 
BRANCH   17   18
ATOM     18  N3  UNL A   1      32.826  27.293  22.361  1.00  0.00    +0.000 N 
ATOM    109  H18 UNL A   1      33.529  27.945  22.141  1.00  0.00    +0.000 H 
BRANCH   18   19
ATOM    110  H19 UNL A   1      30.693  26.013  23.204  1.00  0.00    +0.000 H 
ATOM    111  H20 UNL A   1      28.482  26.922  23.608  1.00  0.00    +0.000 H 
ATOM    112  H21 UNL A   1      29.764  30.669  22.178  1.00  0.00    +0.000 H 
ATOM    113  H22 UNL A   1      31.976  29.754  21.785  1.00  0.00    +0.000 H 
ATOM     19  C14 UNL A   1      31.524  27.814  22.481  1.00  0.00    +0.000 C 
ATOM     20  C15 UNL A   1      30.502  27.006  22.995  1.00  0.00    +0.000 C 
ATOM     21  C16 UNL A   1      29.227  27.527  23.229  1.00  0.00    +0.000 C 
ATOM     22  C17 UNL A   1      28.964  28.871  22.946  1.00  0.00    +0.000 C 
ATOM     26  C18 UNL A   1      29.965  29.684  22.407  1.00  0.00    +0.000 C 
ATOM     27  C19 UNL A   1      31.236  29.152  22.180  1.00  0.00    +0.000 C 
BRANCH   22   23
ATOM     25  O4  UNL A   1      27.508  30.768  23.498  1.00  0.00    +0.000 O 
ATOM     23  N4  UNL A   1      27.663  29.426  23.237  1.00  0.00    +0.000 N 
ATOM     24  O3  UNL A   1      26.678  28.720  23.286  1.00  0.00    +0.000 O 
ENDBRANCH   22   23
ENDBRANCH   18   19
ENDBRANCH   17   18
ENDBRANCH   11   13
ENDBRANCH   10   11
ENDBRANCH    9   10
ENDBRANCH    8    9
ENDBRANCH    7    8
ENDBRANCH    6    7
ENDBRANCH    5    6
ENDBRANCH    4    5
ENDBRANCH    3    4
ENDBRANCH    2    3
ENDBRANCH   29    2
ENDBRANCH   33   32
BRANCH   37   38
ATOM     38  C29 UNL A   1      42.230  26.217  27.748  1.00  0.00    +0.000 C 
ATOM     39  C30 UNL A   1      43.176  26.586  26.780  1.00  0.00    +0.000 C 
ATOM     40  F1  UNL A   1      43.759  27.794  26.831  1.00  0.00    +0.000 F 
ATOM     41  C31 UNL A   1      43.498  25.729  25.730  1.00  0.00    +0.000 C 
ATOM     42  F2  UNL A   1      44.366  26.124  24.788  1.00  0.00    +0.000 F 
ATOM     43  C32 UNL A   1      42.908  24.477  25.645  1.00  0.00    +0.000 C 
ATOM     44  F3  UNL A   1      43.218  23.656  24.633  1.00  0.00    +0.000 F 
ATOM     45  C33 UNL A   1      41.990  24.082  26.605  1.00  0.00    +0.000 C 
ATOM     46  F4  UNL A   1      41.426  22.867  26.532  1.00  0.00    +0.000 F 
ATOM     47  C34 UNL A   1      41.645  24.946  27.642  1.00  0.00    +0.000 C 
ATOM     48  F5  UNL A   1      40.740  24.541  28.544  1.00  0.00    +0.000 F 
ENDBRANCH   37   38
BRANCH   54   55
ATOM     65  F10 UNL A   1      45.943  29.863  33.399  1.00  0.00    +0.000 F 
ATOM     55  C40 UNL A   1      44.749  27.993  34.261  1.00  0.00    +0.000 C 
ATOM     56  C41 UNL A   1      44.765  26.869  35.097  1.00  0.00    +0.000 C 
ATOM     57  F6  UNL A   1      43.674  26.097  35.212  1.00  0.00    +0.000 F 
ATOM     58  C42 UNL A   1      45.899  26.547  35.838  1.00  0.00    +0.000 C 
ATOM     59  F7  UNL A   1      45.885  25.482  36.653  1.00  0.00    +0.000 F 
ATOM     60  C43 UNL A   1      47.042  27.326  35.737  1.00  0.00    +0.000 C 
ATOM     61  F8  UNL A   1      48.138  27.006  36.439  1.00  0.00    +0.000 F 
ATOM     62  C44 UNL A   1      47.048  28.441  34.912  1.00  0.00    +0.000 C 
ATOM     63  F9  UNL A   1      48.156  29.189  34.804  1.00  0.00    +0.000 F 
ATOM     64  C45 UNL A   1      45.909  28.778  34.188  1.00  0.00    +0.000 C 
ENDBRANCH   54   55
BRANCH   69   70
ATOM     70  C49 UNL A   1      39.139  32.036  35.244  1.00  0.00    +0.000 C 
ATOM     71  C50 UNL A   1      38.365  31.447  36.250  1.00  0.00    +0.000 C 
ATOM     72  F11 UNL A   1      38.013  30.157  36.155  1.00  0.00    +0.000 F 
ATOM     73  C51 UNL A   1      37.941  32.185  37.353  1.00  0.00    +0.000 C 
ATOM     74  F12 UNL A   1      37.187  31.604  38.296  1.00  0.00    +0.000 F 
ATOM     75  C52 UNL A   1      38.301  33.519  37.479  1.00  0.00    +0.000 C 
ATOM     76  F13 UNL A   1      37.912  34.222  38.551  1.00  0.00    +0.000 F 
ATOM     77  C53 UNL A   1      39.067  34.123  36.493  1.00  0.00    +0.000 C 
ATOM     78  F14 UNL A   1      39.432  35.406  36.619  1.00  0.00    +0.000 F 
ATOM     79  C54 UNL A   1      39.470  33.392  35.378  1.00  0.00    +0.000 C 
ATOM     80  F15 UNL A   1      40.219  33.997  34.444  1.00  0.00    +0.000 F 
ENDBRANCH   69   70
TORSDOF 18
ENDMDL
MODEL 3
REMARK VINA RESULT:      -8.6     19.559     25.939
ROOT
ATOM     33  C25 UNL A   1      25.813  35.631  45.309  1.00  0.00    +0.000 C 
ATOM     34  C26 UNL A   1      27.140  35.594  44.611  1.00  0.00    +0.000 C 
ATOM     35  N5  UNL A   1      28.170  36.391  44.751  1.00  0.00    +0.000 N 
ATOM     36  C27 UNL A   1      29.148  35.897  43.899  1.00  0.00    +0.000 C 
ATOM     37  C28 UNL A   1      30.390  36.389  43.669  1.00  0.00    +0.000 C 
ATOM     49  C35 UNL A   1      30.922  37.571  44.297  1.00  0.00    +0.000 C 
ATOM     50  C36 UNL A   1      32.145  38.183  44.090  1.00  0.00    +0.000 C 
ATOM     51  C37 UNL A   1      32.248  39.267  44.969  1.00  0.00    +0.000 C 
ATOM     52  C38 UNL A   1      31.068  39.361  45.689  1.00  0.00    +0.000 C 
ATOM     53  N6  UNL A   1      30.263  38.314  45.267  1.00  0.00    +0.000 N 
ATOM     54  C39 UNL A   1      30.705  40.330  46.693  1.00  0.00    +0.000 C 
ATOM     66  C46 UNL A   1      29.515  40.375  47.340  1.00  0.00    +0.000 C 
ATOM     67  N7  UNL A   1      28.414  39.544  47.194  1.00  0.00    +0.000 N 
ATOM     68  C47 UNL A   1      27.511  39.991  48.031  1.00  0.00    +0.000 C 
ATOM     69  C48 UNL A   1      26.122  39.479  48.279  1.00  0.00    +0.000 C 
ATOM     81  C55 UNL A   1      25.657  38.452  47.546  1.00  0.00    +0.000 C 
ATOM     82  C56 UNL A   1      24.338  37.844  47.693  1.00  0.00    +0.000 C 
ATOM     83  C57 UNL A   1      24.269  36.761  46.906  1.00  0.00    +0.000 C 
ATOM     84  C58 UNL A   1      25.521  36.631  46.161  1.00  0.00    +0.000 C 
ATOM     85  N8  UNL A   1      26.263  37.714  46.559  1.00  0.00    +0.000 N 
ATOM     86  C59 UNL A   1      27.945  41.149  48.824  1.00  0.00    +0.000 C 
ATOM     87  C60 UNL A   1      29.165  41.357  48.347  1.00  0.00    +0.000 C 
ATOM     88  C61 UNL A   1      28.598  34.718  43.264  1.00  0.00    +0.000 C 
ATOM     89  C62 UNL A   1      27.342  34.514  43.635  1.00  0.00    +0.000 C 
ATOM    117  H26 UNL A   1      32.860  37.891  43.404  1.00  0.00    +0.000 H 
ATOM    118  H27 UNL A   1      33.064  39.891  45.065  1.00  0.00    +0.000 H 
ATOM    119  H28 UNL A   1      29.357  38.126  45.605  1.00  0.00    +0.000 H 
ATOM    120  H29 UNL A   1      23.582  38.192  48.303  1.00  0.00    +0.000 H 
ATOM    121  H30 UNL A   1      23.463  36.120  46.838  1.00  0.00    +0.000 H 
ATOM    122  H31 UNL A   1      27.143  37.939  46.177  1.00  0.00    +0.000 H 
ATOM    123  H32 UNL A   1      27.435  41.663  49.559  1.00  0.00    +0.000 H 
ATOM    124  H33 UNL A   1      29.786  42.122  48.655  1.00  0.00    +0.000 H 
ATOM    125  H34 UNL A   1      29.117  34.115  42.605  1.00  0.00    +0.000 H 
ATOM    126  H35 UNL A   1      26.681  33.787  43.323  1.00  0.00    +0.000 H 
ENDROOT
BRANCH   33   32
ATOM    127  H36 UNL A   1      25.526  33.335  46.685  1.00  0.00    +0.000 H 
ATOM     32  C24 UNL A   1      24.820  34.548  45.102  1.00  0.00    +0.000 C 
ATOM    115  H24 UNL A   1      22.100  33.810  43.277  1.00  0.00    +0.000 H 
ATOM    116  H25 UNL A   1      23.839  35.489  43.481  1.00  0.00    +0.000 H 
ATOM     90  C63 UNL A   1      24.825  33.416  45.933  1.00  0.00    +0.000 C 
ATOM     91  C64 UNL A   1      23.885  32.402  45.745  1.00  0.00    +0.000 C 
ATOM     29  C21 UNL A   1      22.917  32.528  44.745  1.00  0.00    +0.000 C 
ATOM     30  C22 UNL A   1      22.863  33.685  43.963  1.00  0.00    +0.000 C 
ATOM     31  C23 UNL A   1      23.838  34.669  44.108  1.00  0.00    +0.000 C 
ATOM    128  H37 UNL A   1      23.905  31.561  46.343  1.00  0.00    +0.000 H 
BRANCH   29    2
ATOM      1  O1  UNL A   1      22.185  30.316  44.998  1.00  0.00    +0.000 O 
ATOM      2  C1  UNL A   1      21.933  31.439  44.569  1.00  0.00    +0.000 C 
BRANCH    2    3
ATOM      3  N1  UNL A   1      20.748  31.677  43.920  1.00  0.00    +0.000 N 
ATOM     92  H1  UNL A   1      20.771  31.549  42.944  1.00  0.00    +0.000 H 
BRANCH    3    4
ATOM      4  C2  UNL A   1      19.467  32.089  44.465  1.00  0.00    +0.000 C 
ATOM     93  H2  UNL A   1      19.475  33.151  44.596  1.00  0.00    +0.000 H 
ATOM     94  H3  UNL A   1      19.329  31.580  45.395  1.00  0.00    +0.000 H 
BRANCH    4    5
ATOM      5  C3  UNL A   1      18.301  31.717  43.554  1.00  0.00    +0.000 C 
ATOM     95  H4  UNL A   1      18.702  31.245  42.680  1.00  0.00    +0.000 H 
ATOM     96  H5  UNL A   1      17.782  32.629  43.346  1.00  0.00    +0.000 H 
BRANCH    5    6
ATOM     97  H6  UNL A   1      16.384  31.335  44.373  1.00  0.00    +0.000 H 
ATOM     98  H7  UNL A   1      17.732  30.365  45.048  1.00  0.00    +0.000 H 
ATOM      6  C4  UNL A   1      17.271  30.770  44.172  1.00  0.00    +0.000 C 
BRANCH    6    7
ATOM     99  H8  UNL A   1      17.040  29.830  42.285  1.00  0.00    +0.000 H 
ATOM    100  H9  UNL A   1      15.856  29.358  43.548  1.00  0.00    +0.000 H 
ATOM      7  C5  UNL A   1      16.878  29.567  43.310  1.00  0.00    +0.000 C 
BRANCH    7    8
ATOM    101  H10 UNL A   1      18.475  28.509  44.225  1.00  0.00    +0.000 H 
ATOM    102  H11 UNL A   1      17.936  27.886  42.636  1.00  0.00    +0.000 H 
ATOM      8  C6  UNL A   1      17.647  28.272  43.591  1.00  0.00    +0.000 C 
BRANCH    8    9
ATOM      9  C7  UNL A   1      16.836  27.168  44.265  1.00  0.00    +0.000 C 
ATOM    103  H12 UNL A   1      17.033  27.188  45.317  1.00  0.00    +0.000 H 
ATOM    104  H13 UNL A   1      17.129  26.232  43.835  1.00  0.00    +0.000 H 
BRANCH    9   10
ATOM    105  H14 UNL A   1      15.008  28.134  44.458  1.00  0.00    +0.000 H 
ATOM     10  N2  UNL A   1      15.409  27.331  44.052  1.00  0.00    +0.000 N 
BRANCH   10   11
ATOM     11  C8  UNL A   1      14.544  26.522  43.363  1.00  0.00    +0.000 C 
ATOM     12  O2  UNL A   1      13.606  25.984  43.944  1.00  0.00    +0.000 O 
BRANCH   11   13
ATOM    106  H15 UNL A   1      15.084  28.336  41.498  1.00  0.00    +0.000 H 
ATOM    107  H16 UNL A   1      15.435  27.986  39.121  1.00  0.00    +0.000 H 
ATOM    108  H17 UNL A   1      15.290  25.758  38.189  1.00  0.00    +0.000 H 
ATOM     13  C9  UNL A   1      14.738  26.294  41.916  1.00  0.00    +0.000 C 
ATOM     14  C10 UNL A   1      15.021  27.387  41.097  1.00  0.00    +0.000 C 
ATOM     15  C11 UNL A   1      15.217  27.186  39.735  1.00  0.00    +0.000 C 
ATOM     16  C12 UNL A   1      15.120  25.898  39.196  1.00  0.00    +0.000 C 
ATOM     17  C13 UNL A   1      14.793  24.796  39.998  1.00  0.00    +0.000 C 
ATOM    114  H23 UNL A   1      14.353  24.218  41.979  1.00  0.00    +0.000 H 
ATOM     28  C20 UNL A   1      14.600  25.011  41.367  1.00  0.00    +0.000 C 
BRANCH   17   18
ATOM     18  N3  UNL A   1      14.722  23.471  39.511  1.00  0.00    +0.000 N 
ATOM    109  H18 UNL A   1      15.344  23.251  38.779  1.00  0.00    +0.000 H 
BRANCH   18   19
ATOM    110  H19 UNL A   1      13.702  21.575  38.007  1.00  0.00    +0.000 H 
ATOM    111  H20 UNL A   1      12.410  19.651  38.720  1.00  0.00    +0.000 H 
ATOM    112  H21 UNL A   1      12.507  21.060  42.687  1.00  0.00    +0.000 H 
ATOM    113  H22 UNL A   1      13.805  22.978  41.967  1.00  0.00    +0.000 H 
ATOM     19  C14 UNL A   1      13.879  22.425  39.931  1.00  0.00    +0.000 C 
ATOM     20  C15 UNL A   1      13.459  21.463  39.004  1.00  0.00    +0.000 C 
ATOM     21  C16 UNL A   1      12.715  20.354  39.412  1.00  0.00    +0.000 C 
ATOM     22  C17 UNL A   1      12.382  20.199  40.762  1.00  0.00    +0.000 C 
ATOM     26  C18 UNL A   1      12.770  21.164  41.695  1.00  0.00    +0.000 C 
ATOM     27  C19 UNL A   1      13.517  22.267  41.275  1.00  0.00    +0.000 C 
BRANCH   22   23
ATOM     25  O4  UNL A   1      10.365  18.801  40.787  1.00  0.00    +0.000 O 
ATOM     23  N4  UNL A   1      11.659  19.026  41.195  1.00  0.00    +0.000 N 
ATOM     24  O3  UNL A   1      12.164  18.224  41.952  1.00  0.00    +0.000 O 
ENDBRANCH   22   23
ENDBRANCH   18   19
ENDBRANCH   17   18
ENDBRANCH   11   13
ENDBRANCH   10   11
ENDBRANCH    9   10
ENDBRANCH    8    9
ENDBRANCH    7    8
ENDBRANCH    6    7
ENDBRANCH    5    6
ENDBRANCH    4    5
ENDBRANCH    3    4
ENDBRANCH    2    3
ENDBRANCH   29    2
ENDBRANCH   33   32
BRANCH   37   38
ATOM     38  C29 UNL A   1      31.270  35.631  42.719  1.00  0.00    +0.000 C 
ATOM     39  C30 UNL A   1      31.400  36.004  41.373  1.00  0.00    +0.000 C 
ATOM     40  F1  UNL A   1      30.703  37.045  40.890  1.00  0.00    +0.000 F 
ATOM     41  C31 UNL A   1      32.214  35.281  40.504  1.00  0.00    +0.000 C 
ATOM     42  F2  UNL A   1      32.281  35.623  39.210  1.00  0.00    +0.000 F 
ATOM     43  C32 UNL A   1      32.941  34.195  40.970  1.00  0.00    +0.000 C 
ATOM     44  F3  UNL A   1      33.722  33.500  40.133  1.00  0.00    +0.000 F 
ATOM     45  C33 UNL A   1      32.848  33.825  42.303  1.00  0.00    +0.000 C 
ATOM     46  F4  UNL A   1      33.558  32.783  42.759  1.00  0.00    +0.000 F 
ATOM     47  C34 UNL A   1      32.013  34.529  43.168  1.00  0.00    +0.000 C 
ATOM     48  F5  UNL A   1      31.932  34.135  44.447  1.00  0.00    +0.000 F 
ENDBRANCH   37   38
BRANCH   54   55
ATOM     65  F10 UNL A   1      30.463  43.026  45.836  1.00  0.00    +0.000 F 
ATOM     55  C40 UNL A   1      31.713  41.388  47.029  1.00  0.00    +0.000 C 
ATOM     56  C41 UNL A   1      32.868  41.093  47.765  1.00  0.00    +0.000 C 
ATOM     57  F6  UNL A   1      33.058  39.861  48.259  1.00  0.00    +0.000 F 
ATOM     58  C42 UNL A   1      33.824  42.074  48.015  1.00  0.00    +0.000 C 
ATOM     59  F7  UNL A   1      34.909  41.779  48.744  1.00  0.00    +0.000 F 
ATOM     60  C43 UNL A   1      33.654  43.357  47.515  1.00  0.00    +0.000 C 
ATOM     61  F8  UNL A   1      34.583  44.296  47.743  1.00  0.00    +0.000 F 
ATOM     62  C44 UNL A   1      32.520  43.668  46.780  1.00  0.00    +0.000 C 
ATOM     63  F9  UNL A   1      32.359  44.904  46.286  1.00  0.00    +0.000 F 
ATOM     64  C45 UNL A   1      31.551  42.696  46.548  1.00  0.00    +0.000 C 
ENDBRANCH   54   55
BRANCH   69   70
ATOM     70  C49 UNL A   1      25.244  40.077  49.316  1.00  0.00    +0.000 C 
ATOM     71  C50 UNL A   1      25.274  39.618  50.638  1.00  0.00    +0.000 C 
ATOM     72  F11 UNL A   1      26.045  38.571  50.965  1.00  0.00    +0.000 F 
ATOM     73  C51 UNL A   1      24.504  40.227  51.626  1.00  0.00    +0.000 C 
ATOM     74  F12 UNL A   1      24.537  39.759  52.881  1.00  0.00    +0.000 F 
ATOM     75  C52 UNL A   1      23.707  41.318  51.314  1.00  0.00    +0.000 C 
ATOM     76  F13 UNL A   1      22.983  41.916  52.270  1.00  0.00    +0.000 F 
ATOM     77  C53 UNL A   1      23.660  41.789  50.010  1.00  0.00    +0.000 C 
ATOM     78  F14 UNL A   1      22.905  42.854  49.708  1.00  0.00    +0.000 F 
ATOM     79  C54 UNL A   1      24.411  41.165  49.017  1.00  0.00    +0.000 C 
ATOM     80  F15 UNL A   1      24.357  41.647  47.767  1.00  0.00    +0.000 F 
ENDBRANCH   69   70
TORSDOF 18
ENDMDL
MODEL 4
REMARK VINA RESULT:      -8.5     20.627     26.959
ROOT
ATOM     33  C25 UNL A   1      53.013  20.465  11.323  1.00  0.00    +0.000 C 
ATOM     34  C26 UNL A   1      54.332  19.794  11.076  1.00  0.00    +0.000 C 
ATOM     35  N5  UNL A   1      55.358  19.667  11.881  1.00  0.00    +0.000 N 
ATOM     36  C27 UNL A   1      56.302  18.935  11.175  1.00  0.00    +0.000 C 
ATOM     37  C28 UNL A   1      57.544  18.561  11.570  1.00  0.00    +0.000 C 
ATOM     49  C35 UNL A   1      58.119  18.887  12.849  1.00  0.00    +0.000 C 
ATOM     50  C36 UNL A   1      59.388  18.604  13.323  1.00  0.00    +0.000 C 
ATOM     51  C37 UNL A   1      59.475  19.061  14.643  1.00  0.00    +0.000 C 
ATOM     52  C38 UNL A   1      58.277  19.673  14.975  1.00  0.00    +0.000 C 
ATOM     53  N6  UNL A   1      57.454  19.559  13.866  1.00  0.00    +0.000 N 
ATOM     54  C39 UNL A   1      57.908  20.309  16.216  1.00  0.00    +0.000 C 
ATOM     66  C46 UNL A   1      56.720  20.914  16.460  1.00  0.00    +0.000 C 
ATOM     67  N7  UNL A   1      55.631  21.063  15.614  1.00  0.00    +0.000 N 
ATOM     68  C47 UNL A   1      54.728  21.718  16.301  1.00  0.00    +0.000 C 
ATOM     69  C48 UNL A   1      53.361  22.166  15.874  1.00  0.00    +0.000 C 
ATOM     81  C55 UNL A   1      52.958  21.939  14.611  1.00  0.00    +0.000 C 
ATOM     82  C56 UNL A   1      51.653  22.302  14.067  1.00  0.00    +0.000 C 
ATOM     83  C57 UNL A   1      51.542  21.798  12.830  1.00  0.00    +0.000 C 
ATOM     84  C58 UNL A   1      52.790  21.121  12.476  1.00  0.00    +0.000 C 
ATOM     85  N8  UNL A   1      53.596  21.308  13.571  1.00  0.00    +0.000 N 
ATOM     86  C59 UNL A   1      55.134  22.041  17.676  1.00  0.00    +0.000 C 
ATOM     87  C60 UNL A   1      56.366  21.550  17.714  1.00  0.00    +0.000 C 
ATOM     88  C61 UNL A   1      55.720  18.625   9.886  1.00  0.00    +0.000 C 
ATOM     89  C62 UNL A   1      54.519  19.173   9.758  1.00  0.00    +0.000 C 
ATOM    117  H26 UNL A   1      60.141  18.137  12.794  1.00  0.00    +0.000 H 
ATOM    118  H27 UNL A   1      60.292  18.959  15.264  1.00  0.00    +0.000 H 
ATOM    119  H28 UNL A   1      56.533  19.905  13.806  1.00  0.00    +0.000 H 
ATOM    120  H29 UNL A   1      50.934  22.858  14.556  1.00  0.00    +0.000 H 
ATOM    121  H30 UNL A   1      50.710  21.873  12.224  1.00  0.00    +0.000 H 
ATOM    122  H31 UNL A   1      54.537  21.018  13.608  1.00  0.00    +0.000 H 
ATOM    123  H32 UNL A   1      54.601  22.523  18.417  1.00  0.00    +0.000 H 
ATOM    124  H33 UNL A   1      56.991  21.612  18.532  1.00  0.00    +0.000 H 
ATOM    125  H34 UNL A   1      56.180  18.053   9.161  1.00  0.00    +0.000 H 
ATOM    126  H35 UNL A   1      53.883  19.165   8.946  1.00  0.00    +0.000 H 
ENDROOT
BRANCH   33   32
ATOM    127  H36 UNL A   1      52.105  22.391   9.675  1.00  0.00    +0.000 H 
ATOM     32  C24 UNL A   1      51.925  20.383  10.319  1.00  0.00    +0.000 C 
ATOM    115  H24 UNL A   1      49.836  18.168   8.904  1.00  0.00    +0.000 H 
ATOM    116  H25 UNL A   1      51.475  18.348  10.681  1.00  0.00    +0.000 H 
ATOM     90  C63 UNL A   1      51.594  21.505   9.541  1.00  0.00    +0.000 C 
ATOM     91  C64 UNL A   1      50.577  21.425   8.589  1.00  0.00    +0.000 C 
ATOM     29  C21 UNL A   1      49.905  20.217   8.388  1.00  0.00    +0.000 C 
ATOM     30  C22 UNL A   1      50.279  19.078   9.108  1.00  0.00    +0.000 C 
ATOM     31  C23 UNL A   1      51.251  19.172  10.102  1.00  0.00    +0.000 C 
ATOM    128  H37 UNL A   1      50.321  22.258   8.035  1.00  0.00    +0.000 H 
BRANCH   29    2
ATOM      1  O1  UNL A   1      48.613  21.141   6.665  1.00  0.00    +0.000 O 
ATOM      2  C1  UNL A   1      48.833  20.161   7.372  1.00  0.00    +0.000 C 
BRANCH    2    3
ATOM      3  N1  UNL A   1      48.078  19.025   7.226  1.00  0.00    +0.000 N 
ATOM     92  H1  UNL A   1      47.487  18.813   7.984  1.00  0.00    +0.000 H 
BRANCH    3    4
ATOM      4  C2  UNL A   1      48.027  18.091   6.115  1.00  0.00    +0.000 C 
ATOM     93  H2  UNL A   1      48.521  17.187   6.403  1.00  0.00    +0.000 H 
ATOM     94  H3  UNL A   1      48.509  18.551   5.279  1.00  0.00    +0.000 H 
BRANCH    4    5
ATOM      5  C3  UNL A   1      46.597  17.758   5.702  1.00  0.00    +0.000 C 
ATOM     95  H4  UNL A   1      45.944  18.057   6.497  1.00  0.00    +0.000 H 
ATOM     96  H5  UNL A   1      46.579  16.706   5.509  1.00  0.00    +0.000 H 
BRANCH    5    6
ATOM     97  H6  UNL A   1      45.171  18.013   4.155  1.00  0.00    +0.000 H 
ATOM     98  H7  UNL A   1      46.884  18.262   3.690  1.00  0.00    +0.000 H 
ATOM      6  C4  UNL A   1      46.118  18.435   4.417  1.00  0.00    +0.000 C 
BRANCH    6    7
ATOM     99  H8  UNL A   1      46.820  20.404   4.059  1.00  0.00    +0.000 H 
ATOM    100  H9  UNL A   1      45.819  20.183   5.531  1.00  0.00    +0.000 H 
ATOM      7  C5  UNL A   1      45.951  19.956   4.494  1.00  0.00    +0.000 C 
BRANCH    7    8
ATOM    101  H10 UNL A   1      44.593  21.539   4.099  1.00  0.00    +0.000 H 
ATOM    102  H11 UNL A   1      43.903  19.888   4.046  1.00  0.00    +0.000 H 
ATOM      8  C6  UNL A   1      44.720  20.525   3.781  1.00  0.00    +0.000 C 
BRANCH    8    9
ATOM      9  C7  UNL A   1      44.790  20.513   2.255  1.00  0.00    +0.000 C 
ATOM    103  H12 UNL A   1      45.807  20.366   1.958  1.00  0.00    +0.000 H 
ATOM    104  H13 UNL A   1      44.414  21.450   1.900  1.00  0.00    +0.000 H 
BRANCH    9   10
ATOM    105  H14 UNL A   1      44.324  18.543   1.793  1.00  0.00    +0.000 H 
ATOM     10  N2  UNL A   1      43.976  19.457   1.680  1.00  0.00    +0.000 N 
BRANCH   10   11
ATOM     11  C8  UNL A   1      42.789  19.558   1.003  1.00  0.00    +0.000 C 
ATOM     12  O2  UNL A   1      42.783  19.659  -0.220  1.00  0.00    +0.000 O 
BRANCH   11   13
ATOM    106  H15 UNL A   1      42.103  17.969   3.019  1.00  0.00    +0.000 H 
ATOM    107  H16 UNL A   1      40.024  17.946   4.272  1.00  0.00    +0.000 H 
ATOM    108  H17 UNL A   1      38.255  19.501   3.715  1.00  0.00    +0.000 H 
ATOM     13  C9  UNL A   1      41.511  19.546   1.744  1.00  0.00    +0.000 C 
ATOM     14  C10 UNL A   1      41.346  18.630   2.783  1.00  0.00    +0.000 C 
ATOM     15  C11 UNL A   1      40.153  18.614   3.497  1.00  0.00    +0.000 C 
ATOM     16  C12 UNL A   1      39.127  19.506   3.164  1.00  0.00    +0.000 C 
ATOM     17  C13 UNL A   1      39.260  20.403   2.095  1.00  0.00    +0.000 C 
ATOM    114  H23 UNL A   1      40.588  21.056   0.591  1.00  0.00    +0.000 H 
ATOM     28  C20 UNL A   1      40.466  20.410   1.386  1.00  0.00    +0.000 C 
BRANCH   17   18
ATOM     18  N3  UNL A   1      38.270  21.349   1.744  1.00  0.00    +0.000 N 
ATOM    109  H18 UNL A   1      38.022  21.989   2.451  1.00  0.00    +0.000 H 
BRANCH   18   19
ATOM    110  H19 UNL A   1      36.102  20.075   0.986  1.00  0.00    +0.000 H 
ATOM    111  H20 UNL A   1      34.796  20.438  -1.023  1.00  0.00    +0.000 H 
ATOM    112  H21 UNL A   1      37.590  23.311  -2.317  1.00  0.00    +0.000 H 
ATOM    113  H22 UNL A   1      38.886  22.948  -0.300  1.00  0.00    +0.000 H 
ATOM     19  C14 UNL A   1      37.592  21.497   0.520  1.00  0.00    +0.000 C 
ATOM     20  C15 UNL A   1      36.415  20.772   0.292  1.00  0.00    +0.000 C 
ATOM     21  C16 UNL A   1      35.661  20.979  -0.866  1.00  0.00    +0.000 C 
ATOM     22  C17 UNL A   1      36.083  21.920  -1.810  1.00  0.00    +0.000 C 
ATOM     26  C18 UNL A   1      37.268  22.632  -1.611  1.00  0.00    +0.000 C 
ATOM     27  C19 UNL A   1      38.013  22.418  -0.448  1.00  0.00    +0.000 C 
BRANCH   22   23
ATOM     25  O4  UNL A   1      35.760  21.917  -4.243  1.00  0.00    +0.000 O 
ATOM     23  N4  UNL A   1      35.277  22.175  -2.982  1.00  0.00    +0.000 N 
ATOM     24  O3  UNL A   1      34.164  22.649  -2.885  1.00  0.00    +0.000 O 
ENDBRANCH   22   23
ENDBRANCH   18   19
ENDBRANCH   17   18
ENDBRANCH   11   13
ENDBRANCH   10   11
ENDBRANCH    9   10
ENDBRANCH    8    9
ENDBRANCH    7    8
ENDBRANCH    6    7
ENDBRANCH    5    6
ENDBRANCH    4    5
ENDBRANCH    3    4
ENDBRANCH    2    3
ENDBRANCH   29    2
ENDBRANCH   33   32
BRANCH   37   38
ATOM     38  C29 UNL A   1      58.354  17.732  10.617  1.00  0.00    +0.000 C 
ATOM     39  C30 UNL A   1      59.226  18.313   9.685  1.00  0.00    +0.000 C 
ATOM     40  F1  UNL A   1      59.334  19.649   9.604  1.00  0.00    +0.000 F 
ATOM     41  C31 UNL A   1      59.961  17.526   8.802  1.00  0.00    +0.000 C 
ATOM     42  F2  UNL A   1      60.748  18.107   7.885  1.00  0.00    +0.000 F 
ATOM     43  C32 UNL A   1      59.866  16.143   8.856  1.00  0.00    +0.000 C 
ATOM     44  F3  UNL A   1      60.572  15.388   8.004  1.00  0.00    +0.000 F 
ATOM     45  C33 UNL A   1      59.030  15.546   9.786  1.00  0.00    +0.000 C 
ATOM     46  F4  UNL A   1      58.945  14.209   9.848  1.00  0.00    +0.000 F 
ATOM     47  C34 UNL A   1      58.273  16.331  10.652  1.00  0.00    +0.000 C 
ATOM     48  F5  UNL A   1      57.460  15.723  11.528  1.00  0.00    +0.000 F 
ENDBRANCH   37   38
BRANCH   54   55
ATOM     65  F10 UNL A   1      58.409  18.080  17.900  1.00  0.00    +0.000 F 
ATOM     55  C40 UNL A   1      58.930  20.327  17.313  1.00  0.00    +0.000 C 
ATOM     56  C41 UNL A   1      59.681  21.475  17.598  1.00  0.00    +0.000 C 
ATOM     57  F6  UNL A   1      59.557  22.570  16.832  1.00  0.00    +0.000 F 
ATOM     58  C42 UNL A   1      60.581  21.494  18.660  1.00  0.00    +0.000 C 
ATOM     59  F7  UNL A   1      61.310  22.593  18.899  1.00  0.00    +0.000 F 
ATOM     60  C43 UNL A   1      60.728  20.376  19.469  1.00  0.00    +0.000 C 
ATOM     61  F8  UNL A   1      61.583  20.401  20.501  1.00  0.00    +0.000 F 
ATOM     62  C44 UNL A   1      59.991  19.231  19.207  1.00  0.00    +0.000 C 
ATOM     63  F9  UNL A   1      60.123  18.154  19.994  1.00  0.00    +0.000 F 
ATOM     64  C45 UNL A   1      59.107  19.202  18.132  1.00  0.00    +0.000 C 
ENDBRANCH   54   55
BRANCH   69   70
ATOM     70  C49 UNL A   1      52.438  22.855  16.810  1.00  0.00    +0.000 C 
ATOM     71  C50 UNL A   1      51.696  22.133  17.752  1.00  0.00    +0.000 C 
ATOM     72  F11 UNL A   1      51.754  20.794  17.765  1.00  0.00    +0.000 F 
ATOM     73  C51 UNL A   1      50.885  22.785  18.678  1.00  0.00    +0.000 C 
ATOM     74  F12 UNL A   1      50.172  22.072  19.560  1.00  0.00    +0.000 F 
ATOM     75  C52 UNL A   1      50.817  24.171  18.691  1.00  0.00    +0.000 C 
ATOM     76  F13 UNL A   1      50.054  24.798  19.596  1.00  0.00    +0.000 F 
ATOM     77  C53 UNL A   1      51.543  24.906  17.765  1.00  0.00    +0.000 C 
ATOM     78  F14 UNL A   1      51.494  26.245  17.786  1.00  0.00    +0.000 F 
ATOM     79  C54 UNL A   1      52.335  24.254  16.823  1.00  0.00    +0.000 C 
ATOM     80  F15 UNL A   1      53.035  24.988  15.946  1.00  0.00    +0.000 F 
ENDBRANCH   69   70
TORSDOF 18
ENDMDL
MODEL 5
REMARK VINA RESULT:      -8.4     19.347     25.757
ROOT
ATOM     33  C25 UNL A   1      25.945  35.546  45.381  1.00  0.00    +0.000 C 
ATOM     34  C26 UNL A   1      27.264  35.522  44.665  1.00  0.00    +0.000 C 
ATOM     35  N5  UNL A   1      28.281  36.339  44.779  1.00  0.00    +0.000 N 
ATOM     36  C27 UNL A   1      29.257  35.849  43.922  1.00  0.00    +0.000 C 
ATOM     37  C28 UNL A   1      30.486  36.359  43.668  1.00  0.00    +0.000 C 
ATOM     49  C35 UNL A   1      31.005  37.561  44.269  1.00  0.00    +0.000 C 
ATOM     50  C36 UNL A   1      32.214  38.192  44.035  1.00  0.00    +0.000 C 
ATOM     51  C37 UNL A   1      32.308  39.292  44.894  1.00  0.00    +0.000 C 
ATOM     52  C38 UNL A   1      31.136  39.376  45.628  1.00  0.00    +0.000 C 
ATOM     53  N6  UNL A   1      30.345  38.308  45.235  1.00  0.00    +0.000 N 
ATOM     54  C39 UNL A   1      30.768  40.356  46.620  1.00  0.00    +0.000 C 
ATOM     66  C46 UNL A   1      29.586  40.391  47.283  1.00  0.00    +0.000 C 
ATOM     67  N7  UNL A   1      28.499  39.537  47.164  1.00  0.00    +0.000 N 
ATOM     68  C47 UNL A   1      27.598  39.982  48.006  1.00  0.00    +0.000 C 
ATOM     69  C48 UNL A   1      26.223  39.449  48.281  1.00  0.00    +0.000 C 
ATOM     81  C55 UNL A   1      25.767  38.402  47.571  1.00  0.00    +0.000 C 
ATOM     82  C56 UNL A   1      24.461  37.772  47.746  1.00  0.00    +0.000 C 
ATOM     83  C57 UNL A   1      24.402  36.675  46.979  1.00  0.00    +0.000 C 
ATOM     84  C58 UNL A   1      25.647  36.555  46.219  1.00  0.00    +0.000 C 
ATOM     85  N8  UNL A   1      26.374  37.658  46.589  1.00  0.00    +0.000 N 
ATOM     86  C59 UNL A   1      28.021  41.161  48.774  1.00  0.00    +0.000 C 
ATOM     87  C60 UNL A   1      29.231  41.383  48.277  1.00  0.00    +0.000 C 
ATOM     88  C61 UNL A   1      28.720  34.649  43.314  1.00  0.00    +0.000 C 
ATOM     89  C62 UNL A   1      27.474  34.429  43.706  1.00  0.00    +0.000 C 
ATOM    117  H26 UNL A   1      32.925  37.900  43.345  1.00  0.00    +0.000 H 
ATOM    118  H27 UNL A   1      33.114  39.932  44.969  1.00  0.00    +0.000 H 
ATOM    119  H28 UNL A   1      29.447  38.110  45.587  1.00  0.00    +0.000 H 
ATOM    120  H29 UNL A   1      23.707  38.117  48.360  1.00  0.00    +0.000 H 
ATOM    121  H30 UNL A   1      23.607  36.019  46.931  1.00  0.00    +0.000 H 
ATOM    122  H31 UNL A   1      27.245  37.893  46.192  1.00  0.00    +0.000 H 
ATOM    123  H32 UNL A   1      27.511  41.679  49.506  1.00  0.00    +0.000 H 
ATOM    124  H33 UNL A   1      29.842  42.164  48.564  1.00  0.00    +0.000 H 
ATOM    125  H34 UNL A   1      29.242  34.045  42.659  1.00  0.00    +0.000 H 
ATOM    126  H35 UNL A   1      26.821  33.685  43.414  1.00  0.00    +0.000 H 
ENDROOT
BRANCH   33   32
ATOM    127  H36 UNL A   1      24.083  35.246  43.460  1.00  0.00    +0.000 H 
ATOM     32  C24 UNL A   1      24.971  34.442  45.205  1.00  0.00    +0.000 C 
ATOM    115  H24 UNL A   1      24.159  31.445  46.480  1.00  0.00    +0.000 H 
ATOM    116  H25 UNL A   1      25.619  33.337  46.889  1.00  0.00    +0.000 H 
ATOM     90  C63 UNL A   1      24.070  34.459  44.127  1.00  0.00    +0.000 C 
ATOM     91  C64 UNL A   1      23.160  33.416  43.956  1.00  0.00    +0.000 C 
ATOM     29  C21 UNL A   1      23.164  32.336  44.842  1.00  0.00    +0.000 C 
ATOM     30  C22 UNL A   1      24.106  32.279  45.874  1.00  0.00    +0.000 C 
ATOM     31  C23 UNL A   1      24.973  33.349  46.084  1.00  0.00    +0.000 C 
ATOM    128  H37 UNL A   1      22.485  33.442  43.175  1.00  0.00    +0.000 H 
BRANCH   29    2
ATOM      1  O1  UNL A   1      22.566  30.075  44.678  1.00  0.00    +0.000 O 
ATOM      2  C1  UNL A   1      22.189  31.244  44.636  1.00  0.00    +0.000 C 
BRANCH    2    3
ATOM      3  N1  UNL A   1      20.872  31.532  44.386  1.00  0.00    +0.000 N 
ATOM     92  H1  UNL A   1      20.586  31.417  43.451  1.00  0.00    +0.000 H 
BRANCH    3    4
ATOM      4  C2  UNL A   1      19.839  31.983  45.303  1.00  0.00    +0.000 C 
ATOM     93  H2  UNL A   1      19.837  33.053  45.319  1.00  0.00    +0.000 H 
ATOM     94  H3  UNL A   1      20.059  31.577  46.267  1.00  0.00    +0.000 H 
BRANCH    4    5
ATOM      5  C3  UNL A   1      18.451  31.496  44.898  1.00  0.00    +0.000 C 
ATOM     95  H4  UNL A   1      17.854  31.424  45.785  1.00  0.00    +0.000 H 
ATOM     96  H5  UNL A   1      18.596  30.558  44.404  1.00  0.00    +0.000 H 
BRANCH    5    6
ATOM     97  H6  UNL A   1      18.099  33.386  44.004  1.00  0.00    +0.000 H 
ATOM     98  H7  UNL A   1      16.674  32.306  44.144  1.00  0.00    +0.000 H 
ATOM      6  C4  UNL A   1      17.713  32.393  43.903  1.00  0.00    +0.000 C 
BRANCH    6    7
ATOM     99  H8  UNL A   1      18.676  31.328  42.341  1.00  0.00    +0.000 H 
ATOM    100  H9  UNL A   1      17.942  32.900  41.884  1.00  0.00    +0.000 H 
ATOM      7  C5  UNL A   1      17.837  31.987  42.431  1.00  0.00    +0.000 C 
BRANCH    7    8
ATOM    101  H10 UNL A   1      16.940  30.339  41.437  1.00  0.00    +0.000 H 
ATOM    102  H11 UNL A   1      16.222  31.942  41.093  1.00  0.00    +0.000 H 
ATOM      8  C6  UNL A   1      16.616  31.278  41.834  1.00  0.00    +0.000 C 
BRANCH    8    9
ATOM      9  C7  UNL A   1      15.476  31.012  42.814  1.00  0.00    +0.000 C 
ATOM    103  H12 UNL A   1      14.547  31.220  42.327  1.00  0.00    +0.000 H 
ATOM    104  H13 UNL A   1      15.617  31.645  43.665  1.00  0.00    +0.000 H 
BRANCH    9   10
ATOM    105  H14 UNL A   1      14.865  29.447  44.034  1.00  0.00    +0.000 H 
ATOM     10  N2  UNL A   1      15.465  29.635  43.276  1.00  0.00    +0.000 N 
BRANCH   10   11
ATOM     11  C8  UNL A   1      16.175  28.563  42.802  1.00  0.00    +0.000 C 
ATOM     12  O2  UNL A   1      17.336  28.387  43.156  1.00  0.00    +0.000 O 
BRANCH   11   13
ATOM    106  H15 UNL A   1      16.236  28.632  40.147  1.00  0.00    +0.000 H 
ATOM    107  H16 UNL A   1      15.231  27.073  38.581  1.00  0.00    +0.000 H 
ATOM    108  H17 UNL A   1      13.970  25.177  39.398  1.00  0.00    +0.000 H 
ATOM     13  C9  UNL A   1      15.542  27.614  41.863  1.00  0.00    +0.000 C 
ATOM     14  C10 UNL A   1      15.697  27.824  40.493  1.00  0.00    +0.000 C 
ATOM     15  C11 UNL A   1      15.116  26.933  39.596  1.00  0.00    +0.000 C 
ATOM     16  C12 UNL A   1      14.376  25.844  40.072  1.00  0.00    +0.000 C 
ATOM     17  C13 UNL A   1      14.175  25.644  41.444  1.00  0.00    +0.000 C 
ATOM    114  H23 UNL A   1      14.629  26.426  43.351  1.00  0.00    +0.000 H 
ATOM     28  C20 UNL A   1      14.766  26.547  42.335  1.00  0.00    +0.000 C 
BRANCH   17   18
ATOM     18  N3  UNL A   1      13.471  24.540  41.976  1.00  0.00    +0.000 N 
ATOM    109  H18 UNL A   1      12.948  24.720  42.791  1.00  0.00    +0.000 H 
BRANCH   18   19
ATOM    110  H19 UNL A   1      14.388  22.394  43.179  1.00  0.00    +0.000 H 
ATOM    111  H20 UNL A   1      14.146  20.085  42.480  1.00  0.00    +0.000 H 
ATOM    112  H21 UNL A   1      12.208  21.355  38.964  1.00  0.00    +0.000 H 
ATOM    113  H22 UNL A   1      12.447  23.662  39.675  1.00  0.00    +0.000 H 
ATOM     19  C14 UNL A   1      13.418  23.218  41.495  1.00  0.00    +0.000 C 
ATOM     20  C15 UNL A   1      13.914  22.176  42.288  1.00  0.00    +0.000 C 
ATOM     21  C16 UNL A   1      13.776  20.845  41.888  1.00  0.00    +0.000 C 
ATOM     22  C17 UNL A   1      13.137  20.546  40.680  1.00  0.00    +0.000 C 
ATOM     26  C18 UNL A   1      12.661  21.575  39.865  1.00  0.00    +0.000 C 
ATOM     27  C19 UNL A   1      12.802  22.902  40.277  1.00  0.00    +0.000 C 
BRANCH   22   23
ATOM     25  O4  UNL A   1      13.125  18.771  38.985  1.00  0.00    +0.000 O 
ATOM     23  N4  UNL A   1      12.946  19.169  40.289  1.00  0.00    +0.000 N 
ATOM     24  O3  UNL A   1      12.594  18.332  41.095  1.00  0.00    +0.000 O 
ENDBRANCH   22   23
ENDBRANCH   18   19
ENDBRANCH   17   18
ENDBRANCH   11   13
ENDBRANCH   10   11
ENDBRANCH    9   10
ENDBRANCH    8    9
ENDBRANCH    7    8
ENDBRANCH    6    7
ENDBRANCH    5    6
ENDBRANCH    4    5
ENDBRANCH    3    4
ENDBRANCH    2    3
ENDBRANCH   29    2
ENDBRANCH   33   32
BRANCH   37   38
ATOM     38  C29 UNL A   1      31.368  35.601  42.719  1.00  0.00    +0.000 C 
ATOM     39  C30 UNL A   1      31.459  35.941  41.361  1.00  0.00    +0.000 C 
ATOM     40  F1  UNL A   1      30.723  36.949  40.866  1.00  0.00    +0.000 F 
ATOM     41  C31 UNL A   1      32.276  35.218  40.494  1.00  0.00    +0.000 C 
ATOM     42  F2  UNL A   1      32.305  35.528  39.190  1.00  0.00    +0.000 F 
ATOM     43  C32 UNL A   1      33.042  34.166  40.973  1.00  0.00    +0.000 C 
ATOM     44  F3  UNL A   1      33.825  33.472  40.137  1.00  0.00    +0.000 F 
ATOM     45  C33 UNL A   1      32.988  33.830  42.316  1.00  0.00    +0.000 C 
ATOM     46  F4  UNL A   1      33.737  32.821  42.784  1.00  0.00    +0.000 F 
ATOM     47  C34 UNL A   1      32.152  34.533  43.180  1.00  0.00    +0.000 C 
ATOM     48  F5  UNL A   1      32.109  34.171  44.471  1.00  0.00    +0.000 F 
ENDBRANCH   37   38
BRANCH   54   55
ATOM     65  F10 UNL A   1      33.148  39.901  48.099  1.00  0.00    +0.000 F 
ATOM     55  C40 UNL A   1      31.761  41.438  46.925  1.00  0.00    +0.000 C 
ATOM     56  C41 UNL A   1      31.548  42.763  46.522  1.00  0.00    +0.000 C 
ATOM     57  F6  UNL A   1      30.478  43.079  45.777  1.00  0.00    +0.000 F 
ATOM     58  C42 UNL A   1      32.449  43.767  46.866  1.00  0.00    +0.000 C 
ATOM     59  F7  UNL A   1      32.242  45.023  46.449  1.00  0.00    +0.000 F 
ATOM     60  C43 UNL A   1      33.563  43.469  47.638  1.00  0.00    +0.000 C 
ATOM     61  F8  UNL A   1      34.422  44.439  47.982  1.00  0.00    +0.000 F 
ATOM     62  C44 UNL A   1      33.790  42.164  48.050  1.00  0.00    +0.000 C 
ATOM     63  F9  UNL A   1      34.860  41.876  48.805  1.00  0.00    +0.000 F 
ATOM     64  C45 UNL A   1      32.903  41.154  47.688  1.00  0.00    +0.000 C 
ENDBRANCH   54   55
BRANCH   69   70
ATOM     70  C49 UNL A   1      25.348  40.049  49.319  1.00  0.00    +0.000 C 
ATOM     71  C50 UNL A   1      24.456  41.081  49.002  1.00  0.00    +0.000 C 
ATOM     72  F11 UNL A   1      24.442  41.595  47.764  1.00  0.00    +0.000 F 
ATOM     73  C51 UNL A   1      23.584  41.594  49.959  1.00  0.00    +0.000 C 
ATOM     74  F12 UNL A   1      22.751  42.593  49.636  1.00  0.00    +0.000 F 
ATOM     75  C52 UNL A   1      23.573  41.071  51.244  1.00  0.00    +0.000 C 
ATOM     76  F13 UNL A   1      22.718  41.550  52.157  1.00  0.00    +0.000 F 
ATOM     77  C53 UNL A   1      24.448  40.049  51.580  1.00  0.00    +0.000 C 
ATOM     78  F14 UNL A   1      24.428  39.528  52.815  1.00  0.00    +0.000 F 
ATOM     79  C54 UNL A   1      25.338  39.552  50.631  1.00  0.00    +0.000 C 
ATOM     80  F15 UNL A   1      26.166  38.557  50.979  1.00  0.00    +0.000 F 
ENDBRANCH   69   70
TORSDOF 18
ENDMDL
MODEL 6
REMARK VINA RESULT:      -8.4      3.892      9.287
ROOT
ATOM     33  C25 UNL A   1      38.233  30.321  29.723  1.00  0.00    +0.000 C 
ATOM     34  C26 UNL A   1      39.362  29.521  29.143  1.00  0.00    +0.000 C 
ATOM     35  N5  UNL A   1      40.504  29.186  29.689  1.00  0.00    +0.000 N 
ATOM     36  C27 UNL A   1      41.166  28.420  28.740  1.00  0.00    +0.000 C 
ATOM     37  C28 UNL A   1      42.397  27.857  28.823  1.00  0.00    +0.000 C 
ATOM     49  C35 UNL A   1      43.267  27.976  29.964  1.00  0.00    +0.000 C 
ATOM     50  C36 UNL A   1      44.553  27.492  30.124  1.00  0.00    +0.000 C 
ATOM     51  C37 UNL A   1      44.978  27.797  31.422  1.00  0.00    +0.000 C 
ATOM     52  C38 UNL A   1      43.976  28.515  32.054  1.00  0.00    +0.000 C 
ATOM     53  N6  UNL A   1      42.931  28.618  31.149  1.00  0.00    +0.000 N 
ATOM     54  C39 UNL A   1      43.969  29.061  33.389  1.00  0.00    +0.000 C 
ATOM     66  C46 UNL A   1      42.958  29.780  33.933  1.00  0.00    +0.000 C 
ATOM     67  N7  UNL A   1      41.748  30.149  33.362  1.00  0.00    +0.000 N 
ATOM     68  C47 UNL A   1      41.111  30.836  34.278  1.00  0.00    +0.000 C 
ATOM     69  C48 UNL A   1      39.764  31.490  34.197  1.00  0.00    +0.000 C 
ATOM     81  C55 UNL A   1      39.078  31.446  33.040  1.00  0.00    +0.000 C 
ATOM     82  C56 UNL A   1      37.753  32.021  32.826  1.00  0.00    +0.000 C 
ATOM     83  C57 UNL A   1      37.316  31.664  31.611  1.00  0.00    +0.000 C 
ATOM     84  C58 UNL A   1      38.352  30.878  30.942  1.00  0.00    +0.000 C 
ATOM     85  N8  UNL A   1      39.388  30.850  31.842  1.00  0.00    +0.000 N 
ATOM     86  C59 UNL A   1      41.838  30.964  35.549  1.00  0.00    +0.000 C 
ATOM     87  C60 UNL A   1      42.967  30.323  35.277  1.00  0.00    +0.000 C 
ATOM     88  C61 UNL A   1      40.289  28.318  27.593  1.00  0.00    +0.000 C 
ATOM     89  C62 UNL A   1      39.179  29.020  27.773  1.00  0.00    +0.000 C 
ATOM    117  H26 UNL A   1      45.105  26.992  29.409  1.00  0.00    +0.000 H 
ATOM    118  H27 UNL A   1      45.884  27.532  31.838  1.00  0.00    +0.000 H 
ATOM    119  H28 UNL A   1      42.078  29.079  31.320  1.00  0.00    +0.000 H 
ATOM    120  H29 UNL A   1      37.239  32.609  33.501  1.00  0.00    +0.000 H 
ATOM    121  H30 UNL A   1      36.395  31.903  31.211  1.00  0.00    +0.000 H 
ATOM    122  H31 UNL A   1      40.265  30.445  31.649  1.00  0.00    +0.000 H 
ATOM    123  H32 UNL A   1      41.546  31.430  36.422  1.00  0.00    +0.000 H 
ATOM    124  H33 UNL A   1      43.752  30.223  35.939  1.00  0.00    +0.000 H 
ATOM    125  H34 UNL A   1      40.501  27.770  26.744  1.00  0.00    +0.000 H 
ATOM    126  H35 UNL A   1      38.393  29.173  27.123  1.00  0.00    +0.000 H 
ENDROOT
BRANCH   33   32
ATOM    127  H36 UNL A   1      36.315  28.485  29.283  1.00  0.00    +0.000 H 
ATOM     32  C24 UNL A   1      36.959  30.477  28.981  1.00  0.00    +0.000 C 
ATOM    115  H24 UNL A   1      35.086  32.817  27.466  1.00  0.00    +0.000 H 
ATOM    116  H25 UNL A   1      37.257  32.517  28.505  1.00  0.00    +0.000 H 
ATOM     90  C63 UNL A   1      36.073  29.394  28.860  1.00  0.00    +0.000 C 
ATOM     91  C64 UNL A   1      34.870  29.544  28.170  1.00  0.00    +0.000 C 
ATOM     29  C21 UNL A   1      34.530  30.784  27.624  1.00  0.00    +0.000 C 
ATOM     30  C22 UNL A   1      35.375  31.884  27.803  1.00  0.00    +0.000 C 
ATOM     31  C23 UNL A   1      36.604  31.721  28.436  1.00  0.00    +0.000 C 
ATOM    128  H37 UNL A   1      34.231  28.740  28.064  1.00  0.00    +0.000 H 
BRANCH   29    2
ATOM      1  O1  UNL A   1      32.565  31.924  27.048  1.00  0.00    +0.000 O 
ATOM      2  C1  UNL A   1      33.248  30.914  26.899  1.00  0.00    +0.000 C 
BRANCH    2    3
ATOM      3  N1  UNL A   1      32.816  29.908  26.074  1.00  0.00    +0.000 N 
ATOM     92  H1  UNL A   1      31.976  29.473  26.346  1.00  0.00    +0.000 H 
BRANCH    3    4
ATOM      4  C2  UNL A   1      33.420  29.392  24.858  1.00  0.00    +0.000 C 
ATOM     93  H2  UNL A   1      34.147  28.652  25.123  1.00  0.00    +0.000 H 
ATOM     94  H3  UNL A   1      33.868  30.214  24.342  1.00  0.00    +0.000 H 
BRANCH    4    5
ATOM      5  C3  UNL A   1      32.394  28.759  23.923  1.00  0.00    +0.000 C 
ATOM     95  H4  UNL A   1      31.931  29.544  23.361  1.00  0.00    +0.000 H 
ATOM     96  H5  UNL A   1      31.712  28.223  24.549  1.00  0.00    +0.000 H 
BRANCH    5    6
ATOM     97  H6  UNL A   1      33.671  27.132  23.457  1.00  0.00    +0.000 H 
ATOM     98  H7  UNL A   1      33.382  28.307  22.133  1.00  0.00    +0.000 H 
ATOM      6  C4  UNL A   1      32.959  27.738  22.935  1.00  0.00    +0.000 C 
BRANCH    6    7
ATOM     99  H8  UNL A   1      32.342  25.817  22.280  1.00  0.00    +0.000 H 
ATOM    100  H9  UNL A   1      31.745  27.206  21.314  1.00  0.00    +0.000 H 
ATOM      7  C5  UNL A   1      31.930  26.805  22.288  1.00  0.00    +0.000 C 
BRANCH    7    8
ATOM    101  H10 UNL A   1      29.809  26.875  22.237  1.00  0.00    +0.000 H 
ATOM    102  H11 UNL A   1      30.575  27.511  23.725  1.00  0.00    +0.000 H 
ATOM      8  C6  UNL A   1      30.566  26.741  22.982  1.00  0.00    +0.000 C 
BRANCH    8    9
ATOM      9  C7  UNL A   1      30.275  25.439  23.724  1.00  0.00    +0.000 C 
ATOM    103  H12 UNL A   1      31.045  24.733  23.497  1.00  0.00    +0.000 H 
ATOM    104  H13 UNL A   1      29.317  25.083  23.403  1.00  0.00    +0.000 H 
BRANCH    9   10
ATOM    105  H14 UNL A   1      29.323  25.598  25.562  1.00  0.00    +0.000 H 
ATOM     10  N2  UNL A   1      30.222  25.631  25.163  1.00  0.00    +0.000 N 
BRANCH   10   11
ATOM     11  C8  UNL A   1      31.253  25.850  26.039  1.00  0.00    +0.000 C 
ATOM     12  O2  UNL A   1      31.326  26.910  26.653  1.00  0.00    +0.000 O 
BRANCH   11   13
ATOM    106  H15 UNL A   1      31.017  23.603  27.439  1.00  0.00    +0.000 H 
ATOM    107  H16 UNL A   1      32.677  21.864  27.775  1.00  0.00    +0.000 H 
ATOM    108  H17 UNL A   1      34.874  22.076  26.784  1.00  0.00    +0.000 H 
ATOM     13  C9  UNL A   1      32.280  24.809  26.249  1.00  0.00    +0.000 C 
ATOM     14  C10 UNL A   1      31.955  23.692  27.018  1.00  0.00    +0.000 C 
ATOM     15  C11 UNL A   1      32.909  22.698  27.215  1.00  0.00    +0.000 C 
ATOM     16  C12 UNL A   1      34.183  22.830  26.651  1.00  0.00    +0.000 C 
ATOM     17  C13 UNL A   1      34.539  23.966  25.912  1.00  0.00    +0.000 C 
ATOM    114  H23 UNL A   1      33.807  25.807  25.185  1.00  0.00    +0.000 H 
ATOM     28  C20 UNL A   1      33.569  24.957  25.720  1.00  0.00    +0.000 C 
BRANCH   17   18
ATOM     18  N3  UNL A   1      35.797  24.129  25.289  1.00  0.00    +0.000 N 
ATOM    109  H18 UNL A   1      35.824  24.771  24.543  1.00  0.00    +0.000 H 
BRANCH   18   19
ATOM    110  H19 UNL A   1      37.804  25.151  26.640  1.00  0.00    +0.000 H 
ATOM    111  H20 UNL A   1      39.833  24.032  27.353  1.00  0.00    +0.000 H 
ATOM    112  H21 UNL A   1      38.616  20.543  25.334  1.00  0.00    +0.000 H 
ATOM    113  H22 UNL A   1      36.585  21.666  24.632  1.00  0.00    +0.000 H 
ATOM     19  C14 UNL A   1      37.016  23.494  25.595  1.00  0.00    +0.000 C 
ATOM     20  C15 UNL A   1      37.968  24.168  26.370  1.00  0.00    +0.000 C 
ATOM     21  C16 UNL A   1      39.138  23.526  26.782  1.00  0.00    +0.000 C 
ATOM     22  C17 UNL A   1      39.366  22.195  26.416  1.00  0.00    +0.000 C 
ATOM     26  C18 UNL A   1      38.439  21.518  25.621  1.00  0.00    +0.000 C 
ATOM     27  C19 UNL A   1      37.271  22.169  25.217  1.00  0.00    +0.000 C 
BRANCH   22   23
ATOM     25  O4  UNL A   1      41.339  20.791  26.022  1.00  0.00    +0.000 O 
ATOM     23  N4  UNL A   1      40.549  21.512  26.885  1.00  0.00    +0.000 N 
ATOM     24  O3  UNL A   1      40.860  21.533  28.058  1.00  0.00    +0.000 O 
ENDBRANCH   22   23
ENDBRANCH   18   19
ENDBRANCH   17   18
ENDBRANCH   11   13
ENDBRANCH   10   11
ENDBRANCH    9   10
ENDBRANCH    8    9
ENDBRANCH    7    8
ENDBRANCH    6    7
ENDBRANCH    5    6
ENDBRANCH    4    5
ENDBRANCH    3    4
ENDBRANCH    2    3
ENDBRANCH   29    2
ENDBRANCH   33   32
BRANCH   37   38
ATOM     38  C29 UNL A   1      42.862  27.035  27.657  1.00  0.00    +0.000 C 
ATOM     39  C30 UNL A   1      42.456  25.705  27.478  1.00  0.00    +0.000 C 
ATOM     40  F1  UNL A   1      41.651  25.118  28.379  1.00  0.00    +0.000 F 
ATOM     41  C31 UNL A   1      42.907  24.956  26.394  1.00  0.00    +0.000 C 
ATOM     42  F2  UNL A   1      42.547  23.670  26.274  1.00  0.00    +0.000 F 
ATOM     43  C32 UNL A   1      43.746  25.531  25.451  1.00  0.00    +0.000 C 
ATOM     44  F3  UNL A   1      44.181  24.808  24.410  1.00  0.00    +0.000 F 
ATOM     45  C33 UNL A   1      44.140  26.852  25.593  1.00  0.00    +0.000 C 
ATOM     46  F4  UNL A   1      44.940  27.414  24.676  1.00  0.00    +0.000 F 
ATOM     47  C34 UNL A   1      43.712  27.595  26.690  1.00  0.00    +0.000 C 
ATOM     48  F5  UNL A   1      44.125  28.866  26.808  1.00  0.00    +0.000 F 
ENDBRANCH   37   38
BRANCH   54   55
ATOM     65  F10 UNL A   1      44.269  26.835  35.124  1.00  0.00    +0.000 F 
ATOM     55  C40 UNL A   1      45.189  28.840  34.232  1.00  0.00    +0.000 C 
ATOM     56  C41 UNL A   1      46.251  29.754  34.239  1.00  0.00    +0.000 C 
ATOM     57  F6  UNL A   1      46.234  30.817  33.420  1.00  0.00    +0.000 F 
ATOM     58  C42 UNL A   1      47.350  29.565  35.074  1.00  0.00    +0.000 C 
ATOM     59  F7  UNL A   1      48.368  30.437  35.046  1.00  0.00    +0.000 F 
ATOM     60  C43 UNL A   1      47.394  28.476  35.932  1.00  0.00    +0.000 C 
ATOM     61  F8  UNL A   1      48.444  28.304  36.746  1.00  0.00    +0.000 F 
ATOM     62  C44 UNL A   1      46.351  27.562  35.944  1.00  0.00    +0.000 C 
ATOM     63  F9  UNL A   1      46.386  26.515  36.780  1.00  0.00    +0.000 F 
ATOM     64  C45 UNL A   1      45.262  27.736  35.094  1.00  0.00    +0.000 C 
ENDBRANCH   54   55
BRANCH   69   70
ATOM     70  C49 UNL A   1      39.164  32.189  35.361  1.00  0.00    +0.000 C 
ATOM     71  C50 UNL A   1      38.421  31.488  36.317  1.00  0.00    +0.000 C 
ATOM     72  F11 UNL A   1      38.174  30.181  36.146  1.00  0.00    +0.000 F 
ATOM     73  C51 UNL A   1      37.920  32.130  37.448  1.00  0.00    +0.000 C 
ATOM     74  F12 UNL A   1      37.197  31.441  38.341  1.00  0.00    +0.000 F 
ATOM     75  C52 UNL A   1      38.171  33.478  37.651  1.00  0.00    +0.000 C 
ATOM     76  F13 UNL A   1      37.707  34.090  38.750  1.00  0.00    +0.000 F 
ATOM     77  C53 UNL A   1      38.904  34.193  36.716  1.00  0.00    +0.000 C 
ATOM     78  F14 UNL A   1      39.164  35.492  36.918  1.00  0.00    +0.000 F 
ATOM     79  C54 UNL A   1      39.385  33.558  35.574  1.00  0.00    +0.000 C 
ATOM     80  F15 UNL A   1      40.100  34.269  34.690  1.00  0.00    +0.000 F 
ENDBRANCH   69   70
TORSDOF 18
ENDMDL
MODEL 7
REMARK VINA RESULT:      -8.4     39.676     44.695
ROOT
ATOM     33  C25 UNL A   1      14.169  53.914   5.237  1.00  0.00    +0.000 C 
ATOM     34  C26 UNL A   1      15.116  54.369   4.167  1.00  0.00    +0.000 C 
ATOM     35  N5  UNL A   1      15.623  53.691   3.168  1.00  0.00    +0.000 N 
ATOM     36  C27 UNL A   1      16.408  54.590   2.460  1.00  0.00    +0.000 C 
ATOM     37  C28 UNL A   1      17.159  54.363   1.355  1.00  0.00    +0.000 C 
ATOM     49  C35 UNL A   1      17.277  53.084   0.705  1.00  0.00    +0.000 C 
ATOM     50  C36 UNL A   1      18.056  52.737  -0.386  1.00  0.00    +0.000 C 
ATOM     51  C37 UNL A   1      17.798  51.398  -0.700  1.00  0.00    +0.000 C 
ATOM     52  C38 UNL A   1      16.897  50.896   0.225  1.00  0.00    +0.000 C 
ATOM     53  N6  UNL A   1      16.586  51.940   1.081  1.00  0.00    +0.000 N 
ATOM     54  C39 UNL A   1      16.355  49.563   0.316  1.00  0.00    +0.000 C 
ATOM     66  C46 UNL A   1      15.493  49.134   1.270  1.00  0.00    +0.000 C 
ATOM     67  N7  UNL A   1      14.957  49.840   2.337  1.00  0.00    +0.000 N 
ATOM     68  C47 UNL A   1      14.185  48.996   2.976  1.00  0.00    +0.000 C 
ATOM     69  C48 UNL A   1      13.369  49.219   4.215  1.00  0.00    +0.000 C 
ATOM     81  C55 UNL A   1      13.428  50.410   4.838  1.00  0.00    +0.000 C 
ATOM     82  C56 UNL A   1      12.676  50.769   6.037  1.00  0.00    +0.000 C 
ATOM     83  C57 UNL A   1      12.864  52.071   6.293  1.00  0.00    +0.000 C 
ATOM     84  C58 UNL A   1      13.791  52.624   5.305  1.00  0.00    +0.000 C 
ATOM     85  N8  UNL A   1      14.121  51.551   4.516  1.00  0.00    +0.000 N 
ATOM     86  C59 UNL A   1      14.124  47.658   2.371  1.00  0.00    +0.000 C 
ATOM     87  C60 UNL A   1      14.958  47.789   1.348  1.00  0.00    +0.000 C 
ATOM     88  C61 UNL A   1      16.293  55.869   3.130  1.00  0.00    +0.000 C 
ATOM     89  C62 UNL A   1      15.541  55.775   4.217  1.00  0.00    +0.000 C 
ATOM    117  H26 UNL A   1      18.713  53.360  -0.882  1.00  0.00    +0.000 H 
ATOM    118  H27 UNL A   1      18.209  50.874  -1.488  1.00  0.00    +0.000 H 
ATOM    119  H28 UNL A   1      15.966  51.880   1.845  1.00  0.00    +0.000 H 
ATOM    120  H29 UNL A   1      12.097  50.124   6.596  1.00  0.00    +0.000 H 
ATOM    121  H30 UNL A   1      12.425  52.601   7.062  1.00  0.00    +0.000 H 
ATOM    122  H31 UNL A   1      14.788  51.594   3.792  1.00  0.00    +0.000 H 
ATOM    123  H32 UNL A   1      13.576  46.834   2.665  1.00  0.00    +0.000 H 
ATOM    124  H33 UNL A   1      15.195  47.030   0.690  1.00  0.00    +0.000 H 
ATOM    125  H34 UNL A   1      16.739  56.740   2.802  1.00  0.00    +0.000 H 
ATOM    126  H35 UNL A   1      15.314  56.499   4.916  1.00  0.00    +0.000 H 
ENDROOT
BRANCH   33   32
ATOM    127  H36 UNL A   1      11.831  55.243   5.117  1.00  0.00    +0.000 H 
ATOM     32  C24 UNL A   1      13.606  54.881   6.210  1.00  0.00    +0.000 C 
ATOM    115  H24 UNL A   1      14.207  56.184   9.245  1.00  0.00    +0.000 H 
ATOM    116  H25 UNL A   1      15.222  54.756   7.570  1.00  0.00    +0.000 H 
ATOM     90  C63 UNL A   1      12.356  55.475   5.974  1.00  0.00    +0.000 C 
ATOM     91  C64 UNL A   1      11.822  56.378   6.894  1.00  0.00    +0.000 C 
ATOM     29  C21 UNL A   1      12.520  56.670   8.068  1.00  0.00    +0.000 C 
ATOM     30  C22 UNL A   1      13.731  56.027   8.342  1.00  0.00    +0.000 C 
ATOM     31  C23 UNL A   1      14.295  55.173   7.397  1.00  0.00    +0.000 C 
ATOM    128  H37 UNL A   1      10.912  56.830   6.707  1.00  0.00    +0.000 H 
BRANCH   29    2
ATOM      1  O1  UNL A   1      12.313  58.796   9.033  1.00  0.00    +0.000 O 
ATOM      2  C1  UNL A   1      11.929  57.629   9.026  1.00  0.00    +0.000 C 
BRANCH    2    3
ATOM      3  N1  UNL A   1      10.966  57.217   9.911  1.00  0.00    +0.000 N 
ATOM     92  H1  UNL A   1      10.166  57.789   9.959  1.00  0.00    +0.000 H 
BRANCH    3    4
ATOM      4  C2  UNL A   1      10.957  56.059  10.788  1.00  0.00    +0.000 C 
ATOM     93  H2  UNL A   1      10.507  56.335  11.718  1.00  0.00    +0.000 H 
ATOM     94  H3  UNL A   1      11.970  55.743  10.921  1.00  0.00    +0.000 H 
BRANCH    4    5
ATOM      5  C3  UNL A   1      10.180  54.888  10.194  1.00  0.00    +0.000 C 
ATOM     95  H4  UNL A   1       9.507  55.277   9.457  1.00  0.00    +0.000 H 
ATOM     96  H5  UNL A   1       9.685  54.413  11.015  1.00  0.00    +0.000 H 
BRANCH    5    6
ATOM     97  H6  UNL A   1      11.736  54.295   8.883  1.00  0.00    +0.000 H 
ATOM     98  H7  UNL A   1      10.353  53.163   9.020  1.00  0.00    +0.000 H 
ATOM      6  C4  UNL A   1      11.037  53.809   9.531  1.00  0.00    +0.000 C 
BRANCH    6    7
ATOM     99  H8  UNL A   1      11.683  51.896  10.180  1.00  0.00    +0.000 H 
ATOM    100  H9  UNL A   1      11.449  53.124  11.467  1.00  0.00    +0.000 H 
ATOM      7  C5  UNL A   1      11.826  52.911  10.488  1.00  0.00    +0.000 C 
BRANCH    7    8
ATOM    101  H10 UNL A   1      13.583  53.866   9.775  1.00  0.00    +0.000 H 
ATOM    102  H11 UNL A   1      13.806  52.221  10.445  1.00  0.00    +0.000 H 
ATOM      8  C6  UNL A   1      13.334  53.174  10.553  1.00  0.00    +0.000 C 
BRANCH    8    9
ATOM      9  C7  UNL A   1      13.837  53.748  11.876  1.00  0.00    +0.000 C 
ATOM    103  H12 UNL A   1      13.039  53.725  12.588  1.00  0.00    +0.000 H 
ATOM    104  H13 UNL A   1      14.166  54.751  11.697  1.00  0.00    +0.000 H 
BRANCH    9   10
ATOM    105  H14 UNL A   1      15.749  53.530  12.655  1.00  0.00    +0.000 H 
ATOM     10  N2  UNL A   1      14.961  52.996  12.405  1.00  0.00    +0.000 N 
BRANCH   10   11
ATOM     11  C8  UNL A   1      15.073  51.644  12.605  1.00  0.00    +0.000 C 
ATOM     12  O2  UNL A   1      14.582  51.125  13.602  1.00  0.00    +0.000 O 
BRANCH   11   13
ATOM    106  H15 UNL A   1      17.573  51.932  11.750  1.00  0.00    +0.000 H 
ATOM    107  H16 UNL A   1      18.780  50.558  10.153  1.00  0.00    +0.000 H 
ATOM    108  H17 UNL A   1      17.691  48.662   9.117  1.00  0.00    +0.000 H 
ATOM     13  C9  UNL A   1      15.788  50.808  11.619  1.00  0.00    +0.000 C 
ATOM     14  C10 UNL A   1      17.110  51.124  11.305  1.00  0.00    +0.000 C 
ATOM     15  C11 UNL A   1      17.799  50.339  10.386  1.00  0.00    +0.000 C 
ATOM     16  C12 UNL A   1      17.163  49.251   9.779  1.00  0.00    +0.000 C 
ATOM     17  C13 UNL A   1      15.822  48.947  10.050  1.00  0.00    +0.000 C 
ATOM    114  H23 UNL A   1      14.151  49.545  11.192  1.00  0.00    +0.000 H 
ATOM     28  C20 UNL A   1      15.141  49.743  10.978  1.00  0.00    +0.000 C 
BRANCH   17   18
ATOM     18  N3  UNL A   1      15.146  47.837   9.494  1.00  0.00    +0.000 N 
ATOM    109  H18 UNL A   1      15.720  47.146   9.092  1.00  0.00    +0.000 H 
BRANCH   18   19
ATOM    110  H19 UNL A   1      13.898  45.693  10.356  1.00  0.00    +0.000 H 
ATOM    111  H20 UNL A   1      11.506  45.311  10.456  1.00  0.00    +0.000 H 
ATOM    112  H21 UNL A   1      10.836  49.025   8.588  1.00  0.00    +0.000 H 
ATOM    113  H22 UNL A   1      13.230  49.404   8.499  1.00  0.00    +0.000 H 
ATOM     19  C14 UNL A   1      13.762  47.590   9.438  1.00  0.00    +0.000 C 
ATOM     20  C15 UNL A   1      13.250  46.409   9.989  1.00  0.00    +0.000 C 
ATOM     21  C16 UNL A   1      11.872  46.186  10.048  1.00  0.00    +0.000 C 
ATOM     22  C17 UNL A   1      10.990  47.151   9.551  1.00  0.00    +0.000 C 
ATOM     26  C18 UNL A   1      11.486  48.322   8.974  1.00  0.00    +0.000 C 
ATOM     27  C19 UNL A   1      12.865  48.536   8.923  1.00  0.00    +0.000 C 
BRANCH   22   23
ATOM     25  O4  UNL A   1       8.858  47.437  10.733  1.00  0.00    +0.000 O 
ATOM     23  N4  UNL A   1       9.565  46.947   9.659  1.00  0.00    +0.000 N 
ATOM     24  O3  UNL A   1       8.957  46.315   8.820  1.00  0.00    +0.000 O 
ENDBRANCH   22   23
ENDBRANCH   18   19
ENDBRANCH   17   18
ENDBRANCH   11   13
ENDBRANCH   10   11
ENDBRANCH    9   10
ENDBRANCH    8    9
ENDBRANCH    7    8
ENDBRANCH    6    7
ENDBRANCH    5    6
ENDBRANCH    4    5
ENDBRANCH    3    4
ENDBRANCH    2    3
ENDBRANCH   29    2
ENDBRANCH   33   32
BRANCH   37   38
ATOM     38  C29 UNL A   1      17.888  55.533   0.760  1.00  0.00    +0.000 C 
ATOM     39  C30 UNL A   1      19.151  55.930   1.222  1.00  0.00    +0.000 C 
ATOM     40  F1  UNL A   1      19.732  55.280   2.243  1.00  0.00    +0.000 F 
ATOM     41  C31 UNL A   1      19.807  57.025   0.663  1.00  0.00    +0.000 C 
ATOM     42  F2  UNL A   1      20.990  57.418   1.156  1.00  0.00    +0.000 F 
ATOM     43  C32 UNL A   1      19.230  57.722  -0.388  1.00  0.00    +0.000 C 
ATOM     44  F3  UNL A   1      19.862  58.776  -0.922  1.00  0.00    +0.000 F 
ATOM     45  C33 UNL A   1      17.994  57.331  -0.877  1.00  0.00    +0.000 C 
ATOM     46  F4  UNL A   1      17.438  57.995  -1.901  1.00  0.00    +0.000 F 
ATOM     47  C34 UNL A   1      17.323  56.253  -0.303  1.00  0.00    +0.000 C 
ATOM     48  F5  UNL A   1      16.120  55.911  -0.788  1.00  0.00    +0.000 F 
ENDBRANCH   37   38
BRANCH   54   55
ATOM     65  F10 UNL A   1      14.842  48.947  -2.006  1.00  0.00    +0.000 F 
ATOM     55  C40 UNL A   1      16.801  48.564  -0.710  1.00  0.00    +0.000 C 
ATOM     56  C41 UNL A   1      17.991  47.839  -0.559  1.00  0.00    +0.000 C 
ATOM     57  F6  UNL A   1      18.805  48.086   0.479  1.00  0.00    +0.000 F 
ATOM     58  C42 UNL A   1      18.360  46.871  -1.489  1.00  0.00    +0.000 C 
ATOM     59  F7  UNL A   1      19.515  46.207  -1.341  1.00  0.00    +0.000 F 
ATOM     60  C43 UNL A   1      17.536  46.594  -2.571  1.00  0.00    +0.000 C 
ATOM     61  F8  UNL A   1      17.884  45.651  -3.456  1.00  0.00    +0.000 F 
ATOM     62  C44 UNL A   1      16.352  47.297  -2.736  1.00  0.00    +0.000 C 
ATOM     63  F9  UNL A   1      15.549  47.023  -3.774  1.00  0.00    +0.000 F 
ATOM     64  C45 UNL A   1      15.992  48.281  -1.820  1.00  0.00    +0.000 C 
ENDBRANCH   54   55
BRANCH   69   70
ATOM     70  C49 UNL A   1      12.498  48.157   4.777  1.00  0.00    +0.000 C 
ATOM     71  C50 UNL A   1      11.165  48.028   4.370  1.00  0.00    +0.000 C 
ATOM     72  F11 UNL A   1      10.636  48.921   3.521  1.00  0.00    +0.000 F 
ATOM     73  C51 UNL A   1      10.368  46.988   4.842  1.00  0.00    +0.000 C 
ATOM     74  F12 UNL A   1       9.090  46.895   4.451  1.00  0.00    +0.000 F 
ATOM     75  C52 UNL A   1      10.896  46.046   5.713  1.00  0.00    +0.000 C 
ATOM     76  F13 UNL A   1      10.135  45.034   6.150  1.00  0.00    +0.000 F 
ATOM     77  C53 UNL A   1      12.214  46.154   6.131  1.00  0.00    +0.000 C 
ATOM     78  F14 UNL A   1      12.733  45.237   6.958  1.00  0.00    +0.000 F 
ATOM     79  C54 UNL A   1      13.004  47.208   5.679  1.00  0.00    +0.000 C 
ATOM     80  F15 UNL A   1      14.279  47.285   6.089  1.00  0.00    +0.000 F 
ENDBRANCH   69   70
TORSDOF 18
ENDMDL
MODEL 8
REMARK VINA RESULT:      -8.4     18.876     25.440
ROOT
ATOM     33  C25 UNL A   1      25.913  35.800  45.341  1.00  0.00    +0.000 C 
ATOM     34  C26 UNL A   1      27.234  35.729  44.635  1.00  0.00    +0.000 C 
ATOM     35  N5  UNL A   1      28.287  36.496  44.770  1.00  0.00    +0.000 N 
ATOM     36  C27 UNL A   1      29.246  35.978  43.911  1.00  0.00    +0.000 C 
ATOM     37  C28 UNL A   1      30.499  36.435  43.675  1.00  0.00    +0.000 C 
ATOM     49  C35 UNL A   1      31.068  37.601  44.302  1.00  0.00    +0.000 C 
ATOM     50  C36 UNL A   1      32.307  38.180  44.088  1.00  0.00    +0.000 C 
ATOM     51  C37 UNL A   1      32.444  39.258  44.969  1.00  0.00    +0.000 C 
ATOM     52  C38 UNL A   1      31.271  39.383  45.696  1.00  0.00    +0.000 C 
ATOM     53  N6  UNL A   1      30.435  38.360  45.277  1.00  0.00    +0.000 N 
ATOM     54  C39 UNL A   1      30.941  40.360  46.704  1.00  0.00    +0.000 C 
ATOM     66  C46 UNL A   1      29.757  40.437  47.359  1.00  0.00    +0.000 C 
ATOM     67  N7  UNL A   1      28.633  39.636  47.217  1.00  0.00    +0.000 N 
ATOM     68  C47 UNL A   1      27.747  40.106  48.061  1.00  0.00    +0.000 C 
ATOM     69  C48 UNL A   1      26.347  39.632  48.317  1.00  0.00    +0.000 C 
ATOM     81  C55 UNL A   1      25.849  38.620  47.584  1.00  0.00    +0.000 C 
ATOM     82  C56 UNL A   1      24.514  38.048  47.739  1.00  0.00    +0.000 C 
ATOM     83  C57 UNL A   1      24.411  36.969  46.950  1.00  0.00    +0.000 C 
ATOM     84  C58 UNL A   1      25.654  36.806  46.197  1.00  0.00    +0.000 C 
ATOM     85  N8  UNL A   1      26.429  37.867  46.593  1.00  0.00    +0.000 N 
ATOM     86  C59 UNL A   1      28.218  41.250  48.854  1.00  0.00    +0.000 C 
ATOM     87  C60 UNL A   1      29.440  41.426  48.370  1.00  0.00    +0.000 C 
ATOM     88  C61 UNL A   1      28.660  34.816  43.277  1.00  0.00    +0.000 C 
ATOM     89  C62 UNL A   1      27.401  34.645  43.656  1.00  0.00    +0.000 C 
ATOM    117  H26 UNL A   1      33.008  37.869  43.398  1.00  0.00    +0.000 H 
ATOM    118  H27 UNL A   1      33.277  39.859  45.061  1.00  0.00    +0.000 H 
ATOM    119  H28 UNL A   1      29.527  38.196  45.620  1.00  0.00    +0.000 H 
ATOM    120  H29 UNL A   1      23.772  38.416  48.353  1.00  0.00    +0.000 H 
ATOM    121  H30 UNL A   1      23.587  36.351  46.885  1.00  0.00    +0.000 H 
ATOM    122  H31 UNL A   1      27.312  38.069  46.205  1.00  0.00    +0.000 H 
ATOM    123  H32 UNL A   1      27.727  41.777  49.592  1.00  0.00    +0.000 H 
ATOM    124  H33 UNL A   1      30.084  42.172  48.675  1.00  0.00    +0.000 H 
ATOM    125  H34 UNL A   1      29.158  34.200  42.615  1.00  0.00    +0.000 H 
ATOM    126  H35 UNL A   1      26.718  33.937  43.346  1.00  0.00    +0.000 H 
ENDROOT
BRANCH   33   32
ATOM    127  H36 UNL A   1      23.903  35.739  43.551  1.00  0.00    +0.000 H 
ATOM     32  C24 UNL A   1      24.890  34.746  45.138  1.00  0.00    +0.000 C 
ATOM    115  H24 UNL A   1      24.071  31.662  46.184  1.00  0.00    +0.000 H 
ATOM    116  H25 UNL A   1      25.623  33.466  46.655  1.00  0.00    +0.000 H 
ATOM     90  C63 UNL A   1      23.913  34.891  44.140  1.00  0.00    +0.000 C 
ATOM     91  C64 UNL A   1      22.957  33.895  43.942  1.00  0.00    +0.000 C 
ATOM     29  C21 UNL A   1      22.989  32.735  44.719  1.00  0.00    +0.000 C 
ATOM     30  C22 UNL A   1      24.003  32.553  45.665  1.00  0.00    +0.000 C 
ATOM     31  C23 UNL A   1      24.920  33.573  45.907  1.00  0.00    +0.000 C 
ATOM    128  H37 UNL A   1      22.227  34.015  43.222  1.00  0.00    +0.000 H 
BRANCH   29    2
ATOM      1  O1  UNL A   1      22.216  30.522  44.752  1.00  0.00    +0.000 O 
ATOM      2  C1  UNL A   1      21.964  31.695  44.487  1.00  0.00    +0.000 C 
BRANCH    2    3
ATOM      3  N1  UNL A   1      20.742  32.035  43.967  1.00  0.00    +0.000 N 
ATOM     92  H1  UNL A   1      20.630  31.859  43.005  1.00  0.00    +0.000 H 
BRANCH    3    4
ATOM      4  C2  UNL A   1      19.589  32.617  44.632  1.00  0.00    +0.000 C 
ATOM     93  H2  UNL A   1      19.898  33.004  45.580  1.00  0.00    +0.000 H 
ATOM     94  H3  UNL A   1      18.854  31.848  44.743  1.00  0.00    +0.000 H 
BRANCH    4    5
ATOM      5  C3  UNL A   1      18.961  33.747  43.822  1.00  0.00    +0.000 C 
ATOM     95  H4  UNL A   1      19.002  33.475  42.786  1.00  0.00    +0.000 H 
ATOM     96  H5  UNL A   1      19.523  34.628  44.053  1.00  0.00    +0.000 H 
BRANCH    5    6
ATOM     97  H6  UNL A   1      17.429  35.120  44.331  1.00  0.00    +0.000 H 
ATOM     98  H7  UNL A   1      17.276  33.478  45.035  1.00  0.00    +0.000 H 
ATOM      6  C4  UNL A   1      17.506  34.065  44.170  1.00  0.00    +0.000 C 
BRANCH    6    7
ATOM     99  H8  UNL A   1      16.026  34.572  42.739  1.00  0.00    +0.000 H 
ATOM    100  H9  UNL A   1      15.784  33.018  43.602  1.00  0.00    +0.000 H 
ATOM      7  C5  UNL A   1      16.472  33.673  43.110  1.00  0.00    +0.000 C 
BRANCH    7    8
ATOM    101  H10 UNL A   1      18.082  32.986  41.908  1.00  0.00    +0.000 H 
ATOM    102  H11 UNL A   1      16.546  33.304  41.047  1.00  0.00    +0.000 H 
ATOM      8  C6  UNL A   1      17.016  32.888  41.912  1.00  0.00    +0.000 C 
BRANCH    8    9
ATOM      9  C7  UNL A   1      16.678  31.399  41.903  1.00  0.00    +0.000 C 
ATOM    103  H12 UNL A   1      17.306  30.907  41.190  1.00  0.00    +0.000 H 
ATOM    104  H13 UNL A   1      15.644  31.297  41.644  1.00  0.00    +0.000 H 
BRANCH    9   10
ATOM    105  H14 UNL A   1      16.634  31.345  43.978  1.00  0.00    +0.000 H 
ATOM     10  N2  UNL A   1      16.876  30.786  43.205  1.00  0.00    +0.000 N 
BRANCH   10   11
ATOM     11  C8  UNL A   1      17.354  29.537  43.504  1.00  0.00    +0.000 C 
ATOM     12  O2  UNL A   1      18.524  29.387  43.839  1.00  0.00    +0.000 O 
BRANCH   11   13
ATOM    106  H15 UNL A   1      16.661  27.891  45.471  1.00  0.00    +0.000 H 
ATOM    107  H16 UNL A   1      15.172  25.976  45.371  1.00  0.00    +0.000 H 
ATOM    108  H17 UNL A   1      14.127  25.360  43.278  1.00  0.00    +0.000 H 
ATOM     13  C9  UNL A   1      16.458  28.364  43.422  1.00  0.00    +0.000 C 
ATOM     14  C10 UNL A   1      16.215  27.625  44.579  1.00  0.00    +0.000 C 
ATOM     15  C11 UNL A   1      15.366  26.525  44.520  1.00  0.00    +0.000 C 
ATOM     16  C12 UNL A   1      14.773  26.163  43.305  1.00  0.00    +0.000 C 
ATOM     17  C13 UNL A   1      15.042  26.869  42.124  1.00  0.00    +0.000 C 
ATOM    114  H23 UNL A   1      16.116  28.509  41.343  1.00  0.00    +0.000 H 
ATOM     28  C20 UNL A   1      15.896  27.975  42.198  1.00  0.00    +0.000 C 
BRANCH   17   18
ATOM     18  N3  UNL A   1      14.439  26.569  40.882  1.00  0.00    +0.000 N 
ATOM    109  H18 UNL A   1      13.886  27.285  40.492  1.00  0.00    +0.000 H 
BRANCH   18   19
ATOM    110  H19 UNL A   1      15.421  26.313  38.460  1.00  0.00    +0.000 H 
ATOM    111  H20 UNL A   1      15.762  24.265  37.208  1.00  0.00    +0.000 H 
ATOM    112  H21 UNL A   1      13.973  22.066  40.322  1.00  0.00    +0.000 H 
ATOM    113  H22 UNL A   1      13.643  24.118  41.571  1.00  0.00    +0.000 H 
ATOM     19  C14 UNL A   1      14.523  25.383  40.129  1.00  0.00    +0.000 C 
ATOM     20  C15 UNL A   1      15.122  25.411  38.863  1.00  0.00    +0.000 C 
ATOM     21  C16 UNL A   1      15.319  24.232  38.140  1.00  0.00    +0.000 C 
ATOM     22  C17 UNL A   1      14.914  23.008  38.682  1.00  0.00    +0.000 C 
ATOM     26  C18 UNL A   1      14.291  22.966  39.931  1.00  0.00    +0.000 C 
ATOM     27  C19 UNL A   1      14.101  24.151  40.647  1.00  0.00    +0.000 C 
BRANCH   22   23
ATOM     25  O4  UNL A   1      14.304  20.716  38.055  1.00  0.00    +0.000 O 
ATOM     23  N4  UNL A   1      15.166  21.783  37.960  1.00  0.00    +0.000 N 
ATOM     24  O3  UNL A   1      16.158  21.653  37.274  1.00  0.00    +0.000 O 
ENDBRANCH   22   23
ENDBRANCH   18   19
ENDBRANCH   17   18
ENDBRANCH   11   13
ENDBRANCH   10   11
ENDBRANCH    9   10
ENDBRANCH    8    9
ENDBRANCH    7    8
ENDBRANCH    6    7
ENDBRANCH    5    6
ENDBRANCH    4    5
ENDBRANCH    3    4
ENDBRANCH    2    3
ENDBRANCH   29    2
ENDBRANCH   33   32
BRANCH   37   38
ATOM     38  C29 UNL A   1      31.353  35.656  42.718  1.00  0.00    +0.000 C 
ATOM     39  C30 UNL A   1      31.436  35.990  41.358  1.00  0.00    +0.000 C 
ATOM     40  F1  UNL A   1      30.718  37.014  40.870  1.00  0.00    +0.000 F 
ATOM     41  C31 UNL A   1      32.226  35.247  40.484  1.00  0.00    +0.000 C 
ATOM     42  F2  UNL A   1      32.248  35.553  39.179  1.00  0.00    +0.000 F 
ATOM     43  C32 UNL A   1      32.974  34.179  40.957  1.00  0.00    +0.000 C 
ATOM     44  F3  UNL A   1      33.731  33.465  40.113  1.00  0.00    +0.000 F 
ATOM     45  C33 UNL A   1      32.927  33.846  42.301  1.00  0.00    +0.000 C 
ATOM     46  F4  UNL A   1      33.658  32.822  42.763  1.00  0.00    +0.000 F 
ATOM     47  C34 UNL A   1      32.117  34.570  43.173  1.00  0.00    +0.000 C 
ATOM     48  F5  UNL A   1      32.080  34.212  44.465  1.00  0.00    +0.000 F 
ENDBRANCH   37   38
BRANCH   54   55
ATOM     65  F10 UNL A   1      30.798  43.049  45.806  1.00  0.00    +0.000 F 
ATOM     55  C40 UNL A   1      31.980  41.389  47.036  1.00  0.00    +0.000 C 
ATOM     56  C41 UNL A   1      33.117  41.067  47.789  1.00  0.00    +0.000 C 
ATOM     57  F6  UNL A   1      33.261  39.836  48.303  1.00  0.00    +0.000 F 
ATOM     58  C42 UNL A   1      34.102  42.019  48.036  1.00  0.00    +0.000 C 
ATOM     59  F7  UNL A   1      35.170  41.700  48.781  1.00  0.00    +0.000 F 
ATOM     60  C43 UNL A   1      33.981  43.300  47.515  1.00  0.00    +0.000 C 
ATOM     61  F8  UNL A   1      34.938  44.210  47.740  1.00  0.00    +0.000 F 
ATOM     62  C44 UNL A   1      32.865  43.637  46.763  1.00  0.00    +0.000 C 
ATOM     63  F9  UNL A   1      32.751  44.870  46.250  1.00  0.00    +0.000 F 
ATOM     64  C45 UNL A   1      31.867  42.694  46.534  1.00  0.00    +0.000 C 
ENDBRANCH   54   55
BRANCH   69   70
ATOM     70  C49 UNL A   1      25.492  40.252  49.360  1.00  0.00    +0.000 C 
ATOM     71  C50 UNL A   1      25.514  39.787  50.680  1.00  0.00    +0.000 C 
ATOM     72  F11 UNL A   1      26.254  38.715  50.999  1.00  0.00    +0.000 F 
ATOM     73  C51 UNL A   1      24.767  40.414  51.674  1.00  0.00    +0.000 C 
ATOM     74  F12 UNL A   1      24.791  39.940  52.927  1.00  0.00    +0.000 F 
ATOM     75  C52 UNL A   1      24.001  41.531  51.370  1.00  0.00    +0.000 C 
ATOM     76  F13 UNL A   1      23.300  42.147  52.332  1.00  0.00    +0.000 F 
ATOM     77  C53 UNL A   1      23.964  42.009  50.069  1.00  0.00    +0.000 C 
ATOM     78  F14 UNL A   1      23.240  43.097  49.775  1.00  0.00    +0.000 F 
ATOM     79  C54 UNL A   1      24.691  41.367  49.069  1.00  0.00    +0.000 C 
ATOM     80  F15 UNL A   1      24.647  41.855  47.821  1.00  0.00    +0.000 F 
ENDBRANCH   69   70
TORSDOF 18
ENDMDL
MODEL 9
REMARK VINA RESULT:      -8.3     20.126     25.684
ROOT
ATOM     33  C25 UNL A   1      52.921  20.171  11.532  1.00  0.00    +0.000 C 
ATOM     34  C26 UNL A   1      52.736  20.766  12.897  1.00  0.00    +0.000 C 
ATOM     35  N5  UNL A   1      53.589  20.845  13.887  1.00  0.00    +0.000 N 
ATOM     36  C27 UNL A   1      52.926  21.515  14.905  1.00  0.00    +0.000 C 
ATOM     37  C28 UNL A   1      53.379  21.824  16.144  1.00  0.00    +0.000 C 
ATOM     49  C35 UNL A   1      54.688  21.481  16.636  1.00  0.00    +0.000 C 
ATOM     50  C36 UNL A   1      55.223  21.698  17.894  1.00  0.00    +0.000 C 
ATOM     51  C37 UNL A   1      56.548  21.251  17.890  1.00  0.00    +0.000 C 
ATOM     52  C38 UNL A   1      56.825  20.709  16.645  1.00  0.00    +0.000 C 
ATOM     53  N6  UNL A   1      55.675  20.857  15.885  1.00  0.00    +0.000 N 
ATOM     54  C39 UNL A   1      58.051  20.108  16.181  1.00  0.00    +0.000 C 
ATOM     66  C46 UNL A   1      58.241  19.572  14.950  1.00  0.00    +0.000 C 
ATOM     67  N7  UNL A   1      57.342  19.474  13.897  1.00  0.00    +0.000 N 
ATOM     68  C47 UNL A   1      57.989  18.878  12.927  1.00  0.00    +0.000 C 
ATOM     69  C48 UNL A   1      57.497  18.502  11.560  1.00  0.00    +0.000 C 
ATOM     81  C55 UNL A   1      56.213  18.737  11.233  1.00  0.00    +0.000 C 
ATOM     82  C56 UNL A   1      55.608  18.441   9.938  1.00  0.00    +0.000 C 
ATOM     83  C57 UNL A   1      54.363  18.937   9.917  1.00  0.00    +0.000 C 
ATOM     84  C58 UNL A   1      54.067  19.540  11.216  1.00  0.00    +0.000 C 
ATOM     85  N8  UNL A   1      55.202  19.321  11.956  1.00  0.00    +0.000 N 
ATOM     86  C59 UNL A   1      59.384  18.547  13.245  1.00  0.00    +0.000 C 
ATOM     87  C60 UNL A   1      59.479  18.969  14.499  1.00  0.00    +0.000 C 
ATOM     88  C61 UNL A   1      51.607  21.843  14.405  1.00  0.00    +0.000 C 
ATOM     89  C62 UNL A   1      51.423  21.362  13.183  1.00  0.00    +0.000 C 
ATOM    117  H26 UNL A   1      54.728  22.117  18.697  1.00  0.00    +0.000 H 
ATOM    118  H27 UNL A   1      57.209  21.314  18.680  1.00  0.00    +0.000 H 
ATOM    119  H28 UNL A   1      55.573  20.562  14.951  1.00  0.00    +0.000 H 
ATOM    120  H29 UNL A   1      56.064  17.930   9.166  1.00  0.00    +0.000 H 
ATOM    121  H30 UNL A   1      53.717  18.902   9.113  1.00  0.00    +0.000 H 
ATOM    122  H31 UNL A   1      55.284  19.558  12.908  1.00  0.00    +0.000 H 
ATOM    123  H32 UNL A   1      60.101  18.102  12.651  1.00  0.00    +0.000 H 
ATOM    124  H33 UNL A   1      60.328  18.882  15.079  1.00  0.00    +0.000 H 
ATOM    125  H34 UNL A   1      50.901  22.382  14.931  1.00  0.00    +0.000 H 
ATOM    126  H35 UNL A   1      50.581  21.397  12.590  1.00  0.00    +0.000 H 
ENDROOT
BRANCH   33   32
ATOM    127  H36 UNL A   1      51.022  18.392  10.844  1.00  0.00    +0.000 H 
ATOM     32  C24 UNL A   1      51.863  20.302  10.501  1.00  0.00    +0.000 C 
ATOM    115  H24 UNL A   1      50.561  22.540   8.363  1.00  0.00    +0.000 H 
ATOM    116  H25 UNL A   1      52.412  22.257   9.904  1.00  0.00    +0.000 H 
ATOM     90  C63 UNL A   1      50.951  19.257  10.287  1.00  0.00    +0.000 C 
ATOM     91  C64 UNL A   1      49.949  19.384   9.324  1.00  0.00    +0.000 C 
ATOM     29  C21 UNL A   1      49.835  20.568   8.591  1.00  0.00    +0.000 C 
ATOM     30  C22 UNL A   1      50.696  21.639   8.850  1.00  0.00    +0.000 C 
ATOM     31  C23 UNL A   1      51.734  21.491   9.766  1.00  0.00    +0.000 C 
ATOM    128  H37 UNL A   1      49.294  18.605   9.153  1.00  0.00    +0.000 H 
BRANCH   29    2
ATOM      1  O1  UNL A   1      48.298  21.778   7.300  1.00  0.00    +0.000 O 
ATOM      2  C1  UNL A   1      48.764  20.676   7.578  1.00  0.00    +0.000 C 
BRANCH    2    3
ATOM      3  N1  UNL A   1      48.283  19.551   6.959  1.00  0.00    +0.000 N 
ATOM     92  H1  UNL A   1      47.390  19.258   7.252  1.00  0.00    +0.000 H 
BRANCH    3    4
ATOM      4  C2  UNL A   1      48.902  18.730   5.932  1.00  0.00    +0.000 C 
ATOM     93  H2  UNL A   1      49.239  17.818   6.379  1.00  0.00    +0.000 H 
ATOM     94  H3  UNL A   1      49.714  19.287   5.516  1.00  0.00    +0.000 H 
BRANCH    4    5
ATOM      5  C3  UNL A   1      47.938  18.393   4.799  1.00  0.00    +0.000 C 
ATOM     95  H4  UNL A   1      48.045  17.352   4.571  1.00  0.00    +0.000 H 
ATOM     96  H5  UNL A   1      48.199  19.037   3.985  1.00  0.00    +0.000 H 
BRANCH    5    6
ATOM     97  H6  UNL A   1      46.413  19.374   5.897  1.00  0.00    +0.000 H 
ATOM     98  H7  UNL A   1      46.033  17.713   5.339  1.00  0.00    +0.000 H 
ATOM      6  C4  UNL A   1      46.463  18.663   5.099  1.00  0.00    +0.000 C 
BRANCH    6    7
ATOM     99  H8  UNL A   1      44.752  18.619   3.847  1.00  0.00    +0.000 H 
ATOM    100  H9  UNL A   1      46.279  19.156   3.072  1.00  0.00    +0.000 H 
ATOM      7  C5  UNL A   1      45.640  19.211   3.929  1.00  0.00    +0.000 C 
BRANCH    7    8
ATOM    101  H10 UNL A   1      46.105  21.273   4.126  1.00  0.00    +0.000 H 
ATOM    102  H11 UNL A   1      44.584  20.738   4.904  1.00  0.00    +0.000 H 
ATOM      8  C6  UNL A   1      45.218  20.679   4.045  1.00  0.00    +0.000 C 
BRANCH    8    9
ATOM      9  C7  UNL A   1      44.396  21.213   2.874  1.00  0.00    +0.000 C 
ATOM    103  H12 UNL A   1      45.051  21.393   2.047  1.00  0.00    +0.000 H 
ATOM    104  H13 UNL A   1      43.918  22.117   3.192  1.00  0.00    +0.000 H 
BRANCH    9   10
ATOM    105  H14 UNL A   1      42.812  19.909   3.187  1.00  0.00    +0.000 H 
ATOM     10  N2  UNL A   1      43.364  20.280   2.461  1.00  0.00    +0.000 N 
BRANCH   10   11
ATOM     11  C8  UNL A   1      43.052  19.845   1.199  1.00  0.00    +0.000 C 
ATOM     12  O2  UNL A   1      43.902  19.293   0.509  1.00  0.00    +0.000 O 
BRANCH   11   13
ATOM    106  H15 UNL A   1      42.117  19.085  -1.169  1.00  0.00    +0.000 H 
ATOM    107  H16 UNL A   1      39.877  19.370  -2.061  1.00  0.00    +0.000 H 
ATOM    108  H17 UNL A   1      38.180  20.485  -0.743  1.00  0.00    +0.000 H 
ATOM     13  C9  UNL A   1      41.689  20.042   0.665  1.00  0.00    +0.000 C 
ATOM     14  C10 UNL A   1      41.392  19.561  -0.610  1.00  0.00    +0.000 C 
ATOM     15  C11 UNL A   1      40.109  19.730  -1.122  1.00  0.00    +0.000 C 
ATOM     16  C12 UNL A   1      39.134  20.386  -0.363  1.00  0.00    +0.000 C 
ATOM     17  C13 UNL A   1      39.428  20.914   0.901  1.00  0.00    +0.000 C 
ATOM    114  H23 UNL A   1      40.966  21.120   2.331  1.00  0.00    +0.000 H 
ATOM     28  C20 UNL A   1      40.721  20.736   1.405  1.00  0.00    +0.000 C 
BRANCH   17   18
ATOM     18  N3  UNL A   1      38.470  21.549   1.723  1.00  0.00    +0.000 N 
ATOM    109  H18 UNL A   1      38.415  22.529   1.636  1.00  0.00    +0.000 H 
BRANCH   18   19
ATOM    110  H19 UNL A   1      38.517  19.075   2.601  1.00  0.00    +0.000 H 
ATOM    111  H20 UNL A   1      37.135  18.091   4.333  1.00  0.00    +0.000 H 
ATOM    112  H21 UNL A   1      35.000  21.703   4.680  1.00  0.00    +0.000 H 
ATOM    113  H22 UNL A   1      36.392  22.683   2.953  1.00  0.00    +0.000 H 
ATOM     19  C14 UNL A   1      37.583  20.968   2.648  1.00  0.00    +0.000 C 
ATOM     20  C15 UNL A   1      37.778  19.640   3.049  1.00  0.00    +0.000 C 
ATOM     21  C16 UNL A   1      36.983  19.070   4.046  1.00  0.00    +0.000 C 
ATOM     22  C17 UNL A   1      35.979  19.831   4.654  1.00  0.00    +0.000 C 
ATOM     26  C18 UNL A   1      35.754  21.148   4.247  1.00  0.00    +0.000 C 
ATOM     27  C19 UNL A   1      36.557  21.709   3.250  1.00  0.00    +0.000 C 
BRANCH   22   23
ATOM     25  O4  UNL A   1      35.255  19.772   6.998  1.00  0.00    +0.000 O 
ATOM     23  N4  UNL A   1      35.192  19.262   5.722  1.00  0.00    +0.000 N 
ATOM     24  O3  UNL A   1      34.475  18.302   5.529  1.00  0.00    +0.000 O 
ENDBRANCH   22   23
ENDBRANCH   18   19
ENDBRANCH   17   18
ENDBRANCH   11   13
ENDBRANCH   10   11
ENDBRANCH    9   10
ENDBRANCH    8    9
ENDBRANCH    7    8
ENDBRANCH    6    7
ENDBRANCH    5    6
ENDBRANCH    4    5
ENDBRANCH    3    4
ENDBRANCH    2    3
ENDBRANCH   29    2
ENDBRANCH   33   32
BRANCH   37   38
ATOM     38  C29 UNL A   1      52.462  22.598  17.045  1.00  0.00    +0.000 C 
ATOM     39  C30 UNL A   1      52.341  23.993  16.958  1.00  0.00    +0.000 C 
ATOM     40  F1  UNL A   1      53.080  24.681  16.073  1.00  0.00    +0.000 F 
ATOM     41  C31 UNL A   1      51.491  24.694  17.810  1.00  0.00    +0.000 C 
ATOM     42  F2  UNL A   1      51.433  26.032  17.744  1.00  0.00    +0.000 F 
ATOM     43  C32 UNL A   1      50.721  24.013  18.741  1.00  0.00    +0.000 C 
ATOM     44  F3  UNL A   1      49.906  24.690  19.561  1.00  0.00    +0.000 F 
ATOM     45  C33 UNL A   1      50.804  22.633  18.827  1.00  0.00    +0.000 C 
ATOM     46  F4  UNL A   1      50.051  21.971  19.718  1.00  0.00    +0.000 F 
ATOM     47  C34 UNL A   1      51.673  21.931  17.995  1.00  0.00    +0.000 C 
ATOM     48  F5  UNL A   1      51.744  20.597  18.115  1.00  0.00    +0.000 F 
ENDBRANCH   37   38
BRANCH   54   55
ATOM     65  F10 UNL A   1      58.633  17.813  17.748  1.00  0.00    +0.000 F 
ATOM     55  C40 UNL A   1      59.198  20.045  17.144  1.00  0.00    +0.000 C 
ATOM     56  C41 UNL A   1      60.039  21.146  17.355  1.00  0.00    +0.000 C 
ATOM     57  F6  UNL A   1      59.882  22.265  16.632  1.00  0.00    +0.000 F 
ATOM     58  C42 UNL A   1      61.062  21.091  18.299  1.00  0.00    +0.000 C 
ATOM     59  F7  UNL A   1      61.872  22.146  18.467  1.00  0.00    +0.000 F 
ATOM     60  C43 UNL A   1      61.246  19.947  19.062  1.00  0.00    +0.000 C 
ATOM     61  F8  UNL A   1      62.221  19.903  19.981  1.00  0.00    +0.000 F 
ATOM     62  C44 UNL A   1      60.422  18.849  18.871  1.00  0.00    +0.000 C 
ATOM     63  F9  UNL A   1      60.591  17.747  19.616  1.00  0.00    +0.000 F 
ATOM     64  C45 UNL A   1      59.413  18.892  17.913  1.00  0.00    +0.000 C 
ENDBRANCH   54   55
BRANCH   69   70
ATOM     70  C49 UNL A   1      58.390  17.874  10.554  1.00  0.00    +0.000 C 
ATOM     71  C50 UNL A   1      58.462  16.482  10.423  1.00  0.00    +0.000 C 
ATOM     72  F11 UNL A   1      57.779  15.695  11.266  1.00  0.00    +0.000 F 
ATOM     73  C51 UNL A   1      59.246  15.896   9.432  1.00  0.00    +0.000 C 
ATOM     74  F12 UNL A   1      59.311  14.561   9.336  1.00  0.00    +0.000 F 
ATOM     75  C52 UNL A   1      59.954  16.690   8.542  1.00  0.00    +0.000 C 
ATOM     76  F13 UNL A   1      60.690  16.124   7.575  1.00  0.00    +0.000 F 
ATOM     77  C53 UNL A   1      59.898  18.071   8.654  1.00  0.00    +0.000 C 
ATOM     78  F14 UNL A   1      60.566  18.842   7.786  1.00  0.00    +0.000 F 
ATOM     79  C54 UNL A   1      59.135  18.658   9.661  1.00  0.00    +0.000 C 
ATOM     80  F15 UNL A   1      59.089  19.996   9.741  1.00  0.00    +0.000 F 
ENDBRANCH   69   70
TORSDOF 18
ENDMDL
MODEL 10
REMARK VINA RESULT:      -8.3     19.885     25.627
ROOT
ATOM     33  C25 UNL A   1      24.095  37.993  48.514  1.00  0.00    +0.000 C 
ATOM     34  C26 UNL A   1      25.343  38.820  48.429  1.00  0.00    +0.000 C 
ATOM     35  N5  UNL A   1      26.471  38.555  47.818  1.00  0.00    +0.000 N 
ATOM     36  C27 UNL A   1      27.281  39.663  48.022  1.00  0.00    +0.000 C 
ATOM     37  C28 UNL A   1      28.555  39.863  47.604  1.00  0.00    +0.000 C 
ATOM     49  C35 UNL A   1      29.319  38.904  46.850  1.00  0.00    +0.000 C 
ATOM     50  C36 UNL A   1      30.635  38.986  46.429  1.00  0.00    +0.000 C 
ATOM     51  C37 UNL A   1      30.926  37.844  45.675  1.00  0.00    +0.000 C 
ATOM     52  C38 UNL A   1      29.808  37.026  45.668  1.00  0.00    +0.000 C 
ATOM     53  N6  UNL A   1      28.829  37.688  46.393  1.00  0.00    +0.000 N 
ATOM     54  C39 UNL A   1      29.643  35.738  45.041  1.00  0.00    +0.000 C 
ATOM     66  C46 UNL A   1      28.522  34.978  45.100  1.00  0.00    +0.000 C 
ATOM     67  N7  UNL A   1      27.326  35.244  45.751  1.00  0.00    +0.000 N 
ATOM     68  C47 UNL A   1      26.552  34.213  45.519  1.00  0.00    +0.000 C 
ATOM     69  C48 UNL A   1      25.152  33.960  45.995  1.00  0.00    +0.000 C 
ATOM     81  C55 UNL A   1      24.563  34.851  46.814  1.00  0.00    +0.000 C 
ATOM     82  C56 UNL A   1      23.204  34.742  47.335  1.00  0.00    +0.000 C 
ATOM     83  C57 UNL A   1      22.899  35.869  47.993  1.00  0.00    +0.000 C 
ATOM     84  C58 UNL A   1      24.062  36.758  47.982  1.00  0.00    +0.000 C 
ATOM     85  N8  UNL A   1      25.024  36.045  47.311  1.00  0.00    +0.000 N 
ATOM     86  C59 UNL A   1      27.163  33.179  44.672  1.00  0.00    +0.000 C 
ATOM     87  C60 UNL A   1      28.372  33.685  44.464  1.00  0.00    +0.000 C 
ATOM     88  C61 UNL A   1      26.508  40.615  48.792  1.00  0.00    +0.000 C 
ATOM     89  C62 UNL A   1      25.319  40.123  49.109  1.00  0.00    +0.000 C 
ATOM    117  H26 UNL A   1      31.289  39.758  46.635  1.00  0.00    +0.000 H 
ATOM    118  H27 UNL A   1      31.821  37.645  45.203  1.00  0.00    +0.000 H 
ATOM    119  H28 UNL A   1      27.921  37.346  46.560  1.00  0.00    +0.000 H 
ATOM    120  H29 UNL A   1      22.580  33.928  47.218  1.00  0.00    +0.000 H 
ATOM    121  H30 UNL A   1      21.991  36.079  48.435  1.00  0.00    +0.000 H 
ATOM    122  H31 UNL A   1      25.951  36.358  47.198  1.00  0.00    +0.000 H 
ATOM    123  H32 UNL A   1      26.758  32.294  44.329  1.00  0.00    +0.000 H 
ATOM    124  H33 UNL A   1      29.112  33.216  43.918  1.00  0.00    +0.000 H 
ATOM    125  H34 UNL A   1      26.840  41.555  49.061  1.00  0.00    +0.000 H 
ATOM    126  H35 UNL A   1      24.571  40.544  49.682  1.00  0.00    +0.000 H 
ENDROOT
BRANCH   33   32
ATOM    127  H36 UNL A   1      22.035  39.280  47.353  1.00  0.00    +0.000 H 
ATOM     32  C24 UNL A   1      22.870  38.537  49.150  1.00  0.00    +0.000 C 
ATOM    115  H24 UNL A   1      21.280  38.630  52.105  1.00  0.00    +0.000 H 
ATOM    116  H25 UNL A   1      23.372  37.915  51.109  1.00  0.00    +0.000 H 
ATOM     90  C63 UNL A   1      21.895  39.179  48.370  1.00  0.00    +0.000 C 
ATOM     91  C64 UNL A   1      20.738  39.682  48.966  1.00  0.00    +0.000 C 
ATOM     29  C21 UNL A   1      20.535  39.519  50.339  1.00  0.00    +0.000 C 
ATOM     30  C22 UNL A   1      21.468  38.817  51.107  1.00  0.00    +0.000 C 
ATOM     31  C23 UNL A   1      22.652  38.370  50.526  1.00  0.00    +0.000 C 
ATOM    128  H37 UNL A   1      20.033  40.174  48.394  1.00  0.00    +0.000 H 
BRANCH   29    2
ATOM      1  O1  UNL A   1      19.354  40.636  52.027  1.00  0.00    +0.000 O 
ATOM      2  C1  UNL A   1      19.299  40.061  50.943  1.00  0.00    +0.000 C 
BRANCH    2    3
ATOM      3  N1  UNL A   1      18.095  39.912  50.304  1.00  0.00    +0.000 N 
ATOM     92  H1  UNL A   1      18.147  39.820  49.325  1.00  0.00    +0.000 H 
BRANCH    3    4
ATOM      4  C2  UNL A   1      16.755  39.872  50.864  1.00  0.00    +0.000 C 
ATOM     93  H2  UNL A   1      16.054  40.115  50.094  1.00  0.00    +0.000 H 
ATOM     94  H3  UNL A   1      16.716  40.577  51.667  1.00  0.00    +0.000 H 
BRANCH    4    5
ATOM      5  C3  UNL A   1      16.404  38.500  51.432  1.00  0.00    +0.000 C 
ATOM     95  H4  UNL A   1      16.628  38.508  52.479  1.00  0.00    +0.000 H 
ATOM     96  H5  UNL A   1      16.983  37.791  50.878  1.00  0.00    +0.000 H 
BRANCH    5    6
ATOM     97  H6  UNL A   1      14.331  38.826  51.728  1.00  0.00    +0.000 H 
ATOM     98  H7  UNL A   1      14.861  37.114  51.713  1.00  0.00    +0.000 H 
ATOM      6  C4  UNL A   1      14.943  38.081  51.263  1.00  0.00    +0.000 C 
BRANCH    6    7
ATOM     99  H8  UNL A   1      14.916  38.688  49.232  1.00  0.00    +0.000 H 
ATOM    100  H9  UNL A   1      13.398  37.962  49.855  1.00  0.00    +0.000 H 
ATOM      7  C5  UNL A   1      14.466  37.913  49.817  1.00  0.00    +0.000 C 
BRANCH    7    8
ATOM    101  H10 UNL A   1      13.983  36.296  48.530  1.00  0.00    +0.000 H 
ATOM    102  H11 UNL A   1      14.975  35.884  49.962  1.00  0.00    +0.000 H 
ATOM      8  C6  UNL A   1      14.803  36.571  49.160  1.00  0.00    +0.000 C 
BRANCH    8    9
ATOM      9  C7  UNL A   1      16.074  36.562  48.314  1.00  0.00    +0.000 C 
ATOM    103  H12 UNL A   1      16.369  37.573  48.124  1.00  0.00    +0.000 H 
ATOM    104  H13 UNL A   1      15.860  36.043  47.402  1.00  0.00    +0.000 H 
BRANCH    9   10
ATOM    105  H14 UNL A   1      16.902  35.245  49.688  1.00  0.00    +0.000 H 
ATOM     10  N2  UNL A   1      17.166  35.872  48.977  1.00  0.00    +0.000 N 
BRANCH   10   11
ATOM     11  C8  UNL A   1      18.514  35.973  48.747  1.00  0.00    +0.000 C 
ATOM     12  O2  UNL A   1      19.246  36.487  49.586  1.00  0.00    +0.000 O 
BRANCH   11   13
ATOM    106  H15 UNL A   1      19.587  37.389  46.771  1.00  0.00    +0.000 H 
ATOM    107  H16 UNL A   1      20.563  36.578  44.701  1.00  0.00    +0.000 H 
ATOM    108  H17 UNL A   1      20.621  34.203  44.237  1.00  0.00    +0.000 H 
ATOM     13  C9  UNL A   1      19.089  35.464  47.485  1.00  0.00    +0.000 C 
ATOM     14  C10 UNL A   1      19.612  36.377  46.569  1.00  0.00    +0.000 C 
ATOM     15  C11 UNL A   1      20.166  35.912  45.382  1.00  0.00    +0.000 C 
ATOM     16  C12 UNL A   1      20.186  34.539  45.110  1.00  0.00    +0.000 C 
ATOM     17  C13 UNL A   1      19.626  33.612  45.999  1.00  0.00    +0.000 C 
ATOM    114  H23 UNL A   1      18.648  33.433  47.861  1.00  0.00    +0.000 H 
ATOM     28  C20 UNL A   1      19.073  34.094  47.191  1.00  0.00    +0.000 C 
BRANCH   17   18
ATOM     18  N3  UNL A   1      19.656  32.215  45.790  1.00  0.00    +0.000 N 
ATOM    109  H18 UNL A   1      20.380  31.730  46.250  1.00  0.00    +0.000 H 
BRANCH   18   19
ATOM    110  H19 UNL A   1      20.088  29.760  44.961  1.00  0.00    +0.000 H 
ATOM    111  H20 UNL A   1      18.549  28.300  43.788  1.00  0.00    +0.000 H 
ATOM    112  H21 UNL A   1      15.711  31.407  43.647  1.00  0.00    +0.000 H 
ATOM    113  H22 UNL A   1      17.253  32.859  44.828  1.00  0.00    +0.000 H 
ATOM     19  C14 UNL A   1      18.790  31.425  45.011  1.00  0.00    +0.000 C 
ATOM     20  C15 UNL A   1      19.154  30.110  44.693  1.00  0.00    +0.000 C 
ATOM     21  C16 UNL A   1      18.270  29.267  44.017  1.00  0.00    +0.000 C 
ATOM     22  C17 UNL A   1      17.005  29.737  43.651  1.00  0.00    +0.000 C 
ATOM     26  C18 UNL A   1      16.636  31.054  43.936  1.00  0.00    +0.000 C 
ATOM     27  C19 UNL A   1      17.528  31.887  44.615  1.00  0.00    +0.000 C 
BRANCH   22   23
ATOM     25  O4  UNL A   1      16.451  27.597  42.584  1.00  0.00    +0.000 O 
ATOM     23  N4  UNL A   1      16.068  28.851  43.000  1.00  0.00    +0.000 N 
ATOM     24  O3  UNL A   1      14.927  29.200  42.778  1.00  0.00    +0.000 O 
ENDBRANCH   22   23
ENDBRANCH   18   19
ENDBRANCH   17   18
ENDBRANCH   11   13
ENDBRANCH   10   11
ENDBRANCH    9   10
ENDBRANCH    8    9
ENDBRANCH    7    8
ENDBRANCH    6    7
ENDBRANCH    5    6
ENDBRANCH    4    5
ENDBRANCH    3    4
ENDBRANCH    2    3
ENDBRANCH   29    2
ENDBRANCH   33   32
BRANCH   37   38
ATOM     38  C29 UNL A   1      29.192  41.182  47.930  1.00  0.00    +0.000 C 
ATOM     39  C30 UNL A   1      30.018  41.349  49.052  1.00  0.00    +0.000 C 
ATOM     40  F1  UNL A   1      30.234  40.322  49.889  1.00  0.00    +0.000 F 
ATOM     41  C31 UNL A   1      30.592  42.584  49.342  1.00  0.00    +0.000 C 
ATOM     42  F2  UNL A   1      31.334  42.732  50.449  1.00  0.00    +0.000 F 
ATOM     43  C32 UNL A   1      30.381  43.666  48.501  1.00  0.00    +0.000 C 
ATOM     44  F3  UNL A   1      30.932  44.854  48.784  1.00  0.00    +0.000 F 
ATOM     45  C33 UNL A   1      29.590  43.518  47.373  1.00  0.00    +0.000 C 
ATOM     46  F4  UNL A   1      29.394  44.559  46.551  1.00  0.00    +0.000 F 
ATOM     47  C34 UNL A   1      28.992  42.291  47.094  1.00  0.00    +0.000 C 
ATOM     48  F5  UNL A   1      28.218  42.185  46.004  1.00  0.00    +0.000 F 
ENDBRANCH   37   38
BRANCH   54   55
ATOM     65  F10 UNL A   1      31.661  34.156  46.260  1.00  0.00    +0.000 F 
ATOM     55  C40 UNL A   1      30.813  35.181  44.286  1.00  0.00    +0.000 C 
ATOM     56  C41 UNL A   1      30.999  35.446  42.923  1.00  0.00    +0.000 C 
ATOM     57  F6  UNL A   1      30.080  36.143  42.238  1.00  0.00    +0.000 F 
ATOM     58  C42 UNL A   1      32.123  34.973  42.251  1.00  0.00    +0.000 C 
ATOM     59  F7  UNL A   1      32.270  35.214  40.941  1.00  0.00    +0.000 F 
ATOM     60  C43 UNL A   1      33.091  34.250  42.935  1.00  0.00    +0.000 C 
ATOM     61  F8  UNL A   1      34.180  33.810  42.291  1.00  0.00    +0.000 F 
ATOM     62  C44 UNL A   1      32.928  33.981  44.286  1.00  0.00    +0.000 C 
ATOM     63  F9  UNL A   1      33.867  33.293  44.950  1.00  0.00    +0.000 F 
ATOM     64  C45 UNL A   1      31.794  34.433  44.954  1.00  0.00    +0.000 C 
ENDBRANCH   54   55
BRANCH   69   70
ATOM     70  C49 UNL A   1      24.395  32.751  45.586  1.00  0.00    +0.000 C 
ATOM     71  C50 UNL A   1      24.572  31.531  46.251  1.00  0.00    +0.000 C 
ATOM     72  F11 UNL A   1      25.493  31.425  47.220  1.00  0.00    +0.000 F 
ATOM     73  C51 UNL A   1      23.810  30.415  45.916  1.00  0.00    +0.000 C 
ATOM     74  F12 UNL A   1      24.008  29.254  46.556  1.00  0.00    +0.000 F 
ATOM     75  C52 UNL A   1      22.844  30.503  44.924  1.00  0.00    +0.000 C 
ATOM     76  F13 UNL A   1      22.096  29.434  44.617  1.00  0.00    +0.000 F 
ATOM     77  C53 UNL A   1      22.652  31.701  44.251  1.00  0.00    +0.000 C 
ATOM     78  F14 UNL A   1      21.708  31.795  43.305  1.00  0.00    +0.000 F 
ATOM     79  C54 UNL A   1      23.431  32.811  44.569  1.00  0.00    +0.000 C 
ATOM     80  F15 UNL A   1      23.219  33.960  43.912  1.00  0.00    +0.000 F 
ENDBRANCH   69   70
TORSDOF 18
ENDMDL
