MODEL 1
REMARK VINA RESULT:      -9.5      0.000      0.000
ROOT
ATOM    129  H38 UNL A   1      38.175  28.698  27.382  1.00  0.00    +0.000 H 
ATOM    130  H39 UNL A   1      40.621  28.611  30.742  1.00  0.00    +0.000 H 
ATOM    131  H40 UNL A   1      44.575  25.770  29.513  1.00  0.00    +0.000 H 
ATOM    132  H41 UNL A   1      45.402  26.115  31.910  1.00  0.00    +0.000 H 
ATOM    133  H42 UNL A   1      37.677  32.254  33.792  1.00  0.00    +0.000 H 
ATOM    134  H43 UNL A   1      36.582  31.541  31.591  1.00  0.00    +0.000 H 
ATOM     33  C26 UNL A   1      38.214  29.827  30.000  1.00  0.00    +0.000 C 
ATOM     34  C27 UNL A   1      38.488  30.327  31.391  1.00  0.00    +0.000 C 
ATOM     35  N3  UNL A   1      39.512  30.089  32.170  1.00  0.00    +0.000 N 
ATOM     36  C28 UNL A   1      39.294  30.836  33.321  1.00  0.00    +0.000 C 
ATOM     37  C29 UNL A   1      40.047  30.892  34.445  1.00  0.00    +0.000 C 
ATOM     49  C36 UNL A   1      41.251  30.129  34.651  1.00  0.00    +0.000 C 
ATOM     50  C37 UNL A   1      42.037  30.046  35.786  1.00  0.00    +0.000 C 
ATOM     51  C38 UNL A   1      43.127  29.218  35.503  1.00  0.00    +0.000 C 
ATOM     52  C39 UNL A   1      42.996  28.748  34.207  1.00  0.00    +0.000 C 
ATOM     53  N4  UNL A   1      41.841  29.315  33.694  1.00  0.00    +0.000 N 
ATOM     54  C40 UNL A   1      43.863  27.851  33.487  1.00  0.00    +0.000 C 
ATOM     66  C47 UNL A   1      43.658  27.422  32.217  1.00  0.00    +0.000 C 
ATOM     67  N5  UNL A   1      42.611  27.717  31.354  1.00  0.00    +0.000 N 
ATOM     68  C48 UNL A   1      42.869  27.073  30.242  1.00  0.00    +0.000 C 
ATOM     69  C49 UNL A   1      42.059  27.000  28.976  1.00  0.00    +0.000 C 
ATOM     81  C56 UNL A   1      40.889  27.662  28.908  1.00  0.00    +0.000 C 
ATOM     82  C57 UNL A   1      39.994  27.687  27.755  1.00  0.00    +0.000 C 
ATOM     83  C58 UNL A   1      38.949  28.483  28.029  1.00  0.00    +0.000 C 
ATOM     84  C59 UNL A   1      39.084  28.998  29.393  1.00  0.00    +0.000 C 
ATOM     85  N6  UNL A   1      40.261  28.452  29.839  1.00  0.00    +0.000 N 
ATOM     86  C60 UNL A   1      44.130  26.320  30.264  1.00  0.00    +0.000 C 
ATOM     87  C61 UNL A   1      44.549  26.532  31.504  1.00  0.00    +0.000 C 
ATOM     88  C62 UNL A   1      38.061  31.567  33.125  1.00  0.00    +0.000 C 
ATOM     89  C63 UNL A   1      37.489  31.237  31.975  1.00  0.00    +0.000 C 
ATOM    125  H34 UNL A   1      41.850  30.516  36.686  1.00  0.00    +0.000 H 
ATOM    126  H35 UNL A   1      43.899  28.995  36.151  1.00  0.00    +0.000 H 
ATOM    127  H36 UNL A   1      41.491  29.164  32.787  1.00  0.00    +0.000 H 
ATOM    128  H37 UNL A   1      40.141  27.175  26.871  1.00  0.00    +0.000 H 
ENDROOT
BRANCH   33   32
ATOM    123  H32 UNL A   1      35.693  33.059  27.866  1.00  0.00    +0.000 H 
ATOM    136  H45 UNL A   1      34.138  29.151  27.988  1.00  0.00    +0.000 H 
ATOM    135  H44 UNL A   1      36.039  28.430  29.307  1.00  0.00    +0.000 H 
ATOM     90  C64 UNL A   1      35.980  29.407  28.978  1.00  0.00    +0.000 C 
ATOM     91  C65 UNL A   1      34.867  29.830  28.257  1.00  0.00    +0.000 C 
ATOM    124  H33 UNL A   1      37.698  32.291  28.998  1.00  0.00    +0.000 H 
ATOM     29  C22 UNL A   1      34.738  31.175  27.897  1.00  0.00    +0.000 C 
ATOM     30  C23 UNL A   1      35.775  32.074  28.161  1.00  0.00    +0.000 C 
ATOM     31  C24 UNL A   1      36.920  31.634  28.825  1.00  0.00    +0.000 C 
ATOM     32  C25 UNL A   1      37.022  30.303  29.260  1.00  0.00    +0.000 C 
BRANCH   29   27
ATOM     27  C21 UNL A   1      33.540  31.657  27.179  1.00  0.00    +0.000 C 
ATOM     28  O4  UNL A   1      33.088  32.774  27.418  1.00  0.00    +0.000 O 
BRANCH   27   26
ATOM     26  N2  UNL A   1      32.944  30.868  26.229  1.00  0.00    +0.000 N 
ATOM    122  H31 UNL A   1      33.358  30.884  25.336  1.00  0.00    +0.000 H 
BRANCH   26   25
ATOM     25  C20 UNL A   1      31.778  30.011  26.373  1.00  0.00    +0.000 C 
ATOM    121  H30 UNL A   1      31.045  30.327  25.662  1.00  0.00    +0.000 H 
ATOM    120  H29 UNL A   1      31.408  30.096  27.374  1.00  0.00    +0.000 H 
BRANCH   25   24
ATOM    118  H27 UNL A   1      32.288  28.060  27.030  1.00  0.00    +0.000 H 
ATOM    119  H28 UNL A   1      31.268  28.145  25.564  1.00  0.00    +0.000 H 
ATOM     24  C19 UNL A   1      32.107  28.545  26.094  1.00  0.00    +0.000 C 
BRANCH   24   23
ATOM    116  H25 UNL A   1      33.086  28.661  24.212  1.00  0.00    +0.000 H 
ATOM    117  H26 UNL A   1      34.135  28.851  25.655  1.00  0.00    +0.000 H 
ATOM     23  C18 UNL A   1      33.330  28.315  25.195  1.00  0.00    +0.000 C 
BRANCH   23   22
ATOM    114  H23 UNL A   1      34.834  26.819  25.366  1.00  0.00    +0.000 H 
ATOM    115  H24 UNL A   1      33.176  26.279  25.721  1.00  0.00    +0.000 H 
ATOM     22  C17 UNL A   1      33.804  26.862  25.080  1.00  0.00    +0.000 C 
BRANCH   22   21
ATOM    113  H22 UNL A   1      32.936  25.503  23.729  1.00  0.00    +0.000 H 
ATOM     21  C16 UNL A   1      33.670  26.280  23.678  1.00  0.00    +0.000 C 
ATOM    112  H21 UNL A   1      34.628  25.913  23.371  1.00  0.00    +0.000 H 
BRANCH   21   20
ATOM     20  C15 UNL A   1      33.184  27.289  22.642  1.00  0.00    +0.000 C 
ATOM    110  H19 UNL A   1      33.277  28.277  23.043  1.00  0.00    +0.000 H 
ATOM    111  H20 UNL A   1      33.780  27.191  21.759  1.00  0.00    +0.000 H 
BRANCH   20   19
ATOM     19  N1  UNL A   1      31.802  27.043  22.301  1.00  0.00    +0.000 N 
ATOM    109  H18 UNL A   1      31.634  26.268  21.718  1.00  0.00    +0.000 H 
BRANCH   19   17
ATOM     17  C14 UNL A   1      30.703  27.747  22.686  1.00  0.00    +0.000 C 
ATOM     18  O3  UNL A   1      30.626  28.940  22.390  1.00  0.00    +0.000 O 
BRANCH   17   16
ATOM    107  H16 UNL A   1      29.272  27.737  24.239  1.00  0.00    +0.000 H 
ATOM    108  H17 UNL A   1      28.833  26.807  22.791  1.00  0.00    +0.000 H 
ATOM     16  C13 UNL A   1      29.611  27.063  23.479  1.00  0.00    +0.000 C 
BRANCH   16   15
ATOM    105  H14 UNL A   1      29.446  24.981  23.775  1.00  0.00    +0.000 H 
ATOM    106  H15 UNL A   1      31.107  25.696  23.903  1.00  0.00    +0.000 H 
ATOM     15  C12 UNL A   1      30.069  25.768  24.148  1.00  0.00    +0.000 C 
BRANCH   15   14
ATOM     14  C11 UNL A   1      30.031  25.692  25.685  1.00  0.00    +0.000 C 
ATOM    103  H12 UNL A   1      30.687  26.444  26.069  1.00  0.00    +0.000 H 
ATOM    104  H13 UNL A   1      29.006  25.830  25.962  1.00  0.00    +0.000 H 
BRANCH   14   13
ATOM    101  H10 UNL A   1      29.897  24.210  27.190  1.00  0.00    +0.000 H 
ATOM     13  C10 UNL A   1      30.453  24.345  26.286  1.00  0.00    +0.000 C 
ATOM    102  H11 UNL A   1      30.257  23.631  25.514  1.00  0.00    +0.000 H 
BRANCH   13   12
ATOM    100  H9  UNL A   1      32.040  24.724  27.525  1.00  0.00    +0.000 H 
ATOM     99  H8  UNL A   1      32.486  24.449  25.758  1.00  0.00    +0.000 H 
ATOM     12  C9  UNL A   1      31.936  24.151  26.627  1.00  0.00    +0.000 C 
BRANCH   12   11
ATOM     11  S1  UNL A   1      32.608  22.522  27.127  1.00  0.00    +0.000 S 
BRANCH   11   10
ATOM     97  H6  UNL A   1      36.660  24.346  25.230  1.00  0.00    +0.000 H 
ATOM     98  H7  UNL A   1      34.660  24.359  26.597  1.00  0.00    +0.000 H 
ATOM      5  C3  UNL A   1      34.549  21.182  25.578  1.00  0.00    +0.000 C 
ATOM      6  C4  UNL A   1      35.709  21.175  24.786  1.00  0.00    +0.000 C 
ATOM      7  C5  UNL A   1      36.471  22.332  24.646  1.00  0.00    +0.000 C 
ATOM      8  C6  UNL A   1      36.088  23.491  25.313  1.00  0.00    +0.000 C 
ATOM      9  C7  UNL A   1      34.926  23.497  26.095  1.00  0.00    +0.000 C 
ATOM     10  C8  UNL A   1      34.115  22.354  26.211  1.00  0.00    +0.000 C 
ATOM     95  H4  UNL A   1      35.998  20.309  24.306  1.00  0.00    +0.000 H 
ATOM     96  H5  UNL A   1      37.315  22.330  24.052  1.00  0.00    +0.000 H 
BRANCH    5    4
ATOM      4  O2  UNL A   1      33.799  19.966  25.453  1.00  0.00    +0.000 O 
BRANCH    4    2
ATOM      2  C2  UNL A   1      32.778  19.497  24.616  1.00  0.00    +0.000 C 
ATOM      3  O1  UNL A   1      32.327  18.364  24.549  1.00  0.00    +0.000 O 
BRANCH    2    1
ATOM      1  C1  UNL A   1      32.317  20.647  23.768  1.00  0.00    +0.000 C 
ATOM     92  H1  UNL A   1      31.466  20.349  23.193  1.00  0.00    +0.000 H 
ATOM     93  H2  UNL A   1      33.107  20.943  23.108  1.00  0.00    +0.000 H 
ATOM     94  H3  UNL A   1      32.052  21.471  24.397  1.00  0.00    +0.000 H 
ENDBRANCH    2    1
ENDBRANCH    4    2
ENDBRANCH    5    4
ENDBRANCH   11   10
ENDBRANCH   12   11
ENDBRANCH   13   12
ENDBRANCH   14   13
ENDBRANCH   15   14
ENDBRANCH   16   15
ENDBRANCH   17   16
ENDBRANCH   19   17
ENDBRANCH   20   19
ENDBRANCH   21   20
ENDBRANCH   22   21
ENDBRANCH   23   22
ENDBRANCH   24   23
ENDBRANCH   25   24
ENDBRANCH   26   25
ENDBRANCH   27   26
ENDBRANCH   29   27
ENDBRANCH   33   32
BRANCH   37   38
ATOM     38  C30 UNL A   1      39.596  31.806  35.545  1.00  0.00    +0.000 C 
ATOM     39  C31 UNL A   1      40.098  33.110  35.674  1.00  0.00    +0.000 C 
ATOM     40  F1  UNL A   1      41.051  33.551  34.840  1.00  0.00    +0.000 F 
ATOM     41  C32 UNL A   1      39.644  33.956  36.683  1.00  0.00    +0.000 C 
ATOM     42  F2  UNL A   1      40.168  35.183  36.811  1.00  0.00    +0.000 F 
ATOM     43  C33 UNL A   1      38.659  33.528  37.560  1.00  0.00    +0.000 C 
ATOM     44  F3  UNL A   1      38.215  34.348  38.523  1.00  0.00    +0.000 F 
ATOM     45  C34 UNL A   1      38.137  32.249  37.441  1.00  0.00    +0.000 C 
ATOM     46  F4  UNL A   1      37.176  31.838  38.281  1.00  0.00    +0.000 F 
ATOM     47  C35 UNL A   1      38.608  31.391  36.452  1.00  0.00    +0.000 C 
ATOM     48  F5  UNL A   1      38.090  30.156  36.369  1.00  0.00    +0.000 F 
ENDBRANCH   37   38
BRANCH   54   55
ATOM     65  F10 UNL A   1      46.382  29.161  33.425  1.00  0.00    +0.000 F 
ATOM     55  C41 UNL A   1      45.075  27.329  34.199  1.00  0.00    +0.000 C 
ATOM     56  C42 UNL A   1      45.039  26.132  34.930  1.00  0.00    +0.000 C 
ATOM     57  F6  UNL A   1      43.891  25.449  35.051  1.00  0.00    +0.000 F 
ATOM     58  C43 UNL A   1      46.178  25.654  35.573  1.00  0.00    +0.000 C 
ATOM     59  F7  UNL A   1      46.111  24.533  36.303  1.00  0.00    +0.000 F 
ATOM     60  C44 UNL A   1      47.377  26.343  35.469  1.00  0.00    +0.000 C 
ATOM     61  F8  UNL A   1      48.473  25.878  36.083  1.00  0.00    +0.000 F 
ATOM     62  C45 UNL A   1      47.438  27.519  34.737  1.00  0.00    +0.000 C 
ATOM     63  F9  UNL A   1      48.600  28.179  34.626  1.00  0.00    +0.000 F 
ATOM     64  C46 UNL A   1      46.295  28.015  34.117  1.00  0.00    +0.000 C 
ENDBRANCH   54   55
BRANCH   69   70
ATOM     70  C50 UNL A   1      42.524  26.187  27.823  1.00  0.00    +0.000 C 
ATOM     71  C51 UNL A   1      43.392  26.732  26.866  1.00  0.00    +0.000 C 
ATOM     72  F11 UNL A   1      43.806  28.002  26.986  1.00  0.00    +0.000 F 
ATOM     73  C52 UNL A   1      43.801  25.990  25.761  1.00  0.00    +0.000 C 
ATOM     74  F12 UNL A   1      44.592  26.553  24.837  1.00  0.00    +0.000 F 
ATOM     75  C53 UNL A   1      43.376  24.680  25.607  1.00  0.00    +0.000 C 
ATOM     76  F13 UNL A   1      43.770  23.967  24.542  1.00  0.00    +0.000 F 
ATOM     77  C54 UNL A   1      42.536  24.112  26.552  1.00  0.00    +0.000 C 
ATOM     78  F14 UNL A   1      42.135  22.840  26.413  1.00  0.00    +0.000 F 
ATOM     79  C55 UNL A   1      42.104  24.861  27.643  1.00  0.00    +0.000 C 
ATOM     80  F15 UNL A   1      41.279  24.292  28.534  1.00  0.00    +0.000 F 
ENDBRANCH   69   70
TORSDOF 24
ENDMDL
MODEL 2
REMARK VINA RESULT:      -9.5     26.051     33.684
ROOT
ATOM    129  H38 UNL A   1      24.412  21.434   2.956  1.00  0.00    +0.000 H 
ATOM    130  H39 UNL A   1      20.306  21.107   3.514  1.00  0.00    +0.000 H 
ATOM    131  H40 UNL A   1      18.203  24.390   0.350  1.00  0.00    +0.000 H 
ATOM    132  H41 UNL A   1      15.946  23.692   1.333  1.00  0.00    +0.000 H 
ATOM    133  H42 UNL A   1      20.468  16.790   7.061  1.00  0.00    +0.000 H 
ATOM    134  H43 UNL A   1      22.745  17.797   6.466  1.00  0.00    +0.000 H 
ATOM     33  C26 UNL A   1      22.607  19.872   4.515  1.00  0.00    +0.000 C 
ATOM     34  C27 UNL A   1      21.464  19.158   5.181  1.00  0.00    +0.000 C 
ATOM     35  N3  UNL A   1      20.176  19.328   5.022  1.00  0.00    +0.000 N 
ATOM     36  C28 UNL A   1      19.566  18.378   5.832  1.00  0.00    +0.000 C 
ATOM     37  C29 UNL A   1      18.244  18.181   6.051  1.00  0.00    +0.000 C 
ATOM     49  C36 UNL A   1      17.199  18.979   5.465  1.00  0.00    +0.000 C 
ATOM     50  C37 UNL A   1      15.836  18.918   5.691  1.00  0.00    +0.000 C 
ATOM     51  C38 UNL A   1      15.213  19.857   4.864  1.00  0.00    +0.000 C 
ATOM     52  C39 UNL A   1      16.191  20.536   4.157  1.00  0.00    +0.000 C 
ATOM     53  N4  UNL A   1      17.406  19.987   4.533  1.00  0.00    +0.000 N 
ATOM     54  C40 UNL A   1      16.031  21.604   3.203  1.00  0.00    +0.000 C 
ATOM     66  C47 UNL A   1      17.045  22.232   2.559  1.00  0.00    +0.000 C 
ATOM     67  N5  UNL A   1      18.412  22.018   2.667  1.00  0.00    +0.000 N 
ATOM     68  C48 UNL A   1      18.975  22.863   1.838  1.00  0.00    +0.000 C 
ATOM     69  C49 UNL A   1      20.436  23.099   1.566  1.00  0.00    +0.000 C 
ATOM     81  C56 UNL A   1      21.352  22.378   2.239  1.00  0.00    +0.000 C 
ATOM     82  C57 UNL A   1      22.799  22.491   2.088  1.00  0.00    +0.000 C 
ATOM     83  C58 UNL A   1      23.394  21.588   2.881  1.00  0.00    +0.000 C 
ATOM     84  C59 UNL A   1      22.368  20.854   3.625  1.00  0.00    +0.000 C 
ATOM     85  N6  UNL A   1      21.187  21.395   3.184  1.00  0.00    +0.000 N 
ATOM     86  C60 UNL A   1      18.021  23.688   1.084  1.00  0.00    +0.000 C 
ATOM     87  C61 UNL A   1      16.862  23.293   1.593  1.00  0.00    +0.000 C 
ATOM     88  C62 UNL A   1      20.622  17.608   6.451  1.00  0.00    +0.000 C 
ATOM     89  C63 UNL A   1      21.814  18.092   6.133  1.00  0.00    +0.000 C 
ATOM    125  H34 UNL A   1      15.362  18.287   6.356  1.00  0.00    +0.000 H 
ATOM    126  H35 UNL A   1      14.196  20.018   4.794  1.00  0.00    +0.000 H 
ATOM    127  H36 UNL A   1      18.285  20.269   4.191  1.00  0.00    +0.000 H 
ATOM    128  H37 UNL A   1      23.286  23.159   1.469  1.00  0.00    +0.000 H 
ENDROOT
BRANCH   33   32
ATOM    123  H32 UNL A   1      26.387  17.347   3.685  1.00  0.00    +0.000 H 
ATOM    136  H45 UNL A   1      26.573  20.147   6.820  1.00  0.00    +0.000 H 
ATOM    135  H44 UNL A   1      24.250  20.727   6.447  1.00  0.00    +0.000 H 
ATOM     90  C64 UNL A   1      24.711  20.029   5.842  1.00  0.00    +0.000 C 
ATOM     91  C65 UNL A   1      26.032  19.667   6.084  1.00  0.00    +0.000 C 
ATOM    124  H33 UNL A   1      24.132  18.081   3.171  1.00  0.00    +0.000 H 
ATOM     29  C22 UNL A   1      26.627  18.650   5.331  1.00  0.00    +0.000 C 
ATOM     30  C23 UNL A   1      25.936  18.074   4.261  1.00  0.00    +0.000 C 
ATOM     31  C24 UNL A   1      24.634  18.486   3.976  1.00  0.00    +0.000 C 
ATOM     32  C25 UNL A   1      24.003  19.450   4.779  1.00  0.00    +0.000 C 
BRANCH   29   27
ATOM     27  C21 UNL A   1      28.011  18.210   5.606  1.00  0.00    +0.000 C 
ATOM     28  O4  UNL A   1      28.757  17.911   4.679  1.00  0.00    +0.000 O 
BRANCH   27   26
ATOM     26  N2  UNL A   1      28.471  18.157   6.897  1.00  0.00    +0.000 N 
ATOM    122  H31 UNL A   1      28.733  19.017   7.296  1.00  0.00    +0.000 H 
BRANCH   26   25
ATOM     25  C20 UNL A   1      28.619  16.989   7.752  1.00  0.00    +0.000 C 
ATOM    121  H30 UNL A   1      28.133  17.196   8.683  1.00  0.00    +0.000 H 
ATOM    120  H29 UNL A   1      29.662  16.796   7.895  1.00  0.00    +0.000 H 
BRANCH   25   24
ATOM    118  H27 UNL A   1      28.013  15.836   6.080  1.00  0.00    +0.000 H 
ATOM    119  H28 UNL A   1      28.510  14.908   7.525  1.00  0.00    +0.000 H 
ATOM     24  C19 UNL A   1      27.967  15.748   7.145  1.00  0.00    +0.000 C 
BRANCH   24   23
ATOM    116  H25 UNL A   1      26.470  14.730   8.255  1.00  0.00    +0.000 H 
ATOM    117  H26 UNL A   1      26.156  16.465   7.923  1.00  0.00    +0.000 H 
ATOM     23  C18 UNL A   1      26.501  15.526   7.541  1.00  0.00    +0.000 C 
BRANCH   23   22
ATOM    114  H23 UNL A   1      25.733  15.840   5.581  1.00  0.00    +0.000 H 
ATOM    115  H24 UNL A   1      25.754  14.147   6.131  1.00  0.00    +0.000 H 
ATOM     22  C17 UNL A   1      25.552  15.165   6.392  1.00  0.00    +0.000 C 
BRANCH   22   21
ATOM    113  H22 UNL A   1      23.517  15.110   5.862  1.00  0.00    +0.000 H 
ATOM     21  C16 UNL A   1      24.076  15.244   6.764  1.00  0.00    +0.000 C 
ATOM    112  H21 UNL A   1      23.892  16.197   7.216  1.00  0.00    +0.000 H 
BRANCH   21   20
ATOM     20  C15 UNL A   1      23.633  14.155   7.735  1.00  0.00    +0.000 C 
ATOM    110  H19 UNL A   1      22.668  13.795   7.444  1.00  0.00    +0.000 H 
ATOM    111  H20 UNL A   1      24.348  13.359   7.710  1.00  0.00    +0.000 H 
BRANCH   20   19
ATOM     19  N1  UNL A   1      23.560  14.673   9.083  1.00  0.00    +0.000 N 
ATOM    109  H18 UNL A   1      24.009  14.137   9.775  1.00  0.00    +0.000 H 
BRANCH   19   17
ATOM     17  C14 UNL A   1      22.950  15.811   9.513  1.00  0.00    +0.000 C 
ATOM     18  O3  UNL A   1      21.735  15.933   9.350  1.00  0.00    +0.000 O 
BRANCH   17   16
ATOM    107  H16 UNL A   1      23.145  17.427  10.859  1.00  0.00    +0.000 H 
ATOM    108  H17 UNL A   1      24.601  16.432  10.644  1.00  0.00    +0.000 H 
ATOM     16  C13 UNL A   1      23.769  16.903  10.164  1.00  0.00    +0.000 C 
BRANCH   16   15
ATOM    105  H14 UNL A   1      24.460  17.401   8.234  1.00  0.00    +0.000 H 
ATOM    106  H15 UNL A   1      23.626  18.713   9.167  1.00  0.00    +0.000 H 
ATOM     15  C12 UNL A   1      24.335  17.913   9.166  1.00  0.00    +0.000 C 
BRANCH   15   14
ATOM     14  C11 UNL A   1      25.676  18.590   9.500  1.00  0.00    +0.000 C 
ATOM    103  H12 UNL A   1      25.982  18.257  10.470  1.00  0.00    +0.000 H 
ATOM    104  H13 UNL A   1      26.351  18.312   8.717  1.00  0.00    +0.000 H 
BRANCH   14   13
ATOM    101  H10 UNL A   1      25.666  20.452   8.495  1.00  0.00    +0.000 H 
ATOM     13  C10 UNL A   1      25.653  20.124   9.512  1.00  0.00    +0.000 C 
ATOM    102  H11 UNL A   1      24.773  20.376  10.067  1.00  0.00    +0.000 H 
BRANCH   13   12
ATOM    100  H9  UNL A   1      26.766  21.820   9.797  1.00  0.00    +0.000 H 
ATOM     99  H8  UNL A   1      27.665  20.243  10.111  1.00  0.00    +0.000 H 
ATOM     12  C9  UNL A   1      26.792  20.847  10.243  1.00  0.00    +0.000 C 
BRANCH   12   11
ATOM     11  S1  UNL A   1      26.701  21.238  12.030  1.00  0.00    +0.000 S 
BRANCH   11   10
ATOM     97  H6  UNL A   1      24.316  17.503  13.956  1.00  0.00    +0.000 H 
ATOM     98  H7  UNL A   1      26.270  18.779  13.308  1.00  0.00    +0.000 H 
ATOM      5  C3  UNL A   1      23.924  21.004  12.479  1.00  0.00    +0.000 C 
ATOM      6  C4  UNL A   1      22.791  20.264  12.855  1.00  0.00    +0.000 C 
ATOM      7  C5  UNL A   1      22.931  18.982  13.380  1.00  0.00    +0.000 C 
ATOM      8  C6  UNL A   1      24.203  18.445  13.548  1.00  0.00    +0.000 C 
ATOM      9  C7  UNL A   1      25.331  19.181  13.164  1.00  0.00    +0.000 C 
ATOM     10  C8  UNL A   1      25.210  20.459  12.587  1.00  0.00    +0.000 C 
ATOM     95  H4  UNL A   1      21.851  20.673  12.742  1.00  0.00    +0.000 H 
ATOM     96  H5  UNL A   1      22.097  18.434  13.641  1.00  0.00    +0.000 H 
BRANCH    5    4
ATOM      4  O2  UNL A   1      23.579  22.214  11.790  1.00  0.00    +0.000 O 
BRANCH    4    2
ATOM      2  C2  UNL A   1      22.924  23.407  12.122  1.00  0.00    +0.000 C 
ATOM      3  O1  UNL A   1      21.878  23.838  11.662  1.00  0.00    +0.000 O 
BRANCH    2    1
ATOM      1  C1  UNL A   1      23.750  24.109  13.160  1.00  0.00    +0.000 C 
ATOM     92  H1  UNL A   1      24.460  23.425  13.573  1.00  0.00    +0.000 H 
ATOM     93  H2  UNL A   1      23.111  24.472  13.938  1.00  0.00    +0.000 H 
ATOM     94  H3  UNL A   1      24.265  24.931  12.710  1.00  0.00    +0.000 H 
ENDBRANCH    2    1
ENDBRANCH    4    2
ENDBRANCH    5    4
ENDBRANCH   11   10
ENDBRANCH   12   11
ENDBRANCH   13   12
ENDBRANCH   14   13
ENDBRANCH   15   14
ENDBRANCH   16   15
ENDBRANCH   17   16
ENDBRANCH   19   17
ENDBRANCH   20   19
ENDBRANCH   21   20
ENDBRANCH   22   21
ENDBRANCH   23   22
ENDBRANCH   24   23
ENDBRANCH   25   24
ENDBRANCH   26   25
ENDBRANCH   27   26
ENDBRANCH   29   27
ENDBRANCH   33   32
BRANCH   37   38
ATOM     38  C30 UNL A   1      17.846  17.060   6.964  1.00  0.00    +0.000 C 
ATOM     39  C31 UNL A   1      17.366  17.300   8.261  1.00  0.00    +0.000 C 
ATOM     40  F1  UNL A   1      17.312  18.551   8.739  1.00  0.00    +0.000 F 
ATOM     41  C32 UNL A   1      16.971  16.248   9.084  1.00  0.00    +0.000 C 
ATOM     42  F2  UNL A   1      16.555  16.499  10.333  1.00  0.00    +0.000 F 
ATOM     43  C33 UNL A   1      17.016  14.943   8.617  1.00  0.00    +0.000 C 
ATOM     44  F3  UNL A   1      16.624  13.933   9.407  1.00  0.00    +0.000 F 
ATOM     45  C34 UNL A   1      17.470  14.684   7.333  1.00  0.00    +0.000 C 
ATOM     46  F4  UNL A   1      17.503  13.425   6.877  1.00  0.00    +0.000 F 
ATOM     47  C35 UNL A   1      17.893  15.730   6.518  1.00  0.00    +0.000 C 
ATOM     48  F5  UNL A   1      18.338  15.446   5.284  1.00  0.00    +0.000 F 
ENDBRANCH   37   38
BRANCH   54   55
ATOM     65  F10 UNL A   1      14.575  20.824   0.892  1.00  0.00    +0.000 F 
ATOM     55  C41 UNL A   1      14.637  22.078   2.915  1.00  0.00    +0.000 C 
ATOM     56  C42 UNL A   1      13.970  22.966   3.771  1.00  0.00    +0.000 C 
ATOM     57  F6  UNL A   1      14.555  23.373   4.908  1.00  0.00    +0.000 F 
ATOM     58  C43 UNL A   1      12.683  23.408   3.480  1.00  0.00    +0.000 C 
ATOM     59  F7  UNL A   1      12.047  24.220   4.335  1.00  0.00    +0.000 F 
ATOM     60  C44 UNL A   1      12.053  22.998   2.314  1.00  0.00    +0.000 C 
ATOM     61  F8  UNL A   1      10.817  23.430   2.033  1.00  0.00    +0.000 F 
ATOM     62  C45 UNL A   1      12.701  22.135   1.445  1.00  0.00    +0.000 C 
ATOM     63  F9  UNL A   1      12.098  21.748   0.311  1.00  0.00    +0.000 F 
ATOM     64  C46 UNL A   1      13.978  21.668   1.747  1.00  0.00    +0.000 C 
ENDBRANCH   54   55
BRANCH   69   70
ATOM     70  C50 UNL A   1      20.869  24.131   0.590  1.00  0.00    +0.000 C 
ATOM     71  C51 UNL A   1      20.983  23.824  -0.774  1.00  0.00    +0.000 C 
ATOM     72  F11 UNL A   1      20.703  22.586  -1.206  1.00  0.00    +0.000 F 
ATOM     73  C52 UNL A   1      21.428  24.774  -1.690  1.00  0.00    +0.000 C 
ATOM     74  F12 UNL A   1      21.574  24.440  -2.979  1.00  0.00    +0.000 F 
ATOM     75  C53 UNL A   1      21.737  26.058  -1.266  1.00  0.00    +0.000 C 
ATOM     76  F13 UNL A   1      22.165  26.971  -2.149  1.00  0.00    +0.000 F 
ATOM     77  C54 UNL A   1      21.611  26.391   0.074  1.00  0.00    +0.000 C 
ATOM     78  F14 UNL A   1      21.895  27.635   0.483  1.00  0.00    +0.000 F 
ATOM     79  C55 UNL A   1      21.193  25.434   0.995  1.00  0.00    +0.000 C 
ATOM     80  F15 UNL A   1      21.094  25.779   2.287  1.00  0.00    +0.000 F 
ENDBRANCH   69   70
TORSDOF 24
ENDMDL
MODEL 3
REMARK VINA RESULT:      -9.4      3.984      8.875
ROOT
ATOM    129  H38 UNL A   1      37.802  27.969  28.093  1.00  0.00    +0.000 H 
ATOM    130  H39 UNL A   1      40.751  30.508  29.553  1.00  0.00    +0.000 H 
ATOM    131  H40 UNL A   1      38.377  34.650  31.109  1.00  0.00    +0.000 H 
ATOM    132  H41 UNL A   1      40.685  35.602  31.673  1.00  0.00    +0.000 H 
ATOM    133  H42 UNL A   1      45.011  26.924  29.052  1.00  0.00    +0.000 H 
ATOM    134  H43 UNL A   1      42.799  26.137  28.031  1.00  0.00    +0.000 H 
ATOM     33  C26 UNL A   1      40.626  27.928  28.481  1.00  0.00    +0.000 C 
ATOM     34  C27 UNL A   1      42.075  28.134  28.827  1.00  0.00    +0.000 C 
ATOM     35  N3  UNL A   1      42.653  29.162  29.394  1.00  0.00    +0.000 N 
ATOM     36  C28 UNL A   1      43.992  28.816  29.531  1.00  0.00    +0.000 C 
ATOM     37  C29 UNL A   1      45.009  29.563  30.019  1.00  0.00    +0.000 C 
ATOM     49  C36 UNL A   1      44.868  30.919  30.482  1.00  0.00    +0.000 C 
ATOM     50  C37 UNL A   1      45.851  31.791  30.912  1.00  0.00    +0.000 C 
ATOM     51  C38 UNL A   1      45.236  32.983  31.307  1.00  0.00    +0.000 C 
ATOM     52  C39 UNL A   1      43.875  32.870  31.080  1.00  0.00    +0.000 C 
ATOM     53  N4  UNL A   1      43.661  31.598  30.575  1.00  0.00    +0.000 N 
ATOM     54  C40 UNL A   1      42.843  33.848  31.312  1.00  0.00    +0.000 C 
ATOM     66  C47 UNL A   1      41.526  33.667  31.048  1.00  0.00    +0.000 C 
ATOM     67  N5  UNL A   1      40.888  32.559  30.508  1.00  0.00    +0.000 N 
ATOM     68  C48 UNL A   1      39.614  32.864  30.460  1.00  0.00    +0.000 C 
ATOM     69  C49 UNL A   1      38.461  32.054  29.934  1.00  0.00    +0.000 C 
ATOM     81  C56 UNL A   1      38.698  30.833  29.419  1.00  0.00    +0.000 C 
ATOM     82  C57 UNL A   1      37.690  29.932  28.871  1.00  0.00    +0.000 C 
ATOM     83  C58 UNL A   1      38.283  28.789  28.494  1.00  0.00    +0.000 C 
ATOM     84  C59 UNL A   1      39.723  28.891  28.742  1.00  0.00    +0.000 C 
ATOM     85  N6  UNL A   1      39.877  30.142  29.286  1.00  0.00    +0.000 N 
ATOM     86  C60 UNL A   1      39.296  34.195  30.997  1.00  0.00    +0.000 C 
ATOM     87  C61 UNL A   1      40.501  34.657  31.302  1.00  0.00    +0.000 C 
ATOM     88  C62 UNL A   1      44.135  27.469  29.024  1.00  0.00    +0.000 C 
ATOM     89  C63 UNL A   1      42.993  27.026  28.516  1.00  0.00    +0.000 C 
ATOM    125  H34 UNL A   1      46.865  31.595  30.937  1.00  0.00    +0.000 H 
ATOM    126  H35 UNL A   1      45.716  33.808  31.701  1.00  0.00    +0.000 H 
ATOM    127  H36 UNL A   1      42.785  31.230  30.320  1.00  0.00    +0.000 H 
ATOM    128  H37 UNL A   1      36.682  30.140  28.788  1.00  0.00    +0.000 H 
ENDROOT
BRANCH   33   32
ATOM    123  H32 UNL A   1      38.525  23.820  28.741  1.00  0.00    +0.000 H 
ATOM    136  H45 UNL A   1      40.192  24.917  25.037  1.00  0.00    +0.000 H 
ATOM    135  H44 UNL A   1      41.031  26.969  26.016  1.00  0.00    +0.000 H 
ATOM     90  C64 UNL A   1      40.475  26.313  26.588  1.00  0.00    +0.000 C 
ATOM     91  C65 UNL A   1      40.030  25.116  26.036  1.00  0.00    +0.000 C 
ATOM    124  H33 UNL A   1      39.176  25.968  29.664  1.00  0.00    +0.000 H 
ATOM     29  C22 UNL A   1      39.364  24.183  26.836  1.00  0.00    +0.000 C 
ATOM     30  C23 UNL A   1      39.045  24.496  28.161  1.00  0.00    +0.000 C 
ATOM     31  C24 UNL A   1      39.434  25.725  28.695  1.00  0.00    +0.000 C 
ATOM     32  C25 UNL A   1      40.172  26.634  27.920  1.00  0.00    +0.000 C 
BRANCH   29   27
ATOM     27  C21 UNL A   1      38.931  22.882  26.286  1.00  0.00    +0.000 C 
ATOM     28  O4  UNL A   1      39.650  21.894  26.403  1.00  0.00    +0.000 O 
BRANCH   27   26
ATOM     26  N2  UNL A   1      37.713  22.771  25.664  1.00  0.00    +0.000 N 
ATOM    122  H31 UNL A   1      37.010  23.381  25.984  1.00  0.00    +0.000 H 
BRANCH   26   25
ATOM     25  C20 UNL A   1      37.330  21.865  24.592  1.00  0.00    +0.000 C 
ATOM    121  H30 UNL A   1      38.222  21.447  24.177  1.00  0.00    +0.000 H 
ATOM    120  H29 UNL A   1      36.782  22.415  23.855  1.00  0.00    +0.000 H 
BRANCH   25   24
ATOM    118  H27 UNL A   1      36.500  19.926  24.377  1.00  0.00    +0.000 H 
ATOM    119  H28 UNL A   1      36.854  20.439  26.053  1.00  0.00    +0.000 H 
ATOM     24  C19 UNL A   1      36.459  20.716  25.098  1.00  0.00    +0.000 C 
BRANCH   24   23
ATOM    116  H25 UNL A   1      34.835  21.180  26.385  1.00  0.00    +0.000 H 
ATOM    117  H26 UNL A   1      34.810  21.971  24.775  1.00  0.00    +0.000 H 
ATOM     23  C18 UNL A   1      34.985  21.073  25.331  1.00  0.00    +0.000 C 
BRANCH   23   22
ATOM    114  H23 UNL A   1      34.164  19.875  23.774  1.00  0.00    +0.000 H 
ATOM    115  H24 UNL A   1      34.081  19.169  25.406  1.00  0.00    +0.000 H 
ATOM     22  C17 UNL A   1      33.966  20.052  24.812  1.00  0.00    +0.000 C 
BRANCH   22   21
ATOM    113  H22 UNL A   1      32.169  20.140  25.901  1.00  0.00    +0.000 H 
ATOM     21  C16 UNL A   1      32.517  20.499  24.955  1.00  0.00    +0.000 C 
ATOM    112  H21 UNL A   1      31.956  20.097  24.137  1.00  0.00    +0.000 H 
BRANCH   21   20
ATOM     20  C15 UNL A   1      32.345  22.016  24.960  1.00  0.00    +0.000 C 
ATOM    110  H19 UNL A   1      33.284  22.477  24.740  1.00  0.00    +0.000 H 
ATOM    111  H20 UNL A   1      31.618  22.282  24.221  1.00  0.00    +0.000 H 
BRANCH   20   19
ATOM     19  N1  UNL A   1      31.883  22.471  26.252  1.00  0.00    +0.000 N 
ATOM    109  H18 UNL A   1      32.328  22.070  27.034  1.00  0.00    +0.000 H 
BRANCH   19   17
ATOM     17  C14 UNL A   1      30.913  23.385  26.523  1.00  0.00    +0.000 C 
ATOM     18  O3  UNL A   1      29.860  23.003  27.036  1.00  0.00    +0.000 O 
BRANCH   17   16
ATOM    107  H16 UNL A   1      30.673  25.443  26.933  1.00  0.00    +0.000 H 
ATOM    108  H17 UNL A   1      32.192  24.997  26.126  1.00  0.00    +0.000 H 
ATOM     16  C13 UNL A   1      31.134  24.841  26.177  1.00  0.00    +0.000 C 
BRANCH   16   15
ATOM    105  H14 UNL A   1      31.365  25.583  24.216  1.00  0.00    +0.000 H 
ATOM    106  H15 UNL A   1      30.058  24.354  24.476  1.00  0.00    +0.000 H 
ATOM     15  C12 UNL A   1      30.552  25.238  24.821  1.00  0.00    +0.000 C 
BRANCH   15   14
ATOM     14  C11 UNL A   1      29.463  26.324  24.788  1.00  0.00    +0.000 C 
ATOM    103  H12 UNL A   1      28.513  25.844  24.899  1.00  0.00    +0.000 H 
ATOM    104  H13 UNL A   1      29.698  27.003  25.582  1.00  0.00    +0.000 H 
BRANCH   14   13
ATOM    101  H10 UNL A   1      28.664  26.752  22.875  1.00  0.00    +0.000 H 
ATOM     13  C10 UNL A   1      29.417  27.170  23.509  1.00  0.00    +0.000 C 
ATOM    102  H11 UNL A   1      29.230  28.167  23.851  1.00  0.00    +0.000 H 
BRANCH   13   12
ATOM    100  H9  UNL A   1      30.327  27.467  21.697  1.00  0.00    +0.000 H 
ATOM     99  H8  UNL A   1      31.254  26.378  22.860  1.00  0.00    +0.000 H 
ATOM     12  C9  UNL A   1      30.705  27.279  22.681  1.00  0.00    +0.000 C 
BRANCH   12   11
ATOM     11  S1  UNL A   1      31.888  28.657  22.911  1.00  0.00    +0.000 S 
BRANCH   11   10
ATOM     97  H6  UNL A   1      31.428  30.316  27.425  1.00  0.00    +0.000 H 
ATOM     98  H7  UNL A   1      30.863  30.111  25.079  1.00  0.00    +0.000 H 
ATOM      5  C3  UNL A   1      33.253  27.785  25.222  1.00  0.00    +0.000 C 
ATOM      6  C4  UNL A   1      33.580  27.905  26.583  1.00  0.00    +0.000 C 
ATOM      7  C5  UNL A   1      32.926  28.837  27.384  1.00  0.00    +0.000 C 
ATOM      8  C6  UNL A   1      31.931  29.637  26.833  1.00  0.00    +0.000 C 
ATOM      9  C7  UNL A   1      31.613  29.523  25.474  1.00  0.00    +0.000 C 
ATOM     10  C8  UNL A   1      32.295  28.621  24.635  1.00  0.00    +0.000 C 
ATOM     95  H4  UNL A   1      34.308  27.299  26.991  1.00  0.00    +0.000 H 
ATOM     96  H5  UNL A   1      33.178  28.934  28.380  1.00  0.00    +0.000 H 
BRANCH    5    4
ATOM      4  O2  UNL A   1      34.153  26.916  24.522  1.00  0.00    +0.000 O 
BRANCH    4    2
ATOM      2  C2  UNL A   1      34.131  25.582  24.092  1.00  0.00    +0.000 C 
ATOM      3  O1  UNL A   1      33.670  25.139  23.052  1.00  0.00    +0.000 O 
BRANCH    2    1
ATOM      1  C1  UNL A   1      34.775  24.747  25.161  1.00  0.00    +0.000 C 
ATOM     92  H1  UNL A   1      34.538  25.153  26.122  1.00  0.00    +0.000 H 
ATOM     93  H2  UNL A   1      35.837  24.751  25.025  1.00  0.00    +0.000 H 
ATOM     94  H3  UNL A   1      34.411  23.743  25.097  1.00  0.00    +0.000 H 
ENDBRANCH    2    1
ENDBRANCH    4    2
ENDBRANCH    5    4
ENDBRANCH   11   10
ENDBRANCH   12   11
ENDBRANCH   13   12
ENDBRANCH   14   13
ENDBRANCH   15   14
ENDBRANCH   16   15
ENDBRANCH   17   16
ENDBRANCH   19   17
ENDBRANCH   20   19
ENDBRANCH   21   20
ENDBRANCH   22   21
ENDBRANCH   23   22
ENDBRANCH   24   23
ENDBRANCH   25   24
ENDBRANCH   26   25
ENDBRANCH   27   26
ENDBRANCH   29   27
ENDBRANCH   33   32
BRANCH   37   38
ATOM     38  C30 UNL A   1      46.371  28.937  30.078  1.00  0.00    +0.000 C 
ATOM     39  C31 UNL A   1      46.816  28.244  31.215  1.00  0.00    +0.000 C 
ATOM     40  F1  UNL A   1      46.045  28.179  32.310  1.00  0.00    +0.000 F 
ATOM     41  C32 UNL A   1      48.071  27.642  31.240  1.00  0.00    +0.000 C 
ATOM     42  F2  UNL A   1      48.491  27.021  32.351  1.00  0.00    +0.000 F 
ATOM     43  C33 UNL A   1      48.891  27.692  30.123  1.00  0.00    +0.000 C 
ATOM     44  F3  UNL A   1      50.095  27.101  30.146  1.00  0.00    +0.000 F 
ATOM     45  C34 UNL A   1      48.465  28.356  28.984  1.00  0.00    +0.000 C 
ATOM     46  F4  UNL A   1      49.251  28.396  27.899  1.00  0.00    +0.000 F 
ATOM     47  C35 UNL A   1      47.223  28.984  28.964  1.00  0.00    +0.000 C 
ATOM     48  F5  UNL A   1      46.844  29.628  27.850  1.00  0.00    +0.000 F 
ENDBRANCH   37   38
BRANCH   54   55
ATOM     65  F10 UNL A   1      42.879  34.429  34.092  1.00  0.00    +0.000 F 
ATOM     55  C41 UNL A   1      43.255  35.180  31.864  1.00  0.00    +0.000 C 
ATOM     56  C42 UNL A   1      43.630  36.239  31.026  1.00  0.00    +0.000 C 
ATOM     57  F6  UNL A   1      43.678  36.063  29.697  1.00  0.00    +0.000 F 
ATOM     58  C43 UNL A   1      43.995  37.474  31.554  1.00  0.00    +0.000 C 
ATOM     59  F7  UNL A   1      44.393  38.459  30.738  1.00  0.00    +0.000 F 
ATOM     60  C44 UNL A   1      43.959  37.683  32.925  1.00  0.00    +0.000 C 
ATOM     61  F8  UNL A   1      44.305  38.873  33.432  1.00  0.00    +0.000 F 
ATOM     62  C45 UNL A   1      43.574  36.654  33.771  1.00  0.00    +0.000 C 
ATOM     63  F9  UNL A   1      43.528  36.857  35.096  1.00  0.00    +0.000 F 
ATOM     64  C46 UNL A   1      43.236  35.409  33.248  1.00  0.00    +0.000 C 
ENDBRANCH   54   55
BRANCH   69   70
ATOM     70  C50 UNL A   1      37.079  32.599  29.953  1.00  0.00    +0.000 C 
ATOM     71  C51 UNL A   1      36.580  33.323  28.860  1.00  0.00    +0.000 C 
ATOM     72  F11 UNL A   1      37.356  33.532  27.786  1.00  0.00    +0.000 F 
ATOM     73  C52 UNL A   1      35.300  33.873  28.886  1.00  0.00    +0.000 C 
ATOM     74  F12 UNL A   1      34.867  34.601  27.848  1.00  0.00    +0.000 F 
ATOM     75  C53 UNL A   1      34.484  33.683  29.990  1.00  0.00    +0.000 C 
ATOM     76  F13 UNL A   1      33.252  34.212  30.013  1.00  0.00    +0.000 F 
ATOM     77  C54 UNL A   1      34.947  32.951  31.073  1.00  0.00    +0.000 C 
ATOM     78  F14 UNL A   1      34.155  32.754  32.135  1.00  0.00    +0.000 F 
ATOM     79  C55 UNL A   1      36.236  32.425  31.060  1.00  0.00    +0.000 C 
ATOM     80  F15 UNL A   1      36.664  31.735  32.127  1.00  0.00    +0.000 F 
ENDBRANCH   69   70
TORSDOF 24
ENDMDL
MODEL 4
REMARK VINA RESULT:      -9.3     20.250     26.101
ROOT
ATOM    129  H38 UNL A   1      50.805  21.071  12.403  1.00  0.00    +0.000 H 
ATOM    130  H39 UNL A   1      54.621  20.426  13.921  1.00  0.00    +0.000 H 
ATOM    131  H40 UNL A   1      54.628  22.378  18.547  1.00  0.00    +0.000 H 
ATOM    132  H41 UNL A   1      57.099  21.727  18.677  1.00  0.00    +0.000 H 
ATOM    133  H42 UNL A   1      56.520  17.368   9.645  1.00  0.00    +0.000 H 
ATOM    134  H43 UNL A   1      54.217  18.427   9.289  1.00  0.00    +0.000 H 
ATOM     33  C26 UNL A   1      53.229  19.819  11.573  1.00  0.00    +0.000 C 
ATOM     34  C27 UNL A   1      54.584  19.195  11.391  1.00  0.00    +0.000 C 
ATOM     35  N3  UNL A   1      55.595  19.156  12.221  1.00  0.00    +0.000 N 
ATOM     36  C28 UNL A   1      56.581  18.413  11.582  1.00  0.00    +0.000 C 
ATOM     37  C29 UNL A   1      57.833  18.130  12.011  1.00  0.00    +0.000 C 
ATOM     49  C36 UNL A   1      58.386  18.593  13.256  1.00  0.00    +0.000 C 
ATOM     50  C37 UNL A   1      59.672  18.436  13.742  1.00  0.00    +0.000 C 
ATOM     51  C38 UNL A   1      59.733  19.015  15.013  1.00  0.00    +0.000 C 
ATOM     52  C39 UNL A   1      58.499  19.573  15.300  1.00  0.00    +0.000 C 
ATOM     53  N4  UNL A   1      57.680  19.307  14.215  1.00  0.00    +0.000 N 
ATOM     54  C40 UNL A   1      58.093  20.293  16.480  1.00  0.00    +0.000 C 
ATOM     66  C47 UNL A   1      56.863  20.826  16.682  1.00  0.00    +0.000 C 
ATOM     67  N5  UNL A   1      55.759  20.819  15.840  1.00  0.00    +0.000 N 
ATOM     68  C48 UNL A   1      54.809  21.450  16.487  1.00  0.00    +0.000 C 
ATOM     69  C49 UNL A   1      53.408  21.771  16.043  1.00  0.00    +0.000 C 
ATOM     81  C56 UNL A   1      53.007  21.391  14.816  1.00  0.00    +0.000 C 
ATOM     82  C57 UNL A   1      51.686  21.630  14.243  1.00  0.00    +0.000 C 
ATOM     83  C58 UNL A   1      51.629  21.072  13.024  1.00  0.00    +0.000 C 
ATOM     84  C59 UNL A   1      52.926  20.466  12.714  1.00  0.00    +0.000 C 
ATOM     85  N6  UNL A   1      53.682  20.711  13.833  1.00  0.00    +0.000 N 
ATOM     86  C60 UNL A   1      55.197  21.901  17.831  1.00  0.00    +0.000 C 
ATOM     87  C61 UNL A   1      56.469  21.533  17.882  1.00  0.00    +0.000 C 
ATOM     88  C62 UNL A   1      56.034  17.988  10.312  1.00  0.00    +0.000 C 
ATOM     89  C63 UNL A   1      54.827  18.499  10.117  1.00  0.00    +0.000 C 
ATOM    125  H34 UNL A   1      60.451  17.971  13.250  1.00  0.00    +0.000 H 
ATOM    126  H35 UNL A   1      60.559  19.024  15.632  1.00  0.00    +0.000 H 
ATOM    127  H36 UNL A   1      56.739  19.581  14.135  1.00  0.00    +0.000 H 
ATOM    128  H37 UNL A   1      50.917  22.144  14.703  1.00  0.00    +0.000 H 
ENDROOT
BRANCH   33   32
ATOM    123  H32 UNL A   1      50.031  17.424   9.249  1.00  0.00    +0.000 H 
ATOM    136  H45 UNL A   1      50.654  21.430   8.123  1.00  0.00    +0.000 H 
ATOM    135  H44 UNL A   1      52.433  21.618   9.759  1.00  0.00    +0.000 H 
ATOM     90  C64 UNL A   1      51.905  20.736   9.670  1.00  0.00    +0.000 C 
ATOM     91  C65 UNL A   1      50.912  20.616   8.702  1.00  0.00    +0.000 C 
ATOM    124  H33 UNL A   1      51.660  17.677  11.030  1.00  0.00    +0.000 H 
ATOM     29  C22 UNL A   1      50.266  19.391   8.513  1.00  0.00    +0.000 C 
ATOM     30  C23 UNL A   1      50.533  18.318   9.368  1.00  0.00    +0.000 C 
ATOM     31  C24 UNL A   1      51.480  18.460  10.382  1.00  0.00    +0.000 C 
ATOM     32  C25 UNL A   1      52.191  19.662  10.526  1.00  0.00    +0.000 C 
BRANCH   29   27
ATOM     27  C21 UNL A   1      49.247  19.224   7.455  1.00  0.00    +0.000 C 
ATOM     28  O4  UNL A   1      48.169  19.805   7.542  1.00  0.00    +0.000 O 
BRANCH   27   26
ATOM     26  N2  UNL A   1      49.514  18.437   6.364  1.00  0.00    +0.000 N 
ATOM    122  H31 UNL A   1      50.243  18.746   5.779  1.00  0.00    +0.000 H 
BRANCH   26   25
ATOM     25  C20 UNL A   1      48.855  17.205   5.960  1.00  0.00    +0.000 C 
ATOM    121  H30 UNL A   1      48.093  17.453   5.251  1.00  0.00    +0.000 H 
ATOM    120  H29 UNL A   1      48.439  16.736   6.827  1.00  0.00    +0.000 H 
BRANCH   25   24
ATOM    118  H27 UNL A   1      50.358  16.763   4.531  1.00  0.00    +0.000 H 
ATOM    119  H28 UNL A   1      50.455  15.855   6.067  1.00  0.00    +0.000 H 
ATOM     24  C19 UNL A   1      49.824  16.231   5.290  1.00  0.00    +0.000 C 
BRANCH   24   23
ATOM    116  H25 UNL A   1      49.866  14.584   3.949  1.00  0.00    +0.000 H 
ATOM    117  H26 UNL A   1      48.906  14.352   5.447  1.00  0.00    +0.000 H 
ATOM     23  C18 UNL A   1      49.167  15.006   4.641  1.00  0.00    +0.000 C 
BRANCH   23   22
ATOM    114  H23 UNL A   1      47.761  16.337   3.754  1.00  0.00    +0.000 H 
ATOM    115  H24 UNL A   1      47.931  14.758   2.950  1.00  0.00    +0.000 H 
ATOM     22  C17 UNL A   1      47.862  15.279   3.882  1.00  0.00    +0.000 C 
BRANCH   22   21
ATOM    113  H22 UNL A   1      46.915  14.470   5.576  1.00  0.00    +0.000 H 
ATOM     21  C16 UNL A   1      46.617  14.760   4.591  1.00  0.00    +0.000 C 
ATOM    112  H21 UNL A   1      46.225  13.939   4.027  1.00  0.00    +0.000 H 
BRANCH   21   20
ATOM     20  C15 UNL A   1      45.520  15.810   4.743  1.00  0.00    +0.000 C 
ATOM    110  H19 UNL A   1      44.569  15.322   4.782  1.00  0.00    +0.000 H 
ATOM    111  H20 UNL A   1      45.692  16.359   5.646  1.00  0.00    +0.000 H 
BRANCH   20   19
ATOM     19  N1  UNL A   1      45.538  16.729   3.628  1.00  0.00    +0.000 N 
ATOM    109  H18 UNL A   1      45.692  16.328   2.742  1.00  0.00    +0.000 H 
BRANCH   19   17
ATOM     17  C14 UNL A   1      45.367  18.078   3.649  1.00  0.00    +0.000 C 
ATOM     18  O3  UNL A   1      46.040  18.752   4.429  1.00  0.00    +0.000 O 
BRANCH   17   16
ATOM    107  H16 UNL A   1      44.028  17.993   2.017  1.00  0.00    +0.000 H 
ATOM    108  H17 UNL A   1      43.543  19.067   3.347  1.00  0.00    +0.000 H 
ATOM     16  C13 UNL A   1      44.349  18.722   2.733  1.00  0.00    +0.000 C 
BRANCH   16   15
ATOM    105  H14 UNL A   1      45.594  20.421   2.625  1.00  0.00    +0.000 H 
ATOM    106  H15 UNL A   1      45.297  19.526   1.077  1.00  0.00    +0.000 H 
ATOM     15  C12 UNL A   1      44.893  19.934   1.979  1.00  0.00    +0.000 C 
BRANCH   15   14
ATOM     14  C11 UNL A   1      43.892  21.002   1.502  1.00  0.00    +0.000 C 
ATOM    103  H12 UNL A   1      43.985  21.852   2.144  1.00  0.00    +0.000 H 
ATOM    104  H13 UNL A   1      44.141  21.204   0.481  1.00  0.00    +0.000 H 
BRANCH   14   13
ATOM    101  H10 UNL A   1      42.355  19.659   2.058  1.00  0.00    +0.000 H 
ATOM     13  C10 UNL A   1      42.421  20.569   1.501  1.00  0.00    +0.000 C 
ATOM    102  H11 UNL A   1      41.893  21.403   1.915  1.00  0.00    +0.000 H 
BRANCH   13   12
ATOM    100  H9  UNL A   1      42.459  19.688  -0.349  1.00  0.00    +0.000 H 
ATOM     99  H8  UNL A   1      41.552  21.290  -0.273  1.00  0.00    +0.000 H 
ATOM     12  C9  UNL A   1      41.752  20.324   0.141  1.00  0.00    +0.000 C 
BRANCH   12   11
ATOM     11  S1  UNL A   1      40.198  19.366  -0.012  1.00  0.00    +0.000 S 
BRANCH   11   10
ATOM     97  H6  UNL A   1      38.773  18.522   4.526  1.00  0.00    +0.000 H 
ATOM     98  H7  UNL A   1      40.111  18.195   2.534  1.00  0.00    +0.000 H 
ATOM      5  C3  UNL A   1      38.368  20.859   1.533  1.00  0.00    +0.000 C 
ATOM      6  C4  UNL A   1      37.593  21.049   2.688  1.00  0.00    +0.000 C 
ATOM      7  C5  UNL A   1      37.729  20.189   3.775  1.00  0.00    +0.000 C 
ATOM      8  C6  UNL A   1      38.653  19.151   3.717  1.00  0.00    +0.000 C 
ATOM      9  C7  UNL A   1      39.418  18.959   2.560  1.00  0.00    +0.000 C 
ATOM     10  C8  UNL A   1      39.263  19.786   1.433  1.00  0.00    +0.000 C 
ATOM     95  H4  UNL A   1      36.920  21.829   2.733  1.00  0.00    +0.000 H 
ATOM     96  H5  UNL A   1      37.148  20.320   4.617  1.00  0.00    +0.000 H 
BRANCH    5    4
ATOM      4  O2  UNL A   1      37.961  21.717   0.458  1.00  0.00    +0.000 O 
BRANCH    4    2
ATOM      2  C2  UNL A   1      37.049  21.636  -0.603  1.00  0.00    +0.000 C 
ATOM      3  O1  UNL A   1      35.926  21.156  -0.588  1.00  0.00    +0.000 O 
BRANCH    2    1
ATOM      1  C1  UNL A   1      37.701  22.241  -1.812  1.00  0.00    +0.000 C 
ATOM     92  H1  UNL A   1      38.712  21.898  -1.882  1.00  0.00    +0.000 H 
ATOM     93  H2  UNL A   1      37.691  23.308  -1.726  1.00  0.00    +0.000 H 
ATOM     94  H3  UNL A   1      37.163  21.949  -2.690  1.00  0.00    +0.000 H 
ENDBRANCH    2    1
ENDBRANCH    4    2
ENDBRANCH    5    4
ENDBRANCH   11   10
ENDBRANCH   12   11
ENDBRANCH   13   12
ENDBRANCH   14   13
ENDBRANCH   15   14
ENDBRANCH   16   15
ENDBRANCH   17   16
ENDBRANCH   19   17
ENDBRANCH   20   19
ENDBRANCH   21   20
ENDBRANCH   22   21
ENDBRANCH   23   22
ENDBRANCH   24   23
ENDBRANCH   25   24
ENDBRANCH   26   25
ENDBRANCH   27   26
ENDBRANCH   29   27
ENDBRANCH   33   32
BRANCH   37   38
ATOM     38  C30 UNL A   1      58.699  17.280  11.128  1.00  0.00    +0.000 C 
ATOM     39  C31 UNL A   1      58.740  15.884  11.259  1.00  0.00    +0.000 C 
ATOM     40  F1  UNL A   1      58.042  15.276  12.229  1.00  0.00    +0.000 F 
ATOM     41  C32 UNL A   1      59.525  15.108  10.410  1.00  0.00    +0.000 C 
ATOM     42  F2  UNL A   1      59.580  13.779  10.580  1.00  0.00    +0.000 F 
ATOM     43  C33 UNL A   1      60.258  15.707   9.396  1.00  0.00    +0.000 C 
ATOM     44  F3  UNL A   1      61.004  14.957   8.573  1.00  0.00    +0.000 F 
ATOM     45  C34 UNL A   1      60.219  17.084   9.239  1.00  0.00    +0.000 C 
ATOM     46  F4  UNL A   1      60.918  17.664   8.253  1.00  0.00    +0.000 F 
ATOM     47  C35 UNL A   1      59.458  17.865  10.103  1.00  0.00    +0.000 C 
ATOM     48  F5  UNL A   1      59.450  19.196   9.931  1.00  0.00    +0.000 F 
ENDBRANCH   37   38
BRANCH   54   55
ATOM     65  F10 UNL A   1      59.603  22.682  16.766  1.00  0.00    +0.000 F 
ATOM     55  C41 UNL A   1      59.113  20.492  17.561  1.00  0.00    +0.000 C 
ATOM     56  C42 UNL A   1      59.401  19.486  18.495  1.00  0.00    +0.000 C 
ATOM     57  F6  UNL A   1      58.723  18.329  18.470  1.00  0.00    +0.000 F 
ATOM     58  C43 UNL A   1      60.362  19.682  19.482  1.00  0.00    +0.000 C 
ATOM     59  F7  UNL A   1      60.589  18.725  20.392  1.00  0.00    +0.000 F 
ATOM     60  C44 UNL A   1      61.074  20.871  19.535  1.00  0.00    +0.000 C 
ATOM     61  F8  UNL A   1      62.003  21.055  20.482  1.00  0.00    +0.000 F 
ATOM     62  C45 UNL A   1      60.818  21.872  18.611  1.00  0.00    +0.000 C 
ATOM     63  F9  UNL A   1      61.514  23.017  18.653  1.00  0.00    +0.000 F 
ATOM     64  C46 UNL A   1      59.838  21.691  17.639  1.00  0.00    +0.000 C 
ENDBRANCH   54   55
BRANCH   69   70
ATOM     70  C50 UNL A   1      52.484  22.523  16.931  1.00  0.00    +0.000 C 
ATOM     71  C51 UNL A   1      51.742  21.859  17.918  1.00  0.00    +0.000 C 
ATOM     72  F11 UNL A   1      51.862  20.531  18.064  1.00  0.00    +0.000 F 
ATOM     73  C52 UNL A   1      50.843  22.549  18.728  1.00  0.00    +0.000 C 
ATOM     74  F12 UNL A   1      50.112  21.882  19.631  1.00  0.00    +0.000 F 
ATOM     75  C53 UNL A   1      50.691  23.920  18.587  1.00  0.00    +0.000 C 
ATOM     76  F13 UNL A   1      49.826  24.583  19.367  1.00  0.00    +0.000 F 
ATOM     77  C54 UNL A   1      51.431  24.601  17.632  1.00  0.00    +0.000 C 
ATOM     78  F14 UNL A   1      51.296  25.928  17.504  1.00  0.00    +0.000 F 
ATOM     79  C55 UNL A   1      52.309  23.908  16.803  1.00  0.00    +0.000 C 
ATOM     80  F15 UNL A   1      53.000  24.590  15.879  1.00  0.00    +0.000 F 
ENDBRANCH   69   70
TORSDOF 24
ENDMDL
MODEL 5
REMARK VINA RESULT:      -9.3      3.736      8.708
ROOT
ATOM    129  H38 UNL A   1      37.876  28.045  28.132  1.00  0.00    +0.000 H 
ATOM    130  H39 UNL A   1      40.741  30.466  29.922  1.00  0.00    +0.000 H 
ATOM    131  H40 UNL A   1      38.330  34.614  31.403  1.00  0.00    +0.000 H 
ATOM    132  H41 UNL A   1      40.600  35.493  32.193  1.00  0.00    +0.000 H 
ATOM    133  H42 UNL A   1      44.950  26.798  29.671  1.00  0.00    +0.000 H 
ATOM    134  H43 UNL A   1      42.819  26.096  28.439  1.00  0.00    +0.000 H 
ATOM     33  C26 UNL A   1      40.654  27.924  28.759  1.00  0.00    +0.000 C 
ATOM     34  C27 UNL A   1      42.072  28.084  29.234  1.00  0.00    +0.000 C 
ATOM     35  N3  UNL A   1      42.620  29.080  29.882  1.00  0.00    +0.000 N 
ATOM     36  C28 UNL A   1      43.934  28.698  30.122  1.00  0.00    +0.000 C 
ATOM     37  C29 UNL A   1      44.922  29.405  30.720  1.00  0.00    +0.000 C 
ATOM     49  C36 UNL A   1      44.770  30.749  31.213  1.00  0.00    +0.000 C 
ATOM     50  C37 UNL A   1      45.731  31.584  31.754  1.00  0.00    +0.000 C 
ATOM     51  C38 UNL A   1      45.110  32.777  32.134  1.00  0.00    +0.000 C 
ATOM     52  C39 UNL A   1      43.771  32.704  31.787  1.00  0.00    +0.000 C 
ATOM     53  N4  UNL A   1      43.574  31.453  31.224  1.00  0.00    +0.000 N 
ATOM     54  C40 UNL A   1      42.744  33.699  31.961  1.00  0.00    +0.000 C 
ATOM     66  C47 UNL A   1      41.451  33.558  31.580  1.00  0.00    +0.000 C 
ATOM     67  N5  UNL A   1      40.838  32.483  30.951  1.00  0.00    +0.000 N 
ATOM     68  C48 UNL A   1      39.580  32.820  30.804  1.00  0.00    +0.000 C 
ATOM     69  C49 UNL A   1      38.460  32.054  30.155  1.00  0.00    +0.000 C 
ATOM     81  C56 UNL A   1      38.715  30.845  29.623  1.00  0.00    +0.000 C 
ATOM     82  C57 UNL A   1      37.739  29.985  28.961  1.00  0.00    +0.000 C 
ATOM     83  C58 UNL A   1      38.337  28.840  28.599  1.00  0.00    +0.000 C 
ATOM     84  C59 UNL A   1      39.752  28.900  28.973  1.00  0.00    +0.000 C 
ATOM     85  N6  UNL A   1      39.886  30.129  29.569  1.00  0.00    +0.000 N 
ATOM     86  C60 UNL A   1      39.246  34.141  31.356  1.00  0.00    +0.000 C 
ATOM     87  C61 UNL A   1      40.429  34.564  31.777  1.00  0.00    +0.000 C 
ATOM     88  C62 UNL A   1      44.092  27.364  29.585  1.00  0.00    +0.000 C 
ATOM     89  C63 UNL A   1      42.989  26.965  28.968  1.00  0.00    +0.000 C 
ATOM    125  H34 UNL A   1      46.734  31.363  31.859  1.00  0.00    +0.000 H 
ATOM    126  H35 UNL A   1      45.571  33.578  32.594  1.00  0.00    +0.000 H 
ATOM    127  H36 UNL A   1      42.716  31.115  30.883  1.00  0.00    +0.000 H 
ATOM    128  H37 UNL A   1      36.747  30.220  28.799  1.00  0.00    +0.000 H 
ENDROOT
BRANCH   33   32
ATOM    123  H32 UNL A   1      38.586  23.791  28.753  1.00  0.00    +0.000 H 
ATOM    136  H45 UNL A   1      40.314  25.103  25.147  1.00  0.00    +0.000 H 
ATOM    135  H44 UNL A   1      41.115  27.105  26.254  1.00  0.00    +0.000 H 
ATOM     90  C64 UNL A   1      40.555  26.414  26.778  1.00  0.00    +0.000 C 
ATOM     91  C65 UNL A   1      40.131  25.246  26.153  1.00  0.00    +0.000 C 
ATOM    124  H33 UNL A   1      39.199  25.891  29.804  1.00  0.00    +0.000 H 
ATOM     29  C22 UNL A   1      39.458  24.265  26.887  1.00  0.00    +0.000 C 
ATOM     30  C23 UNL A   1      39.111  24.502  28.220  1.00  0.00    +0.000 C 
ATOM     31  C24 UNL A   1      39.478  25.703  28.828  1.00  0.00    +0.000 C 
ATOM     32  C25 UNL A   1      40.223  26.659  28.119  1.00  0.00    +0.000 C 
BRANCH   29   27
ATOM     27  C21 UNL A   1      39.047  22.992  26.258  1.00  0.00    +0.000 C 
ATOM     28  O4  UNL A   1      39.778  22.008  26.327  1.00  0.00    +0.000 O 
BRANCH   27   26
ATOM     26  N2  UNL A   1      37.838  22.903  25.617  1.00  0.00    +0.000 N 
ATOM    122  H31 UNL A   1      37.162  23.568  25.880  1.00  0.00    +0.000 H 
BRANCH   26   25
ATOM     25  C20 UNL A   1      37.429  21.949  24.598  1.00  0.00    +0.000 C 
ATOM    121  H30 UNL A   1      38.304  21.447  24.243  1.00  0.00    +0.000 H 
ATOM    120  H29 UNL A   1      36.939  22.478  23.807  1.00  0.00    +0.000 H 
BRANCH   25   24
ATOM    118  H27 UNL A   1      36.773  19.940  24.774  1.00  0.00    +0.000 H 
ATOM    119  H28 UNL A   1      36.531  20.967  26.218  1.00  0.00    +0.000 H 
ATOM     24  C19 UNL A   1      36.472  20.895  25.152  1.00  0.00    +0.000 C 
BRANCH   24   23
ATOM    116  H25 UNL A   1      34.581  21.802  25.489  1.00  0.00    +0.000 H 
ATOM    117  H26 UNL A   1      34.989  21.452  23.778  1.00  0.00    +0.000 H 
ATOM     23  C18 UNL A   1      34.995  21.105  24.791  1.00  0.00    +0.000 C 
BRANCH   23   22
ATOM    114  H23 UNL A   1      33.930  19.553  23.796  1.00  0.00    +0.000 H 
ATOM    115  H24 UNL A   1      34.665  19.099  25.352  1.00  0.00    +0.000 H 
ATOM     22  C17 UNL A   1      34.123  19.845  24.809  1.00  0.00    +0.000 C 
BRANCH   22   21
ATOM    113  H22 UNL A   1      33.002  20.206  26.551  1.00  0.00    +0.000 H 
ATOM     21  C16 UNL A   1      32.787  20.030  25.519  1.00  0.00    +0.000 C 
ATOM    112  H21 UNL A   1      32.200  19.146  25.371  1.00  0.00    +0.000 H 
BRANCH   21   20
ATOM     20  C15 UNL A   1      31.990  21.229  25.014  1.00  0.00    +0.000 C 
ATOM    110  H19 UNL A   1      32.490  21.655  24.171  1.00  0.00    +0.000 H 
ATOM    111  H20 UNL A   1      31.010  20.899  24.736  1.00  0.00    +0.000 H 
BRANCH   20   19
ATOM     19  N1  UNL A   1      31.868  22.230  26.050  1.00  0.00    +0.000 N 
ATOM    109  H18 UNL A   1      32.626  22.298  26.674  1.00  0.00    +0.000 H 
BRANCH   19   17
ATOM     17  C14 UNL A   1      30.837  23.090  26.269  1.00  0.00    +0.000 C 
ATOM     18  O3  UNL A   1      29.771  22.646  26.697  1.00  0.00    +0.000 O 
BRANCH   17   16
ATOM    107  H16 UNL A   1      30.535  25.125  26.749  1.00  0.00    +0.000 H 
ATOM    108  H17 UNL A   1      32.062  24.755  25.921  1.00  0.00    +0.000 H 
ATOM     16  C13 UNL A   1      31.010  24.564  25.971  1.00  0.00    +0.000 C 
BRANCH   16   15
ATOM    105  H14 UNL A   1      31.223  25.239  23.984  1.00  0.00    +0.000 H 
ATOM    106  H15 UNL A   1      29.818  24.148  24.331  1.00  0.00    +0.000 H 
ATOM     15  C12 UNL A   1      30.409  24.986  24.631  1.00  0.00    +0.000 C 
BRANCH   15   14
ATOM     14  C11 UNL A   1      29.428  26.172  24.618  1.00  0.00    +0.000 C 
ATOM    103  H12 UNL A   1      28.449  25.789  24.424  1.00  0.00    +0.000 H 
ATOM    104  H13 UNL A   1      29.525  26.646  25.572  1.00  0.00    +0.000 H 
BRANCH   14   13
ATOM    101  H10 UNL A   1      28.814  27.456  23.051  1.00  0.00    +0.000 H 
ATOM     13  C10 UNL A   1      29.725  27.258  23.576  1.00  0.00    +0.000 C 
ATOM    102  H11 UNL A   1      30.118  28.077  24.142  1.00  0.00    +0.000 H 
BRANCH   13   12
ATOM    100  H9  UNL A   1      30.395  27.413  21.645  1.00  0.00    +0.000 H 
ATOM     99  H8  UNL A   1      30.952  25.901  22.539  1.00  0.00    +0.000 H 
ATOM     12  C9  UNL A   1      30.804  26.961  22.525  1.00  0.00    +0.000 C 
BRANCH   12   11
ATOM     11  S1  UNL A   1      32.470  27.715  22.611  1.00  0.00    +0.000 S 
BRANCH   11   10
ATOM     97  H6  UNL A   1      34.685  23.559  23.688  1.00  0.00    +0.000 H 
ATOM     98  H7  UNL A   1      33.592  25.171  22.248  1.00  0.00    +0.000 H 
ATOM      5  C3  UNL A   1      33.719  26.999  25.039  1.00  0.00    +0.000 C 
ATOM      6  C4  UNL A   1      34.352  26.064  25.873  1.00  0.00    +0.000 C 
ATOM      7  C5  UNL A   1      34.692  24.804  25.387  1.00  0.00    +0.000 C 
ATOM      8  C6  UNL A   1      34.418  24.483  24.061  1.00  0.00    +0.000 C 
ATOM      9  C7  UNL A   1      33.777  25.414  23.234  1.00  0.00    +0.000 C 
ATOM     10  C8  UNL A   1      33.382  26.675  23.718  1.00  0.00    +0.000 C 
ATOM     95  H4  UNL A   1      34.569  26.311  26.851  1.00  0.00    +0.000 H 
ATOM     96  H5  UNL A   1      35.145  24.113  26.005  1.00  0.00    +0.000 H 
BRANCH    5    4
ATOM      4  O2  UNL A   1      33.279  28.159  25.758  1.00  0.00    +0.000 O 
BRANCH    4    2
ATOM      2  C2  UNL A   1      32.043  28.700  26.135  1.00  0.00    +0.000 C 
ATOM      3  O1  UNL A   1      31.423  29.600  25.590  1.00  0.00    +0.000 O 
BRANCH    2    1
ATOM      1  C1  UNL A   1      31.589  27.982  27.373  1.00  0.00    +0.000 C 
ATOM     92  H1  UNL A   1      30.670  28.408  27.716  1.00  0.00    +0.000 H 
ATOM     93  H2  UNL A   1      32.334  28.082  28.136  1.00  0.00    +0.000 H 
ATOM     94  H3  UNL A   1      31.443  26.946  27.152  1.00  0.00    +0.000 H 
ENDBRANCH    2    1
ENDBRANCH    4    2
ENDBRANCH    5    4
ENDBRANCH   11   10
ENDBRANCH   12   11
ENDBRANCH   13   12
ENDBRANCH   14   13
ENDBRANCH   15   14
ENDBRANCH   16   15
ENDBRANCH   17   16
ENDBRANCH   19   17
ENDBRANCH   20   19
ENDBRANCH   21   20
ENDBRANCH   22   21
ENDBRANCH   23   22
ENDBRANCH   24   23
ENDBRANCH   25   24
ENDBRANCH   26   25
ENDBRANCH   27   26
ENDBRANCH   29   27
ENDBRANCH   33   32
BRANCH   37   38
ATOM     38  C30 UNL A   1      46.260  28.745  30.875  1.00  0.00    +0.000 C 
ATOM     39  C31 UNL A   1      46.586  27.998  32.018  1.00  0.00    +0.000 C 
ATOM     40  F1  UNL A   1      45.718  27.910  33.036  1.00  0.00    +0.000 F 
ATOM     41  C32 UNL A   1      47.822  27.366  32.131  1.00  0.00    +0.000 C 
ATOM     42  F2  UNL A   1      48.127  26.692  33.249  1.00  0.00    +0.000 F 
ATOM     43  C33 UNL A   1      48.740  27.439  31.094  1.00  0.00    +0.000 C 
ATOM     44  F3  UNL A   1      49.924  26.820  31.201  1.00  0.00    +0.000 F 
ATOM     45  C34 UNL A   1      48.432  28.157  29.949  1.00  0.00    +0.000 C 
ATOM     46  F4  UNL A   1      49.313  28.219  28.941  1.00  0.00    +0.000 F 
ATOM     47  C35 UNL A   1      47.209  28.815  29.844  1.00  0.00    +0.000 C 
ATOM     48  F5  UNL A   1      46.945  29.510  28.728  1.00  0.00    +0.000 F 
ENDBRANCH   37   38
BRANCH   54   55
ATOM     65  F10 UNL A   1      43.624  35.943  30.458  1.00  0.00    +0.000 F 
ATOM     55  C41 UNL A   1      43.135  35.003  32.590  1.00  0.00    +0.000 C 
ATOM     56  C42 UNL A   1      43.111  35.186  33.980  1.00  0.00    +0.000 C 
ATOM     57  F6  UNL A   1      42.681  34.200  34.782  1.00  0.00    +0.000 F 
ATOM     58  C43 UNL A   1      43.492  36.398  34.548  1.00  0.00    +0.000 C 
ATOM     59  F7  UNL A   1      43.418  36.566  35.875  1.00  0.00    +0.000 F 
ATOM     60  C44 UNL A   1      43.935  37.436  33.742  1.00  0.00    +0.000 C 
ATOM     61  F8  UNL A   1      44.308  38.600  34.291  1.00  0.00    +0.000 F 
ATOM     62  C45 UNL A   1      43.984  37.271  32.366  1.00  0.00    +0.000 C 
ATOM     63  F9  UNL A   1      44.424  38.269  31.587  1.00  0.00    +0.000 F 
ATOM     64  C46 UNL A   1      43.577  36.070  31.793  1.00  0.00    +0.000 C 
ENDBRANCH   54   55
BRANCH   69   70
ATOM     70  C50 UNL A   1      37.093  32.632  30.073  1.00  0.00    +0.000 C 
ATOM     71  C51 UNL A   1      36.170  32.435  31.110  1.00  0.00    +0.000 C 
ATOM     72  F11 UNL A   1      36.517  31.715  32.187  1.00  0.00    +0.000 F 
ATOM     73  C52 UNL A   1      34.874  32.938  31.024  1.00  0.00    +0.000 C 
ATOM     74  F12 UNL A   1      33.997  32.694  32.007  1.00  0.00    +0.000 F 
ATOM     75  C53 UNL A   1      34.485  33.673  29.914  1.00  0.00    +0.000 C 
ATOM     76  F13 UNL A   1      33.238  34.156  29.832  1.00  0.00    +0.000 F 
ATOM     77  C54 UNL A   1      35.388  33.900  28.887  1.00  0.00    +0.000 C 
ATOM     78  F14 UNL A   1      35.020  34.622  27.820  1.00  0.00    +0.000 F 
ATOM     79  C55 UNL A   1      36.676  33.374  28.959  1.00  0.00    +0.000 C 
ATOM     80  F15 UNL A   1      37.523  33.595  27.944  1.00  0.00    +0.000 F 
ENDBRANCH   69   70
TORSDOF 24
ENDMDL
MODEL 6
REMARK VINA RESULT:      -9.2     20.108     25.914
ROOT
ATOM    129  H38 UNL A   1      51.018  20.966  12.483  1.00  0.00    +0.000 H 
ATOM    130  H39 UNL A   1      54.824  20.454  14.073  1.00  0.00    +0.000 H 
ATOM    131  H40 UNL A   1      54.707  22.506  18.655  1.00  0.00    +0.000 H 
ATOM    132  H41 UNL A   1      57.192  21.922  18.837  1.00  0.00    +0.000 H 
ATOM    133  H42 UNL A   1      56.869  17.354   9.897  1.00  0.00    +0.000 H 
ATOM    134  H43 UNL A   1      54.546  18.345   9.481  1.00  0.00    +0.000 H 
ATOM     33  C26 UNL A   1      53.486  19.760  11.718  1.00  0.00    +0.000 C 
ATOM     34  C27 UNL A   1      54.859  19.167  11.571  1.00  0.00    +0.000 C 
ATOM     35  N3  UNL A   1      55.858  19.173  12.417  1.00  0.00    +0.000 N 
ATOM     36  C28 UNL A   1      56.872  18.442  11.810  1.00  0.00    +0.000 C 
ATOM     37  C29 UNL A   1      58.124  18.201  12.264  1.00  0.00    +0.000 C 
ATOM     49  C36 UNL A   1      58.645  18.705  13.508  1.00  0.00    +0.000 C 
ATOM     50  C37 UNL A   1      59.927  18.592  14.017  1.00  0.00    +0.000 C 
ATOM     51  C38 UNL A   1      59.953  19.200  15.275  1.00  0.00    +0.000 C 
ATOM     52  C39 UNL A   1      58.700  19.732  15.531  1.00  0.00    +0.000 C 
ATOM     53  N4  UNL A   1      57.906  19.421  14.439  1.00  0.00    +0.000 N 
ATOM     54  C40 UNL A   1      58.257  20.467  16.688  1.00  0.00    +0.000 C 
ATOM     66  C47 UNL A   1      57.011  20.972  16.860  1.00  0.00    +0.000 C 
ATOM     67  N5  UNL A   1      55.921  20.918  16.001  1.00  0.00    +0.000 N 
ATOM     68  C48 UNL A   1      54.945  21.538  16.618  1.00  0.00    +0.000 C 
ATOM     69  C49 UNL A   1      53.544  21.813  16.146  1.00  0.00    +0.000 C 
ATOM     81  C56 UNL A   1      53.172  21.396  14.921  1.00  0.00    +0.000 C 
ATOM     82  C57 UNL A   1      51.854  21.588  14.323  1.00  0.00    +0.000 C 
ATOM     83  C58 UNL A   1      51.832  21.003  13.116  1.00  0.00    +0.000 C 
ATOM     84  C59 UNL A   1      53.149  20.424  12.840  1.00  0.00    +0.000 C 
ATOM     85  N6  UNL A   1      53.880  20.712  13.964  1.00  0.00    +0.000 N 
ATOM     86  C60 UNL A   1      55.299  22.028  17.958  1.00  0.00    +0.000 C 
ATOM     87  C61 UNL A   1      56.580  21.695  18.037  1.00  0.00    +0.000 C 
ATOM     88  C62 UNL A   1      56.357  17.975  10.542  1.00  0.00    +0.000 C 
ATOM     89  C63 UNL A   1      55.140  18.451  10.317  1.00  0.00    +0.000 C 
ATOM    125  H34 UNL A   1      60.725  18.137  13.547  1.00  0.00    +0.000 H 
ATOM    126  H35 UNL A   1      60.768  19.245  15.907  1.00  0.00    +0.000 H 
ATOM    127  H36 UNL A   1      56.959  19.669  14.339  1.00  0.00    +0.000 H 
ATOM    128  H37 UNL A   1      51.066  22.092  14.759  1.00  0.00    +0.000 H 
ENDROOT
BRANCH   33   32
ATOM    123  H32 UNL A   1      50.304  17.272   9.473  1.00  0.00    +0.000 H 
ATOM    136  H45 UNL A   1      51.015  21.191   8.116  1.00  0.00    +0.000 H 
ATOM    135  H44 UNL A   1      52.759  21.455   9.778  1.00  0.00    +0.000 H 
ATOM     90  C64 UNL A   1      52.220  20.576   9.731  1.00  0.00    +0.000 C 
ATOM     91  C65 UNL A   1      51.247  20.411   8.750  1.00  0.00    +0.000 C 
ATOM    124  H33 UNL A   1      51.896  17.611  11.272  1.00  0.00    +0.000 H 
ATOM     29  C22 UNL A   1      50.585  19.186   8.622  1.00  0.00    +0.000 C 
ATOM     30  C23 UNL A   1      50.817  18.164   9.548  1.00  0.00    +0.000 C 
ATOM     31  C24 UNL A   1      51.743  18.355  10.573  1.00  0.00    +0.000 C 
ATOM     32  C25 UNL A   1      52.469  19.554  10.659  1.00  0.00    +0.000 C 
BRANCH   29   27
ATOM     27  C21 UNL A   1      49.589  18.968   7.553  1.00  0.00    +0.000 C 
ATOM     28  O4  UNL A   1      48.551  19.624   7.537  1.00  0.00    +0.000 O 
BRANCH   27   26
ATOM     26  N2  UNL A   1      49.831  18.049   6.564  1.00  0.00    +0.000 N 
ATOM    122  H31 UNL A   1      50.544  18.282   5.927  1.00  0.00    +0.000 H 
BRANCH   26   25
ATOM     25  C20 UNL A   1      49.169  16.774   6.339  1.00  0.00    +0.000 C 
ATOM    121  H30 UNL A   1      48.451  16.632   7.118  1.00  0.00    +0.000 H 
ATOM    120  H29 UNL A   1      49.905  15.997   6.344  1.00  0.00    +0.000 H 
BRANCH   25   24
ATOM    118  H27 UNL A   1      49.093  17.104   4.246  1.00  0.00    +0.000 H 
ATOM    119  H28 UNL A   1      48.126  15.728   4.851  1.00  0.00    +0.000 H 
ATOM     24  C19 UNL A   1      48.429  16.743   5.002  1.00  0.00    +0.000 C 
BRANCH   24   23
ATOM    116  H25 UNL A   1      46.402  17.020   4.429  1.00  0.00    +0.000 H 
ATOM    117  H26 UNL A   1      46.894  17.795   5.970  1.00  0.00    +0.000 H 
ATOM     23  C18 UNL A   1      47.146  17.584   4.952  1.00  0.00    +0.000 C 
BRANCH   23   22
ATOM    114  H23 UNL A   1      48.268  19.314   4.421  1.00  0.00    +0.000 H 
ATOM    115  H24 UNL A   1      47.058  18.790   3.224  1.00  0.00    +0.000 H 
ATOM     22  C17 UNL A   1      47.275  18.946   4.260  1.00  0.00    +0.000 C 
BRANCH   22   21
ATOM    113  H22 UNL A   1      46.864  20.799   5.167  1.00  0.00    +0.000 H 
ATOM     21  C16 UNL A   1      46.288  19.991   4.768  1.00  0.00    +0.000 C 
ATOM    112  H21 UNL A   1      45.663  19.534   5.509  1.00  0.00    +0.000 H 
BRANCH   21   20
ATOM     20  C15 UNL A   1      45.396  20.570   3.674  1.00  0.00    +0.000 C 
ATOM    110  H19 UNL A   1      45.134  21.575   3.929  1.00  0.00    +0.000 H 
ATOM    111  H20 UNL A   1      45.931  20.551   2.747  1.00  0.00    +0.000 H 
BRANCH   20   19
ATOM     19  N1  UNL A   1      44.191  19.785   3.532  1.00  0.00    +0.000 N 
ATOM    109  H18 UNL A   1      43.483  19.961   4.193  1.00  0.00    +0.000 H 
BRANCH   19   17
ATOM     17  C14 UNL A   1      43.912  18.835   2.599  1.00  0.00    +0.000 C 
ATOM     18  O3  UNL A   1      44.444  17.729   2.697  1.00  0.00    +0.000 O 
BRANCH   17   16
ATOM    107  H16 UNL A   1      43.518  19.082   0.538  1.00  0.00    +0.000 H 
ATOM    108  H17 UNL A   1      42.166  18.455   1.504  1.00  0.00    +0.000 H 
ATOM     16  C13 UNL A   1      42.973  19.156   1.457  1.00  0.00    +0.000 C 
BRANCH   16   15
ATOM    105  H14 UNL A   1      41.692  20.554   2.381  1.00  0.00    +0.000 H 
ATOM    106  H15 UNL A   1      43.207  21.206   1.629  1.00  0.00    +0.000 H 
ATOM     15  C12 UNL A   1      42.364  20.554   1.547  1.00  0.00    +0.000 C 
BRANCH   15   14
ATOM     14  C11 UNL A   1      41.584  21.086   0.332  1.00  0.00    +0.000 C 
ATOM    103  H12 UNL A   1      40.762  21.667   0.694  1.00  0.00    +0.000 H 
ATOM    104  H13 UNL A   1      42.287  21.648  -0.247  1.00  0.00    +0.000 H 
BRANCH   14   13
ATOM    101  H10 UNL A   1      41.059  20.408  -1.603  1.00  0.00    +0.000 H 
ATOM     13  C10 UNL A   1      41.023  20.013  -0.610  1.00  0.00    +0.000 C 
ATOM    102  H11 UNL A   1      41.635  19.153  -0.435  1.00  0.00    +0.000 H 
BRANCH   13   12
ATOM    100  H9  UNL A   1      39.731  18.480  -0.187  1.00  0.00    +0.000 H 
ATOM     99  H8  UNL A   1      39.016  19.834  -1.212  1.00  0.00    +0.000 H 
ATOM     12  C9  UNL A   1      39.589  19.526  -0.362  1.00  0.00    +0.000 C 
BRANCH   12   11
ATOM     11  S1  UNL A   1      38.636  20.040   1.115  1.00  0.00    +0.000 S 
BRANCH   11   10
ATOM     97  H6  UNL A   1      37.013  23.272  -2.090  1.00  0.00    +0.000 H 
ATOM     98  H7  UNL A   1      38.548  21.623  -1.199  1.00  0.00    +0.000 H 
ATOM      5  C3  UNL A   1      36.137  21.352   1.094  1.00  0.00    +0.000 C 
ATOM      6  C4  UNL A   1      35.248  22.308   0.577  1.00  0.00    +0.000 C 
ATOM      7  C5  UNL A   1      35.572  23.020  -0.575  1.00  0.00    +0.000 C 
ATOM      8  C6  UNL A   1      36.775  22.763  -1.224  1.00  0.00    +0.000 C 
ATOM      9  C7  UNL A   1      37.665  21.816  -0.701  1.00  0.00    +0.000 C 
ATOM     10  C8  UNL A   1      37.379  21.121   0.488  1.00  0.00    +0.000 C 
ATOM     95  H4  UNL A   1      34.349  22.484   1.052  1.00  0.00    +0.000 H 
ATOM     96  H5  UNL A   1      34.924  23.732  -0.946  1.00  0.00    +0.000 H 
BRANCH    5    4
ATOM      4  O2  UNL A   1      35.722  20.862   2.377  1.00  0.00    +0.000 O 
BRANCH    4    2
ATOM      2  C2  UNL A   1      35.985  21.194   3.712  1.00  0.00    +0.000 C 
ATOM      3  O1  UNL A   1      36.417  22.249   4.150  1.00  0.00    +0.000 O 
BRANCH    2    1
ATOM      1  C1  UNL A   1      35.655  19.995   4.554  1.00  0.00    +0.000 C 
ATOM     92  H1  UNL A   1      34.611  19.999   4.786  1.00  0.00    +0.000 H 
ATOM     93  H2  UNL A   1      36.222  20.031   5.462  1.00  0.00    +0.000 H 
ATOM     94  H3  UNL A   1      35.900  19.104   4.016  1.00  0.00    +0.000 H 
ENDBRANCH    2    1
ENDBRANCH    4    2
ENDBRANCH    5    4
ENDBRANCH   11   10
ENDBRANCH   12   11
ENDBRANCH   13   12
ENDBRANCH   14   13
ENDBRANCH   15   14
ENDBRANCH   16   15
ENDBRANCH   17   16
ENDBRANCH   19   17
ENDBRANCH   20   19
ENDBRANCH   21   20
ENDBRANCH   22   21
ENDBRANCH   23   22
ENDBRANCH   24   23
ENDBRANCH   25   24
ENDBRANCH   26   25
ENDBRANCH   27   26
ENDBRANCH   29   27
ENDBRANCH   33   32
BRANCH   37   38
ATOM     38  C30 UNL A   1      59.026  17.355  11.415  1.00  0.00    +0.000 C 
ATOM     39  C31 UNL A   1      59.865  17.919  10.441  1.00  0.00    +0.000 C 
ATOM     40  F1  UNL A   1      59.831  19.238  10.205  1.00  0.00    +0.000 F 
ATOM     41  C32 UNL A   1      60.718  17.121   9.683  1.00  0.00    +0.000 C 
ATOM     42  F2  UNL A   1      61.480  17.677   8.730  1.00  0.00    +0.000 F 
ATOM     43  C33 UNL A   1      60.775  15.754   9.905  1.00  0.00    +0.000 C 
ATOM     44  F3  UNL A   1      61.606  14.990   9.182  1.00  0.00    +0.000 F 
ATOM     45  C34 UNL A   1      59.968  15.178  10.873  1.00  0.00    +0.000 C 
ATOM     46  F4  UNL A   1      60.030  13.858  11.097  1.00  0.00    +0.000 F 
ATOM     47  C35 UNL A   1      59.092  15.967  11.613  1.00  0.00    +0.000 C 
ATOM     48  F5  UNL A   1      58.316  15.379  12.536  1.00  0.00    +0.000 F 
ENDBRANCH   37   38
BRANCH   54   55
ATOM     65  F10 UNL A   1      59.933  22.759  16.765  1.00  0.00    +0.000 F 
ATOM     55  C41 UNL A   1      59.254  20.716  17.780  1.00  0.00    +0.000 C 
ATOM     56  C42 UNL A   1      59.436  19.806  18.832  1.00  0.00    +0.000 C 
ATOM     57  F6  UNL A   1      58.673  18.705  18.909  1.00  0.00    +0.000 F 
ATOM     58  C43 UNL A   1      60.376  20.045  19.829  1.00  0.00    +0.000 C 
ATOM     59  F7  UNL A   1      60.502  19.185  20.849  1.00  0.00    +0.000 F 
ATOM     60  C44 UNL A   1      61.174  21.178  19.776  1.00  0.00    +0.000 C 
ATOM     61  F8  UNL A   1      62.084  21.404  20.734  1.00  0.00    +0.000 F 
ATOM     62  C45 UNL A   1      61.023  22.083  18.736  1.00  0.00    +0.000 C 
ATOM     63  F9  UNL A   1      61.802  23.172  18.677  1.00  0.00    +0.000 F 
ATOM     64  C46 UNL A   1      60.064  21.861  17.752  1.00  0.00    +0.000 C 
ENDBRANCH   54   55
BRANCH   69   70
ATOM     70  C50 UNL A   1      52.586  22.560  17.002  1.00  0.00    +0.000 C 
ATOM     71  C51 UNL A   1      51.807  21.890  17.956  1.00  0.00    +0.000 C 
ATOM     72  F11 UNL A   1      51.919  20.561  18.098  1.00  0.00    +0.000 F 
ATOM     73  C52 UNL A   1      50.877  22.576  18.735  1.00  0.00    +0.000 C 
ATOM     74  F12 UNL A   1      50.111  21.903  19.604  1.00  0.00    +0.000 F 
ATOM     75  C53 UNL A   1      50.732  23.947  18.597  1.00  0.00    +0.000 C 
ATOM     76  F13 UNL A   1      49.837  24.606  19.348  1.00  0.00    +0.000 F 
ATOM     77  C54 UNL A   1      51.508  24.634  17.676  1.00  0.00    +0.000 C 
ATOM     78  F14 UNL A   1      51.379  25.962  17.552  1.00  0.00    +0.000 F 
ATOM     79  C55 UNL A   1      52.418  23.946  16.877  1.00  0.00    +0.000 C 
ATOM     80  F15 UNL A   1      53.144  24.634  15.984  1.00  0.00    +0.000 F 
ENDBRANCH   69   70
TORSDOF 24
ENDMDL
MODEL 7
REMARK VINA RESULT:      -9.2      0.824      2.172
ROOT
ATOM    129  H38 UNL A   1      38.112  28.743  27.342  1.00  0.00    +0.000 H 
ATOM    130  H39 UNL A   1      40.534  28.657  30.718  1.00  0.00    +0.000 H 
ATOM    131  H40 UNL A   1      44.532  25.877  29.495  1.00  0.00    +0.000 H 
ATOM    132  H41 UNL A   1      45.336  26.211  31.902  1.00  0.00    +0.000 H 
ATOM    133  H42 UNL A   1      37.522  32.236  33.777  1.00  0.00    +0.000 H 
ATOM    134  H43 UNL A   1      36.452  31.529  31.562  1.00  0.00    +0.000 H 
ATOM     33  C26 UNL A   1      38.118  29.849  29.969  1.00  0.00    +0.000 C 
ATOM     34  C27 UNL A   1      38.374  30.341  31.366  1.00  0.00    +0.000 C 
ATOM     35  N3  UNL A   1      39.396  30.109  32.151  1.00  0.00    +0.000 N 
ATOM     36  C28 UNL A   1      39.160  30.844  33.307  1.00  0.00    +0.000 C 
ATOM     37  C29 UNL A   1      39.904  30.899  34.436  1.00  0.00    +0.000 C 
ATOM     49  C36 UNL A   1      41.115  30.149  34.645  1.00  0.00    +0.000 C 
ATOM     50  C37 UNL A   1      41.894  30.067  35.785  1.00  0.00    +0.000 C 
ATOM     51  C38 UNL A   1      42.997  29.255  35.504  1.00  0.00    +0.000 C 
ATOM     52  C39 UNL A   1      42.881  28.794  34.203  1.00  0.00    +0.000 C 
ATOM     53  N4  UNL A   1      41.723  29.351  33.686  1.00  0.00    +0.000 N 
ATOM     54  C40 UNL A   1      43.764  27.914  33.481  1.00  0.00    +0.000 C 
ATOM     66  C47 UNL A   1      43.574  27.493  32.207  1.00  0.00    +0.000 C 
ATOM     67  N5  UNL A   1      42.530  27.783  31.339  1.00  0.00    +0.000 N 
ATOM     68  C48 UNL A   1      42.804  27.151  30.223  1.00  0.00    +0.000 C 
ATOM     69  C49 UNL A   1      42.005  27.079  28.950  1.00  0.00    +0.000 C 
ATOM     81  C56 UNL A   1      40.828  27.727  28.878  1.00  0.00    +0.000 C 
ATOM     82  C57 UNL A   1      39.941  27.751  27.719  1.00  0.00    +0.000 C 
ATOM     83  C58 UNL A   1      38.884  28.532  27.992  1.00  0.00    +0.000 C 
ATOM     84  C59 UNL A   1      39.002  29.037  29.362  1.00  0.00    +0.000 C 
ATOM     85  N6  UNL A   1      40.183  28.501  29.812  1.00  0.00    +0.000 N 
ATOM     86  C60 UNL A   1      44.075  26.414  30.248  1.00  0.00    +0.000 C 
ATOM     87  C61 UNL A   1      44.482  26.620  31.493  1.00  0.00    +0.000 C 
ATOM     88  C62 UNL A   1      37.920  31.560  33.107  1.00  0.00    +0.000 C 
ATOM     89  C63 UNL A   1      37.361  31.234  31.951  1.00  0.00    +0.000 C 
ATOM    125  H34 UNL A   1      41.695  30.526  36.688  1.00  0.00    +0.000 H 
ATOM    126  H35 UNL A   1      43.766  29.035  36.156  1.00  0.00    +0.000 H 
ATOM    127  H36 UNL A   1      41.381  29.203  32.775  1.00  0.00    +0.000 H 
ATOM    128  H37 UNL A   1      40.101  27.248  26.832  1.00  0.00    +0.000 H 
ENDROOT
BRANCH   33   32
ATOM    123  H32 UNL A   1      35.573  33.068  27.842  1.00  0.00    +0.000 H 
ATOM    136  H45 UNL A   1      34.064  29.141  27.922  1.00  0.00    +0.000 H 
ATOM    135  H44 UNL A   1      35.965  28.432  29.249  1.00  0.00    +0.000 H 
ATOM     90  C64 UNL A   1      35.896  29.411  28.927  1.00  0.00    +0.000 C 
ATOM     91  C65 UNL A   1      34.784  29.826  28.201  1.00  0.00    +0.000 C 
ATOM    124  H33 UNL A   1      37.579  32.315  28.982  1.00  0.00    +0.000 H 
ATOM     29  C22 UNL A   1      34.640  31.172  27.851  1.00  0.00    +0.000 C 
ATOM     30  C23 UNL A   1      35.664  32.081  28.130  1.00  0.00    +0.000 C 
ATOM     31  C24 UNL A   1      36.810  31.650  28.799  1.00  0.00    +0.000 C 
ATOM     32  C25 UNL A   1      36.925  30.317  29.223  1.00  0.00    +0.000 C 
BRANCH   29   27
ATOM     27  C21 UNL A   1      33.442  31.646  27.128  1.00  0.00    +0.000 C 
ATOM     28  O4  UNL A   1      32.941  32.730  27.412  1.00  0.00    +0.000 O 
BRANCH   27   26
ATOM     26  N2  UNL A   1      32.901  30.886  26.124  1.00  0.00    +0.000 N 
ATOM    122  H31 UNL A   1      33.392  30.888  25.271  1.00  0.00    +0.000 H 
BRANCH   26   25
ATOM     25  C20 UNL A   1      31.692  30.076  26.159  1.00  0.00    +0.000 C 
ATOM    121  H30 UNL A   1      31.073  30.370  25.338  1.00  0.00    +0.000 H 
ATOM    120  H29 UNL A   1      31.197  30.235  27.094  1.00  0.00    +0.000 H 
BRANCH   25   24
ATOM    118  H27 UNL A   1      32.108  28.170  26.989  1.00  0.00    +0.000 H 
ATOM    119  H28 UNL A   1      31.181  28.167  25.460  1.00  0.00    +0.000 H 
ATOM     24  C19 UNL A   1      31.997  28.586  26.010  1.00  0.00    +0.000 C 
BRANCH   24   23
ATOM    116  H25 UNL A   1      33.212  28.789  24.279  1.00  0.00    +0.000 H 
ATOM    117  H26 UNL A   1      34.087  28.556  25.828  1.00  0.00    +0.000 H 
ATOM     23  C18 UNL A   1      33.265  28.261  25.209  1.00  0.00    +0.000 C 
BRANCH   23   22
ATOM    114  H23 UNL A   1      34.419  26.476  25.331  1.00  0.00    +0.000 H 
ATOM    115  H24 UNL A   1      32.654  26.244  25.304  1.00  0.00    +0.000 H 
ATOM     22  C17 UNL A   1      33.488  26.777  24.895  1.00  0.00    +0.000 C 
BRANCH   22   21
ATOM    113  H22 UNL A   1      32.996  25.546  23.263  1.00  0.00    +0.000 H 
ATOM     21  C16 UNL A   1      33.530  26.461  23.405  1.00  0.00    +0.000 C 
ATOM    112  H21 UNL A   1      34.555  26.383  23.105  1.00  0.00    +0.000 H 
BRANCH   21   20
ATOM     20  C15 UNL A   1      32.852  27.518  22.539  1.00  0.00    +0.000 C 
ATOM    110  H19 UNL A   1      32.887  28.461  23.042  1.00  0.00    +0.000 H 
ATOM    111  H20 UNL A   1      33.367  27.578  21.602  1.00  0.00    +0.000 H 
BRANCH   20   19
ATOM     19  N1  UNL A   1      31.473  27.163  22.289  1.00  0.00    +0.000 N 
ATOM    109  H18 UNL A   1      31.328  26.327  21.790  1.00  0.00    +0.000 H 
BRANCH   19   17
ATOM     17  C14 UNL A   1      30.352  27.839  22.660  1.00  0.00    +0.000 C 
ATOM     18  O3  UNL A   1      30.146  28.956  22.185  1.00  0.00    +0.000 O 
BRANCH   17   16
ATOM    107  H16 UNL A   1      29.367  27.835  24.528  1.00  0.00    +0.000 H 
ATOM    108  H17 UNL A   1      28.439  27.156  23.174  1.00  0.00    +0.000 H 
ATOM     16  C13 UNL A   1      29.394  27.219  23.653  1.00  0.00    +0.000 C 
BRANCH   16   15
ATOM    105  H14 UNL A   1      28.973  25.157  23.806  1.00  0.00    +0.000 H 
ATOM    106  H15 UNL A   1      30.708  25.621  23.560  1.00  0.00    +0.000 H 
ATOM     15  C12 UNL A   1      29.786  25.802  24.070  1.00  0.00    +0.000 C 
BRANCH   15   14
ATOM     14  C11 UNL A   1      30.111  25.545  25.552  1.00  0.00    +0.000 C 
ATOM    103  H12 UNL A   1      30.895  26.213  25.839  1.00  0.00    +0.000 H 
ATOM    104  H13 UNL A   1      29.196  25.699  26.086  1.00  0.00    +0.000 H 
BRANCH   14   13
ATOM    101  H10 UNL A   1      30.635  24.048  26.953  1.00  0.00    +0.000 H 
ATOM     13  C10 UNL A   1      30.560  24.117  25.888  1.00  0.00    +0.000 C 
ATOM    102  H11 UNL A   1      29.822  23.488  25.437  1.00  0.00    +0.000 H 
BRANCH   13   12
ATOM    100  H9  UNL A   1      32.199  22.893  26.012  1.00  0.00    +0.000 H 
ATOM     99  H8  UNL A   1      32.499  24.507  25.173  1.00  0.00    +0.000 H 
ATOM     12  C9  UNL A   1      31.894  23.634  25.302  1.00  0.00    +0.000 C 
BRANCH   12   11
ATOM     11  S1  UNL A   1      31.977  22.713  23.721  1.00  0.00    +0.000 S 
BRANCH   11   10
ATOM     97  H6  UNL A   1      32.465  17.955  24.411  1.00  0.00    +0.000 H 
ATOM     98  H7  UNL A   1      31.316  19.987  23.765  1.00  0.00    +0.000 H 
ATOM      5  C3  UNL A   1      34.318  21.296  24.411  1.00  0.00    +0.000 C 
ATOM      6  C4  UNL A   1      34.984  20.117  24.785  1.00  0.00    +0.000 C 
ATOM      7  C5  UNL A   1      34.306  18.901  24.800  1.00  0.00    +0.000 C 
ATOM      8  C6  UNL A   1      32.969  18.857  24.422  1.00  0.00    +0.000 C 
ATOM      9  C7  UNL A   1      32.304  20.035  24.058  1.00  0.00    +0.000 C 
ATOM     10  C8  UNL A   1      32.956  21.281  24.083  1.00  0.00    +0.000 C 
ATOM     95  H4  UNL A   1      35.980  20.152  25.049  1.00  0.00    +0.000 H 
ATOM     96  H5  UNL A   1      34.793  18.038  25.089  1.00  0.00    +0.000 H 
BRANCH    5    4
ATOM      4  O2  UNL A   1      35.116  22.465  24.636  1.00  0.00    +0.000 O 
BRANCH    4    2
ATOM      2  C2  UNL A   1      36.021  22.892  25.618  1.00  0.00    +0.000 C 
ATOM      3  O1  UNL A   1      35.767  23.423  26.688  1.00  0.00    +0.000 O 
BRANCH    2    1
ATOM      1  C1  UNL A   1      37.407  22.597  25.121  1.00  0.00    +0.000 C 
ATOM     92  H1  UNL A   1      38.098  22.662  25.934  1.00  0.00    +0.000 H 
ATOM     93  H2  UNL A   1      37.674  23.310  24.369  1.00  0.00    +0.000 H 
ATOM     94  H3  UNL A   1      37.435  21.613  24.705  1.00  0.00    +0.000 H 
ENDBRANCH    2    1
ENDBRANCH    4    2
ENDBRANCH    5    4
ENDBRANCH   11   10
ENDBRANCH   12   11
ENDBRANCH   13   12
ENDBRANCH   14   13
ENDBRANCH   15   14
ENDBRANCH   16   15
ENDBRANCH   17   16
ENDBRANCH   19   17
ENDBRANCH   20   19
ENDBRANCH   21   20
ENDBRANCH   22   21
ENDBRANCH   23   22
ENDBRANCH   24   23
ENDBRANCH   25   24
ENDBRANCH   26   25
ENDBRANCH   27   26
ENDBRANCH   29   27
ENDBRANCH   33   32
BRANCH   37   38
ATOM     38  C30 UNL A   1      39.433  31.797  35.541  1.00  0.00    +0.000 C 
ATOM     39  C31 UNL A   1      38.488  31.371  36.487  1.00  0.00    +0.000 C 
ATOM     40  F1  UNL A   1      37.933  30.154  36.384  1.00  0.00    +0.000 F 
ATOM     41  C32 UNL A   1      38.085  32.208  37.524  1.00  0.00    +0.000 C 
ATOM     42  F2  UNL A   1      37.151  31.793  38.391  1.00  0.00    +0.000 F 
ATOM     43  C33 UNL A   1      38.642  33.471  37.657  1.00  0.00    +0.000 C 
ATOM     44  F3  UNL A   1      38.261  34.270  38.664  1.00  0.00    +0.000 F 
ATOM     45  C34 UNL A   1      39.590  33.906  36.744  1.00  0.00    +0.000 C 
ATOM     46  F4  UNL A   1      40.137  35.123  36.877  1.00  0.00    +0.000 F 
ATOM     47  C35 UNL A   1      39.974  33.084  35.689  1.00  0.00    +0.000 C 
ATOM     48  F5  UNL A   1      40.885  33.539  34.816  1.00  0.00    +0.000 F 
ENDBRANCH   37   38
BRANCH   54   55
ATOM     65  F10 UNL A   1      43.770  25.508  34.992  1.00  0.00    +0.000 F 
ATOM     55  C41 UNL A   1      44.977  27.400  34.199  1.00  0.00    +0.000 C 
ATOM     56  C42 UNL A   1      46.191  28.102  34.184  1.00  0.00    +0.000 C 
ATOM     57  F6  UNL A   1      46.308  29.234  33.475  1.00  0.00    +0.000 F 
ATOM     58  C43 UNL A   1      47.303  27.619  34.868  1.00  0.00    +0.000 C 
ATOM     59  F7  UNL A   1      48.466  28.280  34.804  1.00  0.00    +0.000 F 
ATOM     60  C44 UNL A   1      47.213  26.447  35.606  1.00  0.00    +0.000 C 
ATOM     61  F8  UNL A   1      48.282  25.988  36.269  1.00  0.00    +0.000 F 
ATOM     62  C45 UNL A   1      46.016  25.748  35.648  1.00  0.00    +0.000 C 
ATOM     63  F9  UNL A   1      45.924  24.622  36.370  1.00  0.00    +0.000 F 
ATOM     64  C46 UNL A   1      44.911  26.212  34.942  1.00  0.00    +0.000 C 
ENDBRANCH   54   55
BRANCH   69   70
ATOM     70  C50 UNL A   1      42.489  26.282  27.794  1.00  0.00    +0.000 C 
ATOM     71  C51 UNL A   1      43.329  26.856  26.830  1.00  0.00    +0.000 C 
ATOM     72  F11 UNL A   1      43.699  28.140  26.945  1.00  0.00    +0.000 F 
ATOM     73  C52 UNL A   1      43.755  26.128  25.721  1.00  0.00    +0.000 C 
ATOM     74  F12 UNL A   1      44.518  26.717  24.790  1.00  0.00    +0.000 F 
ATOM     75  C53 UNL A   1      43.375  24.804  25.572  1.00  0.00    +0.000 C 
ATOM     76  F13 UNL A   1      43.785  24.104  24.504  1.00  0.00    +0.000 F 
ATOM     77  C54 UNL A   1      42.563  24.207  26.524  1.00  0.00    +0.000 C 
ATOM     78  F14 UNL A   1      42.206  22.923  26.389  1.00  0.00    +0.000 F 
ATOM     79  C55 UNL A   1      42.114  24.942  27.619  1.00  0.00    +0.000 C 
ATOM     80  F15 UNL A   1      41.317  24.345  28.516  1.00  0.00    +0.000 F 
ENDBRANCH   69   70
TORSDOF 24
ENDMDL
MODEL 8
REMARK VINA RESULT:      -9.2      2.505      3.840
ROOT
ATOM    129  H38 UNL A   1      38.598  26.974  27.650  1.00  0.00    +0.000 H 
ATOM    130  H39 UNL A   1      42.129  27.573  29.758  1.00  0.00    +0.000 H 
ATOM    131  H40 UNL A   1      45.160  23.770  28.508  1.00  0.00    +0.000 H 
ATOM    132  H41 UNL A   1      46.854  24.751  30.157  1.00  0.00    +0.000 H 
ATOM    133  H42 UNL A   1      40.767  32.543  31.922  1.00  0.00    +0.000 H 
ATOM    134  H43 UNL A   1      38.880  31.344  30.674  1.00  0.00    +0.000 H 
ATOM     33  C26 UNL A   1      39.690  28.904  29.441  1.00  0.00    +0.000 C 
ATOM     34  C27 UNL A   1      40.499  29.789  30.348  1.00  0.00    +0.000 C 
ATOM     35  N3  UNL A   1      41.728  29.639  30.771  1.00  0.00    +0.000 N 
ATOM     36  C28 UNL A   1      42.005  30.764  31.538  1.00  0.00    +0.000 C 
ATOM     37  C29 UNL A   1      43.131  31.055  32.231  1.00  0.00    +0.000 C 
ATOM     49  C36 UNL A   1      44.279  30.191  32.309  1.00  0.00    +0.000 C 
ATOM     50  C37 UNL A   1      45.433  30.353  33.055  1.00  0.00    +0.000 C 
ATOM     51  C38 UNL A   1      46.288  29.282  32.776  1.00  0.00    +0.000 C 
ATOM     52  C39 UNL A   1      45.648  28.429  31.892  1.00  0.00    +0.000 C 
ATOM     53  N4  UNL A   1      44.416  28.999  31.611  1.00  0.00    +0.000 N 
ATOM     54  C40 UNL A   1      46.126  27.188  31.338  1.00  0.00    +0.000 C 
ATOM     66  C47 UNL A   1      45.431  26.398  30.485  1.00  0.00    +0.000 C 
ATOM     67  N5  UNL A   1      44.152  26.576  29.975  1.00  0.00    +0.000 N 
ATOM     68  C48 UNL A   1      43.932  25.550  29.188  1.00  0.00    +0.000 C 
ATOM     69  C49 UNL A   1      42.699  25.205  28.398  1.00  0.00    +0.000 C 
ATOM     81  C56 UNL A   1      41.628  26.018  28.467  1.00  0.00    +0.000 C 
ATOM     82  C57 UNL A   1      40.365  25.818  27.764  1.00  0.00    +0.000 C 
ATOM     83  C58 UNL A   1      39.547  26.848  28.033  1.00  0.00    +0.000 C 
ATOM     84  C59 UNL A   1      40.218  27.764  28.957  1.00  0.00    +0.000 C 
ATOM     85  N6  UNL A   1      41.446  27.187  29.164  1.00  0.00    +0.000 N 
ATOM     86  C60 UNL A   1      45.065  24.621  29.085  1.00  0.00    +0.000 C 
ATOM     87  C61 UNL A   1      45.935  25.160  29.927  1.00  0.00    +0.000 C 
ATOM     88  C62 UNL A   1      40.831  31.608  31.491  1.00  0.00    +0.000 C 
ATOM     89  C63 UNL A   1      39.848  31.021  30.823  1.00  0.00    +0.000 C 
ATOM    125  H34 UNL A   1      45.628  31.130  33.705  1.00  0.00    +0.000 H 
ATOM    126  H35 UNL A   1      47.235  29.150  33.165  1.00  0.00    +0.000 H 
ATOM    127  H36 UNL A   1      43.740  28.616  31.008  1.00  0.00    +0.000 H 
ATOM    128  H37 UNL A   1      40.137  25.015  27.157  1.00  0.00    +0.000 H 
ENDROOT
BRANCH   33   32
ATOM    123  H32 UNL A   1      36.650  30.579  26.390  1.00  0.00    +0.000 H 
ATOM    136  H45 UNL A   1      35.186  29.451  30.170  1.00  0.00    +0.000 H 
ATOM    135  H44 UNL A   1      37.436  28.900  30.882  1.00  0.00    +0.000 H 
ATOM     90  C64 UNL A   1      37.266  29.231  29.919  1.00  0.00    +0.000 C 
ATOM     91  C65 UNL A   1      35.980  29.587  29.525  1.00  0.00    +0.000 C 
ATOM    124  H33 UNL A   1      38.866  29.825  27.029  1.00  0.00    +0.000 H 
ATOM     29  C22 UNL A   1      35.764  30.129  28.254  1.00  0.00    +0.000 C 
ATOM     30  C23 UNL A   1      36.816  30.210  27.339  1.00  0.00    +0.000 C 
ATOM     31  C24 UNL A   1      38.093  29.790  27.712  1.00  0.00    +0.000 C 
ATOM     32  C25 UNL A   1      38.333  29.319  29.013  1.00  0.00    +0.000 C 
BRANCH   29   27
ATOM     27  C21 UNL A   1      34.416  30.565  27.833  1.00  0.00    +0.000 C 
ATOM     28  O4  UNL A   1      33.967  31.639  28.223  1.00  0.00    +0.000 O 
BRANCH   27   26
ATOM     26  N2  UNL A   1      33.674  29.781  26.987  1.00  0.00    +0.000 N 
ATOM    122  H31 UNL A   1      33.219  30.253  26.252  1.00  0.00    +0.000 H 
BRANCH   26   25
ATOM     25  C20 UNL A   1      33.474  28.341  27.037  1.00  0.00    +0.000 C 
ATOM    121  H30 UNL A   1      32.432  28.147  26.897  1.00  0.00    +0.000 H 
ATOM    120  H29 UNL A   1      33.812  27.979  27.986  1.00  0.00    +0.000 H 
BRANCH   25   24
ATOM    118  H27 UNL A   1      35.078  28.227  25.654  1.00  0.00    +0.000 H 
ATOM    119  H28 UNL A   1      34.525  26.669  26.335  1.00  0.00    +0.000 H 
ATOM     24  C19 UNL A   1      34.243  27.618  25.931  1.00  0.00    +0.000 C 
BRANCH   24   23
ATOM    116  H25 UNL A   1      34.011  26.669  24.045  1.00  0.00    +0.000 H 
ATOM    117  H26 UNL A   1      32.509  26.890  25.002  1.00  0.00    +0.000 H 
ATOM     23  C18 UNL A   1      33.430  27.321  24.665  1.00  0.00    +0.000 C 
BRANCH   23   22
ATOM    114  H23 UNL A   1      33.701  29.348  24.073  1.00  0.00    +0.000 H 
ATOM    115  H24 UNL A   1      33.115  28.252  22.799  1.00  0.00    +0.000 H 
ATOM     22  C17 UNL A   1      33.039  28.543  23.826  1.00  0.00    +0.000 C 
BRANCH   22   21
ATOM    113  H22 UNL A   1      31.655  30.041  24.339  1.00  0.00    +0.000 H 
ATOM     21  C16 UNL A   1      31.607  29.012  24.050  1.00  0.00    +0.000 C 
ATOM    112  H21 UNL A   1      31.164  28.398  24.808  1.00  0.00    +0.000 H 
BRANCH   21   20
ATOM     20  C15 UNL A   1      30.737  28.937  22.799  1.00  0.00    +0.000 C 
ATOM    110  H19 UNL A   1      29.838  29.493  22.961  1.00  0.00    +0.000 H 
ATOM    111  H20 UNL A   1      31.283  29.348  21.975  1.00  0.00    +0.000 H 
BRANCH   20   19
ATOM     19  N1  UNL A   1      30.399  27.565  22.496  1.00  0.00    +0.000 N 
ATOM    109  H18 UNL A   1      30.630  27.254  21.591  1.00  0.00    +0.000 H 
BRANCH   19   17
ATOM     17  C14 UNL A   1      29.803  26.649  23.306  1.00  0.00    +0.000 C 
ATOM     18  O3  UNL A   1      28.716  26.922  23.816  1.00  0.00    +0.000 O 
BRANCH   17   16
ATOM    107  H16 UNL A   1      30.975  25.386  24.528  1.00  0.00    +0.000 H 
ATOM    108  H17 UNL A   1      29.731  24.570  23.558  1.00  0.00    +0.000 H 
ATOM     16  C13 UNL A   1      30.487  25.327  23.577  1.00  0.00    +0.000 C 
BRANCH   16   15
ATOM    105  H14 UNL A   1      31.008  24.458  21.727  1.00  0.00    +0.000 H 
ATOM    106  H15 UNL A   1      31.990  25.883  22.267  1.00  0.00    +0.000 H 
ATOM     15  C12 UNL A   1      31.526  24.954  22.522  1.00  0.00    +0.000 C 
BRANCH   15   14
ATOM     14  C11 UNL A   1      32.696  24.046  22.943  1.00  0.00    +0.000 C 
ATOM    103  H12 UNL A   1      33.595  24.453  22.532  1.00  0.00    +0.000 H 
ATOM    104  H13 UNL A   1      32.682  24.024  24.013  1.00  0.00    +0.000 H 
BRANCH   14   13
ATOM    101  H10 UNL A   1      31.809  22.532  21.758  1.00  0.00    +0.000 H 
ATOM     13  C10 UNL A   1      32.588  22.584  22.490  1.00  0.00    +0.000 C 
ATOM    102  H11 UNL A   1      33.568  22.338  22.137  1.00  0.00    +0.000 H 
BRANCH   13   12
ATOM    100  H9  UNL A   1      31.849  20.738  22.982  1.00  0.00    +0.000 H 
ATOM     99  H8  UNL A   1      31.685  22.014  24.301  1.00  0.00    +0.000 H 
ATOM     12  C9  UNL A   1      32.283  21.527  23.560  1.00  0.00    +0.000 C 
BRANCH   12   11
ATOM     11  S1  UNL A   1      33.616  20.657  24.465  1.00  0.00    +0.000 S 
BRANCH   11   10
ATOM     97  H6  UNL A   1      37.947  22.795  24.341  1.00  0.00    +0.000 H 
ATOM     98  H7  UNL A   1      36.236  21.229  23.644  1.00  0.00    +0.000 H 
ATOM      5  C3  UNL A   1      34.459  22.941  25.892  1.00  0.00    +0.000 C 
ATOM      6  C4  UNL A   1      35.452  23.850  26.296  1.00  0.00    +0.000 C 
ATOM      7  C5  UNL A   1      36.728  23.788  25.742  1.00  0.00    +0.000 C 
ATOM      8  C6  UNL A   1      37.009  22.833  24.771  1.00  0.00    +0.000 C 
ATOM      9  C7  UNL A   1      36.021  21.923  24.377  1.00  0.00    +0.000 C 
ATOM     10  C8  UNL A   1      34.739  21.936  24.958  1.00  0.00    +0.000 C 
ATOM     95  H4  UNL A   1      35.234  24.566  27.005  1.00  0.00    +0.000 H 
ATOM     96  H5  UNL A   1      37.460  24.447  26.050  1.00  0.00    +0.000 H 
BRANCH    5    4
ATOM      4  O2  UNL A   1      33.278  23.034  26.699  1.00  0.00    +0.000 O 
BRANCH    4    2
ATOM      2  C2  UNL A   1      32.093  23.783  26.665  1.00  0.00    +0.000 C 
ATOM      3  O1  UNL A   1      31.975  24.997  26.713  1.00  0.00    +0.000 O 
BRANCH    2    1
ATOM      1  C1  UNL A   1      30.946  22.819  26.575  1.00  0.00    +0.000 C 
ATOM     92  H1  UNL A   1      31.304  21.869  26.238  1.00  0.00    +0.000 H 
ATOM     93  H2  UNL A   1      30.221  23.192  25.882  1.00  0.00    +0.000 H 
ATOM     94  H3  UNL A   1      30.495  22.710  27.539  1.00  0.00    +0.000 H 
ENDBRANCH    2    1
ENDBRANCH    4    2
ENDBRANCH    5    4
ENDBRANCH   11   10
ENDBRANCH   12   11
ENDBRANCH   13   12
ENDBRANCH   14   13
ENDBRANCH   15   14
ENDBRANCH   16   15
ENDBRANCH   17   16
ENDBRANCH   19   17
ENDBRANCH   20   19
ENDBRANCH   21   20
ENDBRANCH   22   21
ENDBRANCH   23   22
ENDBRANCH   24   23
ENDBRANCH   25   24
ENDBRANCH   26   25
ENDBRANCH   27   26
ENDBRANCH   29   27
ENDBRANCH   33   32
BRANCH   37   38
ATOM     38  C30 UNL A   1      43.181  32.362  32.967  1.00  0.00    +0.000 C 
ATOM     39  C31 UNL A   1      42.765  32.472  34.302  1.00  0.00    +0.000 C 
ATOM     40  F1  UNL A   1      42.249  31.411  34.938  1.00  0.00    +0.000 F 
ATOM     41  C32 UNL A   1      42.849  33.687  34.980  1.00  0.00    +0.000 C 
ATOM     42  F2  UNL A   1      42.407  33.778  36.242  1.00  0.00    +0.000 F 
ATOM     43  C33 UNL A   1      43.379  34.802  34.349  1.00  0.00    +0.000 C 
ATOM     44  F3  UNL A   1      43.469  35.966  35.006  1.00  0.00    +0.000 F 
ATOM     45  C34 UNL A   1      43.812  34.711  33.035  1.00  0.00    +0.000 C 
ATOM     46  F4  UNL A   1      44.335  35.785  32.427  1.00  0.00    +0.000 F 
ATOM     47  C35 UNL A   1      43.703  33.506  32.345  1.00  0.00    +0.000 C 
ATOM     48  F5  UNL A   1      44.121  33.453  31.071  1.00  0.00    +0.000 F 
ENDBRANCH   37   38
BRANCH   54   55
ATOM     65  F10 UNL A   1      46.567  25.498  33.578  1.00  0.00    +0.000 F 
ATOM     55  C41 UNL A   1      47.488  26.718  31.754  1.00  0.00    +0.000 C 
ATOM     56  C42 UNL A   1      48.644  27.110  31.063  1.00  0.00    +0.000 C 
ATOM     57  F6  UNL A   1      48.547  27.883  29.971  1.00  0.00    +0.000 F 
ATOM     58  C43 UNL A   1      49.902  26.677  31.472  1.00  0.00    +0.000 C 
ATOM     59  F7  UNL A   1      50.989  27.027  30.771  1.00  0.00    +0.000 F 
ATOM     60  C44 UNL A   1      50.031  25.873  32.595  1.00  0.00    +0.000 C 
ATOM     61  F8  UNL A   1      51.243  25.462  32.990  1.00  0.00    +0.000 F 
ATOM     62  C45 UNL A   1      48.903  25.488  33.302  1.00  0.00    +0.000 C 
ATOM     63  F9  UNL A   1      49.027  24.721  34.395  1.00  0.00    +0.000 F 
ATOM     64  C46 UNL A   1      47.641  25.896  32.880  1.00  0.00    +0.000 C 
ENDBRANCH   54   55
BRANCH   69   70
ATOM     70  C50 UNL A   1      42.647  23.971  27.574  1.00  0.00    +0.000 C 
ATOM     71  C51 UNL A   1      42.290  22.742  28.147  1.00  0.00    +0.000 C 
ATOM     72  F11 UNL A   1      41.996  22.674  29.454  1.00  0.00    +0.000 F 
ATOM     73  C52 UNL A   1      42.278  21.572  27.391  1.00  0.00    +0.000 C 
ATOM     74  F12 UNL A   1      41.980  20.404  27.976  1.00  0.00    +0.000 F 
ATOM     75  C53 UNL A   1      42.591  21.613  26.041  1.00  0.00    +0.000 C 
ATOM     76  F13 UNL A   1      42.579  20.487  25.315  1.00  0.00    +0.000 F 
ATOM     77  C54 UNL A   1      42.925  22.821  25.447  1.00  0.00    +0.000 C 
ATOM     78  F14 UNL A   1      43.215  22.865  24.140  1.00  0.00    +0.000 F 
ATOM     79  C55 UNL A   1      42.965  23.986  26.208  1.00  0.00    +0.000 C 
ATOM     80  F15 UNL A   1      43.306  25.137  25.611  1.00  0.00    +0.000 F 
ENDBRANCH   69   70
TORSDOF 24
ENDMDL
MODEL 9
REMARK VINA RESULT:      -9.1      2.906      4.325
ROOT
ATOM    129  H38 UNL A   1      38.818  26.820  27.600  1.00  0.00    +0.000 H 
ATOM    130  H39 UNL A   1      42.481  27.512  29.437  1.00  0.00    +0.000 H 
ATOM    131  H40 UNL A   1      45.433  23.658  28.156  1.00  0.00    +0.000 H 
ATOM    132  H41 UNL A   1      47.231  24.711  29.642  1.00  0.00    +0.000 H 
ATOM    133  H42 UNL A   1      41.251  32.573  31.467  1.00  0.00    +0.000 H 
ATOM    134  H43 UNL A   1      39.289  31.320  30.403  1.00  0.00    +0.000 H 
ATOM     33  C26 UNL A   1      40.022  28.828  29.227  1.00  0.00    +0.000 C 
ATOM     34  C27 UNL A   1      40.887  29.752  30.038  1.00  0.00    +0.000 C 
ATOM     35  N3  UNL A   1      42.142  29.621  30.383  1.00  0.00    +0.000 N 
ATOM     36  C28 UNL A   1      42.467  30.779  31.080  1.00  0.00    +0.000 C 
ATOM     37  C29 UNL A   1      43.635  31.100  31.682  1.00  0.00    +0.000 C 
ATOM     49  C36 UNL A   1      44.789  30.240  31.721  1.00  0.00    +0.000 C 
ATOM     50  C37 UNL A   1      45.989  30.435  32.380  1.00  0.00    +0.000 C 
ATOM     51  C38 UNL A   1      46.827  29.353  32.092  1.00  0.00    +0.000 C 
ATOM     52  C39 UNL A   1      46.132  28.462  31.291  1.00  0.00    +0.000 C 
ATOM     53  N4  UNL A   1      44.883  29.019  31.069  1.00  0.00    +0.000 N 
ATOM     54  C40 UNL A   1      46.576  27.198  30.762  1.00  0.00    +0.000 C 
ATOM     66  C47 UNL A   1      45.828  26.370  29.992  1.00  0.00    +0.000 C 
ATOM     67  N5  UNL A   1      44.517  26.525  29.562  1.00  0.00    +0.000 N 
ATOM     68  C48 UNL A   1      44.248  25.466  28.838  1.00  0.00    +0.000 C 
ATOM     69  C49 UNL A   1      42.966  25.087  28.149  1.00  0.00    +0.000 C 
ATOM     81  C56 UNL A   1      41.900  25.901  28.253  1.00  0.00    +0.000 C 
ATOM     82  C57 UNL A   1      40.592  25.671  27.646  1.00  0.00    +0.000 C 
ATOM     83  C58 UNL A   1      39.791  26.711  27.924  1.00  0.00    +0.000 C 
ATOM     84  C59 UNL A   1      40.520  27.668  28.760  1.00  0.00    +0.000 C 
ATOM     85  N6  UNL A   1      41.760  27.100  28.909  1.00  0.00    +0.000 N 
ATOM     86  C60 UNL A   1      45.375  24.533  28.700  1.00  0.00    +0.000 C 
ATOM     87  C61 UNL A   1      46.297  25.110  29.458  1.00  0.00    +0.000 C 
ATOM     88  C62 UNL A   1      41.290  31.619  31.075  1.00  0.00    +0.000 C 
ATOM     89  C63 UNL A   1      40.266  31.003  30.500  1.00  0.00    +0.000 C 
ATOM    125  H34 UNL A   1      46.226  31.241  32.980  1.00  0.00    +0.000 H 
ATOM    126  H35 UNL A   1      47.799  29.238  32.421  1.00  0.00    +0.000 H 
ATOM    127  H36 UNL A   1      44.169  28.610  30.530  1.00  0.00    +0.000 H 
ATOM    128  H37 UNL A   1      40.327  24.841  27.092  1.00  0.00    +0.000 H 
ENDROOT
BRANCH   33   32
ATOM    123  H32 UNL A   1      35.511  29.314  30.106  1.00  0.00    +0.000 H 
ATOM    136  H45 UNL A   1      36.907  30.603  26.352  1.00  0.00    +0.000 H 
ATOM    135  H44 UNL A   1      39.136  29.832  26.910  1.00  0.00    +0.000 H 
ATOM     90  C64 UNL A   1      38.372  29.746  27.599  1.00  0.00    +0.000 C 
ATOM     91  C65 UNL A   1      37.085  30.151  27.262  1.00  0.00    +0.000 C 
ATOM    124  H33 UNL A   1      37.780  28.740  30.747  1.00  0.00    +0.000 H 
ATOM     29  C22 UNL A   1      36.030  29.944  28.157  1.00  0.00    +0.000 C 
ATOM     30  C23 UNL A   1      36.285  29.435  29.434  1.00  0.00    +0.000 C 
ATOM     31  C24 UNL A   1      37.587  29.092  29.796  1.00  0.00    +0.000 C 
ATOM     32  C25 UNL A   1      38.638  29.223  28.874  1.00  0.00    +0.000 C 
BRANCH   29   27
ATOM     27  C21 UNL A   1      34.645  30.315  27.799  1.00  0.00    +0.000 C 
ATOM     28  O4  UNL A   1      34.129  31.313  28.295  1.00  0.00    +0.000 O 
BRANCH   27   26
ATOM     26  N2  UNL A   1      33.943  29.559  26.896  1.00  0.00    +0.000 N 
ATOM    122  H31 UNL A   1      33.910  29.909  25.977  1.00  0.00    +0.000 H 
BRANCH   26   25
ATOM     25  C20 UNL A   1      33.241  28.306  27.125  1.00  0.00    +0.000 C 
ATOM    121  H30 UNL A   1      33.102  28.192  28.179  1.00  0.00    +0.000 H 
ATOM    120  H29 UNL A   1      33.826  27.504  26.723  1.00  0.00    +0.000 H 
BRANCH   25   24
ATOM    118  H27 UNL A   1      31.230  27.641  27.026  1.00  0.00    +0.000 H 
ATOM    119  H28 UNL A   1      31.527  29.308  26.451  1.00  0.00    +0.000 H 
ATOM     24  C19 UNL A   1      31.864  28.292  26.462  1.00  0.00    +0.000 C 
BRANCH   24   23
ATOM    116  H25 UNL A   1      32.623  28.348  24.479  1.00  0.00    +0.000 H 
ATOM    117  H26 UNL A   1      31.999  26.761  25.035  1.00  0.00    +0.000 H 
ATOM     23  C18 UNL A   1      31.852  27.821  25.002  1.00  0.00    +0.000 C 
BRANCH   23   22
ATOM    114  H23 UNL A   1      29.753  27.545  24.783  1.00  0.00    +0.000 H 
ATOM    115  H24 UNL A   1      30.385  29.097  24.184  1.00  0.00    +0.000 H 
ATOM     22  C17 UNL A   1      30.536  28.039  24.246  1.00  0.00    +0.000 C 
BRANCH   22   21
ATOM    113  H22 UNL A   1      30.202  28.296  22.186  1.00  0.00    +0.000 H 
ATOM     21  C16 UNL A   1      30.550  27.507  22.818  1.00  0.00    +0.000 C 
ATOM    112  H21 UNL A   1      29.918  26.643  22.773  1.00  0.00    +0.000 H 
BRANCH   21   20
ATOM     20  C15 UNL A   1      31.940  27.116  22.327  1.00  0.00    +0.000 C 
ATOM    110  H19 UNL A   1      32.255  27.808  21.575  1.00  0.00    +0.000 H 
ATOM    111  H20 UNL A   1      32.617  27.135  23.155  1.00  0.00    +0.000 H 
BRANCH   20   19
ATOM     19  N1  UNL A   1      31.925  25.782  21.769  1.00  0.00    +0.000 N 
ATOM    109  H18 UNL A   1      31.400  25.667  20.944  1.00  0.00    +0.000 H 
BRANCH   19   17
ATOM     17  C14 UNL A   1      32.547  24.668  22.241  1.00  0.00    +0.000 C 
ATOM     18  O3  UNL A   1      33.122  23.924  21.445  1.00  0.00    +0.000 O 
BRANCH   17   16
ATOM    107  H16 UNL A   1      33.279  23.642  23.936  1.00  0.00    +0.000 H 
ATOM    108  H17 UNL A   1      32.657  25.278  24.243  1.00  0.00    +0.000 H 
ATOM     16  C13 UNL A   1      32.510  24.355  23.720  1.00  0.00    +0.000 C 
BRANCH   16   15
ATOM    105  H14 UNL A   1      30.461  23.964  23.406  1.00  0.00    +0.000 H 
ATOM    106  H15 UNL A   1      31.383  22.753  24.391  1.00  0.00    +0.000 H 
ATOM     15  C12 UNL A   1      31.173  23.781  24.185  1.00  0.00    +0.000 C 
BRANCH   15   14
ATOM     14  C11 UNL A   1      30.567  24.318  25.494  1.00  0.00    +0.000 C 
ATOM    103  H12 UNL A   1      30.111  25.263  25.284  1.00  0.00    +0.000 H 
ATOM    104  H13 UNL A   1      29.878  23.572  25.829  1.00  0.00    +0.000 H 
BRANCH   14   13
ATOM    101  H10 UNL A   1      32.318  25.193  26.299  1.00  0.00    +0.000 H 
ATOM     13  C10 UNL A   1      31.562  24.520  26.644  1.00  0.00    +0.000 C 
ATOM    102  H11 UNL A   1      30.967  24.875  27.459  1.00  0.00    +0.000 H 
BRANCH   13   12
ATOM    100  H9  UNL A   1      31.854  22.492  26.602  1.00  0.00    +0.000 H 
ATOM     99  H8  UNL A   1      32.098  23.275  28.252  1.00  0.00    +0.000 H 
ATOM     12  C9  UNL A   1      32.273  23.277  27.196  1.00  0.00    +0.000 C 
BRANCH   12   11
ATOM     11  S1  UNL A   1      34.072  23.013  26.973  1.00  0.00    +0.000 S 
BRANCH   11   10
ATOM     97  H6  UNL A   1      32.095  19.237  24.697  1.00  0.00    +0.000 H 
ATOM     98  H7  UNL A   1      32.093  21.339  25.901  1.00  0.00    +0.000 H 
ATOM      5  C3  UNL A   1      35.391  20.981  25.524  1.00  0.00    +0.000 C 
ATOM      6  C4  UNL A   1      35.391  19.763  24.826  1.00  0.00    +0.000 C 
ATOM      7  C5  UNL A   1      34.191  19.118  24.537  1.00  0.00    +0.000 C 
ATOM      8  C6  UNL A   1      32.989  19.699  24.926  1.00  0.00    +0.000 C 
ATOM      9  C7  UNL A   1      32.992  20.910  25.630  1.00  0.00    +0.000 C 
ATOM     10  C8  UNL A   1      34.194  21.554  25.975  1.00  0.00    +0.000 C 
ATOM     95  H4  UNL A   1      36.284  19.343  24.526  1.00  0.00    +0.000 H 
ATOM     96  H5  UNL A   1      34.194  18.215  24.037  1.00  0.00    +0.000 H 
BRANCH    5    4
ATOM      4  O2  UNL A   1      36.713  21.396  25.893  1.00  0.00    +0.000 O 
BRANCH    4    2
ATOM      2  C2  UNL A   1      37.577  22.439  25.533  1.00  0.00    +0.000 C 
ATOM      3  O1  UNL A   1      37.308  23.449  24.902  1.00  0.00    +0.000 O 
BRANCH    2    1
ATOM      1  C1  UNL A   1      38.944  22.099  26.051  1.00  0.00    +0.000 C 
ATOM     92  H1  UNL A   1      39.613  21.955  25.229  1.00  0.00    +0.000 H 
ATOM     93  H2  UNL A   1      38.893  21.199  26.629  1.00  0.00    +0.000 H 
ATOM     94  H3  UNL A   1      39.301  22.897  26.667  1.00  0.00    +0.000 H 
ENDBRANCH    2    1
ENDBRANCH    4    2
ENDBRANCH    5    4
ENDBRANCH   11   10
ENDBRANCH   12   11
ENDBRANCH   13   12
ENDBRANCH   14   13
ENDBRANCH   15   14
ENDBRANCH   16   15
ENDBRANCH   17   16
ENDBRANCH   19   17
ENDBRANCH   20   19
ENDBRANCH   21   20
ENDBRANCH   22   21
ENDBRANCH   23   22
ENDBRANCH   24   23
ENDBRANCH   25   24
ENDBRANCH   26   25
ENDBRANCH   27   26
ENDBRANCH   29   27
ENDBRANCH   33   32
BRANCH   37   38
ATOM     38  C30 UNL A   1      43.731  32.438  32.354  1.00  0.00    +0.000 C 
ATOM     39  C31 UNL A   1      43.392  32.610  33.705  1.00  0.00    +0.000 C 
ATOM     40  F1  UNL A   1      42.909  31.581  34.416  1.00  0.00    +0.000 F 
ATOM     41  C32 UNL A   1      43.517  33.853  34.321  1.00  0.00    +0.000 C 
ATOM     42  F2  UNL A   1      43.147  34.004  35.601  1.00  0.00    +0.000 F 
ATOM     43  C33 UNL A   1      44.013  34.936  33.612  1.00  0.00    +0.000 C 
ATOM     44  F3  UNL A   1      44.144  36.129  34.211  1.00  0.00    +0.000 F 
ATOM     45  C34 UNL A   1      44.371  34.784  32.281  1.00  0.00    +0.000 C 
ATOM     46  F4  UNL A   1      44.862  35.827  31.597  1.00  0.00    +0.000 F 
ATOM     47  C35 UNL A   1      44.221  33.551  31.654  1.00  0.00    +0.000 C 
ATOM     48  F5  UNL A   1      44.565  33.439  30.362  1.00  0.00    +0.000 F 
ENDBRANCH   37   38
BRANCH   54   55
ATOM     65  F10 UNL A   1      47.163  25.559  33.006  1.00  0.00    +0.000 F 
ATOM     55  C41 UNL A   1      47.965  26.747  31.105  1.00  0.00    +0.000 C 
ATOM     56  C42 UNL A   1      49.074  27.133  30.339  1.00  0.00    +0.000 C 
ATOM     57  F6  UNL A   1      48.906  27.881  29.238  1.00  0.00    +0.000 F 
ATOM     58  C43 UNL A   1      50.357  26.717  30.681  1.00  0.00    +0.000 C 
ATOM     59  F7  UNL A   1      51.398  27.060  29.909  1.00  0.00    +0.000 F 
ATOM     60  C44 UNL A   1      50.560  25.938  31.811  1.00  0.00    +0.000 C 
ATOM     61  F8  UNL A   1      51.797  25.545  32.141  1.00  0.00    +0.000 F 
ATOM     62  C45 UNL A   1      49.479  25.560  32.592  1.00  0.00    +0.000 C 
ATOM     63  F9  UNL A   1      49.674  24.818  33.691  1.00  0.00    +0.000 F 
ATOM     64  C46 UNL A   1      48.191  25.950  32.238  1.00  0.00    +0.000 C 
ENDBRANCH   54   55
BRANCH   69   70
ATOM     70  C50 UNL A   1      42.862  23.817  27.385  1.00  0.00    +0.000 C 
ATOM     71  C51 UNL A   1      42.381  22.650  27.997  1.00  0.00    +0.000 C 
ATOM     72  F11 UNL A   1      42.015  22.675  29.287  1.00  0.00    +0.000 F 
ATOM     73  C52 UNL A   1      42.319  21.446  27.301  1.00  0.00    +0.000 C 
ATOM     74  F12 UNL A   1      41.902  20.336  27.925  1.00  0.00    +0.000 F 
ATOM     75  C53 UNL A   1      42.706  21.391  25.970  1.00  0.00    +0.000 C 
ATOM     76  F13 UNL A   1      42.646  20.231  25.301  1.00  0.00    +0.000 F 
ATOM     77  C54 UNL A   1      43.163  22.536  25.337  1.00  0.00    +0.000 C 
ATOM     78  F14 UNL A   1      43.525  22.489  24.048  1.00  0.00    +0.000 F 
ATOM     79  C55 UNL A   1      43.253  23.735  26.040  1.00  0.00    +0.000 C 
ATOM     80  F15 UNL A   1      43.713  24.824  25.408  1.00  0.00    +0.000 F 
ENDBRANCH   69   70
TORSDOF 24
ENDMDL
MODEL 10
REMARK VINA RESULT:      -9.0     18.163     23.242
ROOT
ATOM    129  H38 UNL A   1      25.815  34.351  44.056  1.00  0.00    +0.000 H 
ATOM    130  H39 UNL A   1      27.605  37.595  45.940  1.00  0.00    +0.000 H 
ATOM    131  H40 UNL A   1      32.441  37.496  44.591  1.00  0.00    +0.000 H 
ATOM    132  H41 UNL A   1      32.772  39.523  46.117  1.00  0.00    +0.000 H 
ATOM    133  H42 UNL A   1      22.924  39.776  48.079  1.00  0.00    +0.000 H 
ATOM    134  H43 UNL A   1      22.650  37.485  46.969  1.00  0.00    +0.000 H 
ATOM     33  C26 UNL A   1      25.033  36.514  45.740  1.00  0.00    +0.000 C 
ATOM     34  C27 UNL A   1      24.869  37.750  46.580  1.00  0.00    +0.000 C 
ATOM     35  N3  UNL A   1      25.765  38.637  46.933  1.00  0.00    +0.000 N 
ATOM     36  C28 UNL A   1      25.078  39.601  47.659  1.00  0.00    +0.000 C 
ATOM     37  C29 UNL A   1      25.571  40.699  48.279  1.00  0.00    +0.000 C 
ATOM     49  C36 UNL A   1      26.966  41.055  48.307  1.00  0.00    +0.000 C 
ATOM     50  C37 UNL A   1      27.578  42.097  48.980  1.00  0.00    +0.000 C 
ATOM     51  C38 UNL A   1      28.942  42.074  48.673  1.00  0.00    +0.000 C 
ATOM     52  C39 UNL A   1      29.187  40.991  47.846  1.00  0.00    +0.000 C 
ATOM     53  N4  UNL A   1      27.966  40.374  47.627  1.00  0.00    +0.000 N 
ATOM     54  C40 UNL A   1      30.442  40.553  47.290  1.00  0.00    +0.000 C 
ATOM     66  C47 UNL A   1      30.605  39.467  46.495  1.00  0.00    +0.000 C 
ATOM     67  N5  UNL A   1      29.654  38.555  46.058  1.00  0.00    +0.000 N 
ATOM     68  C48 UNL A   1      30.299  37.696  45.306  1.00  0.00    +0.000 C 
ATOM     69  C49 UNL A   1      29.778  36.475  44.597  1.00  0.00    +0.000 C 
ATOM     81  C56 UNL A   1      28.476  36.156  44.712  1.00  0.00    +0.000 C 
ATOM     82  C57 UNL A   1      27.825  35.008  44.090  1.00  0.00    +0.000 C 
ATOM     83  C58 UNL A   1      26.517  35.032  44.385  1.00  0.00    +0.000 C 
ATOM     84  C59 UNL A   1      26.242  36.182  45.249  1.00  0.00    +0.000 C 
ATOM     85  N6  UNL A   1      27.465  36.787  45.396  1.00  0.00    +0.000 N 
ATOM     86  C60 UNL A   1      31.731  37.988  45.156  1.00  0.00    +0.000 C 
ATOM     87  C61 UNL A   1      31.873  39.051  45.935  1.00  0.00    +0.000 C 
ATOM     88  C62 UNL A   1      23.684  39.215  47.664  1.00  0.00    +0.000 C 
ATOM     89  C63 UNL A   1      23.512  38.044  47.067  1.00  0.00    +0.000 C 
ATOM    125  H34 UNL A   1      27.108  42.773  49.602  1.00  0.00    +0.000 H 
ATOM    126  H35 UNL A   1      29.646  42.750  49.008  1.00  0.00    +0.000 H 
ATOM    127  H36 UNL A   1      27.828  39.574  47.072  1.00  0.00    +0.000 H 
ATOM    128  H37 UNL A   1      28.296  34.292  43.514  1.00  0.00    +0.000 H 
ENDROOT
BRANCH   33   32
ATOM    123  H32 UNL A   1      22.240  32.865  46.222  1.00  0.00    +0.000 H 
ATOM    136  H45 UNL A   1      21.236  35.702  43.281  1.00  0.00    +0.000 H 
ATOM    135  H44 UNL A   1      23.244  36.956  43.799  1.00  0.00    +0.000 H 
ATOM     90  C64 UNL A   1      23.018  36.102  44.332  1.00  0.00    +0.000 C 
ATOM     91  C65 UNL A   1      21.886  35.360  44.006  1.00  0.00    +0.000 C 
ATOM    124  H33 UNL A   1      24.132  34.231  46.887  1.00  0.00    +0.000 H 
ATOM     29  C22 UNL A   1      21.632  34.151  44.660  1.00  0.00    +0.000 C 
ATOM     30  C23 UNL A   1      22.447  33.741  45.718  1.00  0.00    +0.000 C 
ATOM     31  C24 UNL A   1      23.544  34.519  46.089  1.00  0.00    +0.000 C 
ATOM     32  C25 UNL A   1      23.851  35.694  45.385  1.00  0.00    +0.000 C 
BRANCH   29   27
ATOM     27  C21 UNL A   1      20.467  33.319  44.292  1.00  0.00    +0.000 C 
ATOM     28  O4  UNL A   1      20.573  32.097  44.251  1.00  0.00    +0.000 O 
BRANCH   27   26
ATOM     26  N2  UNL A   1      19.260  33.910  44.020  1.00  0.00    +0.000 N 
ATOM    122  H31 UNL A   1      19.025  33.988  43.067  1.00  0.00    +0.000 H 
BRANCH   26   25
ATOM     25  C20 UNL A   1      18.282  34.435  44.960  1.00  0.00    +0.000 C 
ATOM    121  H30 UNL A   1      18.263  35.499  44.858  1.00  0.00    +0.000 H 
ATOM    120  H29 UNL A   1      18.565  34.146  45.951  1.00  0.00    +0.000 H 
BRANCH   25   24
ATOM    118  H27 UNL A   1      16.945  32.858  44.488  1.00  0.00    +0.000 H 
ATOM    119  H28 UNL A   1      16.287  34.147  45.538  1.00  0.00    +0.000 H 
ATOM     24  C19 UNL A   1      16.875  33.909  44.677  1.00  0.00    +0.000 C 
BRANCH   24   23
ATOM    116  H25 UNL A   1      15.360  35.152  43.859  1.00  0.00    +0.000 H 
ATOM    117  H26 UNL A   1      16.918  35.129  42.972  1.00  0.00    +0.000 H 
ATOM     23  C18 UNL A   1      16.168  34.561  43.481  1.00  0.00    +0.000 C 
BRANCH   23   22
ATOM    114  H23 UNL A   1      14.894  32.947  42.930  1.00  0.00    +0.000 H 
ATOM    115  H24 UNL A   1      15.139  34.189  41.678  1.00  0.00    +0.000 H 
ATOM     22  C17 UNL A   1      15.595  33.592  42.441  1.00  0.00    +0.000 C 
BRANCH   22   21
ATOM    113  H22 UNL A   1      17.602  33.045  42.125  1.00  0.00    +0.000 H 
ATOM     21  C16 UNL A   1      16.649  32.727  41.759  1.00  0.00    +0.000 C 
ATOM    112  H21 UNL A   1      16.558  32.856  40.699  1.00  0.00    +0.000 H 
BRANCH   21   20
ATOM     20  C15 UNL A   1      16.517  31.241  42.078  1.00  0.00    +0.000 C 
ATOM    110  H19 UNL A   1      15.600  31.073  42.601  1.00  0.00    +0.000 H 
ATOM    111  H20 UNL A   1      16.526  30.689  41.160  1.00  0.00    +0.000 H 
BRANCH   20   19
ATOM     19  N1  UNL A   1      17.621  30.798  42.899  1.00  0.00    +0.000 N 
ATOM    109  H18 UNL A   1      18.423  31.369  42.886  1.00  0.00    +0.000 H 
BRANCH   19   17
ATOM     17  C14 UNL A   1      17.690  29.691  43.687  1.00  0.00    +0.000 C 
ATOM     18  O3  UNL A   1      18.738  29.450  44.286  1.00  0.00    +0.000 O 
BRANCH   17   16
ATOM    107  H16 UNL A   1      15.806  29.197  44.505  1.00  0.00    +0.000 H 
ATOM    108  H17 UNL A   1      16.065  28.687  42.823  1.00  0.00    +0.000 H 
ATOM     16  C13 UNL A   1      16.492  28.773  43.801  1.00  0.00    +0.000 C 
BRANCH   16   15
ATOM    105  H14 UNL A   1      17.828  27.143  43.883  1.00  0.00    +0.000 H 
ATOM    106  H15 UNL A   1      16.764  27.402  45.328  1.00  0.00    +0.000 H 
ATOM     15  C12 UNL A   1      16.852  27.362  44.263  1.00  0.00    +0.000 C 
BRANCH   15   14
ATOM     14  C11 UNL A   1      15.928  26.204  43.845  1.00  0.00    +0.000 C 
ATOM    103  H12 UNL A   1      16.539  25.416  43.459  1.00  0.00    +0.000 H 
ATOM    104  H13 UNL A   1      15.379  25.933  44.723  1.00  0.00    +0.000 H 
BRANCH   14   13
ATOM    101  H10 UNL A   1      14.391  27.451  43.095  1.00  0.00    +0.000 H 
ATOM     13  C10 UNL A   1      14.878  26.551  42.782  1.00  0.00    +0.000 C 
ATOM    102  H11 UNL A   1      15.431  26.621  41.868  1.00  0.00    +0.000 H 
BRANCH   13   12
ATOM    100  H9  UNL A   1      13.496  25.758  41.494  1.00  0.00    +0.000 H 
ATOM     99  H8  UNL A   1      13.062  25.614  43.280  1.00  0.00    +0.000 H 
ATOM     12  C9  UNL A   1      13.784  25.514  42.496  1.00  0.00    +0.000 C 
BRANCH   12   11
ATOM     11  S1  UNL A   1      14.158  23.726  42.366  1.00  0.00    +0.000 S 
BRANCH   11   10
ATOM     97  H6  UNL A   1      15.048  25.138  37.832  1.00  0.00    +0.000 H 
ATOM     98  H7  UNL A   1      15.021  25.345  40.245  1.00  0.00    +0.000 H 
ATOM      5  C3  UNL A   1      13.914  22.205  40.001  1.00  0.00    +0.000 C 
ATOM      6  C4  UNL A   1      13.930  22.086  38.601  1.00  0.00    +0.000 C 
ATOM      7  C5  UNL A   1      14.329  23.159  37.808  1.00  0.00    +0.000 C 
ATOM      8  C6  UNL A   1      14.731  24.345  38.412  1.00  0.00    +0.000 C 
ATOM      9  C7  UNL A   1      14.706  24.465  39.807  1.00  0.00    +0.000 C 
ATOM     10  C8  UNL A   1      14.261  23.410  40.626  1.00  0.00    +0.000 C 
ATOM     95  H4  UNL A   1      13.646  21.199  38.159  1.00  0.00    +0.000 H 
ATOM     96  H5  UNL A   1      14.326  23.075  36.780  1.00  0.00    +0.000 H 
BRANCH    5    4
ATOM      4  O2  UNL A   1      13.301  21.075  40.635  1.00  0.00    +0.000 O 
BRANCH    4    2
ATOM      2  C2  UNL A   1      12.849  19.814  40.224  1.00  0.00    +0.000 C 
ATOM      3  O1  UNL A   1      13.517  18.816  40.002  1.00  0.00    +0.000 O 
BRANCH    2    1
ATOM      1  C1  UNL A   1      11.357  19.889  40.078  1.00  0.00    +0.000 C 
ATOM     92  H1  UNL A   1      10.933  18.920  40.238  1.00  0.00    +0.000 H 
ATOM     93  H2  UNL A   1      11.112  20.226  39.092  1.00  0.00    +0.000 H 
ATOM     94  H3  UNL A   1      10.962  20.575  40.797  1.00  0.00    +0.000 H 
ENDBRANCH    2    1
ENDBRANCH    4    2
ENDBRANCH    5    4
ENDBRANCH   11   10
ENDBRANCH   12   11
ENDBRANCH   13   12
ENDBRANCH   14   13
ENDBRANCH   15   14
ENDBRANCH   16   15
ENDBRANCH   17   16
ENDBRANCH   19   17
ENDBRANCH   20   19
ENDBRANCH   21   20
ENDBRANCH   22   21
ENDBRANCH   23   22
ENDBRANCH   24   23
ENDBRANCH   25   24
ENDBRANCH   26   25
ENDBRANCH   27   26
ENDBRANCH   29   27
ENDBRANCH   33   32
BRANCH   37   38
ATOM     38  C30 UNL A   1      24.600  41.600  48.984  1.00  0.00    +0.000 C 
ATOM     39  C31 UNL A   1      24.175  41.343  50.296  1.00  0.00    +0.000 C 
ATOM     40  F1  UNL A   1      24.586  40.238  50.934  1.00  0.00    +0.000 F 
ATOM     41  C32 UNL A   1      23.298  42.208  50.946  1.00  0.00    +0.000 C 
ATOM     42  F2  UNL A   1      22.873  41.920  52.184  1.00  0.00    +0.000 F 
ATOM     43  C33 UNL A   1      22.855  43.359  50.312  1.00  0.00    +0.000 C 
ATOM     44  F3  UNL A   1      22.020  44.195  50.944  1.00  0.00    +0.000 F 
ATOM     45  C34 UNL A   1      23.276  43.641  49.022  1.00  0.00    +0.000 C 
ATOM     46  F4  UNL A   1      22.859  44.759  48.412  1.00  0.00    +0.000 F 
ATOM     47  C35 UNL A   1      24.131  42.765  48.358  1.00  0.00    +0.000 C 
ATOM     48  F5  UNL A   1      24.511  43.061  47.106  1.00  0.00    +0.000 F 
ENDBRANCH   37   38
BRANCH   54   55
ATOM     65  F10 UNL A   1      31.218  42.902  45.894  1.00  0.00    +0.000 F 
ATOM     55  C41 UNL A   1      31.670  41.341  47.634  1.00  0.00    +0.000 C 
ATOM     56  C42 UNL A   1      32.533  40.946  48.667  1.00  0.00    +0.000 C 
ATOM     57  F6  UNL A   1      32.244  39.868  49.411  1.00  0.00    +0.000 F 
ATOM     58  C43 UNL A   1      33.677  41.681  48.963  1.00  0.00    +0.000 C 
ATOM     59  F7  UNL A   1      34.463  41.311  49.982  1.00  0.00    +0.000 F 
ATOM     60  C44 UNL A   1      33.998  42.802  48.213  1.00  0.00    +0.000 C 
ATOM     61  F8  UNL A   1      35.103  43.505  48.495  1.00  0.00    +0.000 F 
ATOM     62  C45 UNL A   1      33.168  43.201  47.176  1.00  0.00    +0.000 C 
ATOM     63  F9  UNL A   1      33.483  44.278  46.442  1.00  0.00    +0.000 F 
ATOM     64  C46 UNL A   1      32.008  42.485  46.895  1.00  0.00    +0.000 C 
ENDBRANCH   54   55
BRANCH   69   70
ATOM     70  C50 UNL A   1      30.690  35.613  43.803  1.00  0.00    +0.000 C 
ATOM     71  C51 UNL A   1      31.288  34.482  44.377  1.00  0.00    +0.000 C 
ATOM     72  F11 UNL A   1      31.040  34.174  45.659  1.00  0.00    +0.000 F 
ATOM     73  C52 UNL A   1      32.176  33.691  43.653  1.00  0.00    +0.000 C 
ATOM     74  F12 UNL A   1      32.770  32.644  44.242  1.00  0.00    +0.000 F 
ATOM     75  C53 UNL A   1      32.460  33.996  42.330  1.00  0.00    +0.000 C 
ATOM     76  F13 UNL A   1      33.314  33.234  41.634  1.00  0.00    +0.000 F 
ATOM     77  C54 UNL A   1      31.863  35.097  41.734  1.00  0.00    +0.000 C 
ATOM     78  F14 UNL A   1      32.124  35.386  40.452  1.00  0.00    +0.000 F 
ATOM     79  C55 UNL A   1      30.997  35.905  42.466  1.00  0.00    +0.000 C 
ATOM     80  F15 UNL A   1      30.446  36.971  41.868  1.00  0.00    +0.000 F 
ENDBRANCH   69   70
TORSDOF 24
ENDMDL
