MODEL 1
REMARK VINA RESULT:      -9.0      0.000      0.000
ROOT
ATOM    142  H34 UNL A   1      13.004  46.396   2.706  1.00  0.00    +0.000 H 
ATOM    143  H35 UNL A   1      14.642  46.682   0.698  1.00  0.00    +0.000 H 
ATOM    144  H36 UNL A   1      14.548  50.238   2.820  1.00  0.00    +0.000 H 
ATOM    145  H37 UNL A   1      16.291  56.339   3.424  1.00  0.00    +0.000 H 
ATOM    146  H38 UNL A   1      14.922  55.975   5.531  1.00  0.00    +0.000 H 
ATOM    147  H39 UNL A   1      14.960  52.401   3.410  1.00  0.00    +0.000 H 
ATOM    148  H40 UNL A   1      18.032  53.168  -0.496  1.00  0.00    +0.000 H 
ATOM    149  H41 UNL A   1      17.534  50.757  -1.201  1.00  0.00    +0.000 H 
ATOM    150  H42 UNL A   1      11.511  49.569   6.759  1.00  0.00    +0.000 H 
ATOM    151  H43 UNL A   1      11.841  52.033   7.374  1.00  0.00    +0.000 H 
ATOM     50  C38 UNL A   1      13.735  53.394   5.723  1.00  0.00    +0.000 C 
ATOM     51  C39 UNL A   1      13.248  51.975   5.596  1.00  0.00    +0.000 C 
ATOM     52  N3  UNL A   1      13.565  51.068   4.705  1.00  0.00    +0.000 N 
ATOM     53  C40 UNL A   1      12.852  49.927   5.049  1.00  0.00    +0.000 C 
ATOM     54  C41 UNL A   1      12.815  48.730   4.416  1.00  0.00    +0.000 C 
ATOM     66  C48 UNL A   1      13.535  48.426   3.208  1.00  0.00    +0.000 C 
ATOM     67  C49 UNL A   1      13.545  47.246   2.484  1.00  0.00    +0.000 C 
ATOM     68  C50 UNL A   1      14.412  47.405   1.399  1.00  0.00    +0.000 C 
ATOM     69  C51 UNL A   1      14.913  48.696   1.424  1.00  0.00    +0.000 C 
ATOM     70  N4  UNL A   1      14.369  49.310   2.542  1.00  0.00    +0.000 N 
ATOM     71  C52 UNL A   1      15.824  49.323   0.502  1.00  0.00    +0.000 C 
ATOM     83  C59 UNL A   1      16.229  50.615   0.566  1.00  0.00    +0.000 C 
ATOM     84  N5  UNL A   1      15.894  51.587   1.498  1.00  0.00    +0.000 N 
ATOM     85  C60 UNL A   1      16.562  52.659   1.154  1.00  0.00    +0.000 C 
ATOM     86  C61 UNL A   1      16.583  54.012   1.808  1.00  0.00    +0.000 C 
ATOM     98  C68 UNL A   1      15.891  54.204   2.945  1.00  0.00    +0.000 C 
ATOM     99  C69 UNL A   1      15.835  55.454   3.697  1.00  0.00    +0.000 C 
ATOM    100  C70 UNL A   1      15.096  55.268   4.801  1.00  0.00    +0.000 C 
ATOM    101  C71 UNL A   1      14.574  53.901   4.801  1.00  0.00    +0.000 C 
ATOM    102  N6  UNL A   1      15.114  53.337   3.673  1.00  0.00    +0.000 N 
ATOM    103  C72 UNL A   1      17.402  52.489  -0.039  1.00  0.00    +0.000 C 
ATOM    104  C73 UNL A   1      17.140  51.233  -0.374  1.00  0.00    +0.000 C 
ATOM    105  C74 UNL A   1      12.103  50.242   6.247  1.00  0.00    +0.000 C 
ATOM    106  C75 UNL A   1      12.276  51.509   6.598  1.00  0.00    +0.000 C 
ENDROOT
BRANCH   50   49
ATOM    107  C76 UNL A   1      13.887  54.313   8.065  1.00  0.00    +0.000 C 
ATOM    108  C77 UNL A   1      13.312  55.011   9.130  1.00  0.00    +0.000 C 
ATOM    140  H32 UNL A   1      10.744  56.412   7.490  1.00  0.00    +0.000 H 
ATOM     46  C34 UNL A   1      12.116  55.704   8.933  1.00  0.00    +0.000 C 
ATOM     47  C35 UNL A   1      11.549  55.789   7.659  1.00  0.00    +0.000 C 
ATOM     48  C36 UNL A   1      12.077  55.029   6.623  1.00  0.00    +0.000 C 
ATOM    141  H33 UNL A   1      11.611  55.025   5.703  1.00  0.00    +0.000 H 
ATOM     49  C37 UNL A   1      13.241  54.266   6.819  1.00  0.00    +0.000 C 
ATOM    152  H44 UNL A   1      14.791  53.830   8.193  1.00  0.00    +0.000 H 
ATOM    153  H45 UNL A   1      13.768  55.013  10.056  1.00  0.00    +0.000 H 
BRANCH   46   44
ATOM     44  C33 UNL A   1      11.409  56.265  10.103  1.00  0.00    +0.000 C 
ATOM     45  O10 UNL A   1      10.830  57.342  10.018  1.00  0.00    +0.000 O 
BRANCH   44   43
ATOM     43  N2  UNL A   1      11.455  55.580  11.296  1.00  0.00    +0.000 N 
ATOM    139  H31 UNL A   1      12.315  55.611  11.774  1.00  0.00    +0.000 H 
BRANCH   43   42
ATOM    137  H29 UNL A   1      10.846  54.101  12.600  1.00  0.00    +0.000 H 
ATOM     42  C32 UNL A   1      10.398  54.816  11.942  1.00  0.00    +0.000 C 
ATOM    138  H30 UNL A   1       9.778  55.510  12.471  1.00  0.00    +0.000 H 
BRANCH   42   41
ATOM     41  C31 UNL A   1       9.513  54.076  10.950  1.00  0.00    +0.000 C 
ATOM    135  H27 UNL A   1       8.616  53.787  11.456  1.00  0.00    +0.000 H 
ATOM    136  H28 UNL A   1       9.341  54.752  10.138  1.00  0.00    +0.000 H 
BRANCH   41   40
ATOM    133  H25 UNL A   1      11.203  52.960  10.328  1.00  0.00    +0.000 H 
ATOM    134  H26 UNL A   1       9.823  52.005  10.954  1.00  0.00    +0.000 H 
ATOM     40  C30 UNL A   1      10.142  52.824  10.343  1.00  0.00    +0.000 C 
BRANCH   40   39
ATOM    131  H23 UNL A   1       9.855  53.356   8.308  1.00  0.00    +0.000 H 
ATOM    132  H24 UNL A   1      10.258  51.638   8.618  1.00  0.00    +0.000 H 
ATOM     39  C29 UNL A   1       9.687  52.492   8.918  1.00  0.00    +0.000 C 
BRANCH   39   38
ATOM    129  H21 UNL A   1       7.624  52.981   8.736  1.00  0.00    +0.000 H 
ATOM    130  H22 UNL A   1       8.141  51.507   7.879  1.00  0.00    +0.000 H 
ATOM     38  C28 UNL A   1       8.214  52.089   8.773  1.00  0.00    +0.000 C 
BRANCH   38   37
ATOM     37  C27 UNL A   1       7.691  51.214   9.911  1.00  0.00    +0.000 C 
ATOM    127  H19 UNL A   1       8.516  50.892  10.511  1.00  0.00    +0.000 H 
ATOM    128  H20 UNL A   1       7.003  51.791  10.493  1.00  0.00    +0.000 H 
BRANCH   37   36
ATOM     36  N1  UNL A   1       6.996  50.051   9.403  1.00  0.00    +0.000 N 
ATOM    126  H18 UNL A   1       6.057  49.896   9.649  1.00  0.00    +0.000 H 
BRANCH   36    2
ATOM      1  O1  UNL A   1       7.356  48.990   7.406  1.00  0.00    +0.000 O 
ATOM      2  C1  UNL A   1       7.637  49.172   8.585  1.00  0.00    +0.000 C 
BRANCH    2    3
ATOM      3  C2  UNL A   1       8.761  48.415   9.177  1.00  0.00    +0.000 C 
ATOM    109  H1  UNL A   1       8.485  47.618   9.772  1.00  0.00    +0.000 H 
BRANCH    3    4
ATOM      4  C3  UNL A   1      10.092  48.609   9.058  1.00  0.00    +0.000 C 
ATOM    110  H2  UNL A   1      10.495  48.779   8.123  1.00  0.00    +0.000 H 
BRANCH    4    5
ATOM      5  C4  UNL A   1      11.037  48.582  10.294  1.00  0.00    +0.000 C 
ATOM      6  C5  UNL A   1      10.380  49.491  11.298  1.00  0.00    +0.000 C 
ATOM      7  C6  UNL A   1       9.744  49.036  12.387  1.00  0.00    +0.000 C 
ATOM      9  C7  UNL A   1       9.744  47.577  12.734  1.00  0.00    +0.000 C 
ATOM     10  O3  UNL A   1       9.137  47.191  13.727  1.00  0.00    +0.000 O 
ATOM     11  C8  UNL A   1      10.549  46.657  11.895  1.00  0.00    +0.000 C 
ATOM     12  C9  UNL A   1      11.131  47.160  10.803  1.00  0.00    +0.000 C 
ATOM     13  C10 UNL A   1      12.101  46.449   9.932  1.00  0.00    +0.000 C 
ATOM     14  O4  UNL A   1      12.207  45.259   9.779  1.00  0.00    +0.000 O 
ATOM     15  C11 UNL A   1      12.966  47.522   9.367  1.00  0.00    +0.000 C 
ATOM     16  C12 UNL A   1      14.059  47.309   8.630  1.00  0.00    +0.000 C 
ATOM     17  C13 UNL A   1      15.042  48.395   8.510  1.00  0.00    +0.000 C 
ATOM     18  C14 UNL A   1      15.659  48.648   7.276  1.00  0.00    +0.000 C 
ATOM     19  C15 UNL A   1      16.679  49.596   7.203  1.00  0.00    +0.000 C 
ATOM     21  C16 UNL A   1      17.114  50.259   8.347  1.00  0.00    +0.000 C 
ATOM     23  C17 UNL A   1      16.521  50.016   9.573  1.00  0.00    +0.000 C 
ATOM     24  C18 UNL A   1      15.453  49.120   9.652  1.00  0.00    +0.000 C 
ATOM     25  O7  UNL A   1      14.957  48.916  10.912  1.00  0.00    +0.000 O 
ATOM     26  C19 UNL A   1      13.537  49.086  11.172  1.00  0.00    +0.000 C 
ATOM     35  C26 UNL A   1      12.553  48.852   9.968  1.00  0.00    +0.000 C 
ATOM    111  H3  UNL A   1      10.420  50.509  11.142  1.00  0.00    +0.000 H 
ATOM    113  H5  UNL A   1      10.657  45.663  12.147  1.00  0.00    +0.000 H 
ATOM    114  H6  UNL A   1      14.210  46.405   8.156  1.00  0.00    +0.000 H 
ATOM    115  H7  UNL A   1      15.360  48.138   6.430  1.00  0.00    +0.000 H 
ATOM    118  H10 UNL A   1      16.866  50.491  10.422  1.00  0.00    +0.000 H 
ATOM    119  H11 UNL A   1      13.232  48.275  11.800  1.00  0.00    +0.000 H 
ATOM    125  H17 UNL A   1      12.617  49.751   9.392  1.00  0.00    +0.000 H 
BRANCH    7    8
ATOM    112  H4  UNL A   1       8.880  50.774  12.944  1.00  0.00    +0.000 H 
ATOM      8  O2  UNL A   1       9.084  49.905  13.232  1.00  0.00    +0.000 O 
ENDBRANCH    7    8
BRANCH   19   20
ATOM    116  H8  UNL A   1      17.038  49.483   5.230  1.00  0.00    +0.000 H 
ATOM     20  O5  UNL A   1      17.305  49.901   6.026  1.00  0.00    +0.000 O 
ENDBRANCH   19   20
BRANCH   21   22
ATOM    117  H9  UNL A   1      18.471  51.422   7.439  1.00  0.00    +0.000 H 
ATOM     22  O6  UNL A   1      18.139  51.157   8.275  1.00  0.00    +0.000 O 
ENDBRANCH   21   22
BRANCH   26   27
ATOM     34  C25 UNL A   1      12.973  50.480  13.240  1.00  0.00    +0.000 C 
ATOM     28  C21 UNL A   1      13.588  51.618  11.206  1.00  0.00    +0.000 C 
ATOM    120  H12 UNL A   1      13.758  51.598  10.189  1.00  0.00    +0.000 H 
ATOM    121  H13 UNL A   1      13.837  53.710  11.377  1.00  0.00    +0.000 H 
ATOM     27  C20 UNL A   1      13.351  50.413  11.893  1.00  0.00    +0.000 C 
ATOM    124  H16 UNL A   1      12.747  49.615  13.756  1.00  0.00    +0.000 H 
ATOM     29  C22 UNL A   1      13.594  52.841  11.879  1.00  0.00    +0.000 C 
ATOM     30  C23 UNL A   1      13.270  52.880  13.229  1.00  0.00    +0.000 C 
ATOM     32  C24 UNL A   1      12.902  51.712  13.889  1.00  0.00    +0.000 C 
BRANCH   30   31
ATOM    122  H14 UNL A   1      14.017  54.246  14.493  1.00  0.00    +0.000 H 
ATOM     31  O8  UNL A   1      13.306  54.062  13.910  1.00  0.00    +0.000 O 
ENDBRANCH   30   31
BRANCH   32   33
ATOM     33  O9  UNL A   1      12.492  51.768  15.191  1.00  0.00    +0.000 O 
ATOM    123  H15 UNL A   1      11.647  52.115  15.401  1.00  0.00    +0.000 H 
ENDBRANCH   32   33
ENDBRANCH   26   27
ENDBRANCH    4    5
ENDBRANCH    3    4
ENDBRANCH    2    3
ENDBRANCH   36    2
ENDBRANCH   37   36
ENDBRANCH   38   37
ENDBRANCH   39   38
ENDBRANCH   40   39
ENDBRANCH   41   40
ENDBRANCH   42   41
ENDBRANCH   43   42
ENDBRANCH   44   43
ENDBRANCH   46   44
ENDBRANCH   50   49
BRANCH   54   55
ATOM     65  F5  UNL A   1       9.972  48.790   4.400  1.00  0.00    +0.000 F 
ATOM     55  C42 UNL A   1      11.967  47.646   5.015  1.00  0.00    +0.000 C 
ATOM     56  C43 UNL A   1      12.538  46.543   5.665  1.00  0.00    +0.000 C 
ATOM     57  F1  UNL A   1      13.870  46.390   5.694  1.00  0.00    +0.000 F 
ATOM     58  C44 UNL A   1      11.738  45.575   6.270  1.00  0.00    +0.000 C 
ATOM     59  F2  UNL A   1      12.303  44.513   6.858  1.00  0.00    +0.000 F 
ATOM     60  C45 UNL A   1      10.356  45.707   6.258  1.00  0.00    +0.000 C 
ATOM     61  F3  UNL A   1       9.590  44.782   6.853  1.00  0.00    +0.000 F 
ATOM     62  C46 UNL A   1       9.771  46.795   5.629  1.00  0.00    +0.000 C 
ATOM     63  F4  UNL A   1       8.438  46.928   5.626  1.00  0.00    +0.000 F 
ATOM     64  C47 UNL A   1      10.568  47.751   5.003  1.00  0.00    +0.000 C 
ENDBRANCH   54   55
BRANCH   71   72
ATOM     72  C53 UNL A   1      16.361  48.489  -0.622  1.00  0.00    +0.000 C 
ATOM     73  C54 UNL A   1      17.637  47.913  -0.553  1.00  0.00    +0.000 C 
ATOM     74  F6  UNL A   1      18.432  48.157   0.500  1.00  0.00    +0.000 F 
ATOM     75  C55 UNL A   1      18.113  47.106  -1.583  1.00  0.00    +0.000 C 
ATOM     76  F7  UNL A   1      19.348  46.594  -1.514  1.00  0.00    +0.000 F 
ATOM     77  C56 UNL A   1      17.312  46.839  -2.685  1.00  0.00    +0.000 C 
ATOM     78  F8  UNL A   1      17.767  46.053  -3.670  1.00  0.00    +0.000 F 
ATOM     79  C57 UNL A   1      16.042  47.390  -2.766  1.00  0.00    +0.000 C 
ATOM     80  F9  UNL A   1      15.264  47.124  -3.824  1.00  0.00    +0.000 F 
ATOM     81  C58 UNL A   1      15.574  48.218  -1.750  1.00  0.00    +0.000 C 
ATOM     82  F10 UNL A   1      14.343  48.741  -1.857  1.00  0.00    +0.000 F 
ENDBRANCH   71   72
BRANCH   86   87
ATOM     97  F15 UNL A   1      15.598  55.677  -0.280  1.00  0.00    +0.000 F 
ATOM     87  C62 UNL A   1      17.358  55.135   1.223  1.00  0.00    +0.000 C 
ATOM     88  C63 UNL A   1      18.652  55.428   1.674  1.00  0.00    +0.000 C 
ATOM     89  F11 UNL A   1      19.186  54.718   2.679  1.00  0.00    +0.000 F 
ATOM     90  C64 UNL A   1      19.390  56.465   1.110  1.00  0.00    +0.000 C 
ATOM     91  F12 UNL A   1      20.615  56.744   1.579  1.00  0.00    +0.000 F 
ATOM     92  C65 UNL A   1      18.859  57.214   0.071  1.00  0.00    +0.000 C 
ATOM     93  F13 UNL A   1      19.576  58.203  -0.480  1.00  0.00    +0.000 F 
ATOM     94  C66 UNL A   1      17.582  56.939  -0.395  1.00  0.00    +0.000 C 
ATOM     95  F14 UNL A   1      17.070  57.650  -1.408  1.00  0.00    +0.000 F 
ATOM     96  C67 UNL A   1      16.833  55.919   0.186  1.00  0.00    +0.000 C 
ENDBRANCH   86   87
TORSDOF 23
ENDMDL
MODEL 2
REMARK VINA RESULT:      -8.3      1.019      6.753
ROOT
ATOM    142  H34 UNL A   1      18.644  53.257  -0.998  1.00  0.00    +0.000 H 
ATOM    143  H35 UNL A   1      18.171  50.753  -1.547  1.00  0.00    +0.000 H 
ATOM    144  H36 UNL A   1      15.774  51.861   1.642  1.00  0.00    +0.000 H 
ATOM    145  H37 UNL A   1      11.574  50.304   6.177  1.00  0.00    +0.000 H 
ATOM    146  H38 UNL A   1      11.822  52.806   6.531  1.00  0.00    +0.000 H 
ATOM    147  H39 UNL A   1      14.272  51.725   3.352  1.00  0.00    +0.000 H 
ATOM    148  H40 UNL A   1      13.354  46.852   2.521  1.00  0.00    +0.000 H 
ATOM    149  H41 UNL A   1      15.080  46.977   0.633  1.00  0.00    +0.000 H 
ATOM    150  H42 UNL A   1      16.607  56.727   2.543  1.00  0.00    +0.000 H 
ATOM    151  H43 UNL A   1      15.031  56.578   4.556  1.00  0.00    +0.000 H 
ATOM     50  C38 UNL A   1      13.743  54.042   4.831  1.00  0.00    +0.000 C 
ATOM     51  C39 UNL A   1      14.778  54.449   3.816  1.00  0.00    +0.000 C 
ATOM     52  N3  UNL A   1      15.322  53.738   2.859  1.00  0.00    +0.000 N 
ATOM     53  C40 UNL A   1      16.199  54.591   2.200  1.00  0.00    +0.000 C 
ATOM     54  C41 UNL A   1      17.023  54.317   1.160  1.00  0.00    +0.000 C 
ATOM     66  C48 UNL A   1      17.145  53.026   0.537  1.00  0.00    +0.000 C 
ATOM     67  C49 UNL A   1      17.967  52.649  -0.512  1.00  0.00    +0.000 C 
ATOM     68  C50 UNL A   1      17.724  51.302  -0.796  1.00  0.00    +0.000 C 
ATOM     69  C51 UNL A   1      16.780  50.829   0.100  1.00  0.00    +0.000 C 
ATOM     70  N4  UNL A   1      16.430  51.898   0.910  1.00  0.00    +0.000 N 
ATOM     71  C52 UNL A   1      16.231  49.501   0.207  1.00  0.00    +0.000 C 
ATOM     83  C59 UNL A   1      15.343  49.101   1.149  1.00  0.00    +0.000 C 
ATOM     84  N5  UNL A   1      14.766  49.840   2.172  1.00  0.00    +0.000 N 
ATOM     85  C60 UNL A   1      13.954  49.022   2.792  1.00  0.00    +0.000 C 
ATOM     86  C61 UNL A   1      13.068  49.284   3.977  1.00  0.00    +0.000 C 
ATOM     98  C68 UNL A   1      13.003  50.528   4.487  1.00  0.00    +0.000 C 
ATOM     99  C69 UNL A   1      12.174  50.932   5.620  1.00  0.00    +0.000 C 
ATOM    100  C70 UNL A   1      12.320  52.250   5.820  1.00  0.00    +0.000 C 
ATOM    101  C71 UNL A   1      13.301  52.771   4.867  1.00  0.00    +0.000 C 
ATOM    102  N6  UNL A   1      13.637  51.682   4.103  1.00  0.00    +0.000 N 
ATOM    103  C72 UNL A   1      13.920  47.665   2.230  1.00  0.00    +0.000 C 
ATOM    104  C73 UNL A   1      14.807  47.760   1.248  1.00  0.00    +0.000 C 
ATOM    105  C74 UNL A   1      16.098  55.882   2.846  1.00  0.00    +0.000 C 
ATOM    106  C75 UNL A   1      15.270  55.835   3.880  1.00  0.00    +0.000 C 
ENDROOT
BRANCH   50   49
ATOM    107  C76 UNL A   1      12.150  55.840   5.593  1.00  0.00    +0.000 C 
ATOM    108  C77 UNL A   1      11.813  56.857   6.490  1.00  0.00    +0.000 C 
ATOM    140  H32 UNL A   1      14.011  56.137   8.920  1.00  0.00    +0.000 H 
ATOM     46  C34 UNL A   1      12.555  57.013   7.664  1.00  0.00    +0.000 C 
ATOM     47  C35 UNL A   1      13.559  56.100   7.993  1.00  0.00    +0.000 C 
ATOM     48  C36 UNL A   1      13.944  55.142   7.064  1.00  0.00    +0.000 C 
ATOM    141  H33 UNL A   1      14.741  54.520   7.270  1.00  0.00    +0.000 H 
ATOM     49  C37 UNL A   1      13.257  55.013   5.845  1.00  0.00    +0.000 C 
ATOM    152  H44 UNL A   1      11.582  55.695   4.743  1.00  0.00    +0.000 H 
ATOM    153  H45 UNL A   1      11.023  57.488   6.287  1.00  0.00    +0.000 H 
BRANCH   46   44
ATOM     44  C33 UNL A   1      12.329  58.208   8.503  1.00  0.00    +0.000 C 
ATOM     45  O10 UNL A   1      13.184  59.083   8.574  1.00  0.00    +0.000 O 
BRANCH   44   43
ATOM     43  N2  UNL A   1      11.167  58.295   9.235  1.00  0.00    +0.000 N 
ATOM    139  H31 UNL A   1      10.385  58.654   8.757  1.00  0.00    +0.000 H 
BRANCH   43   42
ATOM    137  H29 UNL A   1      11.891  57.719  11.080  1.00  0.00    +0.000 H 
ATOM     42  C32 UNL A   1      10.944  57.926  10.625  1.00  0.00    +0.000 C 
ATOM    138  H30 UNL A   1      10.445  58.745  11.099  1.00  0.00    +0.000 H 
BRANCH   42   41
ATOM     41  C31 UNL A   1      10.055  56.701  10.775  1.00  0.00    +0.000 C 
ATOM    135  H27 UNL A   1       9.782  56.612  11.806  1.00  0.00    +0.000 H 
ATOM    136  H28 UNL A   1       9.217  56.855  10.128  1.00  0.00    +0.000 H 
BRANCH   41   40
ATOM    133  H25 UNL A   1      11.739  55.567  10.166  1.00  0.00    +0.000 H 
ATOM    134  H26 UNL A   1      10.512  54.687  11.128  1.00  0.00    +0.000 H 
ATOM     40  C30 UNL A   1      10.699  55.386  10.339  1.00  0.00    +0.000 C 
BRANCH   40   39
ATOM    131  H23 UNL A   1       9.044  54.851   9.122  1.00  0.00    +0.000 H 
ATOM    132  H24 UNL A   1      10.547  55.291   8.250  1.00  0.00    +0.000 H 
ATOM     39  C29 UNL A   1      10.110  54.761   9.071  1.00  0.00    +0.000 C 
BRANCH   39   38
ATOM    129  H21 UNL A   1      11.397  53.226   8.354  1.00  0.00    +0.000 H 
ATOM    130  H22 UNL A   1      10.456  52.818   9.811  1.00  0.00    +0.000 H 
ATOM     38  C28 UNL A   1      10.449  53.282   8.847  1.00  0.00    +0.000 C 
BRANCH   38   37
ATOM     37  C27 UNL A   1       9.424  52.526   8.002  1.00  0.00    +0.000 C 
ATOM    127  H19 UNL A   1       8.500  53.064   8.012  1.00  0.00    +0.000 H 
ATOM    128  H20 UNL A   1       9.803  52.442   7.005  1.00  0.00    +0.000 H 
BRANCH   37   36
ATOM     36  N1  UNL A   1       9.200  51.192   8.518  1.00  0.00    +0.000 N 
ATOM    126  H18 UNL A   1       8.945  51.069   9.460  1.00  0.00    +0.000 H 
BRANCH   36    2
ATOM      1  O1  UNL A   1       8.786  49.984   6.618  1.00  0.00    +0.000 O 
ATOM      2  C1  UNL A   1       9.337  50.110   7.705  1.00  0.00    +0.000 C 
BRANCH    2    3
ATOM      3  C2  UNL A   1      10.237  49.037   8.178  1.00  0.00    +0.000 C 
ATOM    109  H1  UNL A   1      11.072  48.876   7.593  1.00  0.00    +0.000 H 
BRANCH    3    4
ATOM      4  C3  UNL A   1      10.132  48.234   9.260  1.00  0.00    +0.000 C 
ATOM    110  H2  UNL A   1       9.422  47.486   9.265  1.00  0.00    +0.000 H 
BRANCH    4    5
ATOM      5  C4  UNL A   1      11.056  48.408  10.500  1.00  0.00    +0.000 C 
ATOM      6  C5  UNL A   1      10.330  49.386  11.385  1.00  0.00    +0.000 C 
ATOM      7  C6  UNL A   1       9.704  49.024  12.513  1.00  0.00    +0.000 C 
ATOM      9  C7  UNL A   1       9.784  47.617  13.028  1.00  0.00    +0.000 C 
ATOM     10  O3  UNL A   1       9.185  47.313  14.053  1.00  0.00    +0.000 O 
ATOM     11  C8  UNL A   1      10.657  46.657  12.311  1.00  0.00    +0.000 C 
ATOM     12  C9  UNL A   1      11.226  47.064  11.173  1.00  0.00    +0.000 C 
ATOM     13  C10 UNL A   1      12.251  46.317  10.400  1.00  0.00    +0.000 C 
ATOM     14  O4  UNL A   1      12.429  45.125  10.389  1.00  0.00    +0.000 O 
ATOM     15  C11 UNL A   1      13.060  47.367   9.722  1.00  0.00    +0.000 C 
ATOM     16  C12 UNL A   1      14.176  47.137   9.025  1.00  0.00    +0.000 C 
ATOM     17  C13 UNL A   1      15.094  48.258   8.789  1.00  0.00    +0.000 C 
ATOM     18  C14 UNL A   1      15.716  48.404   7.539  1.00  0.00    +0.000 C 
ATOM     19  C15 UNL A   1      16.679  49.396   7.366  1.00  0.00    +0.000 C 
ATOM     21  C16 UNL A   1      17.055  50.213   8.429  1.00  0.00    +0.000 C 
ATOM     23  C17 UNL A   1      16.457  50.079   9.669  1.00  0.00    +0.000 C 
ATOM     24  C18 UNL A   1      15.443  49.135   9.842  1.00  0.00    +0.000 C 
ATOM     25  O7  UNL A   1      14.938  49.050  11.112  1.00  0.00    +0.000 O 
ATOM     26  C19 UNL A   1      13.507  49.161  11.337  1.00  0.00    +0.000 C 
ATOM     35  C26 UNL A   1      12.559  48.730  10.159  1.00  0.00    +0.000 C 
ATOM    111  H3  UNL A   1      10.313  50.380  11.110  1.00  0.00    +0.000 H 
ATOM    113  H5  UNL A   1      10.818  45.707  12.678  1.00  0.00    +0.000 H 
ATOM    114  H6  UNL A   1      14.387  46.194   8.662  1.00  0.00    +0.000 H 
ATOM    115  H7  UNL A   1      15.462  47.782   6.756  1.00  0.00    +0.000 H 
ATOM    118  H10 UNL A   1      16.759  50.669  10.460  1.00  0.00    +0.000 H 
ATOM    119  H11 UNL A   1      13.240  48.412  12.053  1.00  0.00    +0.000 H 
ATOM    125  H17 UNL A   1      12.580  49.559   9.483  1.00  0.00    +0.000 H 
BRANCH    7    8
ATOM    112  H4  UNL A   1       8.123  49.724  13.555  1.00  0.00    +0.000 H 
ATOM      8  O2  UNL A   1       8.980  49.943  13.244  1.00  0.00    +0.000 O 
ENDBRANCH    7    8
BRANCH   19   20
ATOM    116  H8  UNL A   1      18.218  49.819   6.147  1.00  0.00    +0.000 H 
ATOM     20  O5  UNL A   1      17.306  49.600   6.168  1.00  0.00    +0.000 O 
ENDBRANCH   19   20
BRANCH   21   22
ATOM    117  H9  UNL A   1      18.906  50.977   8.530  1.00  0.00    +0.000 H 
ATOM     22  O6  UNL A   1      18.026  51.157   8.262  1.00  0.00    +0.000 O 
ENDBRANCH   21   22
BRANCH   26   27
ATOM     34  C25 UNL A   1      12.915  50.758  13.245  1.00  0.00    +0.000 C 
ATOM     28  C21 UNL A   1      13.318  51.671  11.051  1.00  0.00    +0.000 C 
ATOM    120  H12 UNL A   1      13.440  51.534  10.035  1.00  0.00    +0.000 H 
ATOM    121  H13 UNL A   1      13.376  53.781  10.943  1.00  0.00    +0.000 H 
ATOM     27  C20 UNL A   1      13.231  50.550  11.896  1.00  0.00    +0.000 C 
ATOM    124  H16 UNL A   1      12.797  49.951  13.877  1.00  0.00    +0.000 H 
ATOM     29  C22 UNL A   1      13.241  52.967  11.563  1.00  0.00    +0.000 C 
ATOM     30  C23 UNL A   1      12.981  53.153  12.915  1.00  0.00    +0.000 C 
ATOM     32  C24 UNL A   1      12.758  52.053  13.737  1.00  0.00    +0.000 C 
BRANCH   30   31
ATOM    122  H14 UNL A   1      12.661  55.133  12.908  1.00  0.00    +0.000 H 
ATOM     31  O8  UNL A   1      12.938  54.412  13.440  1.00  0.00    +0.000 O 
ENDBRANCH   30   31
BRANCH   32   33
ATOM     33  O9  UNL A   1      12.408  52.242  15.044  1.00  0.00    +0.000 O 
ATOM    123  H15 UNL A   1      12.993  51.980  15.727  1.00  0.00    +0.000 H 
ENDBRANCH   32   33
ENDBRANCH   26   27
ENDBRANCH    4    5
ENDBRANCH    3    4
ENDBRANCH    2    3
ENDBRANCH   36    2
ENDBRANCH   37   36
ENDBRANCH   38   37
ENDBRANCH   39   38
ENDBRANCH   40   39
ENDBRANCH   41   40
ENDBRANCH   42   41
ENDBRANCH   43   42
ENDBRANCH   44   43
ENDBRANCH   46   44
ENDBRANCH   50   49
BRANCH   54   55
ATOM     65  F5  UNL A   1      16.255  55.896  -1.076  1.00  0.00    +0.000 F 
ATOM     55  C42 UNL A   1      17.862  55.437   0.618  1.00  0.00    +0.000 C 
ATOM     56  C43 UNL A   1      19.114  55.747   1.168  1.00  0.00    +0.000 C 
ATOM     57  F1  UNL A   1      19.556  55.096   2.254  1.00  0.00    +0.000 F 
ATOM     58  C44 UNL A   1      19.909  56.750   0.617  1.00  0.00    +0.000 C 
ATOM     59  F2  UNL A   1      21.088  57.052   1.177  1.00  0.00    +0.000 F 
ATOM     60  C45 UNL A   1      19.479  57.441  -0.507  1.00  0.00    +0.000 C 
ATOM     61  F3  UNL A   1      20.253  58.396  -1.044  1.00  0.00    +0.000 F 
ATOM     62  C46 UNL A   1      18.249  57.144  -1.072  1.00  0.00    +0.000 C 
ATOM     63  F4  UNL A   1      17.838  57.803  -2.164  1.00  0.00    +0.000 F 
ATOM     64  C47 UNL A   1      17.441  56.159  -0.509  1.00  0.00    +0.000 C 
ENDBRANCH   54   55
BRANCH   71   72
ATOM     72  C53 UNL A   1      16.680  48.479  -0.793  1.00  0.00    +0.000 C 
ATOM     73  C54 UNL A   1      15.903  48.174  -1.920  1.00  0.00    +0.000 C 
ATOM     74  F6  UNL A   1      14.701  48.748  -2.086  1.00  0.00    +0.000 F 
ATOM     75  C55 UNL A   1      16.346  47.253  -2.865  1.00  0.00    +0.000 C 
ATOM     76  F7  UNL A   1      15.573  46.949  -3.916  1.00  0.00    +0.000 F 
ATOM     77  C56 UNL A   1      17.584  46.644  -2.716  1.00  0.00    +0.000 C 
ATOM     78  F8  UNL A   1      18.014  45.765  -3.633  1.00  0.00    +0.000 F 
ATOM     79  C57 UNL A   1      18.373  46.941  -1.615  1.00  0.00    +0.000 C 
ATOM     80  F9  UNL A   1      19.573  46.361  -1.476  1.00  0.00    +0.000 F 
ATOM     81  C58 UNL A   1      17.921  47.842  -0.655  1.00  0.00    +0.000 C 
ATOM     82  F10 UNL A   1      18.704  48.107   0.402  1.00  0.00    +0.000 F 
ENDBRANCH   71   72
BRANCH   86   87
ATOM     97  F15 UNL A   1      10.260  49.009   3.595  1.00  0.00    +0.000 F 
ATOM     87  C62 UNL A   1      12.262  48.198   4.588  1.00  0.00    +0.000 C 
ATOM     88  C63 UNL A   1      12.859  47.238   5.416  1.00  0.00    +0.000 C 
ATOM     89  F11 UNL A   1      14.184  47.268   5.627  1.00  0.00    +0.000 F 
ATOM     90  C64 UNL A   1      12.102  46.233   6.012  1.00  0.00    +0.000 C 
ATOM     91  F12 UNL A   1      12.701  45.310   6.777  1.00  0.00    +0.000 F 
ATOM     92  C65 UNL A   1      10.731  46.181   5.808  1.00  0.00    +0.000 C 
ATOM     93  F13 UNL A   1      10.000  45.221   6.393  1.00  0.00    +0.000 F 
ATOM     94  C66 UNL A   1      10.118  47.123   4.996  1.00  0.00    +0.000 C 
ATOM     95  F14 UNL A   1       8.791  47.085   4.808  1.00  0.00    +0.000 F 
ATOM     96  C67 UNL A   1      10.878  48.112   4.380  1.00  0.00    +0.000 C 
ENDBRANCH   86   87
TORSDOF 23
ENDMDL
MODEL 3
REMARK VINA RESULT:      -8.1      1.627      7.878
ROOT
ATOM    142  H34 UNL A   1      18.970  53.222  -1.420  1.00  0.00    +0.000 H 
ATOM    143  H35 UNL A   1      18.432  50.737  -1.992  1.00  0.00    +0.000 H 
ATOM    144  H36 UNL A   1      16.118  51.856   1.254  1.00  0.00    +0.000 H 
ATOM    145  H37 UNL A   1      11.967  50.333   5.845  1.00  0.00    +0.000 H 
ATOM    146  H38 UNL A   1      12.277  52.824   6.226  1.00  0.00    +0.000 H 
ATOM    147  H39 UNL A   1      14.644  51.731   2.989  1.00  0.00    +0.000 H 
ATOM    148  H40 UNL A   1      13.604  46.890   2.114  1.00  0.00    +0.000 H 
ATOM    149  H41 UNL A   1      15.298  47.001   0.197  1.00  0.00    +0.000 H 
ATOM    150  H42 UNL A   1      17.075  56.690   2.201  1.00  0.00    +0.000 H 
ATOM    151  H43 UNL A   1      15.533  56.550   4.240  1.00  0.00    +0.000 H 
ATOM     50  C38 UNL A   1      14.194  54.039   4.507  1.00  0.00    +0.000 C 
ATOM     51  C39 UNL A   1      15.220  54.436   3.479  1.00  0.00    +0.000 C 
ATOM     52  N3  UNL A   1      15.730  53.726   2.503  1.00  0.00    +0.000 N 
ATOM     53  C40 UNL A   1      16.614  54.568   1.838  1.00  0.00    +0.000 C 
ATOM     54  C41 UNL A   1      17.412  54.290   0.780  1.00  0.00    +0.000 C 
ATOM     66  C48 UNL A   1      17.495  53.004   0.139  1.00  0.00    +0.000 C 
ATOM     67  C49 UNL A   1      18.289  52.623  -0.929  1.00  0.00    +0.000 C 
ATOM     68  C50 UNL A   1      18.011  51.285  -1.226  1.00  0.00    +0.000 C 
ATOM     69  C51 UNL A   1      17.073  50.821  -0.319  1.00  0.00    +0.000 C 
ATOM     70  N4  UNL A   1      16.762  51.887   0.511  1.00  0.00    +0.000 N 
ATOM     71  C52 UNL A   1      16.496  49.505  -0.219  1.00  0.00    +0.000 C 
ATOM     83  C59 UNL A   1      15.617  49.112   0.734  1.00  0.00    +0.000 C 
ATOM     84  N5  UNL A   1      15.075  49.851   1.777  1.00  0.00    +0.000 N 
ATOM     85  C60 UNL A   1      14.256  49.043   2.401  1.00  0.00    +0.000 C 
ATOM     86  C61 UNL A   1      13.398  49.309   3.605  1.00  0.00    +0.000 C 
ATOM     98  C68 UNL A   1      13.370  50.547   4.132  1.00  0.00    +0.000 C 
ATOM     99  C69 UNL A   1      12.571  50.954   5.285  1.00  0.00    +0.000 C 
ATOM    100  C70 UNL A   1      12.750  52.266   5.499  1.00  0.00    +0.000 C 
ATOM    101  C71 UNL A   1      13.725  52.778   4.535  1.00  0.00    +0.000 C 
ATOM    102  N6  UNL A   1      14.022  51.692   3.752  1.00  0.00    +0.000 N 
ATOM    103  C72 UNL A   1      14.182  47.694   1.823  1.00  0.00    +0.000 C 
ATOM    104  C73 UNL A   1      15.053  47.782   0.826  1.00  0.00    +0.000 C 
ATOM    105  C74 UNL A   1      16.554  55.852   2.503  1.00  0.00    +0.000 C 
ATOM    106  C75 UNL A   1      15.743  55.810   3.551  1.00  0.00    +0.000 C 
ENDROOT
BRANCH   50   49
ATOM    107  C76 UNL A   1      14.436  55.146   6.758  1.00  0.00    +0.000 C 
ATOM    108  C77 UNL A   1      13.907  55.940   7.779  1.00  0.00    +0.000 C 
ATOM    140  H32 UNL A   1      11.308  57.247   6.108  1.00  0.00    +0.000 H 
ATOM     46  C34 UNL A   1      12.716  56.636   7.562  1.00  0.00    +0.000 C 
ATOM     47  C35 UNL A   1      12.109  56.625   6.304  1.00  0.00    +0.000 C 
ATOM     48  C36 UNL A   1      12.591  55.773   5.319  1.00  0.00    +0.000 C 
ATOM    141  H33 UNL A   1      12.096  55.701   4.417  1.00  0.00    +0.000 H 
ATOM     49  C37 UNL A   1      13.749  55.008   5.541  1.00  0.00    +0.000 C 
ATOM    152  H44 UNL A   1      15.336  54.659   6.899  1.00  0.00    +0.000 H 
ATOM    153  H45 UNL A   1      14.393  56.011   8.687  1.00  0.00    +0.000 H 
BRANCH   46   44
ATOM     44  C33 UNL A   1      12.056  57.304   8.703  1.00  0.00    +0.000 C 
ATOM     45  O10 UNL A   1      12.280  58.485   8.941  1.00  0.00    +0.000 O 
BRANCH   44   43
ATOM     43  N2  UNL A   1      11.228  56.565   9.516  1.00  0.00    +0.000 N 
ATOM    139  H31 UNL A   1      10.295  56.482   9.215  1.00  0.00    +0.000 H 
BRANCH   43   42
ATOM    137  H29 UNL A   1      12.267  55.120  10.561  1.00  0.00    +0.000 H 
ATOM     42  C32 UNL A   1      11.553  55.890  10.765  1.00  0.00    +0.000 C 
ATOM    138  H30 UNL A   1      11.942  56.627  11.436  1.00  0.00    +0.000 H 
BRANCH   42   41
ATOM     41  C31 UNL A   1      10.337  55.262  11.430  1.00  0.00    +0.000 C 
ATOM    135  H27 UNL A   1       9.902  55.989  12.082  1.00  0.00    +0.000 H 
ATOM    136  H28 UNL A   1       9.683  54.960  10.638  1.00  0.00    +0.000 H 
BRANCH   41   40
ATOM    133  H25 UNL A   1      11.429  53.477  11.766  1.00  0.00    +0.000 H 
ATOM    134  H26 UNL A   1      10.878  54.344  13.233  1.00  0.00    +0.000 H 
ATOM     40  C30 UNL A   1      10.633  54.007  12.247  1.00  0.00    +0.000 C 
BRANCH   40   39
ATOM    131  H23 UNL A   1       9.364  52.801  13.449  1.00  0.00    +0.000 H 
ATOM    132  H24 UNL A   1       8.600  53.550  12.012  1.00  0.00    +0.000 H 
ATOM     39  C29 UNL A   1       9.454  53.042  12.410  1.00  0.00    +0.000 C 
BRANCH   39   38
ATOM    129  H21 UNL A   1      10.559  51.348  11.748  1.00  0.00    +0.000 H 
ATOM    130  H22 UNL A   1       8.820  51.070  12.023  1.00  0.00    +0.000 H 
ATOM     38  C28 UNL A   1       9.565  51.727  11.627  1.00  0.00    +0.000 C 
BRANCH   38   37
ATOM     37  C27 UNL A   1       9.282  51.864  10.132  1.00  0.00    +0.000 C 
ATOM    127  H19 UNL A   1       8.545  51.142   9.849  1.00  0.00    +0.000 H 
ATOM    128  H20 UNL A   1       8.930  52.857   9.943  1.00  0.00    +0.000 H 
BRANCH   37   36
ATOM     36  N1  UNL A   1      10.479  51.647   9.348  1.00  0.00    +0.000 N 
ATOM    126  H18 UNL A   1      10.816  50.733   9.213  1.00  0.00    +0.000 H 
BRANCH   36    2
ATOM      1  O1  UNL A   1      10.600  53.608   8.173  1.00  0.00    +0.000 O 
ATOM      2  C1  UNL A   1      11.139  52.702   8.797  1.00  0.00    +0.000 C 
BRANCH    2    3
ATOM      3  C2  UNL A   1      12.603  52.746   9.001  1.00  0.00    +0.000 C 
ATOM    109  H1  UNL A   1      13.161  52.856   8.139  1.00  0.00    +0.000 H 
BRANCH    3    4
ATOM      4  C3  UNL A   1      13.320  52.664  10.142  1.00  0.00    +0.000 C 
ATOM    110  H2  UNL A   1      13.587  53.532  10.633  1.00  0.00    +0.000 H 
BRANCH    4    5
ATOM      5  C4  UNL A   1      13.756  51.295  10.739  1.00  0.00    +0.000 C 
ATOM      6  C5  UNL A   1      13.723  50.342   9.574  1.00  0.00    +0.000 C 
ATOM      7  C6  UNL A   1      14.831  49.881   8.978  1.00  0.00    +0.000 C 
ATOM      9  C7  UNL A   1      16.195  50.206   9.514  1.00  0.00    +0.000 C 
ATOM     10  O3  UNL A   1      17.189  49.784   8.934  1.00  0.00    +0.000 O 
ATOM     11  C8  UNL A   1      16.285  50.970  10.781  1.00  0.00    +0.000 C 
ATOM     12  C9  UNL A   1      15.150  51.434  11.310  1.00  0.00    +0.000 C 
ATOM     13  C10 UNL A   1      15.012  52.075  12.643  1.00  0.00    +0.000 C 
ATOM     14  O4  UNL A   1      15.866  52.657  13.263  1.00  0.00    +0.000 O 
ATOM     15  C11 UNL A   1      13.624  51.758  13.078  1.00  0.00    +0.000 C 
ATOM     16  C12 UNL A   1      13.124  52.032  14.286  1.00  0.00    +0.000 C 
ATOM     17  C13 UNL A   1      11.931  51.298  14.730  1.00  0.00    +0.000 C 
ATOM     18  C14 UNL A   1      10.913  51.971  15.423  1.00  0.00    +0.000 C 
ATOM     19  C15 UNL A   1       9.847  51.242  15.948  1.00  0.00    +0.000 C 
ATOM     21  C16 UNL A   1       9.807  49.855  15.825  1.00  0.00    +0.000 C 
ATOM     23  C17 UNL A   1      10.806  49.176  15.151  1.00  0.00    +0.000 C 
ATOM     24  C18 UNL A   1      11.845  49.898  14.560  1.00  0.00    +0.000 C 
ATOM     25  O7  UNL A   1      12.806  49.137  13.948  1.00  0.00    +0.000 O 
ATOM     26  C19 UNL A   1      13.172  49.400  12.567  1.00  0.00    +0.000 C 
ATOM     35  C26 UNL A   1      12.975  50.866  12.037  1.00  0.00    +0.000 C 
ATOM    111  H3  UNL A   1      12.807  50.029   9.219  1.00  0.00    +0.000 H 
ATOM    113  H5  UNL A   1      17.194  51.138  11.238  1.00  0.00    +0.000 H 
ATOM    114  H6  UNL A   1      13.564  52.742  14.892  1.00  0.00    +0.000 H 
ATOM    115  H7  UNL A   1      10.953  52.994  15.543  1.00  0.00    +0.000 H 
ATOM    118  H10 UNL A   1      10.784  48.147  15.086  1.00  0.00    +0.000 H 
ATOM    119  H11 UNL A   1      14.239  49.339  12.506  1.00  0.00    +0.000 H 
ATOM    125  H17 UNL A   1      11.926  50.939  11.837  1.00  0.00    +0.000 H 
BRANCH    7    8
ATOM    112  H4  UNL A   1      14.110  48.391   7.822  1.00  0.00    +0.000 H 
ATOM      8  O2  UNL A   1      14.748  49.077   7.859  1.00  0.00    +0.000 O 
ENDBRANCH    7    8
BRANCH   19   20
ATOM    116  H8  UNL A   1       8.832  52.764  16.775  1.00  0.00    +0.000 H 
ATOM     20  O5  UNL A   1       8.815  51.840  16.616  1.00  0.00    +0.000 O 
ENDBRANCH   19   20
BRANCH   21   22
ATOM    117  H9  UNL A   1       7.909  49.250  16.047  1.00  0.00    +0.000 H 
ATOM     22  O6  UNL A   1       8.780  49.145  16.375  1.00  0.00    +0.000 O 
ENDBRANCH   21   22
BRANCH   26   27
ATOM     34  C25 UNL A   1      11.164  48.334  11.395  1.00  0.00    +0.000 C 
ATOM     28  C21 UNL A   1      13.325  47.291  11.172  1.00  0.00    +0.000 C 
ATOM    120  H12 UNL A   1      14.307  47.199  11.474  1.00  0.00    +0.000 H 
ATOM    121  H13 UNL A   1      13.418  45.680   9.806  1.00  0.00    +0.000 H 
ATOM     27  C20 UNL A   1      12.531  48.323  11.704  1.00  0.00    +0.000 C 
ATOM    124  H16 UNL A   1      10.548  49.051  11.810  1.00  0.00    +0.000 H 
ATOM     29  C22 UNL A   1      12.806  46.389  10.241  1.00  0.00    +0.000 C 
ATOM     30  C23 UNL A   1      11.459  46.452   9.906  1.00  0.00    +0.000 C 
ATOM     32  C24 UNL A   1      10.632  47.381  10.527  1.00  0.00    +0.000 C 
BRANCH   30   31
ATOM    122  H14 UNL A   1      10.047  45.334   9.026  1.00  0.00    +0.000 H 
ATOM     31  O8  UNL A   1      10.943  45.601   8.972  1.00  0.00    +0.000 O 
ENDBRANCH   30   31
BRANCH   32   33
ATOM     33  O9  UNL A   1       9.291  47.377  10.267  1.00  0.00    +0.000 O 
ATOM    123  H15 UNL A   1       8.938  47.959   9.623  1.00  0.00    +0.000 H 
ENDBRANCH   32   33
ENDBRANCH   26   27
ENDBRANCH    4    5
ENDBRANCH    3    4
ENDBRANCH    2    3
ENDBRANCH   36    2
ENDBRANCH   37   36
ENDBRANCH   38   37
ENDBRANCH   39   38
ENDBRANCH   40   39
ENDBRANCH   41   40
ENDBRANCH   42   41
ENDBRANCH   43   42
ENDBRANCH   44   43
ENDBRANCH   46   44
ENDBRANCH   50   49
BRANCH   54   55
ATOM     65  F5  UNL A   1      16.818  55.675  -1.630  1.00  0.00    +0.000 F 
ATOM     55  C42 UNL A   1      18.267  55.397   0.238  1.00  0.00    +0.000 C 
ATOM     56  C43 UNL A   1      19.450  55.792   0.878  1.00  0.00    +0.000 C 
ATOM     57  F1  UNL A   1      19.804  55.237   2.046  1.00  0.00    +0.000 F 
ATOM     58  C44 UNL A   1      20.265  56.782   0.330  1.00  0.00    +0.000 C 
ATOM     59  F2  UNL A   1      21.375  57.166   0.974  1.00  0.00    +0.000 F 
ATOM     60  C45 UNL A   1      19.925  57.373  -0.878  1.00  0.00    +0.000 C 
ATOM     61  F3  UNL A   1      20.718  58.315  -1.410  1.00  0.00    +0.000 F 
ATOM     62  C46 UNL A   1      18.765  56.992  -1.533  1.00  0.00    +0.000 C 
ATOM     63  F4  UNL A   1      18.441  57.555  -2.705  1.00  0.00    +0.000 F 
ATOM     64  C47 UNL A   1      17.936  56.020  -0.975  1.00  0.00    +0.000 C 
ENDBRANCH   54   55
BRANCH   71   72
ATOM     72  C53 UNL A   1      16.905  48.487  -1.240  1.00  0.00    +0.000 C 
ATOM     73  C54 UNL A   1      18.030  47.673  -1.046  1.00  0.00    +0.000 C 
ATOM     74  F6  UNL A   1      18.806  47.842   0.036  1.00  0.00    +0.000 F 
ATOM     75  C55 UNL A   1      18.379  46.702  -1.980  1.00  0.00    +0.000 C 
ATOM     76  F7  UNL A   1      19.478  45.959  -1.792  1.00  0.00    +0.000 F 
ATOM     77  C56 UNL A   1      17.595  46.508  -3.108  1.00  0.00    +0.000 C 
ATOM     78  F8  UNL A   1      17.927  45.564  -4.001  1.00  0.00    +0.000 F 
ATOM     79  C57 UNL A   1      16.471  47.294  -3.313  1.00  0.00    +0.000 C 
ATOM     80  F9  UNL A   1      15.707  47.099  -4.396  1.00  0.00    +0.000 F 
ATOM     81  C58 UNL A   1      16.134  48.283  -2.393  1.00  0.00    +0.000 C 
ATOM     82  F10 UNL A   1      15.044  49.031  -2.620  1.00  0.00    +0.000 F 
ENDBRANCH   71   72
BRANCH   86   87
ATOM     97  F15 UNL A   1      10.654  48.878   2.981  1.00  0.00    +0.000 F 
ATOM     87  C62 UNL A   1      12.579  48.233   4.218  1.00  0.00    +0.000 C 
ATOM     88  C63 UNL A   1      13.130  47.363   5.169  1.00  0.00    +0.000 C 
ATOM     89  F11 UNL A   1      14.425  47.469   5.501  1.00  0.00    +0.000 F 
ATOM     90  C64 UNL A   1      12.357  46.369   5.764  1.00  0.00    +0.000 C 
ATOM     91  F12 UNL A   1      12.914  45.532   6.649  1.00  0.00    +0.000 F 
ATOM     92  C65 UNL A   1      11.016  46.240   5.436  1.00  0.00    +0.000 C 
ATOM     93  F13 UNL A   1      10.270  45.291   6.019  1.00  0.00    +0.000 F 
ATOM     94  C66 UNL A   1      10.449  47.092   4.501  1.00  0.00    +0.000 C 
ATOM     95  F14 UNL A   1       9.149  46.980   4.192  1.00  0.00    +0.000 F 
ATOM     96  C67 UNL A   1      11.226  48.069   3.886  1.00  0.00    +0.000 C 
ENDBRANCH   86   87
TORSDOF 23
ENDMDL
MODEL 4
REMARK VINA RESULT:      -8.0     46.450     50.291
ROOT
ATOM    142  H34 UNL A   1      39.653  28.340  26.792  1.00  0.00    +0.000 H 
ATOM    143  H35 UNL A   1      37.786  30.077  27.335  1.00  0.00    +0.000 H 
ATOM    144  H36 UNL A   1      40.047  29.484  30.753  1.00  0.00    +0.000 H 
ATOM    145  H37 UNL A   1      41.043  30.568  36.955  1.00  0.00    +0.000 H 
ATOM    146  H38 UNL A   1      43.025  29.099  36.357  1.00  0.00    +0.000 H 
ATOM    147  H39 UNL A   1      40.760  29.638  32.913  1.00  0.00    +0.000 H 
ATOM    148  H40 UNL A   1      37.128  32.882  34.167  1.00  0.00    +0.000 H 
ATOM    149  H41 UNL A   1      36.284  32.676  31.758  1.00  0.00    +0.000 H 
ATOM    150  H42 UNL A   1      43.718  26.262  29.600  1.00  0.00    +0.000 H 
ATOM    151  H43 UNL A   1      44.463  26.304  32.049  1.00  0.00    +0.000 H 
ATOM     50  C38 UNL A   1      43.017  28.164  33.667  1.00  0.00    +0.000 C 
ATOM     51  C39 UNL A   1      42.792  27.829  32.216  1.00  0.00    +0.000 C 
ATOM     52  N3  UNL A   1      41.889  28.296  31.390  1.00  0.00    +0.000 N 
ATOM     53  C40 UNL A   1      42.130  27.677  30.169  1.00  0.00    +0.000 C 
ATOM     54  C41 UNL A   1      41.444  27.802  29.008  1.00  0.00    +0.000 C 
ATOM     66  C48 UNL A   1      40.281  28.632  28.836  1.00  0.00    +0.000 C 
ATOM     67  C49 UNL A   1      39.509  28.808  27.700  1.00  0.00    +0.000 C 
ATOM     68  C50 UNL A   1      38.498  29.729  27.996  1.00  0.00    +0.000 C 
ATOM     69  C51 UNL A   1      38.617  30.096  29.326  1.00  0.00    +0.000 C 
ATOM     70  N4  UNL A   1      39.717  29.418  29.828  1.00  0.00    +0.000 N 
ATOM     71  C52 UNL A   1      37.792  31.002  30.084  1.00  0.00    +0.000 C 
ATOM     83  C59 UNL A   1      37.943  31.272  31.403  1.00  0.00    +0.000 C 
ATOM     84  N5  UNL A   1      38.889  30.779  32.290  1.00  0.00    +0.000 N 
ATOM     85  C60 UNL A   1      38.642  31.359  33.437  1.00  0.00    +0.000 C 
ATOM     86  C61 UNL A   1      39.353  31.201  34.751  1.00  0.00    +0.000 C 
ATOM     98  C68 UNL A   1      40.444  30.415  34.818  1.00  0.00    +0.000 C 
ATOM     99  C69 UNL A   1      41.243  30.184  36.018  1.00  0.00    +0.000 C 
ATOM    100  C70 UNL A   1      42.280  29.392  35.707  1.00  0.00    +0.000 C 
ATOM    101  C71 UNL A   1      42.182  29.010  34.297  1.00  0.00    +0.000 C 
ATOM    102  N6  UNL A   1      41.073  29.680  33.846  1.00  0.00    +0.000 N 
ATOM    103  C72 UNL A   1      37.507  32.292  33.409  1.00  0.00    +0.000 C 
ATOM    104  C73 UNL A   1      37.100  32.179  32.152  1.00  0.00    +0.000 C 
ATOM    105  C74 UNL A   1      43.281  26.819  30.351  1.00  0.00    +0.000 C 
ATOM    106  C75 UNL A   1      43.699  26.841  31.609  1.00  0.00    +0.000 C 
ENDROOT
BRANCH   50   49
ATOM    107  C76 UNL A   1      43.934  26.250  35.026  1.00  0.00    +0.000 C 
ATOM    108  C77 UNL A   1      44.914  25.730  35.876  1.00  0.00    +0.000 C 
ATOM    140  H32 UNL A   1      47.264  28.082  35.436  1.00  0.00    +0.000 H 
ATOM     46  C34 UNL A   1      46.092  26.449  36.088  1.00  0.00    +0.000 C 
ATOM     47  C35 UNL A   1      46.340  27.628  35.381  1.00  0.00    +0.000 C 
ATOM     48  C36 UNL A   1      45.332  28.182  34.602  1.00  0.00    +0.000 C 
ATOM    141  H33 UNL A   1      45.482  29.095  34.145  1.00  0.00    +0.000 H 
ATOM     49  C37 UNL A   1      44.110  27.510  34.431  1.00  0.00    +0.000 C 
ATOM    152  H44 UNL A   1      43.077  25.706  34.835  1.00  0.00    +0.000 H 
ATOM    153  H45 UNL A   1      44.768  24.822  36.343  1.00  0.00    +0.000 H 
BRANCH   46   44
ATOM     44  C33 UNL A   1      47.029  25.999  37.139  1.00  0.00    +0.000 C 
ATOM     45  O10 UNL A   1      47.718  26.814  37.742  1.00  0.00    +0.000 O 
BRANCH   44   43
ATOM     43  N2  UNL A   1      47.147  24.651  37.390  1.00  0.00    +0.000 N 
ATOM    139  H31 UNL A   1      47.354  24.087  36.610  1.00  0.00    +0.000 H 
BRANCH   43   42
ATOM    137  H29 UNL A   1      47.966  23.599  38.965  1.00  0.00    +0.000 H 
ATOM     42  C32 UNL A   1      47.003  23.951  38.658  1.00  0.00    +0.000 C 
ATOM    138  H30 UNL A   1      46.588  24.642  39.361  1.00  0.00    +0.000 H 
BRANCH   42   41
ATOM     41  C31 UNL A   1      46.056  22.763  38.572  1.00  0.00    +0.000 C 
ATOM    135  H27 UNL A   1      46.325  22.067  39.339  1.00  0.00    +0.000 H 
ATOM    136  H28 UNL A   1      45.067  23.157  38.687  1.00  0.00    +0.000 H 
BRANCH   41   40
ATOM    133  H25 UNL A   1      45.060  21.844  36.944  1.00  0.00    +0.000 H 
ATOM    134  H26 UNL A   1      46.606  22.659  36.554  1.00  0.00    +0.000 H 
ATOM     40  C30 UNL A   1      46.073  22.027  37.234  1.00  0.00    +0.000 C 
BRANCH   40   39
ATOM    131  H23 UNL A   1      47.400  20.630  36.344  1.00  0.00    +0.000 H 
ATOM    132  H24 UNL A   1      47.397  20.673  38.135  1.00  0.00    +0.000 H 
ATOM     39  C29 UNL A   1      46.814  20.686  37.237  1.00  0.00    +0.000 C 
BRANCH   39   38
ATOM    129  H21 UNL A   1      44.900  19.760  37.329  1.00  0.00    +0.000 H 
ATOM    130  H22 UNL A   1      46.145  18.860  36.426  1.00  0.00    +0.000 H 
ATOM     38  C28 UNL A   1      45.921  19.440  37.296  1.00  0.00    +0.000 C 
BRANCH   38   37
ATOM     37  C27 UNL A   1      46.181  18.541  38.504  1.00  0.00    +0.000 C 
ATOM    127  H19 UNL A   1      45.245  18.195  38.889  1.00  0.00    +0.000 H 
ATOM    128  H20 UNL A   1      46.787  17.717  38.188  1.00  0.00    +0.000 H 
BRANCH   37   36
ATOM     36  N1  UNL A   1      46.887  19.253  39.547  1.00  0.00    +0.000 N 
ATOM    126  H18 UNL A   1      46.478  20.047  39.960  1.00  0.00    +0.000 H 
BRANCH   36    2
ATOM      1  O1  UNL A   1      49.169  19.121  39.412  1.00  0.00    +0.000 O 
ATOM      2  C1  UNL A   1      48.112  18.828  39.959  1.00  0.00    +0.000 C 
BRANCH    2    3
ATOM      3  C2  UNL A   1      48.145  17.976  41.167  1.00  0.00    +0.000 C 
ATOM    109  H1  UNL A   1      48.883  18.213  41.849  1.00  0.00    +0.000 H 
BRANCH    3    4
ATOM      4  C3  UNL A   1      47.357  16.936  41.514  1.00  0.00    +0.000 C 
ATOM    110  H2  UNL A   1      47.249  16.145  40.858  1.00  0.00    +0.000 H 
BRANCH    4    5
ATOM      5  C4  UNL A   1      46.606  16.896  42.875  1.00  0.00    +0.000 C 
ATOM      6  C5  UNL A   1      47.660  16.525  43.884  1.00  0.00    +0.000 C 
ATOM      7  C6  UNL A   1      48.179  17.404  44.753  1.00  0.00    +0.000 C 
ATOM      9  C7  UNL A   1      47.655  18.806  44.847  1.00  0.00    +0.000 C 
ATOM     10  O3  UNL A   1      48.165  19.591  45.639  1.00  0.00    +0.000 O 
ATOM     11  C8  UNL A   1      46.477  19.170  44.024  1.00  0.00    +0.000 C 
ATOM     12  C9  UNL A   1      46.025  18.266  43.151  1.00  0.00    +0.000 C 
ATOM     13  C10 UNL A   1      44.773  18.375  42.359  1.00  0.00    +0.000 C 
ATOM     14  O4  UNL A   1      44.203  19.385  42.033  1.00  0.00    +0.000 O 
ATOM     15  C11 UNL A   1      44.334  16.969  42.142  1.00  0.00    +0.000 C 
ATOM     16  C12 UNL A   1      43.174  16.611  41.585  1.00  0.00    +0.000 C 
ATOM     17  C13 UNL A   1      42.676  15.250  41.823  1.00  0.00    +0.000 C 
ATOM     18  C14 UNL A   1      42.082  14.528  40.776  1.00  0.00    +0.000 C 
ATOM     19  C15 UNL A   1      41.502  13.289  41.043  1.00  0.00    +0.000 C 
ATOM     21  C16 UNL A   1      41.474  12.784  42.340  1.00  0.00    +0.000 C 
ATOM     23  C17 UNL A   1      42.050  13.485  43.384  1.00  0.00    +0.000 C 
ATOM     24  C18 UNL A   1      42.694  14.696  43.123  1.00  0.00    +0.000 C 
ATOM     25  O7  UNL A   1      43.200  15.334  44.224  1.00  0.00    +0.000 O 
ATOM     26  C19 UNL A   1      44.594  15.743  44.253  1.00  0.00    +0.000 C 
ATOM     35  C26 UNL A   1      45.284  16.040  42.873  1.00  0.00    +0.000 C 
ATOM    111  H3  UNL A   1      47.998  15.551  43.908  1.00  0.00    +0.000 H 
ATOM    113  H5  UNL A   1      46.022  20.091  44.122  1.00  0.00    +0.000 H 
ATOM    114  H6  UNL A   1      42.640  17.275  41.002  1.00  0.00    +0.000 H 
ATOM    115  H7  UNL A   1      42.074  14.912  39.818  1.00  0.00    +0.000 H 
ATOM    118  H10 UNL A   1      42.002  13.118  44.348  1.00  0.00    +0.000 H 
ATOM    119  H11 UNL A   1      44.626  16.726  44.674  1.00  0.00    +0.000 H 
ATOM    125  H17 UNL A   1      45.512  15.073  42.474  1.00  0.00    +0.000 H 
BRANCH    7    8
ATOM    112  H4  UNL A   1      50.008  17.519  45.601  1.00  0.00    +0.000 H 
ATOM      8  O2  UNL A   1      49.205  17.035  45.600  1.00  0.00    +0.000 O 
ENDBRANCH    7    8
BRANCH   19   20
ATOM    116  H8  UNL A   1      40.003  12.359  40.085  1.00  0.00    +0.000 H 
ATOM     20  O5  UNL A   1      40.924  12.530  40.063  1.00  0.00    +0.000 O 
ENDBRANCH   19   20
BRANCH   21   22
ATOM    117  H9  UNL A   1      41.076  10.836  42.078  1.00  0.00    +0.000 H 
ATOM     22  O6  UNL A   1      40.870  11.587  42.600  1.00  0.00    +0.000 O 
ENDBRANCH   21   22
BRANCH   26   27
ATOM     34  C25 UNL A   1      45.393  14.903  46.533  1.00  0.00    +0.000 C 
ATOM     28  C21 UNL A   1      46.001  13.659  44.560  1.00  0.00    +0.000 C 
ATOM    120  H12 UNL A   1      46.075  13.595  43.533  1.00  0.00    +0.000 H 
ATOM    121  H13 UNL A   1      46.969  11.814  44.914  1.00  0.00    +0.000 H 
ATOM     27  C20 UNL A   1      45.347  14.762  45.139  1.00  0.00    +0.000 C 
ATOM    124  H16 UNL A   1      44.963  15.728  46.981  1.00  0.00    +0.000 H 
ATOM     29  C22 UNL A   1      46.553  12.651  45.352  1.00  0.00    +0.000 C 
ATOM     30  C23 UNL A   1      46.540  12.784  46.735  1.00  0.00    +0.000 C 
ATOM     32  C24 UNL A   1      46.017  13.934  47.317  1.00  0.00    +0.000 C 
BRANCH   30   31
ATOM    122  H14 UNL A   1      46.820  11.759  48.435  1.00  0.00    +0.000 H 
ATOM     31  O8  UNL A   1      47.043  11.792  47.526  1.00  0.00    +0.000 O 
ENDBRANCH   30   31
BRANCH   32   33
ATOM     33  O9  UNL A   1      46.092  14.104  48.670  1.00  0.00    +0.000 O 
ATOM    123  H15 UNL A   1      45.523  14.714  49.097  1.00  0.00    +0.000 H 
ENDBRANCH   32   33
ENDBRANCH   26   27
ENDBRANCH    4    5
ENDBRANCH    3    4
ENDBRANCH    2    3
ENDBRANCH   36    2
ENDBRANCH   37   36
ENDBRANCH   38   37
ENDBRANCH   39   38
ENDBRANCH   40   39
ENDBRANCH   41   40
ENDBRANCH   42   41
ENDBRANCH   43   42
ENDBRANCH   44   43
ENDBRANCH   46   44
ENDBRANCH   50   49
BRANCH   54   55
ATOM     65  F5  UNL A   1      40.631  25.136  28.451  1.00  0.00    +0.000 F 
ATOM     55  C42 UNL A   1      41.932  27.027  27.820  1.00  0.00    +0.000 C 
ATOM     56  C43 UNL A   1      42.863  27.567  26.922  1.00  0.00    +0.000 C 
ATOM     57  F1  UNL A   1      43.282  28.834  27.064  1.00  0.00    +0.000 F 
ATOM     58  C44 UNL A   1      43.353  26.813  25.857  1.00  0.00    +0.000 C 
ATOM     59  F2  UNL A   1      44.219  27.360  24.994  1.00  0.00    +0.000 F 
ATOM     60  C45 UNL A   1      42.939  25.500  25.686  1.00  0.00    +0.000 C 
ATOM     61  F3  UNL A   1      43.423  24.773  24.668  1.00  0.00    +0.000 F 
ATOM     62  C46 UNL A   1      42.026  24.943  26.566  1.00  0.00    +0.000 C 
ATOM     63  F4  UNL A   1      41.634  23.671  26.408  1.00  0.00    +0.000 F 
ATOM     64  C47 UNL A   1      41.516  25.702  27.618  1.00  0.00    +0.000 C 
ENDBRANCH   54   55
BRANCH   71   72
ATOM     72  C53 UNL A   1      36.676  31.696  29.362  1.00  0.00    +0.000 C 
ATOM     73  C54 UNL A   1      35.533  30.998  28.949  1.00  0.00    +0.000 C 
ATOM     74  F6  UNL A   1      35.449  29.671  29.134  1.00  0.00    +0.000 F 
ATOM     75  C55 UNL A   1      34.483  31.657  28.316  1.00  0.00    +0.000 C 
ATOM     76  F7  UNL A   1      33.415  30.966  27.898  1.00  0.00    +0.000 F 
ATOM     77  C56 UNL A   1      34.545  33.028  28.111  1.00  0.00    +0.000 C 
ATOM     78  F8  UNL A   1      33.529  33.663  27.511  1.00  0.00    +0.000 F 
ATOM     79  C57 UNL A   1      35.663  33.739  28.523  1.00  0.00    +0.000 C 
ATOM     80  F9  UNL A   1      35.719  35.064  28.335  1.00  0.00    +0.000 F 
ATOM     81  C58 UNL A   1      36.725  33.078  29.133  1.00  0.00    +0.000 C 
ATOM     82  F10 UNL A   1      37.794  33.791  29.517  1.00  0.00    +0.000 F 
ENDBRANCH   71   72
BRANCH   86   87
ATOM     97  F15 UNL A   1      37.680  29.980  36.704  1.00  0.00    +0.000 F 
ATOM     87  C62 UNL A   1      38.876  31.899  35.972  1.00  0.00    +0.000 C 
ATOM     88  C63 UNL A   1      39.226  33.233  36.219  1.00  0.00    +0.000 C 
ATOM     89  F11 UNL A   1      40.039  33.880  35.371  1.00  0.00    +0.000 F 
ATOM     90  C64 UNL A   1      38.760  33.898  37.350  1.00  0.00    +0.000 C 
ATOM     91  F12 UNL A   1      39.131  35.165  37.580  1.00  0.00    +0.000 F 
ATOM     92  C65 UNL A   1      37.919  33.250  38.242  1.00  0.00    +0.000 C 
ATOM     93  F13 UNL A   1      37.460  33.895  39.324  1.00  0.00    +0.000 F 
ATOM     94  C66 UNL A   1      37.556  31.931  38.015  1.00  0.00    +0.000 C 
ATOM     95  F14 UNL A   1      36.732  31.305  38.867  1.00  0.00    +0.000 F 
ATOM     96  C67 UNL A   1      38.043  31.257  36.899  1.00  0.00    +0.000 C 
ENDBRANCH   86   87
TORSDOF 23
ENDMDL
MODEL 5
REMARK VINA RESULT:      -7.9      2.794      7.107
ROOT
ATOM    142  H34 UNL A   1      18.437  50.507  -2.495  1.00  0.00    +0.000 H 
ATOM    143  H35 UNL A   1      18.962  53.036  -2.137  1.00  0.00    +0.000 H 
ATOM    144  H36 UNL A   1      16.249  51.847   0.757  1.00  0.00    +0.000 H 
ATOM    145  H37 UNL A   1      12.404  53.297   5.630  1.00  0.00    +0.000 H 
ATOM    146  H38 UNL A   1      12.107  50.781   5.461  1.00  0.00    +0.000 H 
ATOM    147  H39 UNL A   1      14.803  51.941   2.517  1.00  0.00    +0.000 H 
ATOM    148  H40 UNL A   1      15.589  56.853   3.251  1.00  0.00    +0.000 H 
ATOM    149  H41 UNL A   1      17.174  56.773   1.241  1.00  0.00    +0.000 H 
ATOM    150  H42 UNL A   1      15.407  46.941   0.119  1.00  0.00    +0.000 H 
ATOM    151  H43 UNL A   1      13.674  47.039   2.001  1.00  0.00    +0.000 H 
ATOM     50  C38 UNL A   1      13.517  49.581   3.298  1.00  0.00    +0.000 C 
ATOM     51  C39 UNL A   1      14.364  49.196   2.114  1.00  0.00    +0.000 C 
ATOM     52  N3  UNL A   1      15.193  49.934   1.416  1.00  0.00    +0.000 N 
ATOM     53  C40 UNL A   1      15.732  49.093   0.449  1.00  0.00    +0.000 C 
ATOM     54  C41 UNL A   1      16.613  49.393  -0.535  1.00  0.00    +0.000 C 
ATOM     66  C48 UNL A   1      17.158  50.704  -0.767  1.00  0.00    +0.000 C 
ATOM     67  C49 UNL A   1      18.044  51.107  -1.752  1.00  0.00    +0.000 C 
ATOM     68  C50 UNL A   1      18.314  52.467  -1.569  1.00  0.00    +0.000 C 
ATOM     69  C51 UNL A   1      17.567  52.920  -0.495  1.00  0.00    +0.000 C 
ATOM     70  N4  UNL A   1      16.865  51.827  -0.010  1.00  0.00    +0.000 N 
ATOM     71  C52 UNL A   1      17.501  54.250   0.055  1.00  0.00    +0.000 C 
ATOM     83  C59 UNL A   1      16.702  54.628   1.082  1.00  0.00    +0.000 C 
ATOM     84  N5  UNL A   1      15.815  53.861   1.823  1.00  0.00    +0.000 N 
ATOM     85  C60 UNL A   1      15.305  54.667   2.720  1.00  0.00    +0.000 C 
ATOM     86  C61 UNL A   1      14.291  54.375   3.789  1.00  0.00    +0.000 C 
ATOM     98  C68 UNL A   1      13.845  53.115   3.946  1.00  0.00    +0.000 C 
ATOM     99  C69 UNL A   1      12.878  52.681   4.951  1.00  0.00    +0.000 C 
ATOM    100  C70 UNL A   1      12.707  51.355   4.849  1.00  0.00    +0.000 C 
ATOM    101  C71 UNL A   1      13.506  50.855   3.730  1.00  0.00    +0.000 C 
ATOM    102  N6  UNL A   1      14.164  51.966   3.266  1.00  0.00    +0.000 N 
ATOM    103  C72 UNL A   1      15.815  56.044   2.651  1.00  0.00    +0.000 C 
ATOM    104  C73 UNL A   1      16.641  55.972   1.617  1.00  0.00    +0.000 C 
ATOM    105  C74 UNL A   1      15.159  47.782   0.663  1.00  0.00    +0.000 C 
ATOM    106  C75 UNL A   1      14.273  47.803   1.649  1.00  0.00    +0.000 C 
ENDROOT
BRANCH   50   49
ATOM    107  C76 UNL A   1      11.306  48.394   3.530  1.00  0.00    +0.000 C 
ATOM    108  C77 UNL A   1      10.446  47.570   4.260  1.00  0.00    +0.000 C 
ATOM    140  H32 UNL A   1      12.666  46.344   6.456  1.00  0.00    +0.000 H 
ATOM     46  C34 UNL A   1      10.931  46.891   5.381  1.00  0.00    +0.000 C 
ATOM     47  C35 UNL A   1      12.286  46.951   5.714  1.00  0.00    +0.000 C 
ATOM     48  C36 UNL A   1      13.118  47.834   5.036  1.00  0.00    +0.000 C 
ATOM    141  H33 UNL A   1      14.100  47.941   5.333  1.00  0.00    +0.000 H 
ATOM     49  C37 UNL A   1      12.633  48.580   3.949  1.00  0.00    +0.000 C 
ATOM    152  H44 UNL A   1      10.964  48.868   2.678  1.00  0.00    +0.000 H 
ATOM    153  H45 UNL A   1       9.461  47.463   3.974  1.00  0.00    +0.000 H 
BRANCH   46   44
ATOM     44  C33 UNL A   1       9.976  46.189   6.264  1.00  0.00    +0.000 C 
ATOM     45  O10 UNL A   1      10.049  44.975   6.411  1.00  0.00    +0.000 O 
BRANCH   44   43
ATOM     43  N2  UNL A   1       8.981  46.916   6.876  1.00  0.00    +0.000 N 
ATOM    139  H31 UNL A   1       8.367  46.403   7.450  1.00  0.00    +0.000 H 
BRANCH   43   42
ATOM    137  H29 UNL A   1       9.533  48.811   6.275  1.00  0.00    +0.000 H 
ATOM     42  C32 UNL A   1       8.716  48.345   6.783  1.00  0.00    +0.000 C 
ATOM    138  H30 UNL A   1       7.794  48.466   6.253  1.00  0.00    +0.000 H 
BRANCH   42   41
ATOM     41  C31 UNL A   1       8.551  49.003   8.144  1.00  0.00    +0.000 C 
ATOM    135  H27 UNL A   1       7.647  49.576   8.130  1.00  0.00    +0.000 H 
ATOM    136  H28 UNL A   1       8.537  48.211   8.864  1.00  0.00    +0.000 H 
BRANCH   41   40
ATOM    133  H25 UNL A   1       9.347  50.940   8.469  1.00  0.00    +0.000 H 
ATOM    134  H26 UNL A   1       9.967  49.650   9.545  1.00  0.00    +0.000 H 
ATOM     40  C30 UNL A   1       9.694  49.931   8.549  1.00  0.00    +0.000 C 
BRANCH   40   39
ATOM    131  H23 UNL A   1      10.746  49.181   6.864  1.00  0.00    +0.000 H 
ATOM    132  H24 UNL A   1      11.251  50.799   7.444  1.00  0.00    +0.000 H 
ATOM     39  C29 UNL A   1      10.968  49.801   7.707  1.00  0.00    +0.000 C 
BRANCH   39   38
ATOM    129  H21 UNL A   1      12.902  48.913   7.698  1.00  0.00    +0.000 H 
ATOM    130  H22 UNL A   1      12.541  49.949   9.102  1.00  0.00    +0.000 H 
ATOM     38  C28 UNL A   1      12.178  49.198   8.433  1.00  0.00    +0.000 C 
BRANCH   38   37
ATOM     37  C27 UNL A   1      11.849  47.972   9.284  1.00  0.00    +0.000 C 
ATOM    127  H19 UNL A   1      10.805  47.979   9.517  1.00  0.00    +0.000 H 
ATOM    128  H20 UNL A   1      12.106  47.095   8.728  1.00  0.00    +0.000 H 
BRANCH   37   36
ATOM     36  N1  UNL A   1      12.608  47.970  10.517  1.00  0.00    +0.000 N 
ATOM    126  H18 UNL A   1      13.580  47.821  10.493  1.00  0.00    +0.000 H 
BRANCH   36    2
ATOM      1  O1  UNL A   1      12.041  47.408  12.663  1.00  0.00    +0.000 O 
ATOM      2  C1  UNL A   1      11.982  48.173  11.708  1.00  0.00    +0.000 C 
BRANCH    2    3
ATOM      3  C2  UNL A   1      11.203  49.423  11.840  1.00  0.00    +0.000 C 
ATOM    109  H1  UNL A   1      10.426  49.527  11.169  1.00  0.00    +0.000 H 
BRANCH    3    4
ATOM      4  C3  UNL A   1      11.353  50.449  12.707  1.00  0.00    +0.000 C 
ATOM    110  H2  UNL A   1      10.987  50.355  13.667  1.00  0.00    +0.000 H 
BRANCH    4    5
ATOM      5  C4  UNL A   1      12.065  51.769  12.295  1.00  0.00    +0.000 C 
ATOM      6  C5  UNL A   1      10.950  52.761  12.098  1.00  0.00    +0.000 C 
ATOM      7  C6  UNL A   1      10.689  53.747  12.968  1.00  0.00    +0.000 C 
ATOM      9  C7  UNL A   1      11.576  53.993  14.153  1.00  0.00    +0.000 C 
ATOM     10  O3  UNL A   1      11.299  54.891  14.940  1.00  0.00    +0.000 O 
ATOM     11  C8  UNL A   1      12.809  53.180  14.286  1.00  0.00    +0.000 C 
ATOM     12  C9  UNL A   1      12.998  52.188  13.411  1.00  0.00    +0.000 C 
ATOM     13  C10 UNL A   1      14.232  51.373  13.276  1.00  0.00    +0.000 C 
ATOM     14  O4  UNL A   1      15.055  51.152  14.128  1.00  0.00    +0.000 O 
ATOM     15  C11 UNL A   1      14.271  50.972  11.842  1.00  0.00    +0.000 C 
ATOM     16  C12 UNL A   1      15.290  50.336  11.258  1.00  0.00    +0.000 C 
ATOM     17  C13 UNL A   1      15.398  50.390   9.794  1.00  0.00    +0.000 C 
ATOM     18  C14 UNL A   1      15.773  49.244   9.077  1.00  0.00    +0.000 C 
ATOM     19  C15 UNL A   1      15.993  49.339   7.703  1.00  0.00    +0.000 C 
ATOM     21  C16 UNL A   1      15.883  50.563   7.050  1.00  0.00    +0.000 C 
ATOM     23  C17 UNL A   1      15.520  51.704   7.744  1.00  0.00    +0.000 C 
ATOM     24  C18 UNL A   1      15.230  51.614   9.106  1.00  0.00    +0.000 C 
ATOM     25  O7  UNL A   1      14.917  52.800   9.714  1.00  0.00    +0.000 O 
ATOM     26  C19 UNL A   1      13.687  52.927  10.477  1.00  0.00    +0.000 C 
ATOM     35  C26 UNL A   1      13.103  51.617  11.121  1.00  0.00    +0.000 C 
ATOM    111  H3  UNL A   1      10.360  52.679  11.257  1.00  0.00    +0.000 H 
ATOM    113  H5  UNL A   1      13.497  53.373  15.029  1.00  0.00    +0.000 H 
ATOM    114  H6  UNL A   1      15.984  49.820  11.821  1.00  0.00    +0.000 H 
ATOM    115  H7  UNL A   1      15.885  48.340   9.561  1.00  0.00    +0.000 H 
ATOM    118  H10 UNL A   1      15.466  52.614   7.259  1.00  0.00    +0.000 H 
ATOM    119  H11 UNL A   1      13.924  53.465  11.371  1.00  0.00    +0.000 H 
ATOM    125  H17 UNL A   1      12.621  51.112  10.310  1.00  0.00    +0.000 H 
BRANCH    7    8
ATOM    112  H4  UNL A   1       8.812  54.240  12.413  1.00  0.00    +0.000 H 
ATOM      8  O2  UNL A   1       9.602  54.578  12.786  1.00  0.00    +0.000 O 
ENDBRANCH    7    8
BRANCH   19   20
ATOM    116  H8  UNL A   1      16.756  47.515   7.348  1.00  0.00    +0.000 H 
ATOM     20  O5  UNL A   1      16.343  48.255   6.946  1.00  0.00    +0.000 O 
ENDBRANCH   19   20
BRANCH   21   22
ATOM    117  H9  UNL A   1      15.734  51.331   5.204  1.00  0.00    +0.000 H 
ATOM     22  O6  UNL A   1      16.138  50.655   5.712  1.00  0.00    +0.000 O 
ENDBRANCH   21   22
BRANCH   26   27
ATOM     34  C25 UNL A   1      11.907  53.101   8.649  1.00  0.00    +0.000 C 
ATOM     28  C21 UNL A   1      12.535  55.094   9.850  1.00  0.00    +0.000 C 
ATOM    120  H12 UNL A   1      13.180  55.585  10.488  1.00  0.00    +0.000 H 
ATOM    121  H13 UNL A   1      11.368  56.807   9.438  1.00  0.00    +0.000 H 
ATOM     27  C20 UNL A   1      12.695  53.713   9.632  1.00  0.00    +0.000 C 
ATOM    124  H16 UNL A   1      12.037  52.100   8.433  1.00  0.00    +0.000 H 
ATOM     29  C22 UNL A   1      11.519  55.810   9.216  1.00  0.00    +0.000 C 
ATOM     30  C23 UNL A   1      10.711  55.171   8.285  1.00  0.00    +0.000 C 
ATOM     32  C24 UNL A   1      10.946  53.839   7.959  1.00  0.00    +0.000 C 
BRANCH   30   31
ATOM    122  H14 UNL A   1       9.563  56.759   7.857  1.00  0.00    +0.000 H 
ATOM     31  O8  UNL A   1       9.690  55.847   7.682  1.00  0.00    +0.000 O 
ENDBRANCH   30   31
BRANCH   32   33
ATOM     33  O9  UNL A   1      10.212  53.242   6.974  1.00  0.00    +0.000 O 
ATOM    123  H15 UNL A   1      10.219  52.309   6.886  1.00  0.00    +0.000 H 
ENDBRANCH   32   33
ENDBRANCH   26   27
ENDBRANCH    4    5
ENDBRANCH    3    4
ENDBRANCH    2    3
ENDBRANCH   36    2
ENDBRANCH   37   36
ENDBRANCH   38   37
ENDBRANCH   39   38
ENDBRANCH   40   39
ENDBRANCH   41   40
ENDBRANCH   42   41
ENDBRANCH   43   42
ENDBRANCH   44   43
ENDBRANCH   46   44
ENDBRANCH   50   49
BRANCH   54   55
ATOM     65  F5  UNL A   1      18.806  47.681   0.048  1.00  0.00    +0.000 F 
ATOM     55  C42 UNL A   1      17.052  48.282  -1.444  1.00  0.00    +0.000 C 
ATOM     56  C43 UNL A   1      16.420  48.047  -2.673  1.00  0.00    +0.000 C 
ATOM     57  F1  UNL A   1      15.346  48.766  -3.030  1.00  0.00    +0.000 F 
ATOM     58  C44 UNL A   1      16.877  47.050  -3.534  1.00  0.00    +0.000 C 
ATOM     59  F2  UNL A   1      16.240  46.822  -4.690  1.00  0.00    +0.000 F 
ATOM     60  C45 UNL A   1      17.987  46.291  -3.193  1.00  0.00    +0.000 C 
ATOM     61  F3  UNL A   1      18.433  45.343  -4.029  1.00  0.00    +0.000 F 
ATOM     62  C46 UNL A   1      18.632  46.513  -1.986  1.00  0.00    +0.000 C 
ATOM     63  F4  UNL A   1      19.710  45.787  -1.661  1.00  0.00    +0.000 F 
ATOM     64  C47 UNL A   1      18.163  47.492  -1.113  1.00  0.00    +0.000 C 
ENDBRANCH   54   55
BRANCH   71   72
ATOM     72  C53 UNL A   1      18.376  55.301  -0.559  1.00  0.00    +0.000 C 
ATOM     73  C54 UNL A   1      19.555  55.724   0.070  1.00  0.00    +0.000 C 
ATOM     74  F6  UNL A   1      19.887  55.239   1.277  1.00  0.00    +0.000 F 
ATOM     75  C55 UNL A   1      20.383  56.671  -0.526  1.00  0.00    +0.000 C 
ATOM     76  F7  UNL A   1      21.487  57.088   0.108  1.00  0.00    +0.000 F 
ATOM     77  C56 UNL A   1      20.062  57.190  -1.772  1.00  0.00    +0.000 C 
ATOM     78  F8  UNL A   1      20.866  58.094  -2.350  1.00  0.00    +0.000 F 
ATOM     79  C57 UNL A   1      18.906  56.776  -2.417  1.00  0.00    +0.000 C 
ATOM     80  F9  UNL A   1      18.601  57.268  -3.625  1.00  0.00    +0.000 F 
ATOM     81  C58 UNL A   1      18.063  55.848  -1.812  1.00  0.00    +0.000 C 
ATOM     82  F10 UNL A   1      16.950  55.469  -2.457  1.00  0.00    +0.000 F 
ENDBRANCH   71   72
BRANCH   86   87
ATOM     97  F15 UNL A   1      12.063  56.020   3.134  1.00  0.00    +0.000 F 
ATOM     87  C62 UNL A   1      13.779  55.449   4.676  1.00  0.00    +0.000 C 
ATOM     88  C63 UNL A   1      14.394  55.720   5.906  1.00  0.00    +0.000 C 
ATOM     89  F11 UNL A   1      15.431  54.973   6.314  1.00  0.00    +0.000 F 
ATOM     90  C64 UNL A   1      13.931  56.744   6.729  1.00  0.00    +0.000 C 
ATOM     91  F12 UNL A   1      14.519  56.965   7.913  1.00  0.00    +0.000 F 
ATOM     92  C65 UNL A   1      12.860  57.529   6.328  1.00  0.00    +0.000 C 
ATOM     93  F13 UNL A   1      12.424  58.523   7.115  1.00  0.00    +0.000 F 
ATOM     94  C66 UNL A   1      12.239  57.281   5.113  1.00  0.00    +0.000 C 
ATOM     95  F14 UNL A   1      11.213  58.047   4.716  1.00  0.00    +0.000 F 
ATOM     96  C67 UNL A   1      12.684  56.242   4.302  1.00  0.00    +0.000 C 
ENDBRANCH   86   87
TORSDOF 23
ENDMDL
MODEL 6
REMARK VINA RESULT:      -7.9      1.723      7.631
ROOT
ATOM    142  H34 UNL A   1      18.589  53.459  -0.981  1.00  0.00    +0.000 H 
ATOM    143  H35 UNL A   1      18.190  50.963  -1.618  1.00  0.00    +0.000 H 
ATOM    144  H36 UNL A   1      15.872  51.847   1.698  1.00  0.00    +0.000 H 
ATOM    145  H37 UNL A   1      11.902  49.946   6.309  1.00  0.00    +0.000 H 
ATOM    146  H38 UNL A   1      12.071  52.439   6.759  1.00  0.00    +0.000 H 
ATOM    147  H39 UNL A   1      14.440  51.584   3.452  1.00  0.00    +0.000 H 
ATOM    148  H40 UNL A   1      13.674  46.716   2.450  1.00  0.00    +0.000 H 
ATOM    149  H41 UNL A   1      15.323  46.984   0.510  1.00  0.00    +0.000 H 
ATOM    150  H42 UNL A   1      16.557  56.701   2.772  1.00  0.00    +0.000 H 
ATOM    151  H43 UNL A   1      15.063  56.409   4.832  1.00  0.00    +0.000 H 
ATOM     50  C38 UNL A   1      13.881  53.816   5.046  1.00  0.00    +0.000 C 
ATOM     51  C39 UNL A   1      14.862  54.304   4.013  1.00  0.00    +0.000 C 
ATOM     52  N3  UNL A   1      15.396  53.654   3.008  1.00  0.00    +0.000 N 
ATOM     53  C40 UNL A   1      16.216  54.566   2.355  1.00  0.00    +0.000 C 
ATOM     54  C41 UNL A   1      17.010  54.367   1.276  1.00  0.00    +0.000 C 
ATOM     66  C48 UNL A   1      17.157  53.107   0.595  1.00  0.00    +0.000 C 
ATOM     67  C49 UNL A   1      17.954  52.805  -0.497  1.00  0.00    +0.000 C 
ATOM     68  C50 UNL A   1      17.750  51.462  -0.829  1.00  0.00    +0.000 C 
ATOM     69  C51 UNL A   1      16.858  50.917   0.079  1.00  0.00    +0.000 C 
ATOM     70  N4  UNL A   1      16.499  51.938   0.945  1.00  0.00    +0.000 N 
ATOM     71  C52 UNL A   1      16.363  49.566   0.150  1.00  0.00    +0.000 C 
ATOM     83  C59 UNL A   1      15.525  49.094   1.105  1.00  0.00    +0.000 C 
ATOM     84  N5  UNL A   1      14.960  49.768   2.177  1.00  0.00    +0.000 N 
ATOM     85  C60 UNL A   1      14.202  48.895   2.791  1.00  0.00    +0.000 C 
ATOM     86  C61 UNL A   1      13.351  49.074   4.016  1.00  0.00    +0.000 C 
ATOM     98  C68 UNL A   1      13.259  50.293   4.580  1.00  0.00    +0.000 C 
ATOM     99  C69 UNL A   1      12.459  50.618   5.758  1.00  0.00    +0.000 C 
ATOM    100  C70 UNL A   1      12.563  51.932   6.007  1.00  0.00    +0.000 C 
ATOM    101  C71 UNL A   1      13.488  52.529   5.044  1.00  0.00    +0.000 C 
ATOM    102  N6  UNL A   1      13.835  51.486   4.223  1.00  0.00    +0.000 N 
ATOM    103  C72 UNL A   1      14.198  47.562   2.174  1.00  0.00    +0.000 C 
ATOM    104  C73 UNL A   1      15.044  47.730   1.166  1.00  0.00    +0.000 C 
ATOM    105  C74 UNL A   1      16.092  55.824   3.058  1.00  0.00    +0.000 C 
ATOM    106  C75 UNL A   1      15.304  55.703   4.118  1.00  0.00    +0.000 C 
ENDROOT
BRANCH   50   49
ATOM    107  C76 UNL A   1      14.152  54.955   7.277  1.00  0.00    +0.000 C 
ATOM    108  C77 UNL A   1      13.607  55.681   8.340  1.00  0.00    +0.000 C 
ATOM    140  H32 UNL A   1      10.746  56.644   6.877  1.00  0.00    +0.000 H 
ATOM     46  C34 UNL A   1      12.325  56.221   8.217  1.00  0.00    +0.000 C 
ATOM     47  C35 UNL A   1      11.630  56.129   7.009  1.00  0.00    +0.000 C 
ATOM     48  C36 UNL A   1      12.139  55.339   5.986  1.00  0.00    +0.000 C 
ATOM    141  H33 UNL A   1      11.590  55.201   5.124  1.00  0.00    +0.000 H 
ATOM     49  C37 UNL A   1      13.397  54.726   6.115  1.00  0.00    +0.000 C 
ATOM    152  H44 UNL A   1      15.114  54.585   7.347  1.00  0.00    +0.000 H 
ATOM    153  H45 UNL A   1      14.147  55.816   9.208  1.00  0.00    +0.000 H 
BRANCH   46   44
ATOM     44  C33 UNL A   1      11.675  56.807   9.408  1.00  0.00    +0.000 C 
ATOM     45  O10 UNL A   1      11.669  58.021   9.574  1.00  0.00    +0.000 O 
BRANCH   44   43
ATOM     43  N2  UNL A   1      11.124  55.963  10.345  1.00  0.00    +0.000 N 
ATOM    139  H31 UNL A   1      10.180  55.724  10.203  1.00  0.00    +0.000 H 
BRANCH   43   42
ATOM    137  H29 UNL A   1      12.568  56.007  11.819  1.00  0.00    +0.000 H 
ATOM     42  C32 UNL A   1      11.755  55.379  11.519  1.00  0.00    +0.000 C 
ATOM    138  H30 UNL A   1      11.007  55.304  12.282  1.00  0.00    +0.000 H 
BRANCH   42   41
ATOM     41  C31 UNL A   1      12.292  53.978  11.266  1.00  0.00    +0.000 C 
ATOM    135  H27 UNL A   1      11.786  53.304  11.924  1.00  0.00    +0.000 H 
ATOM    136  H28 UNL A   1      12.116  53.770  10.231  1.00  0.00    +0.000 H 
BRANCH   41   40
ATOM    133  H25 UNL A   1      14.218  53.400  10.599  1.00  0.00    +0.000 H 
ATOM    134  H26 UNL A   1      14.166  54.797  11.718  1.00  0.00    +0.000 H 
ATOM     40  C30 UNL A   1      13.795  53.820  11.487  1.00  0.00    +0.000 C 
BRANCH   40   39
ATOM    131  H23 UNL A   1      14.840  53.487  13.304  1.00  0.00    +0.000 H 
ATOM    132  H24 UNL A   1      13.273  52.636  13.138  1.00  0.00    +0.000 H 
ATOM     39  C29 UNL A   1      14.189  52.926  12.667  1.00  0.00    +0.000 C 
BRANCH   39   38
ATOM    129  H21 UNL A   1      15.492  51.308  13.131  1.00  0.00    +0.000 H 
ATOM    130  H22 UNL A   1      14.140  50.915  12.039  1.00  0.00    +0.000 H 
ATOM     38  C28 UNL A   1      14.903  51.620  12.294  1.00  0.00    +0.000 C 
BRANCH   38   37
ATOM     37  C27 UNL A   1      15.820  51.734  11.078  1.00  0.00    +0.000 C 
ATOM    127  H19 UNL A   1      15.346  52.345  10.339  1.00  0.00    +0.000 H 
ATOM    128  H20 UNL A   1      16.746  52.170  11.392  1.00  0.00    +0.000 H 
BRANCH   37   36
ATOM     36  N1  UNL A   1      16.099  50.434  10.506  1.00  0.00    +0.000 N 
ATOM    126  H18 UNL A   1      17.013  50.212  10.217  1.00  0.00    +0.000 H 
BRANCH   36    2
ATOM      1  O1  UNL A   1      15.096  48.414  10.903  1.00  0.00    +0.000 O 
ATOM      2  C1  UNL A   1      15.103  49.517  10.368  1.00  0.00    +0.000 C 
BRANCH    2    3
ATOM      3  C2  UNL A   1      13.951  49.913   9.531  1.00  0.00    +0.000 C 
ATOM    109  H1  UNL A   1      13.986  50.878   9.168  1.00  0.00    +0.000 H 
BRANCH    3    4
ATOM      4  C3  UNL A   1      12.860  49.203   9.169  1.00  0.00    +0.000 C 
ATOM    110  H2  UNL A   1      12.945  48.494   8.423  1.00  0.00    +0.000 H 
BRANCH    4    5
ATOM      5  C4  UNL A   1      11.478  49.426   9.846  1.00  0.00    +0.000 C 
ATOM      6  C5  UNL A   1      11.233  50.907   9.741  1.00  0.00    +0.000 C 
ATOM      7  C6  UNL A   1      10.352  51.442   8.885  1.00  0.00    +0.000 C 
ATOM      9  C7  UNL A   1       9.461  50.575   8.044  1.00  0.00    +0.000 C 
ATOM     10  O3  UNL A   1       8.679  51.096   7.256  1.00  0.00    +0.000 O 
ATOM     11  C8  UNL A   1       9.510  49.109   8.254  1.00  0.00    +0.000 C 
ATOM     12  C9  UNL A   1      10.433  48.631   9.093  1.00  0.00    +0.000 C 
ATOM     13  C10 UNL A   1      10.537  47.224   9.558  1.00  0.00    +0.000 C 
ATOM     14  O4  UNL A   1      10.141  46.238   8.990  1.00  0.00    +0.000 O 
ATOM     15  C11 UNL A   1      11.150  47.313  10.912  1.00  0.00    +0.000 C 
ATOM     16  C12 UNL A   1      11.302  46.282  11.748  1.00  0.00    +0.000 C 
ATOM     17  C13 UNL A   1      11.504  46.566  13.175  1.00  0.00    +0.000 C 
ATOM     18  C14 UNL A   1      12.433  45.816  13.914  1.00  0.00    +0.000 C 
ATOM     19  C15 UNL A   1      12.525  46.009  15.291  1.00  0.00    +0.000 C 
ATOM     21  C16 UNL A   1      11.681  46.905  15.940  1.00  0.00    +0.000 C 
ATOM     23  C17 UNL A   1      10.755  47.647  15.228  1.00  0.00    +0.000 C 
ATOM     24  C18 UNL A   1      10.696  47.516  13.840  1.00  0.00    +0.000 C 
ATOM     25  O7  UNL A   1       9.724  48.262  13.227  1.00  0.00    +0.000 O 
ATOM     26  C19 UNL A   1      10.070  49.150  12.131  1.00  0.00    +0.000 C 
ATOM     35  C26 UNL A   1      11.333  48.775  11.273  1.00  0.00    +0.000 C 
ATOM    111  H3  UNL A   1      11.768  51.539  10.355  1.00  0.00    +0.000 H 
ATOM    113  H5  UNL A   1       8.853  48.479   7.768  1.00  0.00    +0.000 H 
ATOM    114  H6  UNL A   1      11.278  45.311  11.400  1.00  0.00    +0.000 H 
ATOM    115  H7  UNL A   1      13.040  45.130  13.441  1.00  0.00    +0.000 H 
ATOM    118  H10 UNL A   1      10.114  48.290  15.719  1.00  0.00    +0.000 H 
ATOM    119  H11 UNL A   1       9.315  49.037  11.381  1.00  0.00    +0.000 H 
ATOM    125  H17 UNL A   1      12.164  49.087  11.870  1.00  0.00    +0.000 H 
BRANCH    7    8
ATOM    112  H4  UNL A   1      10.896  53.374   9.104  1.00  0.00    +0.000 H 
ATOM      8  O2  UNL A   1      10.226  52.811   8.766  1.00  0.00    +0.000 O 
ENDBRANCH    7    8
BRANCH   19   20
ATOM    116  H8  UNL A   1      14.295  45.650  16.169  1.00  0.00    +0.000 H 
ATOM     20  O5  UNL A   1      13.423  45.324  16.062  1.00  0.00    +0.000 O 
ENDBRANCH   19   20
BRANCH   21   22
ATOM    117  H9  UNL A   1      12.540  46.842  17.750  1.00  0.00    +0.000 H 
ATOM     22  O6  UNL A   1      11.751  47.060  17.295  1.00  0.00    +0.000 O 
ENDBRANCH   21   22
BRANCH   26   27
ATOM     34  C25 UNL A   1       9.039  51.477  12.383  1.00  0.00    +0.000 C 
ATOM     28  C21 UNL A   1      11.121  51.003  13.502  1.00  0.00    +0.000 C 
ATOM    120  H12 UNL A   1      11.944  50.396  13.636  1.00  0.00    +0.000 H 
ATOM    121  H13 UNL A   1      11.811  52.512  14.811  1.00  0.00    +0.000 H 
ATOM     27  C20 UNL A   1      10.071  50.574  12.669  1.00  0.00    +0.000 C 
ATOM    124  H16 UNL A   1       8.281  51.206  11.737  1.00  0.00    +0.000 H 
ATOM     29  C22 UNL A   1      11.068  52.239  14.149  1.00  0.00    +0.000 C 
ATOM     30  C23 UNL A   1      10.006  53.098  13.895  1.00  0.00    +0.000 C 
ATOM     32  C24 UNL A   1       9.031  52.742  12.969  1.00  0.00    +0.000 C 
BRANCH   30   31
ATOM    122  H14 UNL A   1       9.774  55.083  14.060  1.00  0.00    +0.000 H 
ATOM     31  O8  UNL A   1       9.920  54.295  14.545  1.00  0.00    +0.000 O 
ENDBRANCH   30   31
BRANCH   32   33
ATOM     33  O9  UNL A   1       8.042  53.629  12.650  1.00  0.00    +0.000 O 
ATOM    123  H15 UNL A   1       8.180  54.260  11.972  1.00  0.00    +0.000 H 
ENDBRANCH   32   33
ENDBRANCH   26   27
ENDBRANCH    4    5
ENDBRANCH    3    4
ENDBRANCH    2    3
ENDBRANCH   36    2
ENDBRANCH   37   36
ENDBRANCH   38   37
ENDBRANCH   39   38
ENDBRANCH   40   39
ENDBRANCH   41   40
ENDBRANCH   42   41
ENDBRANCH   43   42
ENDBRANCH   44   43
ENDBRANCH   46   44
ENDBRANCH   50   49
BRANCH   54   55
ATOM     65  F5  UNL A   1      16.047  56.079  -0.780  1.00  0.00    +0.000 F 
ATOM     55  C42 UNL A   1      17.787  55.539   0.752  1.00  0.00    +0.000 C 
ATOM     56  C43 UNL A   1      19.072  55.838   1.227  1.00  0.00    +0.000 C 
ATOM     57  F1  UNL A   1      19.607  55.123   2.227  1.00  0.00    +0.000 F 
ATOM     58  C44 UNL A   1      19.806  56.894   0.689  1.00  0.00    +0.000 C 
ATOM     59  F2  UNL A   1      21.020  57.182   1.178  1.00  0.00    +0.000 F 
ATOM     60  C45 UNL A   1      19.280  57.651  -0.348  1.00  0.00    +0.000 C 
ATOM     61  F3  UNL A   1      19.994  58.656  -0.873  1.00  0.00    +0.000 F 
ATOM     62  C46 UNL A   1      18.015  57.366  -0.839  1.00  0.00    +0.000 C 
ATOM     63  F4  UNL A   1      17.511  58.090  -1.847  1.00  0.00    +0.000 F 
ATOM     64  C47 UNL A   1      17.269  56.327  -0.287  1.00  0.00    +0.000 C 
ENDBRANCH   54   55
BRANCH   71   72
ATOM     72  C53 UNL A   1      16.812  48.604  -0.908  1.00  0.00    +0.000 C 
ATOM     73  C54 UNL A   1      16.052  48.389  -2.066  1.00  0.00    +0.000 C 
ATOM     74  F6  UNL A   1      14.865  48.996  -2.216  1.00  0.00    +0.000 F 
ATOM     75  C55 UNL A   1      16.496  47.524  -3.062  1.00  0.00    +0.000 C 
ATOM     76  F7  UNL A   1      15.738  47.306  -4.144  1.00  0.00    +0.000 F 
ATOM     77  C56 UNL A   1      17.719  46.882  -2.931  1.00  0.00    +0.000 C 
ATOM     78  F8  UNL A   1      18.151  46.058  -3.897  1.00  0.00    +0.000 F 
ATOM     79  C57 UNL A   1      18.492  47.090  -1.799  1.00  0.00    +0.000 C 
ATOM     80  F9  UNL A   1      19.679  46.479  -1.677  1.00  0.00    +0.000 F 
ATOM     81  C58 UNL A   1      18.038  47.935  -0.790  1.00  0.00    +0.000 C 
ATOM     82  F10 UNL A   1      18.805  48.114   0.296  1.00  0.00    +0.000 F 
ENDBRANCH   71   72
BRANCH   86   87
ATOM     97  F15 UNL A   1      10.955  48.014   2.905  1.00  0.00    +0.000 F 
ATOM     87  C62 UNL A   1      12.609  47.934   4.610  1.00  0.00    +0.000 C 
ATOM     88  C63 UNL A   1      13.058  47.318   5.785  1.00  0.00    +0.000 C 
ATOM     89  F11 UNL A   1      14.198  47.728   6.363  1.00  0.00    +0.000 F 
ATOM     90  C64 UNL A   1      12.351  46.264   6.358  1.00  0.00    +0.000 C 
ATOM     91  F12 UNL A   1      12.816  45.673   7.467  1.00  0.00    +0.000 F 
ATOM     92  C65 UNL A   1      11.170  45.822   5.780  1.00  0.00    +0.000 C 
ATOM     93  F13 UNL A   1      10.483  44.816   6.340  1.00  0.00    +0.000 F 
ATOM     94  C66 UNL A   1      10.705  46.420   4.618  1.00  0.00    +0.000 C 
ATOM     95  F14 UNL A   1       9.557  46.005   4.064  1.00  0.00    +0.000 F 
ATOM     96  C67 UNL A   1      11.425  47.456   4.031  1.00  0.00    +0.000 C 
ENDBRANCH   86   87
TORSDOF 23
ENDMDL
MODEL 7
REMARK VINA RESULT:      -7.9      1.761      3.864
ROOT
ATOM    142  H34 UNL A   1      13.651  46.802   2.229  1.00  0.00    +0.000 H 
ATOM    143  H35 UNL A   1      15.353  47.058   0.272  1.00  0.00    +0.000 H 
ATOM    144  H36 UNL A   1      15.124  50.672   2.279  1.00  0.00    +0.000 H 
ATOM    145  H37 UNL A   1      16.742  56.819   2.758  1.00  0.00    +0.000 H 
ATOM    146  H38 UNL A   1      15.305  56.494   4.827  1.00  0.00    +0.000 H 
ATOM    147  H39 UNL A   1      15.478  52.859   2.818  1.00  0.00    +0.000 H 
ATOM    148  H40 UNL A   1      18.673  53.564  -1.001  1.00  0.00    +0.000 H 
ATOM    149  H41 UNL A   1      18.241  51.125  -1.649  1.00  0.00    +0.000 H 
ATOM    150  H42 UNL A   1      11.962  50.067   6.129  1.00  0.00    +0.000 H 
ATOM    151  H43 UNL A   1      12.229  52.554   6.681  1.00  0.00    +0.000 H 
ATOM     50  C38 UNL A   1      14.157  53.899   5.056  1.00  0.00    +0.000 C 
ATOM     51  C39 UNL A   1      13.698  52.468   4.955  1.00  0.00    +0.000 C 
ATOM     52  N3  UNL A   1      14.062  51.541   4.103  1.00  0.00    +0.000 N 
ATOM     53  C40 UNL A   1      13.356  50.397   4.457  1.00  0.00    +0.000 C 
ATOM     54  C41 UNL A   1      13.361  49.182   3.860  1.00  0.00    +0.000 C 
ATOM     66  C48 UNL A   1      14.129  48.855   2.688  1.00  0.00    +0.000 C 
ATOM     67  C49 UNL A   1      14.184  47.654   2.000  1.00  0.00    +0.000 C 
ATOM     68  C50 UNL A   1      15.087  47.796   0.941  1.00  0.00    +0.000 C 
ATOM     69  C51 UNL A   1      15.564  49.097   0.945  1.00  0.00    +0.000 C 
ATOM     70  N4  UNL A   1      14.971  49.734   2.024  1.00  0.00    +0.000 N 
ATOM     71  C52 UNL A   1      16.496  49.713   0.036  1.00  0.00    +0.000 C 
ATOM     83  C59 UNL A   1      16.877  51.013   0.076  1.00  0.00    +0.000 C 
ATOM     84  N5  UNL A   1      16.494  52.005   0.965  1.00  0.00    +0.000 N 
ATOM     85  C60 UNL A   1      17.154  53.079   0.612  1.00  0.00    +0.000 C 
ATOM     86  C61 UNL A   1      17.130  54.451   1.224  1.00  0.00    +0.000 C 
ATOM     98  C68 UNL A   1      16.395  54.664   2.331  1.00  0.00    +0.000 C 
ATOM     99  C69 UNL A   1      16.291  55.935   3.043  1.00  0.00    +0.000 C 
ATOM    100  C70 UNL A   1      15.517  55.768   4.124  1.00  0.00    +0.000 C 
ATOM    101  C71 UNL A   1      15.019  54.393   4.148  1.00  0.00    +0.000 C 
ATOM    102  N6  UNL A   1      15.608  53.806   3.057  1.00  0.00    +0.000 N 
ATOM    103  C72 UNL A   1      18.039  52.888  -0.546  1.00  0.00    +0.000 C 
ATOM    104  C73 UNL A   1      17.810  51.618  -0.851  1.00  0.00    +0.000 C 
ATOM    105  C74 UNL A   1      12.560  50.735   5.618  1.00  0.00    +0.000 C 
ATOM    106  C75 UNL A   1      12.699  52.015   5.936  1.00  0.00    +0.000 C 
ENDROOT
BRANCH   50   49
ATOM    107  C76 UNL A   1      14.263  54.962   7.338  1.00  0.00    +0.000 C 
ATOM    108  C77 UNL A   1      13.649  55.676   8.370  1.00  0.00    +0.000 C 
ATOM    140  H32 UNL A   1      10.964  56.783   6.690  1.00  0.00    +0.000 H 
ATOM     46  C34 UNL A   1      12.401  56.265   8.151  1.00  0.00    +0.000 C 
ATOM     47  C35 UNL A   1      11.816  56.233   6.883  1.00  0.00    +0.000 C 
ATOM     48  C36 UNL A   1      12.389  55.455   5.885  1.00  0.00    +0.000 C 
ATOM    141  H33 UNL A   1      11.915  55.362   4.973  1.00  0.00    +0.000 H 
ATOM     49  C37 UNL A   1      13.609  54.794   6.107  1.00  0.00    +0.000 C 
ATOM    152  H44 UNL A   1      15.202  54.556   7.481  1.00  0.00    +0.000 H 
ATOM    153  H45 UNL A   1      14.112  55.767   9.287  1.00  0.00    +0.000 H 
BRANCH   46   44
ATOM     44  C33 UNL A   1      11.666  56.839   9.297  1.00  0.00    +0.000 C 
ATOM     45  O10 UNL A   1      11.284  58.003   9.266  1.00  0.00    +0.000 O 
BRANCH   44   43
ATOM     43  N2  UNL A   1      11.464  56.059  10.413  1.00  0.00    +0.000 N 
ATOM    139  H31 UNL A   1      11.717  56.467  11.272  1.00  0.00    +0.000 H 
BRANCH   43   42
ATOM    137  H29 UNL A   1      10.209  54.670  11.281  1.00  0.00    +0.000 H 
ATOM     42  C32 UNL A   1      10.926  54.709  10.488  1.00  0.00    +0.000 C 
ATOM    138  H30 UNL A   1      10.483  54.486   9.539  1.00  0.00    +0.000 H 
BRANCH   42   41
ATOM     41  C31 UNL A   1      11.997  53.660  10.749  1.00  0.00    +0.000 C 
ATOM    135  H27 UNL A   1      11.518  52.707  10.823  1.00  0.00    +0.000 H 
ATOM    136  H28 UNL A   1      12.687  53.724   9.933  1.00  0.00    +0.000 H 
BRANCH   41   40
ATOM    133  H25 UNL A   1      12.597  54.865  12.386  1.00  0.00    +0.000 H 
ATOM    134  H26 UNL A   1      12.529  53.103  12.697  1.00  0.00    +0.000 H 
ATOM     40  C30 UNL A   1      12.813  53.883  12.020  1.00  0.00    +0.000 C 
BRANCH   40   39
ATOM    131  H23 UNL A   1      14.678  54.648  11.355  1.00  0.00    +0.000 H 
ATOM    132  H24 UNL A   1      14.730  53.641  12.836  1.00  0.00    +0.000 H 
ATOM     39  C29 UNL A   1      14.331  53.765  11.850  1.00  0.00    +0.000 C 
BRANCH   39   38
ATOM    129  H21 UNL A   1      14.346  52.582  10.081  1.00  0.00    +0.000 H 
ATOM    130  H22 UNL A   1      15.877  52.618  10.992  1.00  0.00    +0.000 H 
ATOM     38  C28 UNL A   1      14.811  52.551  11.044  1.00  0.00    +0.000 C 
BRANCH   38   37
ATOM     37  C27 UNL A   1      14.487  51.204  11.690  1.00  0.00    +0.000 C 
ATOM    127  H19 UNL A   1      14.784  51.230  12.718  1.00  0.00    +0.000 H 
ATOM    128  H20 UNL A   1      13.434  51.032  11.605  1.00  0.00    +0.000 H 
BRANCH   37   36
ATOM     36  N1  UNL A   1      15.181  50.122  11.026  1.00  0.00    +0.000 N 
ATOM    126  H18 UNL A   1      15.660  49.448  11.558  1.00  0.00    +0.000 H 
BRANCH   36    2
ATOM      1  O1  UNL A   1      16.177  50.048   8.965  1.00  0.00    +0.000 O 
ATOM      2  C1  UNL A   1      15.173  50.033   9.667  1.00  0.00    +0.000 C 
BRANCH    2    3
ATOM      3  C2  UNL A   1      13.851  49.885   9.022  1.00  0.00    +0.000 C 
ATOM    109  H1  UNL A   1      13.527  50.711   8.495  1.00  0.00    +0.000 H 
BRANCH    3    4
ATOM      4  C3  UNL A   1      13.002  48.834   9.018  1.00  0.00    +0.000 C 
ATOM    110  H2  UNL A   1      13.306  47.944   8.594  1.00  0.00    +0.000 H 
BRANCH    4    5
ATOM      5  C4  UNL A   1      11.578  48.930   9.637  1.00  0.00    +0.000 C 
ATOM      6  C5  UNL A   1      11.166  50.363   9.433  1.00  0.00    +0.000 C 
ATOM      7  C6  UNL A   1      10.262  50.739   8.518  1.00  0.00    +0.000 C 
ATOM      9  C7  UNL A   1       9.512  49.725   7.705  1.00  0.00    +0.000 C 
ATOM     10  O3  UNL A   1       8.705  50.103   6.862  1.00  0.00    +0.000 O 
ATOM     11  C8  UNL A   1       9.724  48.290   8.007  1.00  0.00    +0.000 C 
ATOM     12  C9  UNL A   1      10.663  47.974   8.902  1.00  0.00    +0.000 C 
ATOM     13  C10 UNL A   1      10.913  46.619   9.457  1.00  0.00    +0.000 C 
ATOM     14  O4  UNL A   1      10.657  45.562   8.939  1.00  0.00    +0.000 O 
ATOM     15  C11 UNL A   1      11.459  46.859  10.821  1.00  0.00    +0.000 C 
ATOM     16  C12 UNL A   1      11.698  45.903  11.724  1.00  0.00    +0.000 C 
ATOM     17  C13 UNL A   1      11.811  46.291  13.136  1.00  0.00    +0.000 C 
ATOM     18  C14 UNL A   1      12.791  45.701  13.949  1.00  0.00    +0.000 C 
ATOM     19  C15 UNL A   1      12.808  45.983  15.314  1.00  0.00    +0.000 C 
ATOM     21  C16 UNL A   1      11.840  46.809  15.880  1.00  0.00    +0.000 C 
ATOM     23  C17 UNL A   1      10.862  47.393  15.094  1.00  0.00    +0.000 C 
ATOM     24  C18 UNL A   1      10.872  47.176  13.715  1.00  0.00    +0.000 C 
ATOM     25  O7  UNL A   1       9.844  47.763  13.027  1.00  0.00    +0.000 O 
ATOM     26  C19 UNL A   1      10.126  48.622  11.889  1.00  0.00    +0.000 C 
ATOM     35  C26 UNL A   1      11.456  48.350  11.096  1.00  0.00    +0.000 C 
ATOM    111  H3  UNL A   1      11.600  51.089  10.023  1.00  0.00    +0.000 H 
ATOM    113  H5  UNL A   1       9.164  47.559   7.541  1.00  0.00    +0.000 H 
ATOM    114  H6  UNL A   1      11.801  44.918  11.436  1.00  0.00    +0.000 H 
ATOM    115  H7  UNL A   1      13.493  45.066  13.539  1.00  0.00    +0.000 H 
ATOM    118  H10 UNL A   1      10.132  47.982  15.523  1.00  0.00    +0.000 H 
ATOM    119  H11 UNL A   1       9.419  48.376  11.125  1.00  0.00    +0.000 H 
ATOM    125  H17 UNL A   1      12.221  48.793  11.698  1.00  0.00    +0.000 H 
BRANCH    7    8
ATOM    112  H4  UNL A   1       9.798  52.633   9.040  1.00  0.00    +0.000 H 
ATOM      8  O2  UNL A   1       9.983  52.075   8.311  1.00  0.00    +0.000 O 
ENDBRANCH    7    8
BRANCH   19   20
ATOM    116  H8  UNL A   1      14.352  44.811  15.837  1.00  0.00    +0.000 H 
ATOM     20  O5  UNL A   1      13.749  45.455  16.154  1.00  0.00    +0.000 O 
ENDBRANCH   19   20
BRANCH   21   22
ATOM    117  H9  UNL A   1      12.612  47.378  17.640  1.00  0.00    +0.000 H 
ATOM     22  O6  UNL A   1      11.840  47.049  17.223  1.00  0.00    +0.000 O 
ENDBRANCH   21   22
BRANCH   26   27
ATOM     34  C25 UNL A   1       8.831  50.827  11.948  1.00  0.00    +0.000 C 
ATOM     28  C21 UNL A   1      10.888  50.656  13.192  1.00  0.00    +0.000 C 
ATOM    120  H12 UNL A   1      11.765  50.154  13.403  1.00  0.00    +0.000 H 
ATOM    121  H13 UNL A   1      11.335  52.304  14.438  1.00  0.00    +0.000 H 
ATOM     27  C20 UNL A   1       9.940  50.064  12.338  1.00  0.00    +0.000 C 
ATOM    124  H16 UNL A   1       8.145  50.436  11.284  1.00  0.00    +0.000 H 
ATOM     29  C22 UNL A   1      10.664  51.912  13.758  1.00  0.00    +0.000 C 
ATOM     30  C23 UNL A   1       9.529  52.630  13.401  1.00  0.00    +0.000 C 
ATOM     32  C24 UNL A   1       8.651  52.114  12.453  1.00  0.00    +0.000 C 
BRANCH   30   31
ATOM    122  H14 UNL A   1       9.189  54.605  13.433  1.00  0.00    +0.000 H 
ATOM     31  O8  UNL A   1       9.275  53.843  13.971  1.00  0.00    +0.000 O 
ENDBRANCH   30   31
BRANCH   32   33
ATOM     33  O9  UNL A   1       7.589  52.863  12.033  1.00  0.00    +0.000 O 
ATOM    123  H15 UNL A   1       7.344  53.633  12.506  1.00  0.00    +0.000 H 
ENDBRANCH   32   33
ENDBRANCH   26   27
ENDBRANCH    4    5
ENDBRANCH    3    4
ENDBRANCH    2    3
ENDBRANCH   36    2
ENDBRANCH   37   36
ENDBRANCH   38   37
ENDBRANCH   39   38
ENDBRANCH   40   39
ENDBRANCH   41   40
ENDBRANCH   42   41
ENDBRANCH   43   42
ENDBRANCH   44   43
ENDBRANCH   46   44
ENDBRANCH   50   49
BRANCH   54   55
ATOM     65  F5  UNL A   1      14.250  47.500   5.972  1.00  0.00    +0.000 F 
ATOM     55  C42 UNL A   1      12.512  48.102   4.462  1.00  0.00    +0.000 C 
ATOM     56  C43 UNL A   1      11.223  47.829   3.982  1.00  0.00    +0.000 C 
ATOM     57  F1  UNL A   1      10.686  48.589   3.018  1.00  0.00    +0.000 F 
ATOM     58  C44 UNL A   1      10.469  46.783   4.511  1.00  0.00    +0.000 C 
ATOM     59  F2  UNL A   1       9.227  46.559   4.060  1.00  0.00    +0.000 F 
ATOM     60  C45 UNL A   1      10.998  45.978   5.509  1.00  0.00    +0.000 C 
ATOM     61  F3  UNL A   1      10.276  44.964   6.007  1.00  0.00    +0.000 F 
ATOM     62  C46 UNL A   1      12.274  46.224   5.993  1.00  0.00    +0.000 C 
ATOM     63  F4  UNL A   1      12.790  45.441   6.949  1.00  0.00    +0.000 F 
ATOM     64  C47 UNL A   1      13.021  47.284   5.482  1.00  0.00    +0.000 C 
ENDBRANCH   54   55
BRANCH   71   72
ATOM     72  C53 UNL A   1      17.087  48.855  -1.042  1.00  0.00    +0.000 C 
ATOM     73  C54 UNL A   1      18.205  48.046  -0.797  1.00  0.00    +0.000 C 
ATOM     74  F6  UNL A   1      18.812  48.078   0.400  1.00  0.00    +0.000 F 
ATOM     75  C55 UNL A   1      18.723  47.222  -1.792  1.00  0.00    +0.000 C 
ATOM     76  F7  UNL A   1      19.813  46.484  -1.548  1.00  0.00    +0.000 F 
ATOM     77  C56 UNL A   1      18.116  47.171  -3.039  1.00  0.00    +0.000 C 
ATOM     78  F8  UNL A   1      18.609  46.369  -3.993  1.00  0.00    +0.000 F 
ATOM     79  C57 UNL A   1      17.002  47.955  -3.298  1.00  0.00    +0.000 C 
ATOM     80  F9  UNL A   1      16.408  47.898  -4.498  1.00  0.00    +0.000 F 
ATOM     81  C58 UNL A   1      16.497  48.799  -2.313  1.00  0.00    +0.000 C 
ATOM     82  F10 UNL A   1      15.421  49.549  -2.593  1.00  0.00    +0.000 F 
ENDBRANCH   71   72
BRANCH   86   87
ATOM     97  F15 UNL A   1      16.205  56.014  -0.967  1.00  0.00    +0.000 F 
ATOM     87  C62 UNL A   1      17.906  55.570   0.633  1.00  0.00    +0.000 C 
ATOM     88  C63 UNL A   1      19.171  55.909   1.131  1.00  0.00    +0.000 C 
ATOM     89  F11 UNL A   1      19.675  55.249   2.184  1.00  0.00    +0.000 F 
ATOM     90  C64 UNL A   1      19.912  56.942   0.561  1.00  0.00    +0.000 C 
ATOM     91  F12 UNL A   1      21.107  57.266   1.073  1.00  0.00    +0.000 F 
ATOM     92  C65 UNL A   1      19.411  57.640  -0.528  1.00  0.00    +0.000 C 
ATOM     93  F13 UNL A   1      20.131  58.625  -1.083  1.00  0.00    +0.000 F 
ATOM     94  C66 UNL A   1      18.163  57.318  -1.039  1.00  0.00    +0.000 C 
ATOM     95  F14 UNL A   1      17.682  57.980  -2.101  1.00  0.00    +0.000 F 
ATOM     96  C67 UNL A   1      17.411  56.303  -0.455  1.00  0.00    +0.000 C 
ENDBRANCH   86   87
TORSDOF 23
ENDMDL
MODEL 8
REMARK VINA RESULT:      -7.9     63.513     68.059
ROOT
ATOM    142  H34 UNL A   1      52.525  14.025  50.872  1.00  0.00    +0.000 H 
ATOM    143  H35 UNL A   1      52.886  12.290  52.784  1.00  0.00    +0.000 H 
ATOM    144  H36 UNL A   1      49.573  11.134  50.585  1.00  0.00    +0.000 H 
ATOM    145  H37 UNL A   1      44.613   7.220  49.742  1.00  0.00    +0.000 H 
ATOM    146  H38 UNL A   1      44.427   8.742  47.718  1.00  0.00    +0.000 H 
ATOM    147  H39 UNL A   1      47.736   9.958  49.921  1.00  0.00    +0.000 H 
ATOM    148  H40 UNL A   1      48.200   6.608  53.642  1.00  0.00    +0.000 H 
ATOM    149  H41 UNL A   1      50.233   7.951  54.430  1.00  0.00    +0.000 H 
ATOM    150  H42 UNL A   1      49.031  14.416  46.827  1.00  0.00    +0.000 H 
ATOM    151  H43 UNL A   1      46.886  13.201  46.135  1.00  0.00    +0.000 H 
ATOM     50  C38 UNL A   1      46.354  10.838  47.651  1.00  0.00    +0.000 C 
ATOM     51  C39 UNL A   1      47.476  11.825  47.839  1.00  0.00    +0.000 C 
ATOM     52  N3  UNL A   1      48.433  11.829  48.734  1.00  0.00    +0.000 N 
ATOM     53  C40 UNL A   1      49.213  12.944  48.455  1.00  0.00    +0.000 C 
ATOM     54  C41 UNL A   1      50.302  13.402  49.118  1.00  0.00    +0.000 C 
ATOM     66  C48 UNL A   1      50.857  12.785  50.294  1.00  0.00    +0.000 C 
ATOM     67  C49 UNL A   1      51.948  13.188  51.045  1.00  0.00    +0.000 C 
ATOM     68  C50 UNL A   1      52.132  12.265  52.080  1.00  0.00    +0.000 C 
ATOM     69  C51 UNL A   1      51.133  11.309  51.996  1.00  0.00    +0.000 C 
ATOM     70  N4  UNL A   1      50.359  11.638  50.894  1.00  0.00    +0.000 N 
ATOM     71  C52 UNL A   1      50.902  10.175  52.854  1.00  0.00    +0.000 C 
ATOM     83  C59 UNL A   1      49.866   9.310  52.737  1.00  0.00    +0.000 C 
ATOM     84  N5  UNL A   1      48.842   9.299  51.801  1.00  0.00    +0.000 N 
ATOM     85  C60 UNL A   1      48.108   8.252  52.083  1.00  0.00    +0.000 C 
ATOM     86  C61 UNL A   1      46.869   7.751  51.397  1.00  0.00    +0.000 C 
ATOM     98  C68 UNL A   1      46.429   8.381  50.293  1.00  0.00    +0.000 C 
ATOM     99  C69 UNL A   1      45.255   7.995  49.514  1.00  0.00    +0.000 C 
ATOM    100  C70 UNL A   1      45.145   8.812  48.456  1.00  0.00    +0.000 C 
ATOM    101  C71 UNL A   1      46.207   9.817  48.516  1.00  0.00    +0.000 C 
ATOM    102  N6  UNL A   1      46.932   9.471  49.628  1.00  0.00    +0.000 N 
ATOM    103  C72 UNL A   1      48.586   7.475  53.235  1.00  0.00    +0.000 C 
ATOM    104  C73 UNL A   1      49.643   8.179  53.614  1.00  0.00    +0.000 C 
ATOM    105  C74 UNL A   1      48.636  13.582  47.291  1.00  0.00    +0.000 C 
ATOM    106  C75 UNL A   1      47.535  12.957  46.900  1.00  0.00    +0.000 C 
ENDROOT
BRANCH   50   49
ATOM    107  C76 UNL A   1      44.168  11.733  46.772  1.00  0.00    +0.000 C 
ATOM    108  C77 UNL A   1      43.178  11.753  45.787  1.00  0.00    +0.000 C 
ATOM    140  H32 UNL A   1      44.856  10.169  43.352  1.00  0.00    +0.000 H 
ATOM     46  C34 UNL A   1      43.404  11.104  44.571  1.00  0.00    +0.000 C 
ATOM     47  C35 UNL A   1      44.646  10.526  44.297  1.00  0.00    +0.000 C 
ATOM     48  C36 UNL A   1      45.597  10.437  45.306  1.00  0.00    +0.000 C 
ATOM    141  H33 UNL A   1      46.483   9.938  45.132  1.00  0.00    +0.000 H 
ATOM     49  C37 UNL A   1      45.361  11.022  46.562  1.00  0.00    +0.000 C 
ATOM    152  H44 UNL A   1      44.023  12.243  47.658  1.00  0.00    +0.000 H 
ATOM    153  H45 UNL A   1      42.286  12.243  45.956  1.00  0.00    +0.000 H 
BRANCH   46   44
ATOM     44  C33 UNL A   1      42.284  10.952  43.619  1.00  0.00    +0.000 C 
ATOM     45  O10 UNL A   1      41.684   9.886  43.536  1.00  0.00    +0.000 O 
BRANCH   44   43
ATOM     43  N2  UNL A   1      41.964  12.008  42.798  1.00  0.00    +0.000 N 
ATOM    139  H31 UNL A   1      42.415  12.023  41.923  1.00  0.00    +0.000 H 
BRANCH   43   42
ATOM    137  H29 UNL A   1      40.200  13.005  42.406  1.00  0.00    +0.000 H 
ATOM     42  C32 UNL A   1      41.045  13.107  43.055  1.00  0.00    +0.000 C 
ATOM    138  H30 UNL A   1      40.764  13.057  44.086  1.00  0.00    +0.000 H 
BRANCH   42   41
ATOM     41  C31 UNL A   1      41.675  14.471  42.819  1.00  0.00    +0.000 C 
ATOM    135  H27 UNL A   1      41.102  15.200  43.353  1.00  0.00    +0.000 H 
ATOM    136  H28 UNL A   1      42.688  14.399  43.159  1.00  0.00    +0.000 H 
BRANCH   41   40
ATOM    133  H25 UNL A   1      41.581  14.034  40.748  1.00  0.00    +0.000 H 
ATOM    134  H26 UNL A   1      40.994  15.656  41.231  1.00  0.00    +0.000 H 
ATOM     40  C30 UNL A   1      41.743  14.901  41.355  1.00  0.00    +0.000 C 
BRANCH   40   39
ATOM    131  H23 UNL A   1      43.800  14.764  40.849  1.00  0.00    +0.000 H 
ATOM    132  H24 UNL A   1      42.867  16.033  39.995  1.00  0.00    +0.000 H 
ATOM     39  C29 UNL A   1      43.067  15.540  40.924  1.00  0.00    +0.000 C 
BRANCH   39   38
ATOM    129  H21 UNL A   1      43.714  17.530  41.311  1.00  0.00    +0.000 H 
ATOM    130  H22 UNL A   1      42.920  16.703  42.675  1.00  0.00    +0.000 H 
ATOM     38  C28 UNL A   1      43.614  16.620  41.866  1.00  0.00    +0.000 C 
BRANCH   38   37
ATOM     37  C27 UNL A   1      44.970  16.282  42.483  1.00  0.00    +0.000 C 
ATOM    127  H19 UNL A   1      45.232  15.278  42.222  1.00  0.00    +0.000 H 
ATOM    128  H20 UNL A   1      45.696  16.972  42.105  1.00  0.00    +0.000 H 
BRANCH   37   36
ATOM     36  N1  UNL A   1      44.935  16.401  43.925  1.00  0.00    +0.000 N 
ATOM    126  H18 UNL A   1      45.011  17.287  44.345  1.00  0.00    +0.000 H 
BRANCH   36    2
ATOM      1  O1  UNL A   1      45.130  14.162  44.364  1.00  0.00    +0.000 O 
ATOM      2  C1  UNL A   1      44.796  15.291  44.701  1.00  0.00    +0.000 C 
BRANCH    2    3
ATOM      3  C2  UNL A   1      44.222  15.495  46.049  1.00  0.00    +0.000 C 
ATOM    109  H1  UNL A   1      43.559  16.282  46.127  1.00  0.00    +0.000 H 
BRANCH    3    4
ATOM      4  C3  UNL A   1      44.433  14.807  47.192  1.00  0.00    +0.000 C 
ATOM    110  H2  UNL A   1      44.544  13.782  47.150  1.00  0.00    +0.000 H 
BRANCH    4    5
ATOM      5  C4  UNL A   1      44.514  15.520  48.572  1.00  0.00    +0.000 C 
ATOM      6  C5  UNL A   1      45.890  16.129  48.610  1.00  0.00    +0.000 C 
ATOM      7  C6  UNL A   1      46.110  17.443  48.468  1.00  0.00    +0.000 C 
ATOM      9  C7  UNL A   1      44.972  18.416  48.371  1.00  0.00    +0.000 C 
ATOM     10  O3  UNL A   1      45.207  19.610  48.221  1.00  0.00    +0.000 O 
ATOM     11  C8  UNL A   1      43.593  17.898  48.536  1.00  0.00    +0.000 C 
ATOM     12  C9  UNL A   1      43.432  16.576  48.639  1.00  0.00    +0.000 C 
ATOM     13  C10 UNL A   1      42.163  15.879  48.969  1.00  0.00    +0.000 C 
ATOM     14  O4  UNL A   1      41.042  16.282  48.786  1.00  0.00    +0.000 O 
ATOM     15  C11 UNL A   1      42.582  14.627  49.657  1.00  0.00    +0.000 C 
ATOM     16  C12 UNL A   1      41.747  13.764  50.243  1.00  0.00    +0.000 C 
ATOM     17  C13 UNL A   1      42.293  12.831  51.237  1.00  0.00    +0.000 C 
ATOM     18  C14 UNL A   1      41.854  11.498  51.262  1.00  0.00    +0.000 C 
ATOM     19  C15 UNL A   1      42.285  10.656  52.286  1.00  0.00    +0.000 C 
ATOM     21  C16 UNL A   1      43.110  11.136  53.299  1.00  0.00    +0.000 C 
ATOM     23  C17 UNL A   1      43.547  12.449  53.293  1.00  0.00    +0.000 C 
ATOM     24  C18 UNL A   1      43.180  13.287  52.239  1.00  0.00    +0.000 C 
ATOM     25  O7  UNL A   1      43.629  14.577  52.339  1.00  0.00    +0.000 O 
ATOM     26  C19 UNL A   1      44.372  15.177  51.244  1.00  0.00    +0.000 C 
ATOM     35  C26 UNL A   1      44.092  14.627  49.799  1.00  0.00    +0.000 C 
ATOM    111  H3  UNL A   1      46.700  15.507  48.752  1.00  0.00    +0.000 H 
ATOM    113  H5  UNL A   1      42.784  18.538  48.571  1.00  0.00    +0.000 H 
ATOM    114  H6  UNL A   1      40.744  13.754  50.003  1.00  0.00    +0.000 H 
ATOM    115  H7  UNL A   1      41.219  11.146  50.530  1.00  0.00    +0.000 H 
ATOM    118  H10 UNL A   1      44.137  12.805  54.061  1.00  0.00    +0.000 H 
ATOM    119  H11 UNL A   1      44.003  16.174  51.121  1.00  0.00    +0.000 H 
ATOM    125  H17 UNL A   1      44.642  13.710  49.751  1.00  0.00    +0.000 H 
BRANCH    7    8
ATOM    112  H4  UNL A   1      47.635  18.563  47.764  1.00  0.00    +0.000 H 
ATOM      8  O2  UNL A   1      47.397  17.941  48.423  1.00  0.00    +0.000 O 
ENDBRANCH    7    8
BRANCH   19   20
ATOM    116  H8  UNL A   1      42.117   8.757  51.654  1.00  0.00    +0.000 H 
ATOM     20  O5  UNL A   1      41.907   9.344  52.355  1.00  0.00    +0.000 O 
ENDBRANCH   19   20
BRANCH   21   22
ATOM    117  H9  UNL A   1      43.368   9.390  54.250  1.00  0.00    +0.000 H 
ATOM     22  O6  UNL A   1      43.496  10.315  54.320  1.00  0.00    +0.000 O 
ENDBRANCH   21   22
BRANCH   26   27
ATOM     34  C25 UNL A   1      46.435  16.328  52.224  1.00  0.00    +0.000 C 
ATOM     28  C21 UNL A   1      46.635  14.057  51.440  1.00  0.00    +0.000 C 
ATOM    120  H12 UNL A   1      46.252  13.258  50.912  1.00  0.00    +0.000 H 
ATOM    121  H13 UNL A   1      48.482  13.115  51.852  1.00  0.00    +0.000 H 
ATOM     27  C20 UNL A   1      45.841  15.202  51.639  1.00  0.00    +0.000 C 
ATOM    124  H16 UNL A   1      45.891  17.197  52.337  1.00  0.00    +0.000 H 
ATOM     29  C22 UNL A   1      47.936  13.986  51.944  1.00  0.00    +0.000 C 
ATOM     30  C23 UNL A   1      48.487  15.096  52.571  1.00  0.00    +0.000 C 
ATOM     32  C24 UNL A   1      47.761  16.280  52.654  1.00  0.00    +0.000 C 
BRANCH   30   31
ATOM    122  H14 UNL A   1      49.874  15.184  54.016  1.00  0.00    +0.000 H 
ATOM     31  O8  UNL A   1      49.743  15.033  53.101  1.00  0.00    +0.000 O 
ENDBRANCH   30   31
BRANCH   32   33
ATOM     33  O9  UNL A   1      48.341  17.397  53.184  1.00  0.00    +0.000 O 
ATOM    123  H15 UNL A   1      48.154  18.239  52.819  1.00  0.00    +0.000 H 
ENDBRANCH   32   33
ENDBRANCH   26   27
ENDBRANCH    4    5
ENDBRANCH    3    4
ENDBRANCH    2    3
ENDBRANCH   36    2
ENDBRANCH   37   36
ENDBRANCH   38   37
ENDBRANCH   39   38
ENDBRANCH   40   39
ENDBRANCH   41   40
ENDBRANCH   42   41
ENDBRANCH   43   42
ENDBRANCH   44   43
ENDBRANCH   46   44
ENDBRANCH   50   49
BRANCH   54   55
ATOM     65  F5  UNL A   1      52.536  13.319  47.361  1.00  0.00    +0.000 F 
ATOM     55  C42 UNL A   1      50.977  14.633  48.590  1.00  0.00    +0.000 C 
ATOM     56  C43 UNL A   1      50.564  15.918  48.971  1.00  0.00    +0.000 C 
ATOM     57  F1  UNL A   1      49.492  16.076  49.762  1.00  0.00    +0.000 F 
ATOM     58  C44 UNL A   1      51.239  17.051  48.521  1.00  0.00    +0.000 C 
ATOM     59  F2  UNL A   1      50.808  18.269  48.872  1.00  0.00    +0.000 F 
ATOM     60  C45 UNL A   1      52.352  16.918  47.703  1.00  0.00    +0.000 C 
ATOM     61  F3  UNL A   1      53.008  18.010  47.282  1.00  0.00    +0.000 F 
ATOM     62  C46 UNL A   1      52.784  15.658  47.321  1.00  0.00    +0.000 C 
ATOM     63  F4  UNL A   1      53.865  15.529  46.540  1.00  0.00    +0.000 F 
ATOM     64  C47 UNL A   1      52.096  14.524  47.751  1.00  0.00    +0.000 C 
ENDBRANCH   54   55
BRANCH   71   72
ATOM     72  C53 UNL A   1      51.876   9.936  53.968  1.00  0.00    +0.000 C 
ATOM     73  C54 UNL A   1      53.052   9.202  53.761  1.00  0.00    +0.000 C 
ATOM     74  F6  UNL A   1      53.294   8.639  52.567  1.00  0.00    +0.000 F 
ATOM     75  C55 UNL A   1      53.971   9.018  54.790  1.00  0.00    +0.000 C 
ATOM     76  F7  UNL A   1      55.071   8.284  54.580  1.00  0.00    +0.000 F 
ATOM     77  C56 UNL A   1      53.744   9.588  56.035  1.00  0.00    +0.000 C 
ATOM     78  F8  UNL A   1      54.635   9.419  57.022  1.00  0.00    +0.000 F 
ATOM     79  C57 UNL A   1      52.593  10.328  56.258  1.00  0.00    +0.000 C 
ATOM     80  F9  UNL A   1      52.379  10.888  57.456  1.00  0.00    +0.000 F 
ATOM     81  C58 UNL A   1      51.660  10.491  55.237  1.00  0.00    +0.000 C 
ATOM     82  F10 UNL A   1      50.553  11.208  55.483  1.00  0.00    +0.000 F 
ENDBRANCH   71   72
BRANCH   86   87
ATOM     97  F15 UNL A   1      47.584   5.062  50.794  1.00  0.00    +0.000 F 
ATOM     87  C62 UNL A   1      46.129   6.572  51.913  1.00  0.00    +0.000 C 
ATOM     88  C63 UNL A   1      45.004   6.733  52.733  1.00  0.00    +0.000 C 
ATOM     89  F11 UNL A   1      44.612   7.963  53.098  1.00  0.00    +0.000 F 
ATOM     90  C64 UNL A   1      44.292   5.630  53.198  1.00  0.00    +0.000 C 
ATOM     91  F12 UNL A   1      43.236   5.808  54.004  1.00  0.00    +0.000 F 
ATOM     92  C65 UNL A   1      44.679   4.348  52.835  1.00  0.00    +0.000 C 
ATOM     93  F13 UNL A   1      43.985   3.288  53.272  1.00  0.00    +0.000 F 
ATOM     94  C66 UNL A   1      45.787   4.166  52.021  1.00  0.00    +0.000 C 
ATOM     95  F14 UNL A   1      46.155   2.930  51.656  1.00  0.00    +0.000 F 
ATOM     96  C67 UNL A   1      46.514   5.266  51.577  1.00  0.00    +0.000 C 
ENDBRANCH   86   87
TORSDOF 23
ENDMDL
MODEL 9
REMARK VINA RESULT:      -7.9     34.363     38.923
ROOT
ATOM    142  H34 UNL A   1      50.016  57.465  16.404  1.00  0.00    +0.000 H 
ATOM    143  H35 UNL A   1      52.006  57.247  18.074  1.00  0.00    +0.000 H 
ATOM    144  H36 UNL A   1      49.617  53.886  18.450  1.00  0.00    +0.000 H 
ATOM    145  H37 UNL A   1      48.240  48.411  21.409  1.00  0.00    +0.000 H 
ATOM    146  H38 UNL A   1      46.466  48.484  19.594  1.00  0.00    +0.000 H 
ATOM    147  H39 UNL A   1      48.816  51.891  19.210  1.00  0.00    +0.000 H 
ATOM    148  H40 UNL A   1      52.505  51.388  22.591  1.00  0.00    +0.000 H 
ATOM    149  H41 UNL A   1      53.384  53.654  21.784  1.00  0.00    +0.000 H 
ATOM    150  H42 UNL A   1      45.903  54.285  15.099  1.00  0.00    +0.000 H 
ATOM    151  H43 UNL A   1      44.899  52.118  16.020  1.00  0.00    +0.000 H 
ATOM     50  C38 UNL A   1      46.509  50.852  18.013  1.00  0.00    +0.000 C 
ATOM     51  C39 UNL A   1      46.756  52.166  17.321  1.00  0.00    +0.000 C 
ATOM     52  N3  UNL A   1      47.741  53.016  17.486  1.00  0.00    +0.000 N 
ATOM     53  C40 UNL A   1      47.506  54.053  16.591  1.00  0.00    +0.000 C 
ATOM     54  C41 UNL A   1      48.222  55.187  16.404  1.00  0.00    +0.000 C 
ATOM     66  C48 UNL A   1      49.403  55.535  17.149  1.00  0.00    +0.000 C 
ATOM     67  C49 UNL A   1      50.186  56.672  17.042  1.00  0.00    +0.000 C 
ATOM     68  C50 UNL A   1      51.245  56.562  17.948  1.00  0.00    +0.000 C 
ATOM     69  C51 UNL A   1      51.100  55.375  18.648  1.00  0.00    +0.000 C 
ATOM     70  N4  UNL A   1      49.968  54.753  18.145  1.00  0.00    +0.000 N 
ATOM     71  C52 UNL A   1      51.935  54.843  19.694  1.00  0.00    +0.000 C 
ATOM     83  C59 UNL A   1      51.698  53.692  20.369  1.00  0.00    +0.000 C 
ATOM     84  N5  UNL A   1      50.657  52.789  20.210  1.00  0.00    +0.000 N 
ATOM     85  C60 UNL A   1      50.883  51.826  21.067  1.00  0.00    +0.000 C 
ATOM     86  C61 UNL A   1      50.080  50.583  21.330  1.00  0.00    +0.000 C 
ATOM     98  C68 UNL A   1      48.996  50.329  20.574  1.00  0.00    +0.000 C 
ATOM     99  C69 UNL A   1      48.135  49.156  20.703  1.00  0.00    +0.000 C 
ATOM    100  C70 UNL A   1      47.186  49.205  19.757  1.00  0.00    +0.000 C 
ATOM    101  C71 UNL A   1      47.336  50.444  18.994  1.00  0.00    +0.000 C 
ATOM    102  N6  UNL A   1      48.447  51.038  19.536  1.00  0.00    +0.000 N 
ATOM    103  C72 UNL A   1      52.100  52.007  21.870  1.00  0.00    +0.000 C 
ATOM    104  C73 UNL A   1      52.543  53.175  21.424  1.00  0.00    +0.000 C 
ATOM    105  C74 UNL A   1      46.300  53.717  15.863  1.00  0.00    +0.000 C 
ATOM    106  C75 UNL A   1      45.773  52.585  16.309  1.00  0.00    +0.000 C 
ENDROOT
BRANCH   50   49
ATOM    107  C76 UNL A   1      44.060  50.303  18.244  1.00  0.00    +0.000 C 
ATOM    108  C77 UNL A   1      42.993  49.425  18.041  1.00  0.00    +0.000 C 
ATOM    140  H32 UNL A   1      44.450  47.362  15.832  1.00  0.00    +0.000 H 
ATOM     46  C34 UNL A   1      43.170  48.304  17.227  1.00  0.00    +0.000 C 
ATOM     47  C35 UNL A   1      44.369  48.113  16.536  1.00  0.00    +0.000 C 
ATOM     48  C36 UNL A   1      45.452  48.941  16.803  1.00  0.00    +0.000 C 
ATOM    141  H33 UNL A   1      46.363  48.753  16.357  1.00  0.00    +0.000 H 
ATOM     49  C37 UNL A   1      45.316  50.035  17.675  1.00  0.00    +0.000 C 
ATOM    152  H44 UNL A   1      43.925  51.154  18.813  1.00  0.00    +0.000 H 
ATOM    153  H45 UNL A   1      42.081  49.602  18.489  1.00  0.00    +0.000 H 
BRANCH   46   44
ATOM     44  C33 UNL A   1      42.111  47.274  17.181  1.00  0.00    +0.000 C 
ATOM     45  O10 UNL A   1      40.933  47.596  17.282  1.00  0.00    +0.000 O 
BRANCH   44   43
ATOM     43  N2  UNL A   1      42.476  45.952  17.071  1.00  0.00    +0.000 N 
ATOM    139  H31 UNL A   1      43.290  45.774  16.547  1.00  0.00    +0.000 H 
BRANCH   43   42
ATOM    137  H29 UNL A   1      40.760  44.965  17.654  1.00  0.00    +0.000 H 
ATOM     42  C32 UNL A   1      41.813  44.781  17.628  1.00  0.00    +0.000 C 
ATOM    138  H30 UNL A   1      42.057  43.947  17.003  1.00  0.00    +0.000 H 
BRANCH   42   41
ATOM     41  C31 UNL A   1      42.284  44.451  19.036  1.00  0.00    +0.000 C 
ATOM    135  H27 UNL A   1      43.291  44.797  19.140  1.00  0.00    +0.000 H 
ATOM    136  H28 UNL A   1      41.601  44.933  19.704  1.00  0.00    +0.000 H 
BRANCH   41   40
ATOM    133  H25 UNL A   1      41.231  42.676  19.520  1.00  0.00    +0.000 H 
ATOM    134  H26 UNL A   1      42.740  42.457  18.581  1.00  0.00    +0.000 H 
ATOM     40  C30 UNL A   1      42.253  42.965  19.388  1.00  0.00    +0.000 C 
BRANCH   40   39
ATOM    131  H23 UNL A   1      42.586  41.683  21.047  1.00  0.00    +0.000 H 
ATOM    132  H24 UNL A   1      44.043  42.466  20.360  1.00  0.00    +0.000 H 
ATOM     39  C29 UNL A   1      43.021  42.579  20.657  1.00  0.00    +0.000 C 
BRANCH   39   38
ATOM    129  H21 UNL A   1      42.840  44.590  21.331  1.00  0.00    +0.000 H 
ATOM    130  H22 UNL A   1      42.256  43.345  22.464  1.00  0.00    +0.000 H 
ATOM     38  C28 UNL A   1      43.019  43.632  21.773  1.00  0.00    +0.000 C 
BRANCH   38   37
ATOM     37  C27 UNL A   1      44.324  43.706  22.565  1.00  0.00    +0.000 C 
ATOM    127  H19 UNL A   1      44.245  43.076  23.426  1.00  0.00    +0.000 H 
ATOM    128  H20 UNL A   1      45.124  43.382  21.931  1.00  0.00    +0.000 H 
BRANCH   37   36
ATOM     36  N1  UNL A   1      44.602  45.059  22.994  1.00  0.00    +0.000 N 
ATOM    126  H18 UNL A   1      44.181  45.410  23.811  1.00  0.00    +0.000 H 
BRANCH   36    2
ATOM      1  O1  UNL A   1      45.082  46.682  21.451  1.00  0.00    +0.000 O 
ATOM      2  C1  UNL A   1      45.445  45.848  22.273  1.00  0.00    +0.000 C 
BRANCH    2    3
ATOM      3  C2  UNL A   1      46.891  45.686  22.536  1.00  0.00    +0.000 C 
ATOM    109  H1  UNL A   1      47.125  45.295  23.463  1.00  0.00    +0.000 H 
BRANCH    3    4
ATOM      4  C3  UNL A   1      47.951  45.970  21.749  1.00  0.00    +0.000 C 
ATOM    110  H2  UNL A   1      48.331  46.929  21.743  1.00  0.00    +0.000 H 
BRANCH    4    5
ATOM      5  C4  UNL A   1      48.615  44.888  20.849  1.00  0.00    +0.000 C 
ATOM      6  C5  UNL A   1      49.606  44.198  21.746  1.00  0.00    +0.000 C 
ATOM      7  C6  UNL A   1      49.411  42.967  22.239  1.00  0.00    +0.000 C 
ATOM      9  C7  UNL A   1      48.224  42.146  21.830  1.00  0.00    +0.000 C 
ATOM     10  O3  UNL A   1      48.063  41.031  22.313  1.00  0.00    +0.000 O 
ATOM     11  C8  UNL A   1      47.321  42.691  20.789  1.00  0.00    +0.000 C 
ATOM     12  C9  UNL A   1      47.544  43.937  20.361  1.00  0.00    +0.000 C 
ATOM     13  C10 UNL A   1      46.860  44.599  19.221  1.00  0.00    +0.000 C 
ATOM     14  O4  UNL A   1      45.767  44.346  18.781  1.00  0.00    +0.000 O 
ATOM     15  C11 UNL A   1      47.856  45.569  18.689  1.00  0.00    +0.000 C 
ATOM     16  C12 UNL A   1      47.699  46.286  17.572  1.00  0.00    +0.000 C 
ATOM     17  C13 UNL A   1      48.894  46.855  16.935  1.00  0.00    +0.000 C 
ATOM     18  C14 UNL A   1      48.853  48.153  16.402  1.00  0.00    +0.000 C 
ATOM     19  C15 UNL A   1      49.951  48.634  15.691  1.00  0.00    +0.000 C 
ATOM     21  C16 UNL A   1      51.065  47.828  15.474  1.00  0.00    +0.000 C 
ATOM     23  C17 UNL A   1      51.119  46.544  15.987  1.00  0.00    +0.000 C 
ATOM     24  C18 UNL A   1      50.057  46.070  16.758  1.00  0.00    +0.000 C 
ATOM     25  O7  UNL A   1      50.184  44.777  17.190  1.00  0.00    +0.000 O 
ATOM     26  C19 UNL A   1      50.046  44.463  18.602  1.00  0.00    +0.000 C 
ATOM     35  C26 UNL A   1      49.149  45.422  19.467  1.00  0.00    +0.000 C 
ATOM    111  H3  UNL A   1      50.476  44.695  21.994  1.00  0.00    +0.000 H 
ATOM    113  H5  UNL A   1      46.546  42.128  20.407  1.00  0.00    +0.000 H 
ATOM    114  H6  UNL A   1      46.762  46.435  17.167  1.00  0.00    +0.000 H 
ATOM    115  H7  UNL A   1      48.019  48.744  16.536  1.00  0.00    +0.000 H 
ATOM    118  H10 UNL A   1      51.936  45.942  15.799  1.00  0.00    +0.000 H 
ATOM    119  H11 UNL A   1      49.458  43.572  18.672  1.00  0.00    +0.000 H 
ATOM    125  H17 UNL A   1      49.771  46.273  19.654  1.00  0.00    +0.000 H 
BRANCH    7    8
ATOM    112  H4  UNL A   1      51.009  42.933  23.472  1.00  0.00    +0.000 H 
ATOM      8  O2  UNL A   1      50.310  42.412  23.127  1.00  0.00    +0.000 O 
ENDBRANCH    7    8
BRANCH   19   20
ATOM    116  H8  UNL A   1      50.132  50.634  15.722  1.00  0.00    +0.000 H 
ATOM     20  O5  UNL A   1      49.980  49.896  15.164  1.00  0.00    +0.000 O 
ENDBRANCH   19   20
BRANCH   21   22
ATOM    117  H9  UNL A   1      52.992  48.215  15.079  1.00  0.00    +0.000 H 
ATOM     22  O6  UNL A   1      52.120  48.293  14.744  1.00  0.00    +0.000 O 
ENDBRANCH   21   22
BRANCH   26   27
ATOM     34  C25 UNL A   1      52.276  45.277  19.555  1.00  0.00    +0.000 C 
ATOM     28  C21 UNL A   1      51.909  42.906  19.323  1.00  0.00    +0.000 C 
ATOM    120  H12 UNL A   1      51.359  42.121  18.941  1.00  0.00    +0.000 H 
ATOM    121  H13 UNL A   1      53.405  41.670  20.161  1.00  0.00    +0.000 H 
ATOM     27  C20 UNL A   1      51.440  44.223  19.163  1.00  0.00    +0.000 C 
ATOM    124  H16 UNL A   1      51.978  46.254  19.405  1.00  0.00    +0.000 H 
ATOM     29  C22 UNL A   1      53.107  42.644  19.989  1.00  0.00    +0.000 C 
ATOM     30  C23 UNL A   1      53.896  43.704  20.420  1.00  0.00    +0.000 C 
ATOM     32  C24 UNL A   1      53.509  45.012  20.148  1.00  0.00    +0.000 C 
BRANCH   30   31
ATOM    122  H14 UNL A   1      55.329  44.056  21.778  1.00  0.00    +0.000 H 
ATOM     31  O8  UNL A   1      55.052  43.466  21.104  1.00  0.00    +0.000 O 
ENDBRANCH   30   31
BRANCH   32   33
ATOM     33  O9  UNL A   1      54.333  46.047  20.487  1.00  0.00    +0.000 O 
ATOM    123  H15 UNL A   1      54.914  46.411  19.849  1.00  0.00    +0.000 H 
ENDBRANCH   32   33
ENDBRANCH   26   27
ENDBRANCH    4    5
ENDBRANCH    3    4
ENDBRANCH    2    3
ENDBRANCH   36    2
ENDBRANCH   37   36
ENDBRANCH   38   37
ENDBRANCH   39   38
ENDBRANCH   40   39
ENDBRANCH   41   40
ENDBRANCH   42   41
ENDBRANCH   43   42
ENDBRANCH   44   43
ENDBRANCH   46   44
ENDBRANCH   50   49
BRANCH   54   55
ATOM     65  F5  UNL A   1      46.800  57.578  16.989  1.00  0.00    +0.000 F 
ATOM     55  C42 UNL A   1      47.755  56.144  15.347  1.00  0.00    +0.000 C 
ATOM     56  C43 UNL A   1      47.962  55.890  13.984  1.00  0.00    +0.000 C 
ATOM     57  F1  UNL A   1      48.660  54.813  13.595  1.00  0.00    +0.000 F 
ATOM     58  C44 UNL A   1      47.469  56.758  13.011  1.00  0.00    +0.000 C 
ATOM     59  F2  UNL A   1      47.705  56.512  11.715  1.00  0.00    +0.000 F 
ATOM     60  C45 UNL A   1      46.742  57.879  13.382  1.00  0.00    +0.000 C 
ATOM     61  F3  UNL A   1      46.257  58.705  12.443  1.00  0.00    +0.000 F 
ATOM     62  C46 UNL A   1      46.518  58.145  14.724  1.00  0.00    +0.000 C 
ATOM     63  F4  UNL A   1      45.806  59.222  15.083  1.00  0.00    +0.000 F 
ATOM     64  C47 UNL A   1      47.030  57.292  15.700  1.00  0.00    +0.000 C 
ENDBRANCH   54   55
BRANCH   71   72
ATOM     72  C53 UNL A   1      53.158  55.623  20.074  1.00  0.00    +0.000 C 
ATOM     73  C54 UNL A   1      54.420  55.290  19.563  1.00  0.00    +0.000 C 
ATOM     74  F6  UNL A   1      54.567  54.216  18.772  1.00  0.00    +0.000 F 
ATOM     75  C55 UNL A   1      55.544  56.045  19.888  1.00  0.00    +0.000 C 
ATOM     76  F7  UNL A   1      56.747  55.689  19.418  1.00  0.00    +0.000 F 
ATOM     77  C56 UNL A   1      55.421  57.159  20.706  1.00  0.00    +0.000 C 
ATOM     78  F8  UNL A   1      56.503  57.891  21.009  1.00  0.00    +0.000 F 
ATOM     79  C57 UNL A   1      54.179  57.512  21.212  1.00  0.00    +0.000 C 
ATOM     80  F9  UNL A   1      54.058  58.595  21.992  1.00  0.00    +0.000 F 
ATOM     81  C58 UNL A   1      53.058  56.745  20.909  1.00  0.00    +0.000 C 
ATOM     82  F10 UNL A   1      51.870  57.107  21.416  1.00  0.00    +0.000 F 
ENDBRANCH   71   72
BRANCH   86   87
ATOM     97  F15 UNL A   1      51.476  48.151  20.846  1.00  0.00    +0.000 F 
ATOM     87  C62 UNL A   1      50.464  49.633  22.404  1.00  0.00    +0.000 C 
ATOM     88  C63 UNL A   1      50.136  49.890  23.742  1.00  0.00    +0.000 C 
ATOM     89  F11 UNL A   1      49.507  51.029  24.070  1.00  0.00    +0.000 F 
ATOM     90  C64 UNL A   1      50.473  48.989  24.749  1.00  0.00    +0.000 C 
ATOM     91  F12 UNL A   1      50.173  49.270  26.024  1.00  0.00    +0.000 F 
ATOM     92  C65 UNL A   1      51.124  47.805  24.434  1.00  0.00    +0.000 C 
ATOM     93  F13 UNL A   1      51.436  46.932  25.402  1.00  0.00    +0.000 F 
ATOM     94  C66 UNL A   1      51.454  47.528  23.116  1.00  0.00    +0.000 C 
ATOM     95  F14 UNL A   1      52.071  46.379  22.806  1.00  0.00    +0.000 F 
ATOM     96  C67 UNL A   1      51.141  48.441  22.113  1.00  0.00    +0.000 C 
ENDBRANCH   86   87
TORSDOF 23
ENDMDL
MODEL 10
REMARK VINA RESULT:      -7.8      1.681      7.854
ROOT
ATOM    142  H34 UNL A   1      18.605  53.336  -1.061  1.00  0.00    +0.000 H 
ATOM    143  H35 UNL A   1      18.193  50.808  -1.544  1.00  0.00    +0.000 H 
ATOM    144  H36 UNL A   1      15.844  51.917   1.680  1.00  0.00    +0.000 H 
ATOM    145  H37 UNL A   1      11.804  50.341   6.353  1.00  0.00    +0.000 H 
ATOM    146  H38 UNL A   1      11.988  52.857   6.647  1.00  0.00    +0.000 H 
ATOM    147  H39 UNL A   1      14.389  51.776   3.430  1.00  0.00    +0.000 H 
ATOM    148  H40 UNL A   1      13.594  46.861   2.728  1.00  0.00    +0.000 H 
ATOM    149  H41 UNL A   1      15.268  46.994   0.795  1.00  0.00    +0.000 H 
ATOM    150  H42 UNL A   1      16.556  56.824   2.455  1.00  0.00    +0.000 H 
ATOM    151  H43 UNL A   1      15.036  56.674   4.510  1.00  0.00    +0.000 H 
ATOM     50  C38 UNL A   1      13.830  54.109   4.873  1.00  0.00    +0.000 C 
ATOM     51  C39 UNL A   1      14.827  54.523   3.823  1.00  0.00    +0.000 C 
ATOM     52  N3  UNL A   1      15.368  53.807   2.868  1.00  0.00    +0.000 N 
ATOM     53  C40 UNL A   1      16.203  54.669   2.168  1.00  0.00    +0.000 C 
ATOM     54  C41 UNL A   1      17.008  54.397   1.114  1.00  0.00    +0.000 C 
ATOM     66  C48 UNL A   1      17.153  53.096   0.516  1.00  0.00    +0.000 C 
ATOM     67  C49 UNL A   1      17.959  52.720  -0.545  1.00  0.00    +0.000 C 
ATOM     68  C50 UNL A   1      17.749  51.360  -0.794  1.00  0.00    +0.000 C 
ATOM     69  C51 UNL A   1      16.841  50.880   0.136  1.00  0.00    +0.000 C 
ATOM     70  N4  UNL A   1      16.481  51.956   0.931  1.00  0.00    +0.000 N 
ATOM     71  C52 UNL A   1      16.334  49.540   0.285  1.00  0.00    +0.000 C 
ATOM     83  C59 UNL A   1      15.481  49.135   1.258  1.00  0.00    +0.000 C 
ATOM     84  N5  UNL A   1      14.909  49.880   2.279  1.00  0.00    +0.000 N 
ATOM     85  C60 UNL A   1      14.137  49.053   2.937  1.00  0.00    +0.000 C 
ATOM     86  C61 UNL A   1      13.273  49.316   4.138  1.00  0.00    +0.000 C 
ATOM     98  C68 UNL A   1      13.184  50.568   4.623  1.00  0.00    +0.000 C 
ATOM     99  C69 UNL A   1      12.373  50.974   5.768  1.00  0.00    +0.000 C 
ATOM    100  C70 UNL A   1      12.485  52.299   5.935  1.00  0.00    +0.000 C 
ATOM    101  C71 UNL A   1      13.426  52.828   4.947  1.00  0.00    +0.000 C 
ATOM    102  N6  UNL A   1      13.774  51.732   4.198  1.00  0.00    +0.000 N 
ATOM    103  C72 UNL A   1      14.128  47.683   2.405  1.00  0.00    +0.000 C 
ATOM    104  C73 UNL A   1      14.987  47.782   1.399  1.00  0.00    +0.000 C 
ATOM    105  C74 UNL A   1      16.081  55.971   2.790  1.00  0.00    +0.000 C 
ATOM    106  C75 UNL A   1      15.280  55.923   3.845  1.00  0.00    +0.000 C 
ENDROOT
BRANCH   50   49
ATOM    107  C76 UNL A   1      12.181  55.848   5.653  1.00  0.00    +0.000 C 
ATOM    108  C77 UNL A   1      11.833  56.877   6.533  1.00  0.00    +0.000 C 
ATOM    140  H32 UNL A   1      14.177  56.354   8.875  1.00  0.00    +0.000 H 
ATOM     46  C34 UNL A   1      12.620  57.111   7.663  1.00  0.00    +0.000 C 
ATOM     47  C35 UNL A   1      13.685  56.262   7.973  1.00  0.00    +0.000 C 
ATOM     48  C36 UNL A   1      14.077  55.294   7.057  1.00  0.00    +0.000 C 
ATOM    141  H33 UNL A   1      14.913  54.721   7.244  1.00  0.00    +0.000 H 
ATOM     49  C37 UNL A   1      13.341  55.089   5.877  1.00  0.00    +0.000 C 
ATOM    152  H44 UNL A   1      11.583  55.645   4.837  1.00  0.00    +0.000 H 
ATOM    153  H45 UNL A   1      11.002  57.459   6.348  1.00  0.00    +0.000 H 
BRANCH   46   44
ATOM     44  C33 UNL A   1      12.370  58.321   8.474  1.00  0.00    +0.000 C 
ATOM     45  O10 UNL A   1      13.222  59.199   8.550  1.00  0.00    +0.000 O 
BRANCH   44   43
ATOM     43  N2  UNL A   1      11.191  58.418   9.176  1.00  0.00    +0.000 N 
ATOM    139  H31 UNL A   1      10.422  58.773   8.674  1.00  0.00    +0.000 H 
BRANCH   43   42
ATOM    137  H29 UNL A   1      11.860  58.066  11.096  1.00  0.00    +0.000 H 
ATOM     42  C32 UNL A   1      10.932  58.064  10.564  1.00  0.00    +0.000 C 
ATOM    138  H30 UNL A   1      10.246  58.785  10.956  1.00  0.00    +0.000 H 
BRANCH   42   41
ATOM     41  C31 UNL A   1      10.289  56.693  10.714  1.00  0.00    +0.000 C 
ATOM    135  H27 UNL A   1       9.723  56.689  11.621  1.00  0.00    +0.000 H 
ATOM    136  H28 UNL A   1       9.689  56.544   9.840  1.00  0.00    +0.000 H 
BRANCH   41   40
ATOM    133  H25 UNL A   1      12.145  55.805  10.207  1.00  0.00    +0.000 H 
ATOM    134  H26 UNL A   1      11.469  55.346  11.800  1.00  0.00    +0.000 H 
ATOM     40  C30 UNL A   1      11.274  55.527  10.763  1.00  0.00    +0.000 C 
BRANCH   40   39
ATOM    131  H23 UNL A   1      11.378  53.418  10.552  1.00  0.00    +0.000 H 
ATOM    132  H24 UNL A   1       9.733  54.127  10.517  1.00  0.00    +0.000 H 
ATOM     39  C29 UNL A   1      10.750  54.206  10.192  1.00  0.00    +0.000 C 
BRANCH   39   38
ATOM    129  H21 UNL A   1      10.643  55.113   8.270  1.00  0.00    +0.000 H 
ATOM    130  H22 UNL A   1      11.606  53.617   8.359  1.00  0.00    +0.000 H 
ATOM     38  C28 UNL A   1      10.712  54.119   8.661  1.00  0.00    +0.000 C 
BRANCH   38   37
ATOM     37  C27 UNL A   1       9.543  53.305   8.109  1.00  0.00    +0.000 C 
ATOM    127  H19 UNL A   1       8.666  53.917   8.098  1.00  0.00    +0.000 H 
ATOM    128  H20 UNL A   1       9.791  52.982   7.120  1.00  0.00    +0.000 H 
BRANCH   37   36
ATOM     36  N1  UNL A   1       9.289  52.134   8.921  1.00  0.00    +0.000 N 
ATOM    126  H18 UNL A   1       8.800  52.223   9.770  1.00  0.00    +0.000 H 
BRANCH   36    2
ATOM      1  O1  UNL A   1       9.319  50.328   7.513  1.00  0.00    +0.000 O 
ATOM      2  C1  UNL A   1       9.722  50.910   8.514  1.00  0.00    +0.000 C 
BRANCH    2    3
ATOM      3  C2  UNL A   1      10.770  50.270   9.339  1.00  0.00    +0.000 C 
ATOM    109  H1  UNL A   1      10.565  49.302   9.632  1.00  0.00    +0.000 H 
BRANCH    3    4
ATOM      4  C3  UNL A   1      11.954  50.761   9.766  1.00  0.00    +0.000 C 
ATOM    110  H2  UNL A   1      12.380  51.556   9.266  1.00  0.00    +0.000 H 
BRANCH    4    5
ATOM      5  C4  UNL A   1      12.692  50.158  10.996  1.00  0.00    +0.000 C 
ATOM      6  C5  UNL A   1      12.463  48.674  10.891  1.00  0.00    +0.000 C 
ATOM      7  C6  UNL A   1      13.418  47.813  10.512  1.00  0.00    +0.000 C 
ATOM      9  C7  UNL A   1      14.826  48.272  10.271  1.00  0.00    +0.000 C 
ATOM     10  O3  UNL A   1      15.672  47.463   9.906  1.00  0.00    +0.000 O 
ATOM     11  C8  UNL A   1      15.161  49.686  10.559  1.00  0.00    +0.000 C 
ATOM     12  C9  UNL A   1      14.162  50.506  10.899  1.00  0.00    +0.000 C 
ATOM     13  C10 UNL A   1      14.311  51.903  11.379  1.00  0.00    +0.000 C 
ATOM     14  O4  UNL A   1      15.224  52.657  11.154  1.00  0.00    +0.000 O 
ATOM     15  C11 UNL A   1      13.138  52.130  12.268  1.00  0.00    +0.000 C 
ATOM     16  C12 UNL A   1      12.951  53.219  13.018  1.00  0.00    +0.000 C 
ATOM     17  C13 UNL A   1      12.017  53.135  14.149  1.00  0.00    +0.000 C 
ATOM     18  C14 UNL A   1      11.149  54.203  14.421  1.00  0.00    +0.000 C 
ATOM     19  C15 UNL A   1      10.357  54.165  15.568  1.00  0.00    +0.000 C 
ATOM     21  C16 UNL A   1      10.451  53.100  16.459  1.00  0.00    +0.000 C 
ATOM     23  C17 UNL A   1      11.307  52.042  16.209  1.00  0.00    +0.000 C 
ATOM     24  C18 UNL A   1      12.056  52.032  15.032  1.00  0.00    +0.000 C 
ATOM     25  O7  UNL A   1      12.901  50.964  14.890  1.00  0.00    +0.000 O 
ATOM     26  C19 UNL A   1      12.850  50.148  13.688  1.00  0.00    +0.000 C 
ATOM     35  C26 UNL A   1      12.345  50.841  12.371  1.00  0.00    +0.000 C 
ATOM    111  H3  UNL A   1      11.529  48.302  11.122  1.00  0.00    +0.000 H 
ATOM    113  H5  UNL A   1      16.133  50.027  10.499  1.00  0.00    +0.000 H 
ATOM    114  H6  UNL A   1      13.449  54.097  12.808  1.00  0.00    +0.000 H 
ATOM    115  H7  UNL A   1      11.097  55.009  13.779  1.00  0.00    +0.000 H 
ATOM    118  H10 UNL A   1      11.391  51.268  16.887  1.00  0.00    +0.000 H 
ATOM    119  H11 UNL A   1      13.861  49.949  13.399  1.00  0.00    +0.000 H 
ATOM    125  H17 UNL A   1      11.280  50.866  12.473  1.00  0.00    +0.000 H 
BRANCH    7    8
ATOM    112  H4  UNL A   1      12.990  46.126   9.490  1.00  0.00    +0.000 H 
ATOM      8  O2  UNL A   1      13.134  46.472  10.348  1.00  0.00    +0.000 O 
ENDBRANCH    7    8
BRANCH   19   20
ATOM    116  H8  UNL A   1       9.720  55.827  16.498  1.00  0.00    +0.000 H 
ATOM     20  O5  UNL A   1       9.478  55.165  15.878  1.00  0.00    +0.000 O 
ENDBRANCH   19   20
BRANCH   21   22
ATOM    117  H9  UNL A   1      10.112  53.217  18.432  1.00  0.00    +0.000 H 
ATOM     22  O6  UNL A   1       9.701  53.088  17.600  1.00  0.00    +0.000 O 
ENDBRANCH   21   22
BRANCH   26   27
ATOM     34  C25 UNL A   1      12.811  47.751  14.579  1.00  0.00    +0.000 C 
ATOM     28  C21 UNL A   1      10.745  48.748  13.838  1.00  0.00    +0.000 C 
ATOM    120  H12 UNL A   1      10.245  49.500  13.339  1.00  0.00    +0.000 H 
ATOM    121  H13 UNL A   1       9.003  47.610  14.212  1.00  0.00    +0.000 H 
ATOM     27  C20 UNL A   1      12.134  48.852  14.037  1.00  0.00    +0.000 C 
ATOM    124  H16 UNL A   1      13.836  47.781  14.691  1.00  0.00    +0.000 H 
ATOM     29  C22 UNL A   1      10.031  47.641  14.303  1.00  0.00    +0.000 C 
ATOM     30  C23 UNL A   1      10.715  46.584  14.888  1.00  0.00    +0.000 C 
ATOM     32  C24 UNL A   1      12.104  46.614  14.969  1.00  0.00    +0.000 C 
BRANCH   30   31
ATOM    122  H14 UNL A   1      10.443  44.929  15.988  1.00  0.00    +0.000 H 
ATOM     31  O8  UNL A   1      10.031  45.511  15.380  1.00  0.00    +0.000 O 
ENDBRANCH   30   31
BRANCH   32   33
ATOM     33  O9  UNL A   1      12.779  45.532  15.457  1.00  0.00    +0.000 O 
ATOM    123  H15 UNL A   1      13.544  45.220  15.015  1.00  0.00    +0.000 H 
ENDBRANCH   32   33
ENDBRANCH   26   27
ENDBRANCH    4    5
ENDBRANCH    3    4
ENDBRANCH    2    3
ENDBRANCH   36    2
ENDBRANCH   37   36
ENDBRANCH   38   37
ENDBRANCH   39   38
ENDBRANCH   40   39
ENDBRANCH   41   40
ENDBRANCH   42   41
ENDBRANCH   43   42
ENDBRANCH   44   43
ENDBRANCH   46   44
ENDBRANCH   50   49
BRANCH   54   55
ATOM     65  F5  UNL A   1      19.559  55.181   2.095  1.00  0.00    +0.000 F 
ATOM     55  C42 UNL A   1      17.801  55.527   0.528  1.00  0.00    +0.000 C 
ATOM     56  C43 UNL A   1      17.304  56.302  -0.530  1.00  0.00    +0.000 C 
ATOM     57  F1  UNL A   1      16.130  55.993  -1.100  1.00  0.00    +0.000 F 
ATOM     58  C44 UNL A   1      18.025  57.387  -1.025  1.00  0.00    +0.000 C 
ATOM     59  F2  UNL A   1      17.545  58.094  -2.056  1.00  0.00    +0.000 F 
ATOM     60  C45 UNL A   1      19.242  57.731  -0.455  1.00  0.00    +0.000 C 
ATOM     61  F3  UNL A   1      19.927  58.784  -0.923  1.00  0.00    +0.000 F 
ATOM     62  C46 UNL A   1      19.749  56.985   0.598  1.00  0.00    +0.000 C 
ATOM     63  F4  UNL A   1      20.919  57.324   1.156  1.00  0.00    +0.000 F 
ATOM     64  C47 UNL A   1      19.041  55.885   1.078  1.00  0.00    +0.000 C 
ENDBRANCH   54   55
BRANCH   71   72
ATOM     72  C53 UNL A   1      16.788  48.509  -0.704  1.00  0.00    +0.000 C 
ATOM     73  C54 UNL A   1      17.995  47.817  -0.531  1.00  0.00    +0.000 C 
ATOM     74  F6  UNL A   1      18.803  48.118   0.497  1.00  0.00    +0.000 F 
ATOM     75  C55 UNL A   1      18.390  46.833  -1.432  1.00  0.00    +0.000 C 
ATOM     76  F7  UNL A   1      19.563  46.209  -1.268  1.00  0.00    +0.000 F 
ATOM     77  C56 UNL A   1      17.573  46.504  -2.505  1.00  0.00    +0.000 C 
ATOM     78  F8  UNL A   1      17.950  45.548  -3.366  1.00  0.00    +0.000 F 
ATOM     79  C57 UNL A   1      16.370  47.168  -2.687  1.00  0.00    +0.000 C 
ATOM     80  F9  UNL A   1      15.575  46.843  -3.716  1.00  0.00    +0.000 F 
ATOM     81  C58 UNL A   1      15.984  48.171  -1.802  1.00  0.00    +0.000 C 
ATOM     82  F10 UNL A   1      14.817  48.799  -2.006  1.00  0.00    +0.000 F 
ENDBRANCH   71   72
BRANCH   86   87
ATOM     97  F15 UNL A   1      14.206  47.918   6.435  1.00  0.00    +0.000 F 
ATOM     87  C62 UNL A   1      12.514  48.221   4.793  1.00  0.00    +0.000 C 
ATOM     88  C63 UNL A   1      11.275  47.803   4.289  1.00  0.00    +0.000 C 
ATOM     89  F11 UNL A   1      10.740  48.427   3.228  1.00  0.00    +0.000 F 
ATOM     90  C64 UNL A   1      10.573  46.760   4.886  1.00  0.00    +0.000 C 
ATOM     91  F12 UNL A   1       9.377  46.397   4.402  1.00  0.00    +0.000 F 
ATOM     92  C65 UNL A   1      11.106  46.100   5.984  1.00  0.00    +0.000 C 
ATOM     93  F13 UNL A   1      10.435  45.087   6.549  1.00  0.00    +0.000 F 
ATOM     94  C66 UNL A   1      12.332  46.494   6.497  1.00  0.00    +0.000 C 
ATOM     95  F14 UNL A   1      12.857  45.850   7.549  1.00  0.00    +0.000 F 
ATOM     96  C67 UNL A   1      13.023  47.554   5.917  1.00  0.00    +0.000 C 
ENDBRANCH   86   87
TORSDOF 23
ENDMDL
