MODEL 1
REMARK VINA RESULT:     -10.1      0.000      0.000
REMARK  Name = 
REMARK  15 active torsions:
REMARK  status: ('A' for Active; 'I' for Inactive)
REMARK    1  A    between atoms: C_2  and  C_3
REMARK    2  A    between atoms: C_3  and  C_4
REMARK    3  A    between atoms: N_7  and  C_8
REMARK    4  A    between atoms: N_14  and  C_15
REMARK    5  A    between atoms: C_15  and  C_16
REMARK    6  A    between atoms: C_16  and  C_17
REMARK    7  A    between atoms: C_17  and  C_18
REMARK    8  A    between atoms: C_18  and  C_19
REMARK    9  A    between atoms: C_19  and  C_20
REMARK   10  A    between atoms: C_20  and  N_21
REMARK   11  A    between atoms: C_22  and  C_24
REMARK   12  A    between atoms: C_27  and  C_28
REMARK   13  A    between atoms: C_32  and  C_33
REMARK   14  A    between atoms: C_49  and  C_50
REMARK   15  A    between atoms: C_64  and  C_65
REMARK                            x       y       z     vdW  Elec       q    Type
REMARK                         _______ _______ _______ _____ _____    ______ ____
ROOT
ATOM      1  C   UNL A   1      13.672  53.635   5.419  0.00  0.00    +0.000 C 
ATOM      2  C   UNL A   1      13.292  52.191   5.372  0.00  0.00    +0.000 C 
ATOM      3  N   UNL A   1      13.639  51.282   4.500  0.00  0.00    +0.000 NA
ATOM      4  C   UNL A   1      13.017  50.117   4.909  0.00  0.00    +0.000 C 
ATOM      5  C   UNL A   1      13.037  48.906   4.311  0.00  0.00    +0.000 C 
ATOM      6  C   UNL A   1      13.755  48.609   3.104  0.00  0.00    +0.000 A 
ATOM      7  C   UNL A   1      13.795  47.411   2.412  0.00  0.00    +0.000 A 
ATOM      8  C   UNL A   1      14.674  47.558   1.334  0.00  0.00    +0.000 A 
ATOM      9  C   UNL A   1      15.144  48.859   1.325  0.00  0.00    +0.000 A 
ATOM     10  N   UNL A   1      14.570  49.505   2.418  0.00  0.00    +0.000 N 
ATOM     11  C   UNL A   1      16.061  49.457   0.395  0.00  0.00    +0.000 C 
ATOM     12  C   UNL A   1      16.455  50.750   0.442  0.00  0.00    +0.000 C 
ATOM     13  N   UNL A   1      16.070  51.724   1.346  0.00  0.00    +0.000 NA
ATOM     14  C   UNL A   1      16.718  52.807   0.994  0.00  0.00    +0.000 C 
ATOM     15  C   UNL A   1      16.672  54.164   1.608  0.00  0.00    +0.000 C 
ATOM     16  C   UNL A   1      15.911  54.373   2.698  0.00  0.00    +0.000 A 
ATOM     17  C   UNL A   1      15.766  55.660   3.371  0.00  0.00    +0.000 A 
ATOM     18  C   UNL A   1      14.954  55.513   4.427  0.00  0.00    +0.000 A 
ATOM     19  C   UNL A   1      14.510  54.123   4.490  0.00  0.00    +0.000 A 
ATOM     20  N   UNL A   1      15.127  53.510   3.425  0.00  0.00    +0.000 N 
ATOM     21  C   UNL A   1      17.593  52.639  -0.173  0.00  0.00    +0.000 C 
ATOM     22  C   UNL A   1      17.384  51.365  -0.479  0.00  0.00    +0.000 C 
ATOM     23  C   UNL A   1      12.292  50.423   6.122  0.00  0.00    +0.000 C 
ATOM     24  C   UNL A   1      12.410  51.704   6.440  0.00  0.00    +0.000 C 
ATOM     25  H   UNL A   1      14.730  50.480   2.680  0.00  0.00    +0.000 HD
ATOM     26  H   UNL A   1      14.998  52.522   3.186  0.00  0.00    +0.000 HD
ENDROOT
BRANCH   5  27
ATOM     27  C   UNL A   1      12.248  47.814   4.960  0.00  0.00    +0.000 A 
ATOM     28  C   UNL A   1      12.776  47.084   6.034  0.00  0.00    +0.000 A 
ATOM     29  F   UNL A   1      14.014  47.342   6.480  0.00  0.00    +0.000 F 
ATOM     30  C   UNL A   1      12.039  46.070   6.638  0.00  0.00    +0.000 A 
ATOM     31  F   UNL A   1      12.573  45.362   7.644  0.00  0.00    +0.000 F 
ATOM     32  C   UNL A   1      10.758  45.779   6.191  0.00  0.00    +0.000 A 
ATOM     33  F   UNL A   1      10.056  44.791   6.764  0.00  0.00    +0.000 F 
ATOM     34  C   UNL A   1      10.215  46.497   5.135  0.00  0.00    +0.000 A 
ATOM     35  F   UNL A   1       8.981  46.209   4.697  0.00  0.00    +0.000 F 
ATOM     36  C   UNL A   1      10.954  47.504   4.520  0.00  0.00    +0.000 A 
ATOM     37  F   UNL A   1      10.419  48.162   3.481  0.00  0.00    +0.000 F 
ENDBRANCH   5  27
BRANCH  11  38
ATOM     38  C   UNL A   1      16.628  48.615  -0.706  0.00  0.00    +0.000 A 
ATOM     39  C   UNL A   1      17.895  48.028  -0.588  0.00  0.00    +0.000 A 
ATOM     40  F   UNL A   1      18.619  48.209   0.528  0.00  0.00    +0.000 F 
ATOM     41  C   UNL A   1      18.431  47.265  -1.624  0.00  0.00    +0.000 A 
ATOM     42  F   UNL A   1      19.657  46.740  -1.503  0.00  0.00    +0.000 F 
ATOM     43  C   UNL A   1      17.704  47.063  -2.791  0.00  0.00    +0.000 A 
ATOM     44  F   UNL A   1      18.228  46.340  -3.791  0.00  0.00    +0.000 F 
ATOM     45  C   UNL A   1      16.441  47.622  -2.918  0.00  0.00    +0.000 A 
ATOM     46  F   UNL A   1      15.738  47.431  -4.044  0.00  0.00    +0.000 F 
ATOM     47  C   UNL A   1      15.907  48.391  -1.888  0.00  0.00    +0.000 A 
ATOM     48  F   UNL A   1      14.691  48.937  -2.044  0.00  0.00    +0.000 F 
ENDBRANCH  11  38
BRANCH  15  49
ATOM     49  C   UNL A   1      17.438  55.294   1.038  0.00  0.00    +0.000 A 
ATOM     50  C   UNL A   1      16.943  56.028  -0.045  0.00  0.00    +0.000 A 
ATOM     51  F   UNL A   1      15.716  55.776  -0.522  0.00  0.00    +0.000 F 
ATOM     52  C   UNL A   1      17.715  57.023  -0.645  0.00  0.00    +0.000 A 
ATOM     53  F   UNL A   1      17.230  57.703  -1.693  0.00  0.00    +0.000 F 
ATOM     54  C   UNL A   1      18.986  57.299  -0.164  0.00  0.00    +0.000 A 
ATOM     55  F   UNL A   1      19.732  58.248  -0.749  0.00  0.00    +0.000 F 
ATOM     56  C   UNL A   1      19.483  56.596   0.924  0.00  0.00    +0.000 A 
ATOM     57  F   UNL A   1      20.705  56.869   1.402  0.00  0.00    +0.000 F 
ATOM     58  C   UNL A   1      18.714  55.601   1.523  0.00  0.00    +0.000 A 
ATOM     59  F   UNL A   1      19.207  54.922   2.570  0.00  0.00    +0.000 F 
ENDBRANCH  15  49
BRANCH   1  63
ATOM     60  C   UNL A   1      12.224  56.357   8.382  0.00  0.00    +0.000 A 
ATOM     61  C   UNL A   1      13.380  55.605   8.630  0.00  0.00    +0.000 A 
ATOM     62  C   UNL A   1      13.832  54.686   7.679  0.00  0.00    +0.000 A 
ATOM     63  C   UNL A   1      13.129  54.513   6.478  0.00  0.00    +0.000 A 
ATOM     64  C   UNL A   1      11.938  55.217   6.264  0.00  0.00    +0.000 A 
ATOM     65  C   UNL A   1      11.486  56.138   7.213  0.00  0.00    +0.000 A 
BRANCH  60  67
ATOM     66  N   UNL A   1      10.952  56.997  10.353  0.00  0.00    +0.000 N 
ATOM     67  C   UNL A   1      11.751  57.424   9.302  0.00  0.00    +0.000 C 
ATOM     68  O   UNL A   1      12.141  58.572   9.114  0.00  0.00    +0.000 OA
ATOM     69  H   UNL A   1      10.733  56.010  10.453  0.00  0.00    +0.000 HD
BRANCH  66  70
ATOM     70  C   UNL A   1      10.487  57.891  11.407  0.00  0.00    +0.000 C 
BRANCH  70  71
ATOM     71  C   UNL A   1      10.562  57.230  12.778  0.00  0.00    +0.000 C 
BRANCH  71  72
ATOM     72  C   UNL A   1      11.170  55.828  12.680  0.00  0.00    +0.000 C 
BRANCH  72  73
ATOM     73  C   UNL A   1      11.902  55.443  13.967  0.00  0.00    +0.000 C 
BRANCH  73  74
ATOM     74  C   UNL A   1      12.675  54.130  13.814  0.00  0.00    +0.000 C 
BRANCH  74  75
ATOM     75  C   UNL A   1      13.527  54.146  12.545  0.00  0.00    +0.000 C 
BRANCH  75  78
ATOM     76  O   UNL A   1      15.739  52.526  13.292  0.00  0.00    +0.000 OA
ATOM     77  C   UNL A   1      14.919  52.097  12.484  0.00  0.00    +0.000 C 
ATOM     78  N   UNL A   1      13.824  52.815  12.057  0.00  0.00    +0.000 N 
ATOM     79  H   UNL A   1      13.150  52.364  11.455  0.00  0.00    +0.000 HD
BRANCH  77  80
ATOM     80  C   UNL A   1      15.025  50.700  11.870  0.00  0.00    +0.000 C 
BRANCH  80  81
ATOM     81  C   UNL A   1      15.505  50.696  10.440  0.00  0.00    +0.000 A 
ATOM     82  C   UNL A   1      14.653  50.095   9.432  0.00  0.00    +0.000 A 
ATOM     83  C   UNL A   1      15.088  49.964   8.172  0.00  0.00    +0.000 A 
ATOM     84  N   UNL A   1      16.334  50.419   7.788  0.00  0.00    +0.000 N 
ATOM     85  C   UNL A   1      17.208  51.022   8.673  0.00  0.00    +0.000 A 
ATOM     86  O   UNL A   1      18.309  51.461   8.362  0.00  0.00    +0.000 OA
ATOM     87  C   UNL A   1      16.724  51.140  10.081  0.00  0.00    +0.000 A 
BRANCH  84  88
ATOM     88  C   UNL A   1      16.831  50.194   6.460  0.00  0.00    +0.000 C 
ATOM     89  F   UNL A   1      16.090  49.230   5.850  0.00  0.00    +0.000 F 
ATOM     90  F   UNL A   1      16.719  51.306   5.687  0.00  0.00    +0.000 F 
ENDBRANCH  84  88
ENDBRANCH  80  81
ENDBRANCH  77  80
ENDBRANCH  75  78
ENDBRANCH  74  75
ENDBRANCH  73  74
ENDBRANCH  72  73
ENDBRANCH  71  72
ENDBRANCH  70  71
ENDBRANCH  66  70
ENDBRANCH  60  67
ENDBRANCH   1  63
TORSDOF 15
ENDMDL
MODEL 2
REMARK VINA RESULT:     -10.1      0.911      2.056
REMARK  Name = 
REMARK  15 active torsions:
REMARK  status: ('A' for Active; 'I' for Inactive)
REMARK    1  A    between atoms: C_2  and  C_3
REMARK    2  A    between atoms: C_3  and  C_4
REMARK    3  A    between atoms: N_7  and  C_8
REMARK    4  A    between atoms: N_14  and  C_15
REMARK    5  A    between atoms: C_15  and  C_16
REMARK    6  A    between atoms: C_16  and  C_17
REMARK    7  A    between atoms: C_17  and  C_18
REMARK    8  A    between atoms: C_18  and  C_19
REMARK    9  A    between atoms: C_19  and  C_20
REMARK   10  A    between atoms: C_20  and  N_21
REMARK   11  A    between atoms: C_22  and  C_24
REMARK   12  A    between atoms: C_27  and  C_28
REMARK   13  A    between atoms: C_32  and  C_33
REMARK   14  A    between atoms: C_49  and  C_50
REMARK   15  A    between atoms: C_64  and  C_65
REMARK                            x       y       z     vdW  Elec       q    Type
REMARK                         _______ _______ _______ _____ _____    ______ ____
ROOT
ATOM      1  C   UNL A   1      13.647  53.474   5.566  0.00  0.00    +0.000 C 
ATOM      2  C   UNL A   1      13.222  52.044   5.518  0.00  0.00    +0.000 C 
ATOM      3  N   UNL A   1      13.529  51.128   4.639  0.00  0.00    +0.000 NA
ATOM      4  C   UNL A   1      12.875  49.981   5.051  0.00  0.00    +0.000 C 
ATOM      5  C   UNL A   1      12.851  48.772   4.449  0.00  0.00    +0.000 C 
ATOM      6  C   UNL A   1      13.544  48.458   3.232  0.00  0.00    +0.000 A 
ATOM      7  C   UNL A   1      13.538  47.263   2.534  0.00  0.00    +0.000 A 
ATOM      8  C   UNL A   1      14.407  47.386   1.446  0.00  0.00    +0.000 A 
ATOM      9  C   UNL A   1      14.918  48.672   1.436  0.00  0.00    +0.000 A 
ATOM     10  N   UNL A   1      14.378  49.331   2.538  0.00  0.00    +0.000 N 
ATOM     11  C   UNL A   1      15.842  49.245   0.497  0.00  0.00    +0.000 C 
ATOM     12  C   UNL A   1      16.276  50.525   0.544  0.00  0.00    +0.000 C 
ATOM     13  N   UNL A   1      15.933  51.507   1.456  0.00  0.00    +0.000 NA
ATOM     14  C   UNL A   1      16.610  52.570   1.101  0.00  0.00    +0.000 C 
ATOM     15  C   UNL A   1      16.614  53.926   1.720  0.00  0.00    +0.000 C 
ATOM     16  C   UNL A   1      15.874  54.153   2.820  0.00  0.00    +0.000 A 
ATOM     17  C   UNL A   1      15.778  55.442   3.500  0.00  0.00    +0.000 A 
ATOM     18  C   UNL A   1      14.974  55.315   4.566  0.00  0.00    +0.000 A 
ATOM     19  C   UNL A   1      14.488  53.940   4.629  0.00  0.00    +0.000 A 
ATOM     20  N   UNL A   1      15.072  53.312   3.554  0.00  0.00    +0.000 N 
ATOM     21  C   UNL A   1      17.464  52.381  -0.078  0.00  0.00    +0.000 C 
ATOM     22  C   UNL A   1      17.213  51.115  -0.386  0.00  0.00    +0.000 C 
ATOM     23  C   UNL A   1      12.176  50.304   6.275  0.00  0.00    +0.000 C 
ATOM     24  C   UNL A   1      12.338  51.580   6.596  0.00  0.00    +0.000 C 
ATOM     25  H   UNL A   1      14.572  50.300   2.803  0.00  0.00    +0.000 HD
ATOM     26  H   UNL A   1      14.910  52.330   3.312  0.00  0.00    +0.000 HD
ENDROOT
BRANCH   5  27
ATOM     27  C   UNL A   1      12.036  47.703   5.104  0.00  0.00    +0.000 A 
ATOM     28  C   UNL A   1      12.574  46.915   6.131  0.00  0.00    +0.000 A 
ATOM     29  F   UNL A   1      13.842  47.096   6.526  0.00  0.00    +0.000 F 
ATOM     30  C   UNL A   1      11.813  45.922   6.740  0.00  0.00    +0.000 A 
ATOM     31  F   UNL A   1      12.354  45.158   7.700  0.00  0.00    +0.000 F 
ATOM     32  C   UNL A   1      10.500  45.709   6.346  0.00  0.00    +0.000 A 
ATOM     33  F   UNL A   1       9.774  44.742   6.923  0.00  0.00    +0.000 F 
ATOM     34  C   UNL A   1       9.947  46.485   5.337  0.00  0.00    +0.000 A 
ATOM     35  F   UNL A   1       8.681  46.273   4.949  0.00  0.00    +0.000 F 
ATOM     36  C   UNL A   1      10.709  47.472   4.716  0.00  0.00    +0.000 A 
ATOM     37  F   UNL A   1      10.163  48.187   3.722  0.00  0.00    +0.000 F 
ENDBRANCH   5  27
BRANCH  11  38
ATOM     38  C   UNL A   1      16.368  48.390  -0.614  0.00  0.00    +0.000 A 
ATOM     39  C   UNL A   1      15.591  48.120  -1.749  0.00  0.00    +0.000 A 
ATOM     40  F   UNL A   1      14.357  48.635  -1.857  0.00  0.00    +0.000 F 
ATOM     41  C   UNL A   1      16.074  47.303  -2.769  0.00  0.00    +0.000 A 
ATOM     42  F   UNL A   1      15.303  47.032  -3.830  0.00  0.00    +0.000 F 
ATOM     43  C   UNL A   1      17.348  46.755  -2.682  0.00  0.00    +0.000 A 
ATOM     44  F   UNL A   1      17.804  45.959  -3.661  0.00  0.00    +0.000 F 
ATOM     45  C   UNL A   1      18.138  47.026  -1.574  0.00  0.00    +0.000 A 
ATOM     46  F   UNL A   1      19.366  46.495  -1.487  0.00  0.00    +0.000 F 
ATOM     47  C   UNL A   1      17.654  47.834  -0.549  0.00  0.00    +0.000 A 
ATOM     48  F   UNL A   1      18.431  48.065   0.520  0.00  0.00    +0.000 F 
ENDBRANCH  11  38
BRANCH  15  49
ATOM     49  C   UNL A   1      17.408  55.033   1.145  0.00  0.00    +0.000 A 
ATOM     50  C   UNL A   1      18.657  55.377   1.675  0.00  0.00    +0.000 A 
ATOM     51  F   UNL A   1      19.195  54.640   2.657  0.00  0.00    +0.000 F 
ATOM     52  C   UNL A   1      19.354  56.486   1.198  0.00  0.00    +0.000 A 
ATOM     53  F   UNL A   1      20.540  56.810   1.730  0.00  0.00    +0.000 F 
ATOM     54  C   UNL A   1      18.814  57.259   0.181  0.00  0.00    +0.000 A 
ATOM     55  F   UNL A   1      19.480  58.333  -0.270  0.00  0.00    +0.000 F 
ATOM     56  C   UNL A   1      17.587  56.919  -0.372  0.00  0.00    +0.000 A 
ATOM     57  F   UNL A   1      17.068  57.655  -1.365  0.00  0.00    +0.000 F 
ATOM     58  C   UNL A   1      16.890  55.812   0.105  0.00  0.00    +0.000 A 
ATOM     59  F   UNL A   1      15.701  55.496  -0.430  0.00  0.00    +0.000 F 
ENDBRANCH  15  49
BRANCH   1  63
ATOM     60  C   UNL A   1      12.071  55.862   8.745  0.00  0.00    +0.000 A 
ATOM     61  C   UNL A   1      11.415  55.826   7.507  0.00  0.00    +0.000 A 
ATOM     62  C   UNL A   1      11.950  55.078   6.455  0.00  0.00    +0.000 A 
ATOM     63  C   UNL A   1      13.145  54.365   6.635  0.00  0.00    +0.000 A 
ATOM     64  C   UNL A   1      13.831  54.459   7.852  0.00  0.00    +0.000 A 
ATOM     65  C   UNL A   1      13.296  55.205   8.905  0.00  0.00    +0.000 A 
BRANCH  60  67
ATOM     66  N   UNL A   1      11.306  55.750  11.050  0.00  0.00    +0.000 N 
ATOM     67  C   UNL A   1      11.501  56.550   9.933  0.00  0.00    +0.000 C 
ATOM     68  O   UNL A   1      11.307  57.760   9.871  0.00  0.00    +0.000 OA
ATOM     69  H   UNL A   1      11.554  54.766  11.017  0.00  0.00    +0.000 HD
BRANCH  66  70
ATOM     70  C   UNL A   1      10.855  56.279  12.332  0.00  0.00    +0.000 C 
BRANCH  70  71
ATOM     71  C   UNL A   1      10.762  55.184  13.389  0.00  0.00    +0.000 C 
BRANCH  71  72
ATOM     72  C   UNL A   1      11.772  54.067  13.115  0.00  0.00    +0.000 C 
BRANCH  72  73
ATOM     73  C   UNL A   1      13.185  54.474  13.536  0.00  0.00    +0.000 C 
BRANCH  73  74
ATOM     74  C   UNL A   1      14.224  53.418  13.145  0.00  0.00    +0.000 C 
BRANCH  74  75
ATOM     75  C   UNL A   1      14.016  52.961  11.701  0.00  0.00    +0.000 C 
BRANCH  75  78
ATOM     76  O   UNL A   1      14.846  50.243  11.655  0.00  0.00    +0.000 OA
ATOM     77  C   UNL A   1      15.546  51.100  11.121  0.00  0.00    +0.000 C 
ATOM     78  N   UNL A   1      15.229  52.439  11.104  0.00  0.00    +0.000 N 
ATOM     79  H   UNL A   1      15.813  53.072  10.574  0.00  0.00    +0.000 HD
BRANCH  77  80
ATOM     80  C   UNL A   1      16.853  50.760  10.402  0.00  0.00    +0.000 C 
BRANCH  80  81
ATOM     81  C   UNL A   1      16.666  50.313   8.973  0.00  0.00    +0.000 A 
ATOM     82  C   UNL A   1      16.493  48.897   8.715  0.00  0.00    +0.000 A 
ATOM     83  C   UNL A   1      16.441  48.442   7.455  0.00  0.00    +0.000 A 
ATOM     84  N   UNL A   1      16.517  49.300   6.376  0.00  0.00    +0.000 N 
ATOM     85  C   UNL A   1      16.663  50.667   6.522  0.00  0.00    +0.000 A 
ATOM     86  O   UNL A   1      16.707  51.459   5.589  0.00  0.00    +0.000 OA
ATOM     87  C   UNL A   1      16.747  51.160   7.930  0.00  0.00    +0.000 A 
BRANCH  84  88
ATOM     88  C   UNL A   1      16.553  48.799   5.030  0.00  0.00    +0.000 C 
ATOM     89  F   UNL A   1      17.816  48.906   4.535  0.00  0.00    +0.000 F 
ATOM     90  F   UNL A   1      16.233  47.480   4.977  0.00  0.00    +0.000 F 
ENDBRANCH  84  88
ENDBRANCH  80  81
ENDBRANCH  77  80
ENDBRANCH  75  78
ENDBRANCH  74  75
ENDBRANCH  73  74
ENDBRANCH  72  73
ENDBRANCH  71  72
ENDBRANCH  70  71
ENDBRANCH  66  70
ENDBRANCH  60  67
ENDBRANCH   1  63
TORSDOF 15
ENDMDL
MODEL 3
REMARK VINA RESULT:     -10.1      0.913      2.053
REMARK  Name = 
REMARK  15 active torsions:
REMARK  status: ('A' for Active; 'I' for Inactive)
REMARK    1  A    between atoms: C_2  and  C_3
REMARK    2  A    between atoms: C_3  and  C_4
REMARK    3  A    between atoms: N_7  and  C_8
REMARK    4  A    between atoms: N_14  and  C_15
REMARK    5  A    between atoms: C_15  and  C_16
REMARK    6  A    between atoms: C_16  and  C_17
REMARK    7  A    between atoms: C_17  and  C_18
REMARK    8  A    between atoms: C_18  and  C_19
REMARK    9  A    between atoms: C_19  and  C_20
REMARK   10  A    between atoms: C_20  and  N_21
REMARK   11  A    between atoms: C_22  and  C_24
REMARK   12  A    between atoms: C_27  and  C_28
REMARK   13  A    between atoms: C_32  and  C_33
REMARK   14  A    between atoms: C_49  and  C_50
REMARK   15  A    between atoms: C_64  and  C_65
REMARK                            x       y       z     vdW  Elec       q    Type
REMARK                         _______ _______ _______ _____ _____    ______ ____
ROOT
ATOM      1  C   UNL A   1      13.596  53.473   5.617  0.00  0.00    +0.000 C 
ATOM      2  C   UNL A   1      13.175  52.042   5.556  0.00  0.00    +0.000 C 
ATOM      3  N   UNL A   1      13.486  51.135   4.668  0.00  0.00    +0.000 NA
ATOM      4  C   UNL A   1      12.836  49.982   5.070  0.00  0.00    +0.000 C 
ATOM      5  C   UNL A   1      12.816  48.779   4.457  0.00  0.00    +0.000 C 
ATOM      6  C   UNL A   1      13.511  48.478   3.237  0.00  0.00    +0.000 A 
ATOM      7  C   UNL A   1      13.508  47.289   2.529  0.00  0.00    +0.000 A 
ATOM      8  C   UNL A   1      14.378  47.425   1.442  0.00  0.00    +0.000 A 
ATOM      9  C   UNL A   1      14.884  48.714   1.444  0.00  0.00    +0.000 A 
ATOM     10  N   UNL A   1      14.342  49.360   2.552  0.00  0.00    +0.000 N 
ATOM     11  C   UNL A   1      15.806  49.298   0.510  0.00  0.00    +0.000 C 
ATOM     12  C   UNL A   1      16.235  50.579   0.569  0.00  0.00    +0.000 C 
ATOM     13  N   UNL A   1      15.889  51.551   1.490  0.00  0.00    +0.000 NA
ATOM     14  C   UNL A   1      16.563  52.620   1.144  0.00  0.00    +0.000 C 
ATOM     15  C   UNL A   1      16.561  53.970   1.776  0.00  0.00    +0.000 C 
ATOM     16  C   UNL A   1      15.820  54.185   2.878  0.00  0.00    +0.000 A 
ATOM     17  C   UNL A   1      15.719  55.467   3.569  0.00  0.00    +0.000 A 
ATOM     18  C   UNL A   1      14.916  55.328   4.633  0.00  0.00    +0.000 A 
ATOM     19  C   UNL A   1      14.435  53.950   4.684  0.00  0.00    +0.000 A 
ATOM     20  N   UNL A   1      15.021  53.335   3.603  0.00  0.00    +0.000 N 
ATOM     21  C   UNL A   1      17.418  52.444  -0.037  0.00  0.00    +0.000 C 
ATOM     22  C   UNL A   1      17.170  51.180  -0.356  0.00  0.00    +0.000 C 
ATOM     23  C   UNL A   1      12.135  50.292   6.296  0.00  0.00    +0.000 C 
ATOM     24  C   UNL A   1      12.293  51.565   6.629  0.00  0.00    +0.000 C 
ATOM     25  H   UNL A   1      14.532  50.327   2.825  0.00  0.00    +0.000 HD
ATOM     26  H   UNL A   1      14.862  52.354   3.353  0.00  0.00    +0.000 HD
ENDROOT
BRANCH   5  27
ATOM     27  C   UNL A   1      12.004  47.701   5.102  0.00  0.00    +0.000 A 
ATOM     28  C   UNL A   1      10.688  47.447   4.691  0.00  0.00    +0.000 A 
ATOM     29  F   UNL A   1      10.129  48.189   3.724  0.00  0.00    +0.000 F 
ATOM     30  C   UNL A   1       9.936  46.442   5.290  0.00  0.00    +0.000 A 
ATOM     31  F   UNL A   1       8.669  46.233   4.905  0.00  0.00    +0.000 F 
ATOM     32  C   UNL A   1      10.489  45.663   6.297  0.00  0.00    +0.000 A 
ATOM     33  F   UNL A   1       9.757  44.706   6.884  0.00  0.00    +0.000 F 
ATOM     34  C   UNL A   1      11.794  45.894   6.711  0.00  0.00    +0.000 A 
ATOM     35  F   UNL A   1      12.325  45.149   7.691  0.00  0.00    +0.000 F 
ATOM     36  C   UNL A   1      12.546  46.908   6.122  0.00  0.00    +0.000 A 
ATOM     37  F   UNL A   1      13.793  47.132   6.561  0.00  0.00    +0.000 F 
ENDBRANCH   5  27
BRANCH  11  38
ATOM     38  C   UNL A   1      16.336  48.455  -0.608  0.00  0.00    +0.000 A 
ATOM     39  C   UNL A   1      15.551  48.173  -1.735  0.00  0.00    +0.000 A 
ATOM     40  F   UNL A   1      14.306  48.665  -1.828  0.00  0.00    +0.000 F 
ATOM     41  C   UNL A   1      16.037  47.367  -2.762  0.00  0.00    +0.000 A 
ATOM     42  F   UNL A   1      15.259  47.083  -3.815  0.00  0.00    +0.000 F 
ATOM     43  C   UNL A   1      17.322  46.842  -2.691  0.00  0.00    +0.000 A 
ATOM     44  F   UNL A   1      17.781  46.056  -3.676  0.00  0.00    +0.000 F 
ATOM     45  C   UNL A   1      18.119  47.125  -1.592  0.00  0.00    +0.000 A 
ATOM     46  F   UNL A   1      19.358  46.618  -1.519  0.00  0.00    +0.000 F 
ATOM     47  C   UNL A   1      17.632  47.923  -0.560  0.00  0.00    +0.000 A 
ATOM     48  F   UNL A   1      18.417  48.166   0.501  0.00  0.00    +0.000 F 
ENDBRANCH  11  38
BRANCH  15  49
ATOM     49  C   UNL A   1      17.352  55.086   1.211  0.00  0.00    +0.000 A 
ATOM     50  C   UNL A   1      16.876  55.830   0.125  0.00  0.00    +0.000 A 
ATOM     51  F   UNL A   1      15.647  55.602  -0.358  0.00  0.00    +0.000 F 
ATOM     52  C   UNL A   1      17.669  56.811  -0.470  0.00  0.00    +0.000 A 
ATOM     53  F   UNL A   1      17.202  57.501  -1.519  0.00  0.00    +0.000 F 
ATOM     54  C   UNL A   1      18.943  57.062   0.018  0.00  0.00    +0.000 A 
ATOM     55  F   UNL A   1      19.709  57.998  -0.562  0.00  0.00    +0.000 F 
ATOM     56  C   UNL A   1      19.422  56.349   1.108  0.00  0.00    +0.000 A 
ATOM     57  F   UNL A   1      20.646  56.599   1.592  0.00  0.00    +0.000 F 
ATOM     58  C   UNL A   1      18.630  55.369   1.703  0.00  0.00    +0.000 A 
ATOM     59  F   UNL A   1      19.105  54.680   2.751  0.00  0.00    +0.000 F 
ENDBRANCH  15  49
BRANCH   1  63
ATOM     60  C   UNL A   1      12.013  55.826   8.819  0.00  0.00    +0.000 A 
ATOM     61  C   UNL A   1      11.347  55.784   7.587  0.00  0.00    +0.000 A 
ATOM     62  C   UNL A   1      11.883  55.047   6.528  0.00  0.00    +0.000 A 
ATOM     63  C   UNL A   1      13.090  54.352   6.694  0.00  0.00    +0.000 A 
ATOM     64  C   UNL A   1      13.786  54.453   7.904  0.00  0.00    +0.000 A 
ATOM     65  C   UNL A   1      13.250  55.187   8.965  0.00  0.00    +0.000 A 
BRANCH  60  67
ATOM     66  N   UNL A   1      11.299  55.701  11.139  0.00  0.00    +0.000 N 
ATOM     67  C   UNL A   1      11.445  56.500  10.015  0.00  0.00    +0.000 C 
ATOM     68  O   UNL A   1      11.209  57.703   9.951  0.00  0.00    +0.000 OA
ATOM     69  H   UNL A   1      11.579  54.725  11.106  0.00  0.00    +0.000 HD
BRANCH  66  70
ATOM     70  C   UNL A   1      10.856  56.221  12.428  0.00  0.00    +0.000 C 
BRANCH  70  71
ATOM     71  C   UNL A   1      10.681  55.107  13.453  0.00  0.00    +0.000 C 
BRANCH  71  72
ATOM     72  C   UNL A   1      11.706  53.991  13.233  0.00  0.00    +0.000 C 
BRANCH  72  73
ATOM     73  C   UNL A   1      13.124  54.460  13.564  0.00  0.00    +0.000 C 
BRANCH  73  74
ATOM     74  C   UNL A   1      14.176  53.416  13.176  0.00  0.00    +0.000 C 
BRANCH  74  75
ATOM     75  C   UNL A   1      13.968  52.945  11.737  0.00  0.00    +0.000 C 
BRANCH  75  78
ATOM     76  O   UNL A   1      14.776  50.220  11.694  0.00  0.00    +0.000 OA
ATOM     77  C   UNL A   1      15.485  51.071  11.165  0.00  0.00    +0.000 C 
ATOM     78  N   UNL A   1      15.180  52.413  11.146  0.00  0.00    +0.000 N 
ATOM     79  H   UNL A   1      15.772  53.041  10.620  0.00  0.00    +0.000 HD
BRANCH  77  80
ATOM     80  C   UNL A   1      16.794  50.721  10.453  0.00  0.00    +0.000 C 
BRANCH  80  81
ATOM     81  C   UNL A   1      16.612  50.288   9.018  0.00  0.00    +0.000 A 
ATOM     82  C   UNL A   1      16.409  48.878   8.749  0.00  0.00    +0.000 A 
ATOM     83  C   UNL A   1      16.360  48.433   7.486  0.00  0.00    +0.000 A 
ATOM     84  N   UNL A   1      16.469  49.295   6.413  0.00  0.00    +0.000 N 
ATOM     85  C   UNL A   1      16.644  50.657   6.571  0.00  0.00    +0.000 A 
ATOM     86  O   UNL A   1      16.718  51.454   5.643  0.00  0.00    +0.000 OA
ATOM     87  C   UNL A   1      16.724  51.140   7.982  0.00  0.00    +0.000 A 
BRANCH  84  88
ATOM     88  C   UNL A   1      16.507  48.803   5.064  0.00  0.00    +0.000 C 
ATOM     89  F   UNL A   1      17.768  48.928   4.567  0.00  0.00    +0.000 F 
ATOM     90  F   UNL A   1      16.203  47.480   5.004  0.00  0.00    +0.000 F 
ENDBRANCH  84  88
ENDBRANCH  80  81
ENDBRANCH  77  80
ENDBRANCH  75  78
ENDBRANCH  74  75
ENDBRANCH  73  74
ENDBRANCH  72  73
ENDBRANCH  71  72
ENDBRANCH  70  71
ENDBRANCH  66  70
ENDBRANCH  60  67
ENDBRANCH   1  63
TORSDOF 15
ENDMDL
MODEL 4
REMARK VINA RESULT:      -9.9     46.398     51.237
REMARK  Name = 
REMARK  15 active torsions:
REMARK  status: ('A' for Active; 'I' for Inactive)
REMARK    1  A    between atoms: C_2  and  C_3
REMARK    2  A    between atoms: C_3  and  C_4
REMARK    3  A    between atoms: N_7  and  C_8
REMARK    4  A    between atoms: N_14  and  C_15
REMARK    5  A    between atoms: C_15  and  C_16
REMARK    6  A    between atoms: C_16  and  C_17
REMARK    7  A    between atoms: C_17  and  C_18
REMARK    8  A    between atoms: C_18  and  C_19
REMARK    9  A    between atoms: C_19  and  C_20
REMARK   10  A    between atoms: C_20  and  N_21
REMARK   11  A    between atoms: C_22  and  C_24
REMARK   12  A    between atoms: C_27  and  C_28
REMARK   13  A    between atoms: C_32  and  C_33
REMARK   14  A    between atoms: C_49  and  C_50
REMARK   15  A    between atoms: C_64  and  C_65
REMARK                            x       y       z     vdW  Elec       q    Type
REMARK                         _______ _______ _______ _____ _____    ______ ____
ROOT
ATOM      1  C   UNL A   1      52.982  20.085  11.723  0.00  0.00    +0.000 C 
ATOM      2  C   UNL A   1      52.786  20.737  13.052  0.00  0.00    +0.000 C 
ATOM      3  N   UNL A   1      53.618  20.814  14.056  0.00  0.00    +0.000 NA
ATOM      4  C   UNL A   1      52.948  21.515  15.042  0.00  0.00    +0.000 C 
ATOM      5  C   UNL A   1      53.376  21.820  16.286  0.00  0.00    +0.000 C 
ATOM      6  C   UNL A   1      54.664  21.465  16.811  0.00  0.00    +0.000 A 
ATOM      7  C   UNL A   1      55.160  21.704  18.081  0.00  0.00    +0.000 A 
ATOM      8  C   UNL A   1      56.480  21.247  18.129  0.00  0.00    +0.000 A 
ATOM      9  C   UNL A   1      56.792  20.677  16.906  0.00  0.00    +0.000 A 
ATOM     10  N   UNL A   1      55.665  20.811  16.098  0.00  0.00    +0.000 N 
ATOM     11  C   UNL A   1      58.033  20.073  16.507  0.00  0.00    +0.000 C 
ATOM     12  C   UNL A   1      58.250  19.515  15.295  0.00  0.00    +0.000 C 
ATOM     13  N   UNL A   1      57.364  19.406  14.238  0.00  0.00    +0.000 NA
ATOM     14  C   UNL A   1      58.028  18.803  13.282  0.00  0.00    +0.000 C 
ATOM     15  C   UNL A   1      57.560  18.413  11.922  0.00  0.00    +0.000 C 
ATOM     16  C   UNL A   1      56.309  18.722  11.538  0.00  0.00    +0.000 A 
ATOM     17  C   UNL A   1      55.731  18.371  10.245  0.00  0.00    +0.000 A 
ATOM     18  C   UNL A   1      54.477  18.843  10.183  0.00  0.00    +0.000 A 
ATOM     19  C   UNL A   1      54.164  19.513  11.442  0.00  0.00    +0.000 A 
ATOM     20  N   UNL A   1      55.308  19.397  12.195  0.00  0.00    +0.000 N 
ATOM     21  C   UNL A   1      59.415  18.465  13.627  0.00  0.00    +0.000 C 
ATOM     22  C   UNL A   1      59.495  18.912  14.874  0.00  0.00    +0.000 C 
ATOM     23  C   UNL A   1      51.650  21.867  14.509  0.00  0.00    +0.000 C 
ATOM     24  C   UNL A   1      51.489  21.387  13.285  0.00  0.00    +0.000 C 
ATOM     25  H   UNL A   1      55.589  20.489  15.131  0.00  0.00    +0.000 HD
ATOM     26  H   UNL A   1      55.398  19.756  13.150  0.00  0.00    +0.000 HD
ENDROOT
BRANCH   5  27
ATOM     27  C   UNL A   1      52.429  22.574  17.166  0.00  0.00    +0.000 A 
ATOM     28  C   UNL A   1      51.636  21.906  18.109  0.00  0.00    +0.000 A 
ATOM     29  F   UNL A   1      51.700  20.571  18.219  0.00  0.00    +0.000 F 
ATOM     30  C   UNL A   1      50.758  22.609  18.927  0.00  0.00    +0.000 A 
ATOM     31  F   UNL A   1      49.986  21.950  19.803  0.00  0.00    +0.000 F 
ATOM     32  C   UNL A   1      50.668  23.990  18.829  0.00  0.00    +0.000 A 
ATOM     33  F   UNL A   1      49.810  24.664  19.608  0.00  0.00    +0.000 F 
ATOM     34  C   UNL A   1      51.452  24.670  17.908  0.00  0.00    +0.000 A 
ATOM     35  F   UNL A   1      51.358  26.004  17.806  0.00  0.00    +0.000 F 
ATOM     36  C   UNL A   1      52.323  23.969  17.077  0.00  0.00    +0.000 A 
ATOM     37  F   UNL A   1      53.046  24.644  16.173  0.00  0.00    +0.000 F 
ENDBRANCH   5  27
BRANCH  11  38
ATOM     38  C   UNL A   1      59.171  20.046  17.480  0.00  0.00    +0.000 A 
ATOM     39  C   UNL A   1      59.474  18.886  18.205  0.00  0.00    +0.000 A 
ATOM     40  F   UNL A   1      58.746  17.772  18.029  0.00  0.00    +0.000 F 
ATOM     41  C   UNL A   1      60.518  18.871  19.129  0.00  0.00    +0.000 A 
ATOM     42  F   UNL A   1      60.771  17.761  19.834  0.00  0.00    +0.000 F 
ATOM     43  C   UNL A   1      61.286  20.010  19.333  0.00  0.00    +0.000 A 
ATOM     44  F   UNL A   1      62.281  19.996  20.233  0.00  0.00    +0.000 F 
ATOM     45  C   UNL A   1      61.011  21.163  18.612  0.00  0.00    +0.000 A 
ATOM     46  F   UNL A   1      61.750  22.264  18.809  0.00  0.00    +0.000 F 
ATOM     47  C   UNL A   1      59.964  21.183  17.695  0.00  0.00    +0.000 A 
ATOM     48  F   UNL A   1      59.707  22.316  17.024  0.00  0.00    +0.000 F 
ENDBRANCH  11  38
BRANCH  15  49
ATOM     49  C   UNL A   1      58.442  17.682  10.985  0.00  0.00    +0.000 A 
ATOM     50  C   UNL A   1      59.277  18.369  10.096  0.00  0.00    +0.000 A 
ATOM     51  F   UNL A   1      59.359  19.705  10.149  0.00  0.00    +0.000 F 
ATOM     52  C   UNL A   1      60.027  17.679   9.144  0.00  0.00    +0.000 A 
ATOM     53  F   UNL A   1      60.807  18.354   8.290  0.00  0.00    +0.000 F 
ATOM     54  C   UNL A   1      59.956  16.295   9.076  0.00  0.00    +0.000 A 
ATOM     55  F   UNL A   1      60.669  15.632   8.153  0.00  0.00    +0.000 F 
ATOM     56  C   UNL A   1      59.150  15.597   9.966  0.00  0.00    +0.000 A 
ATOM     57  F   UNL A   1      59.090  14.259   9.913  0.00  0.00    +0.000 F 
ATOM     58  C   UNL A   1      58.400  16.286  10.916  0.00  0.00    +0.000 A 
ATOM     59  F   UNL A   1      57.619  15.603  11.765  0.00  0.00    +0.000 F 
ENDBRANCH  15  49
BRANCH   1  63
ATOM     60  C   UNL A   1      49.965  19.959   8.694  0.00  0.00    +0.000 A 
ATOM     61  C   UNL A   1      50.710  21.129   8.891  0.00  0.00    +0.000 A 
ATOM     62  C   UNL A   1      51.668  21.185   9.905  0.00  0.00    +0.000 A 
ATOM     63  C   UNL A   1      51.885  20.072  10.731  0.00  0.00    +0.000 A 
ATOM     64  C   UNL A   1      51.092  18.929  10.575  0.00  0.00    +0.000 A 
ATOM     65  C   UNL A   1      50.135  18.871   9.558  0.00  0.00    +0.000 A 
BRANCH  60  67
ATOM     66  N   UNL A   1      49.238  18.706   6.741  0.00  0.00    +0.000 N 
ATOM     67  C   UNL A   1      49.009  19.797   7.568  0.00  0.00    +0.000 C 
ATOM     68  O   UNL A   1      48.067  20.579   7.485  0.00  0.00    +0.000 OA
ATOM     69  H   UNL A   1      50.016  18.082   6.931  0.00  0.00    +0.000 HD
BRANCH  66  70
ATOM     70  C   UNL A   1      48.340  18.336   5.653  0.00  0.00    +0.000 C 
BRANCH  70  71
ATOM     71  C   UNL A   1      47.292  17.327   6.109  0.00  0.00    +0.000 C 
BRANCH  71  72
ATOM     72  C   UNL A   1      46.141  17.240   5.104  0.00  0.00    +0.000 C 
BRANCH  72  73
ATOM     73  C   UNL A   1      46.082  18.479   4.209  0.00  0.00    +0.000 C 
BRANCH  73  74
ATOM     74  C   UNL A   1      45.168  18.266   2.998  0.00  0.00    +0.000 C 
BRANCH  74  75
ATOM     75  C   UNL A   1      44.899  19.590   2.283  0.00  0.00    +0.000 C 
BRANCH  75  78
ATOM     76  O   UNL A   1      43.223  21.804   1.678  0.00  0.00    +0.000 OA
ATOM     77  C   UNL A   1      42.934  20.690   1.250  0.00  0.00    +0.000 C 
ATOM     78  N   UNL A   1      43.680  19.560   1.500  0.00  0.00    +0.000 N 
ATOM     79  H   UNL A   1      43.423  18.696   1.045  0.00  0.00    +0.000 HD
BRANCH  77  80
ATOM     80  C   UNL A   1      41.705  20.442   0.373  0.00  0.00    +0.000 C 
BRANCH  80  81
ATOM     81  C   UNL A   1      40.415  20.325   1.148  0.00  0.00    +0.000 A 
ATOM     82  C   UNL A   1      39.378  21.308   0.905  0.00  0.00    +0.000 A 
ATOM     83  C   UNL A   1      38.265  21.314   1.652  0.00  0.00    +0.000 A 
ATOM     84  N   UNL A   1      38.058  20.376   2.644  0.00  0.00    +0.000 N 
ATOM     85  C   UNL A   1      38.980  19.388   2.935  0.00  0.00    +0.000 A 
ATOM     86  O   UNL A   1      38.819  18.525   3.789  0.00  0.00    +0.000 OA
ATOM     87  C   UNL A   1      40.229  19.407   2.116  0.00  0.00    +0.000 A 
BRANCH  84  88
ATOM     88  C   UNL A   1      36.907  20.441   3.501  0.00  0.00    +0.000 C 
ATOM     89  F   UNL A   1      36.200  21.572   3.232  0.00  0.00    +0.000 F 
ATOM     90  F   UNL A   1      36.061  19.401   3.283  0.00  0.00    +0.000 F 
ENDBRANCH  84  88
ENDBRANCH  80  81
ENDBRANCH  77  80
ENDBRANCH  75  78
ENDBRANCH  74  75
ENDBRANCH  73  74
ENDBRANCH  72  73
ENDBRANCH  71  72
ENDBRANCH  70  71
ENDBRANCH  66  70
ENDBRANCH  60  67
ENDBRANCH   1  63
TORSDOF 15
ENDMDL
MODEL 5
REMARK VINA RESULT:      -9.8     43.896     46.650
REMARK  Name = 
REMARK  15 active torsions:
REMARK  status: ('A' for Active; 'I' for Inactive)
REMARK    1  A    between atoms: C_2  and  C_3
REMARK    2  A    between atoms: C_3  and  C_4
REMARK    3  A    between atoms: N_7  and  C_8
REMARK    4  A    between atoms: N_14  and  C_15
REMARK    5  A    between atoms: C_15  and  C_16
REMARK    6  A    between atoms: C_16  and  C_17
REMARK    7  A    between atoms: C_17  and  C_18
REMARK    8  A    between atoms: C_18  and  C_19
REMARK    9  A    between atoms: C_19  and  C_20
REMARK   10  A    between atoms: C_20  and  N_21
REMARK   11  A    between atoms: C_22  and  C_24
REMARK   12  A    between atoms: C_27  and  C_28
REMARK   13  A    between atoms: C_32  and  C_33
REMARK   14  A    between atoms: C_49  and  C_50
REMARK   15  A    between atoms: C_64  and  C_65
REMARK                            x       y       z     vdW  Elec       q    Type
REMARK                         _______ _______ _______ _____ _____    ______ ____
ROOT
ATOM      1  C   UNL A   1      21.725  38.023  49.466  0.00  0.00    +0.000 C 
ATOM      2  C   UNL A   1      22.239  36.907  48.617  0.00  0.00    +0.000 C 
ATOM      3  N   UNL A   1      23.367  36.831  47.962  0.00  0.00    +0.000 NA
ATOM      4  C   UNL A   1      23.351  35.597  47.337  0.00  0.00    +0.000 C 
ATOM      5  C   UNL A   1      24.280  35.069  46.511  0.00  0.00    +0.000 C 
ATOM      6  C   UNL A   1      25.503  35.724  46.139  0.00  0.00    +0.000 A 
ATOM      7  C   UNL A   1      26.481  35.269  45.273  0.00  0.00    +0.000 A 
ATOM      8  C   UNL A   1      27.525  36.200  45.264  0.00  0.00    +0.000 A 
ATOM      9  C   UNL A   1      27.176  37.258  46.085  0.00  0.00    +0.000 A 
ATOM     10  N   UNL A   1      25.925  36.961  46.620  0.00  0.00    +0.000 N 
ATOM     11  C   UNL A   1      27.940  38.441  46.369  0.00  0.00    +0.000 C 
ATOM     12  C   UNL A   1      27.516  39.445  47.169  0.00  0.00    +0.000 C 
ATOM     13  N   UNL A   1      26.312  39.544  47.843  0.00  0.00    +0.000 NA
ATOM     14  C   UNL A   1      26.363  40.683  48.489  0.00  0.00    +0.000 C 
ATOM     15  C   UNL A   1      25.330  41.307  49.364  0.00  0.00    +0.000 C 
ATOM     16  C   UNL A   1      24.179  40.654  49.600  0.00  0.00    +0.000 A 
ATOM     17  C   UNL A   1      23.086  41.173  50.417  0.00  0.00    +0.000 A 
ATOM     18  C   UNL A   1      22.100  40.265  50.458  0.00  0.00    +0.000 A 
ATOM     19  C   UNL A   1      22.490  39.110  49.654  0.00  0.00    +0.000 A 
ATOM     20  N   UNL A   1      23.742  39.421  49.178  0.00  0.00    +0.000 N 
ATOM     21  C   UNL A   1      27.610  41.434  48.300  0.00  0.00    +0.000 C 
ATOM     22  C   UNL A   1      28.276  40.637  47.473  0.00  0.00    +0.000 C 
ATOM     23  C   UNL A   1      22.117  34.944  47.711  0.00  0.00    +0.000 C 
ATOM     24  C   UNL A   1      21.378  35.725  48.486  0.00  0.00    +0.000 C 
ATOM     25  H   UNL A   1      25.403  37.552  47.270  0.00  0.00    +0.000 HD
ATOM     26  H   UNL A   1      24.283  38.810  48.559  0.00  0.00    +0.000 HD
ENDROOT
BRANCH   5  27
ATOM     27  C   UNL A   1      23.998  33.712  45.948  0.00  0.00    +0.000 A 
ATOM     28  C   UNL A   1      24.569  32.564  46.516  0.00  0.00    +0.000 A 
ATOM     29  F   UNL A   1      25.400  32.672  47.562  0.00  0.00    +0.000 F 
ATOM     30  C   UNL A   1      24.302  31.303  45.993  0.00  0.00    +0.000 A 
ATOM     31  F   UNL A   1      24.881  30.219  46.530  0.00  0.00    +0.000 F 
ATOM     32  C   UNL A   1      23.450  31.165  44.906  0.00  0.00    +0.000 A 
ATOM     33  F   UNL A   1      23.208  29.950  44.394  0.00  0.00    +0.000 F 
ATOM     34  C   UNL A   1      22.869  32.288  44.337  0.00  0.00    +0.000 A 
ATOM     35  F   UNL A   1      22.054  32.156  43.280  0.00  0.00    +0.000 F 
ATOM     36  C   UNL A   1      23.143  33.554  44.849  0.00  0.00    +0.000 A 
ATOM     37  F   UNL A   1      22.594  34.627  44.262  0.00  0.00    +0.000 F 
ENDBRANCH   5  27
BRANCH  11  38
ATOM     38  C   UNL A   1      29.295  38.594  45.748  0.00  0.00    +0.000 A 
ATOM     39  C   UNL A   1      30.433  38.042  46.351  0.00  0.00    +0.000 A 
ATOM     40  F   UNL A   1      30.321  37.356  47.499  0.00  0.00    +0.000 F 
ATOM     41  C   UNL A   1      31.695  38.208  45.785  0.00  0.00    +0.000 A 
ATOM     42  F   UNL A   1      32.774  37.699  46.394  0.00  0.00    +0.000 F 
ATOM     43  C   UNL A   1      31.841  38.915  44.598  0.00  0.00    +0.000 A 
ATOM     44  F   UNL A   1      33.059  39.084  44.063  0.00  0.00    +0.000 F 
ATOM     45  C   UNL A   1      30.723  39.454  43.978  0.00  0.00    +0.000 A 
ATOM     46  F   UNL A   1      30.862  40.139  42.833  0.00  0.00    +0.000 F 
ATOM     47  C   UNL A   1      29.462  39.297  44.546  0.00  0.00    +0.000 A 
ATOM     48  F   UNL A   1      28.400  39.845  43.937  0.00  0.00    +0.000 F 
ENDBRANCH  11  38
BRANCH  15  49
ATOM     49  C   UNL A   1      25.541  42.638  49.974  0.00  0.00    +0.000 A 
ATOM     50  C   UNL A   1      26.038  42.765  51.277  0.00  0.00    +0.000 A 
ATOM     51  F   UNL A   1      26.422  41.676  51.957  0.00  0.00    +0.000 F 
ATOM     52  C   UNL A   1      26.136  44.016  51.885  0.00  0.00    +0.000 A 
ATOM     53  F   UNL A   1      26.598  44.116  53.138  0.00  0.00    +0.000 F 
ATOM     54  C   UNL A   1      25.746  45.154  51.195  0.00  0.00    +0.000 A 
ATOM     55  F   UNL A   1      25.830  46.357  51.784  0.00  0.00    +0.000 F 
ATOM     56  C   UNL A   1      25.272  45.049  49.894  0.00  0.00    +0.000 A 
ATOM     57  F   UNL A   1      24.908  46.148  49.219  0.00  0.00    +0.000 F 
ATOM     58  C   UNL A   1      25.173  43.799  49.287  0.00  0.00    +0.000 A 
ATOM     59  F   UNL A   1      24.707  43.708  48.032  0.00  0.00    +0.000 F 
ENDBRANCH  15  49
BRANCH   1  63
ATOM     60  C   UNL A   1      17.889  37.970  51.355  0.00  0.00    +0.000 A 
ATOM     61  C   UNL A   1      19.010  37.479  52.037  0.00  0.00    +0.000 A 
ATOM     62  C   UNL A   1      20.257  37.459  51.407  0.00  0.00    +0.000 A 
ATOM     63  C   UNL A   1      20.388  37.927  50.091  0.00  0.00    +0.000 A 
ATOM     64  C   UNL A   1      19.253  38.354  49.391  0.00  0.00    +0.000 A 
ATOM     65  C   UNL A   1      18.006  38.377  50.021  0.00  0.00    +0.000 A 
BRANCH  60  67
ATOM     66  N   UNL A   1      15.587  37.221  51.584  0.00  0.00    +0.000 N 
ATOM     67  C   UNL A   1      16.559  38.118  52.003  0.00  0.00    +0.000 C 
ATOM     68  O   UNL A   1      16.431  38.958  52.888  0.00  0.00    +0.000 OA
ATOM     69  H   UNL A   1      15.812  36.523  50.882  0.00  0.00    +0.000 HD
BRANCH  66  70
ATOM     70  C   UNL A   1      14.260  37.155  52.185  0.00  0.00    +0.000 C 
BRANCH  70  71
ATOM     71  C   UNL A   1      13.161  37.287  51.137  0.00  0.00    +0.000 C 
BRANCH  71  72
ATOM     72  C   UNL A   1      13.737  37.721  49.788  0.00  0.00    +0.000 C 
BRANCH  72  73
ATOM     73  C   UNL A   1      13.536  36.644  48.720  0.00  0.00    +0.000 C 
BRANCH  73  74
ATOM     74  C   UNL A   1      14.867  36.045  48.255  0.00  0.00    +0.000 C 
BRANCH  74  75
ATOM     75  C   UNL A   1      15.642  37.045  47.398  0.00  0.00    +0.000 C 
BRANCH  75  78
ATOM     76  O   UNL A   1      16.334  35.962  44.862  0.00  0.00    +0.000 OA
ATOM     77  C   UNL A   1      17.189  36.044  45.740  0.00  0.00    +0.000 C 
ATOM     78  N   UNL A   1      16.943  36.544  46.999  0.00  0.00    +0.000 N 
ATOM     79  H   UNL A   1      17.716  36.655  47.640  0.00  0.00    +0.000 HD
BRANCH  77  80
ATOM     80  C   UNL A   1      18.637  35.603  45.519  0.00  0.00    +0.000 C 
BRANCH  80  81
ATOM     81  C   UNL A   1      18.792  34.126  45.251  0.00  0.00    +0.000 A 
ATOM     82  C   UNL A   1      19.385  33.300  46.285  0.00  0.00    +0.000 A 
ATOM     83  C   UNL A   1      19.650  32.008  46.047  0.00  0.00    +0.000 A 
ATOM     84  N   UNL A   1      19.341  31.420  44.837  0.00  0.00    +0.000 N 
ATOM     85  C   UNL A   1      18.756  32.121  43.799  0.00  0.00    +0.000 A 
ATOM     86  O   UNL A   1      18.445  31.626  42.723  0.00  0.00    +0.000 OA
ATOM     87  C   UNL A   1      18.490  33.566  44.064  0.00  0.00    +0.000 A 
BRANCH  84  88
ATOM     88  C   UNL A   1      19.709  30.060  44.556  0.00  0.00    +0.000 C 
ATOM     89  F   UNL A   1      20.554  29.605  45.521  0.00  0.00    +0.000 F 
ATOM     90  F   UNL A   1      18.630  29.235  44.574  0.00  0.00    +0.000 F 
ENDBRANCH  84  88
ENDBRANCH  80  81
ENDBRANCH  77  80
ENDBRANCH  75  78
ENDBRANCH  74  75
ENDBRANCH  73  74
ENDBRANCH  72  73
ENDBRANCH  71  72
ENDBRANCH  70  71
ENDBRANCH  66  70
ENDBRANCH  60  67
ENDBRANCH   1  63
TORSDOF 15
ENDMDL
MODEL 6
REMARK VINA RESULT:      -9.8     46.197     51.062
REMARK  Name = 
REMARK  15 active torsions:
REMARK  status: ('A' for Active; 'I' for Inactive)
REMARK    1  A    between atoms: C_2  and  C_3
REMARK    2  A    between atoms: C_3  and  C_4
REMARK    3  A    between atoms: N_7  and  C_8
REMARK    4  A    between atoms: N_14  and  C_15
REMARK    5  A    between atoms: C_15  and  C_16
REMARK    6  A    between atoms: C_16  and  C_17
REMARK    7  A    between atoms: C_17  and  C_18
REMARK    8  A    between atoms: C_18  and  C_19
REMARK    9  A    between atoms: C_19  and  C_20
REMARK   10  A    between atoms: C_20  and  N_21
REMARK   11  A    between atoms: C_22  and  C_24
REMARK   12  A    between atoms: C_27  and  C_28
REMARK   13  A    between atoms: C_32  and  C_33
REMARK   14  A    between atoms: C_49  and  C_50
REMARK   15  A    between atoms: C_64  and  C_65
REMARK                            x       y       z     vdW  Elec       q    Type
REMARK                         _______ _______ _______ _____ _____    ______ ____
ROOT
ATOM      1  C   UNL A   1      52.878  20.225  11.619  0.00  0.00    +0.000 C 
ATOM      2  C   UNL A   1      52.718  20.858  12.962  0.00  0.00    +0.000 C 
ATOM      3  N   UNL A   1      53.570  20.903  13.951  0.00  0.00    +0.000 NA
ATOM      4  C   UNL A   1      52.932  21.600  14.961  0.00  0.00    +0.000 C 
ATOM      5  C   UNL A   1      53.389  21.877  16.201  0.00  0.00    +0.000 C 
ATOM      6  C   UNL A   1      54.679  21.488  16.696  0.00  0.00    +0.000 A 
ATOM      7  C   UNL A   1      55.203  21.697  17.960  0.00  0.00    +0.000 A 
ATOM      8  C   UNL A   1      56.515  21.214  17.976  0.00  0.00    +0.000 A 
ATOM      9  C   UNL A   1      56.793  20.659  16.739  0.00  0.00    +0.000 A 
ATOM     10  N   UNL A   1      55.654  20.827  15.954  0.00  0.00    +0.000 N 
ATOM     11  C   UNL A   1      58.014  20.038  16.307  0.00  0.00    +0.000 C 
ATOM     12  C   UNL A   1      58.198  19.496  15.082  0.00  0.00    +0.000 C 
ATOM     13  N   UNL A   1      57.291  19.422  14.039  0.00  0.00    +0.000 NA
ATOM     14  C   UNL A   1      57.926  18.823  13.062  0.00  0.00    +0.000 C 
ATOM     15  C   UNL A   1      57.426  18.464  11.705  0.00  0.00    +0.000 C 
ATOM     16  C   UNL A   1      56.174  18.802  11.350  0.00  0.00    +0.000 A 
ATOM     17  C   UNL A   1      55.566  18.484  10.061  0.00  0.00    +0.000 A 
ATOM     18  C   UNL A   1      54.320  18.981  10.031  0.00  0.00    +0.000 A 
ATOM     19  C   UNL A   1      54.043  19.635  11.306  0.00  0.00    +0.000 A 
ATOM     20  N   UNL A   1      55.198  19.485  12.036  0.00  0.00    +0.000 N 
ATOM     21  C   UNL A   1      59.312  18.453  13.375  0.00  0.00    +0.000 C 
ATOM     22  C   UNL A   1      59.423  18.877  14.627  0.00  0.00    +0.000 C 
ATOM     23  C   UNL A   1      51.632  21.986  14.458  0.00  0.00    +0.000 C 
ATOM     24  C   UNL A   1      51.439  21.529  13.229  0.00  0.00    +0.000 C 
ATOM     25  H   UNL A   1      55.554  20.523  14.983  0.00  0.00    +0.000 HD
ATOM     26  H   UNL A   1      55.313  19.826  12.995  0.00  0.00    +0.000 HD
ENDROOT
BRANCH   5  27
ATOM     27  C   UNL A   1      52.473  22.633  17.110  0.00  0.00    +0.000 A 
ATOM     28  C   UNL A   1      52.406  24.033  17.063  0.00  0.00    +0.000 A 
ATOM     29  F   UNL A   1      53.185  24.716  16.212  0.00  0.00    +0.000 F 
ATOM     30  C   UNL A   1      51.552  24.734  17.907  0.00  0.00    +0.000 A 
ATOM     31  F   UNL A   1      51.523  26.074  17.869  0.00  0.00    +0.000 F 
ATOM     32  C   UNL A   1      50.740  24.051  18.802  0.00  0.00    +0.000 A 
ATOM     33  F   UNL A   1      49.930  24.730  19.625  0.00  0.00    +0.000 F 
ATOM     34  C   UNL A   1      50.785  22.666  18.857  0.00  0.00    +0.000 A 
ATOM     35  F   UNL A   1      50.008  22.006  19.728  0.00  0.00    +0.000 F 
ATOM     36  C   UNL A   1      51.649  21.960  18.022  0.00  0.00    +0.000 A 
ATOM     37  F   UNL A   1      51.698  20.624  18.116  0.00  0.00    +0.000 F 
ENDBRANCH   5  27
BRANCH  11  38
ATOM     38  C   UNL A   1      59.169  19.973  17.258  0.00  0.00    +0.000 A 
ATOM     39  C   UNL A   1      59.991  21.088  17.475  0.00  0.00    +0.000 A 
ATOM     40  F   UNL A   1      59.745  22.240  16.832  0.00  0.00    +0.000 F 
ATOM     41  C   UNL A   1      61.080  21.017  18.341  0.00  0.00    +0.000 A 
ATOM     42  F   UNL A   1      61.871  22.085  18.509  0.00  0.00    +0.000 F 
ATOM     43  C   UNL A   1      61.359  19.837  19.018  0.00  0.00    +0.000 A 
ATOM     44  F   UNL A   1      62.416  19.769  19.841  0.00  0.00    +0.000 F 
ATOM     45  C   UNL A   1      60.546  18.728  18.829  0.00  0.00    +0.000 A 
ATOM     46  F   UNL A   1      60.815  17.587  19.480  0.00  0.00    +0.000 F 
ATOM     47  C   UNL A   1      59.462  18.794  17.958  0.00  0.00    +0.000 A 
ATOM     48  F   UNL A   1      58.704  17.702  17.778  0.00  0.00    +0.000 F 
ENDBRANCH  11  38
BRANCH  15  49
ATOM     49  C   UNL A   1      58.276  17.732  10.740  0.00  0.00    +0.000 A 
ATOM     50  C   UNL A   1      59.067  18.417   9.811  0.00  0.00    +0.000 A 
ATOM     51  F   UNL A   1      59.138  19.755   9.848  0.00  0.00    +0.000 F 
ATOM     52  C   UNL A   1      59.784  17.725   8.836  0.00  0.00    +0.000 A 
ATOM     53  F   UNL A   1      60.523  18.400   7.945  0.00  0.00    +0.000 F 
ATOM     54  C   UNL A   1      59.724  16.341   8.784  0.00  0.00    +0.000 A 
ATOM     55  F   UNL A   1      60.406  15.675   7.839  0.00  0.00    +0.000 F 
ATOM     56  C   UNL A   1      58.963  15.644   9.712  0.00  0.00    +0.000 A 
ATOM     57  F   UNL A   1      58.914  14.305   9.675  0.00  0.00    +0.000 F 
ATOM     58  C   UNL A   1      58.245  16.335  10.686  0.00  0.00    +0.000 A 
ATOM     59  F   UNL A   1      57.506  15.653  11.573  0.00  0.00    +0.000 F 
ENDBRANCH  15  49
BRANCH   1  63
ATOM     60  C   UNL A   1      49.805  20.209   8.645  0.00  0.00    +0.000 A 
ATOM     61  C   UNL A   1      50.565  21.366   8.857  0.00  0.00    +0.000 A 
ATOM     62  C   UNL A   1      51.543  21.386   9.855  0.00  0.00    +0.000 A 
ATOM     63  C   UNL A   1      51.763  20.249  10.648  0.00  0.00    +0.000 A 
ATOM     64  C   UNL A   1      50.954  19.119  10.477  0.00  0.00    +0.000 A 
ATOM     65  C   UNL A   1      49.978  19.097   9.477  0.00  0.00    +0.000 A 
BRANCH  60  67
ATOM     66  N   UNL A   1      48.971  18.964   6.729  0.00  0.00    +0.000 N 
ATOM     67  C   UNL A   1      48.826  20.086   7.533  0.00  0.00    +0.000 C 
ATOM     68  O   UNL A   1      47.938  20.927   7.441  0.00  0.00    +0.000 OA
ATOM     69  H   UNL A   1      49.709  18.294   6.925  0.00  0.00    +0.000 HD
BRANCH  66  70
ATOM     70  C   UNL A   1      48.038  18.631   5.660  0.00  0.00    +0.000 C 
BRANCH  70  71
ATOM     71  C   UNL A   1      46.920  17.720   6.154  0.00  0.00    +0.000 C 
BRANCH  71  72
ATOM     72  C   UNL A   1      45.851  17.528   5.076  0.00  0.00    +0.000 C 
BRANCH  72  73
ATOM     73  C   UNL A   1      45.931  18.618   4.006  0.00  0.00    +0.000 C 
BRANCH  73  74
ATOM     74  C   UNL A   1      44.967  18.353   2.846  0.00  0.00    +0.000 C 
BRANCH  74  75
ATOM     75  C   UNL A   1      44.659  19.644   2.089  0.00  0.00    +0.000 C 
BRANCH  75  78
ATOM     76  O   UNL A   1      42.746  21.669   1.522  0.00  0.00    +0.000 OA
ATOM     77  C   UNL A   1      42.631  20.563   1.001  0.00  0.00    +0.000 C 
ATOM     78  N   UNL A   1      43.502  19.521   1.225  0.00  0.00    +0.000 N 
ATOM     79  H   UNL A   1      43.388  18.667   0.697  0.00  0.00    +0.000 HD
BRANCH  77  80
ATOM     80  C   UNL A   1      41.498  20.228   0.028  0.00  0.00    +0.000 C 
BRANCH  80  81
ATOM     81  C   UNL A   1      40.123  20.562   0.553  0.00  0.00    +0.000 A 
ATOM     82  C   UNL A   1      39.726  20.009   1.833  0.00  0.00    +0.000 A 
ATOM     83  C   UNL A   1      38.475  20.182   2.283  0.00  0.00    +0.000 A 
ATOM     84  N   UNL A   1      37.545  20.909   1.567  0.00  0.00    +0.000 N 
ATOM     85  C   UNL A   1      37.837  21.490   0.347  0.00  0.00    +0.000 A 
ATOM     86  O   UNL A   1      37.046  22.162  -0.303  0.00  0.00    +0.000 OA
ATOM     87  C   UNL A   1      39.225  21.269  -0.158  0.00  0.00    +0.000 A 
BRANCH  84  88
ATOM     88  C   UNL A   1      36.183  21.014   2.009  0.00  0.00    +0.000 C 
ATOM     89  F   UNL A   1      35.845  19.904   2.720  0.00  0.00    +0.000 F 
ATOM     90  F   UNL A   1      36.007  22.070   2.845  0.00  0.00    +0.000 F 
ENDBRANCH  84  88
ENDBRANCH  80  81
ENDBRANCH  77  80
ENDBRANCH  75  78
ENDBRANCH  74  75
ENDBRANCH  73  74
ENDBRANCH  72  73
ENDBRANCH  71  72
ENDBRANCH  70  71
ENDBRANCH  66  70
ENDBRANCH  60  67
ENDBRANCH   1  63
TORSDOF 15
ENDMDL
MODEL 7
REMARK VINA RESULT:      -9.7     42.978     46.384
REMARK  Name = 
REMARK  15 active torsions:
REMARK  status: ('A' for Active; 'I' for Inactive)
REMARK    1  A    between atoms: C_2  and  C_3
REMARK    2  A    between atoms: C_3  and  C_4
REMARK    3  A    between atoms: N_7  and  C_8
REMARK    4  A    between atoms: N_14  and  C_15
REMARK    5  A    between atoms: C_15  and  C_16
REMARK    6  A    between atoms: C_16  and  C_17
REMARK    7  A    between atoms: C_17  and  C_18
REMARK    8  A    between atoms: C_18  and  C_19
REMARK    9  A    between atoms: C_19  and  C_20
REMARK   10  A    between atoms: C_20  and  N_21
REMARK   11  A    between atoms: C_22  and  C_24
REMARK   12  A    between atoms: C_27  and  C_28
REMARK   13  A    between atoms: C_32  and  C_33
REMARK   14  A    between atoms: C_49  and  C_50
REMARK   15  A    between atoms: C_64  and  C_65
REMARK                            x       y       z     vdW  Elec       q    Type
REMARK                         _______ _______ _______ _____ _____    ______ ____
ROOT
ATOM      1  C   UNL A   1      25.704  35.974  45.502  0.00  0.00    +0.000 C 
ATOM      2  C   UNL A   1      25.510  37.126  46.432  0.00  0.00    +0.000 C 
ATOM      3  N   UNL A   1      26.366  38.050  46.778  0.00  0.00    +0.000 NA
ATOM      4  C   UNL A   1      25.690  38.872  47.661  0.00  0.00    +0.000 C 
ATOM      5  C   UNL A   1      26.160  39.950  48.325  0.00  0.00    +0.000 C 
ATOM      6  C   UNL A   1      27.499  40.455  48.207  0.00  0.00    +0.000 A 
ATOM      7  C   UNL A   1      28.067  41.524  48.879  0.00  0.00    +0.000 A 
ATOM      8  C   UNL A   1      29.369  41.698  48.402  0.00  0.00    +0.000 A 
ATOM      9  C   UNL A   1      29.632  40.709  47.470  0.00  0.00    +0.000 A 
ATOM     10  N   UNL A   1      28.475  39.943  47.357  0.00  0.00    +0.000 N 
ATOM     11  C   UNL A   1      30.844  40.498  46.729  0.00  0.00    +0.000 C 
ATOM     12  C   UNL A   1      31.029  39.488  45.849  0.00  0.00    +0.000 C 
ATOM     13  N   UNL A   1      30.137  38.490  45.499  0.00  0.00    +0.000 NA
ATOM     14  C   UNL A   1      30.760  37.756  44.610  0.00  0.00    +0.000 C 
ATOM     15  C   UNL A   1      30.278  36.535  43.904  0.00  0.00    +0.000 C 
ATOM     16  C   UNL A   1      29.030  36.088  44.131  0.00  0.00    +0.000 A 
ATOM     17  C   UNL A   1      28.457  34.893  43.519  0.00  0.00    +0.000 A 
ATOM     18  C   UNL A   1      27.194  34.745  43.946  0.00  0.00    +0.000 A 
ATOM     19  C   UNL A   1      26.882  35.828  44.874  0.00  0.00    +0.000 A 
ATOM     20  N   UNL A   1      28.029  36.585  44.929  0.00  0.00    +0.000 N 
ATOM     21  C   UNL A   1      32.120  38.210  44.294  0.00  0.00    +0.000 C 
ATOM     22  C   UNL A   1      32.239  39.266  45.088  0.00  0.00    +0.000 C 
ATOM     23  C   UNL A   1      24.343  38.357  47.778  0.00  0.00    +0.000 C 
ATOM     24  C   UNL A   1      24.187  37.259  47.054  0.00  0.00    +0.000 C 
ATOM     25  H   UNL A   1      28.357  39.136  46.739  0.00  0.00    +0.000 HD
ATOM     26  H   UNL A   1      28.132  37.417  45.517  0.00  0.00    +0.000 HD
ENDROOT
BRANCH   5  27
ATOM     27  C   UNL A   1      25.211  40.650  49.245  0.00  0.00    +0.000 A 
ATOM     28  C   UNL A   1      25.093  40.263  50.587  0.00  0.00    +0.000 A 
ATOM     29  F   UNL A   1      25.817  39.238  51.059  0.00  0.00    +0.000 F 
ATOM     30  C   UNL A   1      24.212  40.917  51.442  0.00  0.00    +0.000 A 
ATOM     31  F   UNL A   1      24.090  40.514  52.715  0.00  0.00    +0.000 F 
ATOM     32  C   UNL A   1      23.446  41.977  50.977  0.00  0.00    +0.000 A 
ATOM     33  F   UNL A   1      22.586  42.594  51.799  0.00  0.00    +0.000 F 
ATOM     34  C   UNL A   1      23.556  42.380  49.654  0.00  0.00    +0.000 A 
ATOM     35  F   UNL A   1      22.809  43.397  49.201  0.00  0.00    +0.000 F 
ATOM     36  C   UNL A   1      24.428  41.720  48.791  0.00  0.00    +0.000 A 
ATOM     37  F   UNL A   1      24.493  42.107  47.509  0.00  0.00    +0.000 F 
ENDBRANCH   5  27
BRANCH  11  38
ATOM     38  C   UNL A   1      31.990  41.440  46.931  0.00  0.00    +0.000 A 
ATOM     39  C   UNL A   1      31.941  42.754  46.444  0.00  0.00    +0.000 A 
ATOM     40  F   UNL A   1      30.852  43.188  45.791  0.00  0.00    +0.000 F 
ATOM     41  C   UNL A   1      33.019  43.621  46.611  0.00  0.00    +0.000 A 
ATOM     42  F   UNL A   1      32.962  44.861  46.110  0.00  0.00    +0.000 F 
ATOM     43  C   UNL A   1      34.159  43.197  47.281  0.00  0.00    +0.000 A 
ATOM     44  F   UNL A   1      35.200  44.030  47.428  0.00  0.00    +0.000 F 
ATOM     45  C   UNL A   1      34.219  41.906  47.785  0.00  0.00    +0.000 A 
ATOM     46  F   UNL A   1      35.320  41.493  48.430  0.00  0.00    +0.000 F 
ATOM     47  C   UNL A   1      33.147  41.035  47.612  0.00  0.00    +0.000 A 
ATOM     48  F   UNL A   1      33.239  39.785  48.093  0.00  0.00    +0.000 F 
ENDBRANCH  11  38
BRANCH  15  49
ATOM     49  C   UNL A   1      31.149  35.796  42.963  0.00  0.00    +0.000 A 
ATOM     50  C   UNL A   1      31.260  36.188  41.624  0.00  0.00    +0.000 A 
ATOM     51  F   UNL A   1      30.649  37.302  41.198  0.00  0.00    +0.000 F 
ATOM     52  C   UNL A   1      31.998  35.428  40.718  0.00  0.00    +0.000 A 
ATOM     53  F   UNL A   1      32.078  35.809  39.436  0.00  0.00    +0.000 F 
ATOM     54  C   UNL A   1      32.639  34.273  41.141  0.00  0.00    +0.000 A 
ATOM     55  F   UNL A   1      33.339  33.536  40.266  0.00  0.00    +0.000 F 
ATOM     56  C   UNL A   1      32.558  33.883  42.471  0.00  0.00    +0.000 A 
ATOM     57  F   UNL A   1      33.188  32.776  42.888  0.00  0.00    +0.000 F 
ATOM     58  C   UNL A   1      31.820  34.641  43.377  0.00  0.00    +0.000 A 
ATOM     59  F   UNL A   1      31.741  34.251  44.658  0.00  0.00    +0.000 F 
ENDBRANCH  15  49
BRANCH   1  63
ATOM     60  C   UNL A   1      22.685  33.048  44.716  0.00  0.00    +0.000 A 
ATOM     61  C   UNL A   1      22.773  34.194  43.914  0.00  0.00    +0.000 A 
ATOM     62  C   UNL A   1      23.734  35.169  44.194  0.00  0.00    +0.000 A 
ATOM     63  C   UNL A   1      24.608  35.006  45.278  0.00  0.00    +0.000 A 
ATOM     64  C   UNL A   1      24.472  33.892  46.117  0.00  0.00    +0.000 A 
ATOM     65  C   UNL A   1      23.513  32.915  45.836  0.00  0.00    +0.000 A 
BRANCH  60  67
ATOM     66  N   UNL A   1      20.433  32.280  44.217  0.00  0.00    +0.000 N 
ATOM     67  C   UNL A   1      21.761  31.926  44.410  0.00  0.00    +0.000 C 
ATOM     68  O   UNL A   1      22.230  30.799  44.286  0.00  0.00    +0.000 OA
ATOM     69  H   UNL A   1      20.154  33.254  44.286  0.00  0.00    +0.000 HD
BRANCH  66  70
ATOM     70  C   UNL A   1      19.410  31.324  43.807  0.00  0.00    +0.000 C 
BRANCH  70  71
ATOM     71  C   UNL A   1      18.409  31.952  42.844  0.00  0.00    +0.000 C 
BRANCH  71  72
ATOM     72  C   UNL A   1      17.012  31.359  43.041  0.00  0.00    +0.000 C 
BRANCH  72  73
ATOM     73  C   UNL A   1      16.172  32.210  43.996  0.00  0.00    +0.000 C 
BRANCH  73  74
ATOM     74  C   UNL A   1      16.020  33.649  43.495  0.00  0.00    +0.000 C 
BRANCH  74  75
ATOM     75  C   UNL A   1      16.181  34.644  44.644  0.00  0.00    +0.000 C 
BRANCH  75  78
ATOM     76  O   UNL A   1      18.452  33.817  46.142  0.00  0.00    +0.000 OA
ATOM     77  C   UNL A   1      18.534  34.798  45.407  0.00  0.00    +0.000 C 
ATOM     78  N   UNL A   1      17.486  35.276  44.654  0.00  0.00    +0.000 N 
ATOM     79  H   UNL A   1      17.654  36.037  44.011  0.00  0.00    +0.000 HD
BRANCH  77  80
ATOM     80  C   UNL A   1      19.831  35.593  45.242  0.00  0.00    +0.000 C 
BRANCH  80  81
ATOM     81  C   UNL A   1      20.244  36.351  46.480  0.00  0.00    +0.000 A 
ATOM     82  C   UNL A   1      20.869  35.613  47.559  0.00  0.00    +0.000 A 
ATOM     83  C   UNL A   1      21.145  36.220  48.722  0.00  0.00    +0.000 A 
ATOM     84  N   UNL A   1      20.876  37.560  48.916  0.00  0.00    +0.000 N 
ATOM     85  C   UNL A   1      20.300  38.351  47.939  0.00  0.00    +0.000 A 
ATOM     86  O   UNL A   1      20.071  39.547  48.067  0.00  0.00    +0.000 OA
ATOM     87  C   UNL A   1      19.971  37.657  46.657  0.00  0.00    +0.000 A 
BRANCH  84  88
ATOM     88  C   UNL A   1      21.089  38.185  50.191  0.00  0.00    +0.000 C 
ATOM     89  F   UNL A   1      20.608  37.383  51.180  0.00  0.00    +0.000 F 
ATOM     90  F   UNL A   1      22.412  38.357  50.451  0.00  0.00    +0.000 F 
ENDBRANCH  84  88
ENDBRANCH  80  81
ENDBRANCH  77  80
ENDBRANCH  75  78
ENDBRANCH  74  75
ENDBRANCH  73  74
ENDBRANCH  72  73
ENDBRANCH  71  72
ENDBRANCH  70  71
ENDBRANCH  66  70
ENDBRANCH  60  67
ENDBRANCH   1  63
TORSDOF 15
ENDMDL
MODEL 8
REMARK VINA RESULT:      -9.6     42.720     47.531
REMARK  Name = 
REMARK  15 active torsions:
REMARK  status: ('A' for Active; 'I' for Inactive)
REMARK    1  A    between atoms: C_2  and  C_3
REMARK    2  A    between atoms: C_3  and  C_4
REMARK    3  A    between atoms: N_7  and  C_8
REMARK    4  A    between atoms: N_14  and  C_15
REMARK    5  A    between atoms: C_15  and  C_16
REMARK    6  A    between atoms: C_16  and  C_17
REMARK    7  A    between atoms: C_17  and  C_18
REMARK    8  A    between atoms: C_18  and  C_19
REMARK    9  A    between atoms: C_19  and  C_20
REMARK   10  A    between atoms: C_20  and  N_21
REMARK   11  A    between atoms: C_22  and  C_24
REMARK   12  A    between atoms: C_27  and  C_28
REMARK   13  A    between atoms: C_32  and  C_33
REMARK   14  A    between atoms: C_49  and  C_50
REMARK   15  A    between atoms: C_64  and  C_65
REMARK                            x       y       z     vdW  Elec       q    Type
REMARK                         _______ _______ _______ _____ _____    ______ ____
ROOT
ATOM      1  C   UNL A   1      25.981  35.195  45.851  0.00  0.00    +0.000 C 
ATOM      2  C   UNL A   1      26.160  36.229  46.915  0.00  0.00    +0.000 C 
ATOM      3  N   UNL A   1      25.263  36.746  47.711  0.00  0.00    +0.000 NA
ATOM      4  C   UNL A   1      25.945  37.655  48.500  0.00  0.00    +0.000 C 
ATOM      5  C   UNL A   1      25.447  38.472  49.453  0.00  0.00    +0.000 C 
ATOM      6  C   UNL A   1      24.064  38.524  49.835  0.00  0.00    +0.000 A 
ATOM      7  C   UNL A   1      23.472  39.356  50.769  0.00  0.00    +0.000 A 
ATOM      8  C   UNL A   1      22.120  39.012  50.865  0.00  0.00    +0.000 A 
ATOM      9  C   UNL A   1      21.858  38.001  49.957  0.00  0.00    +0.000 A 
ATOM     10  N   UNL A   1      23.061  37.706  49.322  0.00  0.00    +0.000 N 
ATOM     11  C   UNL A   1      20.604  37.346  49.707  0.00  0.00    +0.000 C 
ATOM     12  C   UNL A   1      20.426  36.377  48.780  0.00  0.00    +0.000 C 
ATOM     13  N   UNL A   1      21.365  35.844  47.915  0.00  0.00    +0.000 NA
ATOM     14  C   UNL A   1      20.727  34.935  47.220  0.00  0.00    +0.000 C 
ATOM     15  C   UNL A   1      21.245  34.059  46.131  0.00  0.00    +0.000 C 
ATOM     16  C   UNL A   1      22.543  34.129  45.785  0.00  0.00    +0.000 A 
ATOM     17  C   UNL A   1      23.158  33.342  44.721  0.00  0.00    +0.000 A 
ATOM     18  C   UNL A   1      24.463  33.643  44.652  0.00  0.00    +0.000 A 
ATOM     19  C   UNL A   1      24.767  34.656  45.659  0.00  0.00    +0.000 A 
ATOM     20  N   UNL A   1      23.568  34.891  46.292  0.00  0.00    +0.000 N 
ATOM     21  C   UNL A   1      19.309  34.786  47.570  0.00  0.00    +0.000 C 
ATOM     22  C   UNL A   1      19.174  35.701  48.522  0.00  0.00    +0.000 C 
ATOM     23  C   UNL A   1      27.336  37.601  48.108  0.00  0.00    +0.000 C 
ATOM     24  C   UNL A   1      27.520  36.748  47.110  0.00  0.00    +0.000 C 
ATOM     25  H   UNL A   1      23.190  36.995  48.598  0.00  0.00    +0.000 HD
ATOM     26  H   UNL A   1      23.448  35.575  47.044  0.00  0.00    +0.000 HD
ENDROOT
BRANCH   5  27
ATOM     27  C   UNL A   1      26.414  39.381  50.142  0.00  0.00    +0.000 A 
ATOM     28  C   UNL A   1      26.752  40.625  49.590  0.00  0.00    +0.000 A 
ATOM     29  F   UNL A   1      26.226  41.006  48.417  0.00  0.00    +0.000 F 
ATOM     30  C   UNL A   1      27.649  41.471  50.234  0.00  0.00    +0.000 A 
ATOM     31  F   UNL A   1      27.983  42.643  49.676  0.00  0.00    +0.000 F 
ATOM     32  C   UNL A   1      28.212  41.097  51.446  0.00  0.00    +0.000 A 
ATOM     33  F   UNL A   1      29.088  41.907  52.056  0.00  0.00    +0.000 F 
ATOM     34  C   UNL A   1      27.883  39.874  52.013  0.00  0.00    +0.000 A 
ATOM     35  F   UNL A   1      28.434  39.509  53.179  0.00  0.00    +0.000 F 
ATOM     36  C   UNL A   1      26.995  39.019  51.365  0.00  0.00    +0.000 A 
ATOM     37  F   UNL A   1      26.717  37.829  51.917  0.00  0.00    +0.000 F 
ENDBRANCH   5  27
BRANCH  11  38
ATOM     38  C   UNL A   1      19.405  37.747  50.509  0.00  0.00    +0.000 A 
ATOM     39  C   UNL A   1      18.462  38.648  49.997  0.00  0.00    +0.000 A 
ATOM     40  F   UNL A   1      18.620  39.162  48.768  0.00  0.00    +0.000 F 
ATOM     41  C   UNL A   1      17.360  39.039  50.756  0.00  0.00    +0.000 A 
ATOM     42  F   UNL A   1      16.488  39.926  50.259  0.00  0.00    +0.000 F 
ATOM     43  C   UNL A   1      17.172  38.525  52.032  0.00  0.00    +0.000 A 
ATOM     44  F   UNL A   1      16.117  38.914  52.764  0.00  0.00    +0.000 F 
ATOM     45  C   UNL A   1      18.086  37.618  52.548  0.00  0.00    +0.000 A 
ATOM     46  F   UNL A   1      17.908  37.122  53.781  0.00  0.00    +0.000 F 
ATOM     47  C   UNL A   1      19.192  37.232  51.796  0.00  0.00    +0.000 A 
ATOM     48  F   UNL A   1      20.072  36.368  52.326  0.00  0.00    +0.000 F 
ENDBRANCH  11  38
BRANCH  15  49
ATOM     49  C   UNL A   1      20.358  33.118  45.412  0.00  0.00    +0.000 A 
ATOM     50  C   UNL A   1      20.365  31.751  45.709  0.00  0.00    +0.000 A 
ATOM     51  F   UNL A   1      21.111  31.287  46.722  0.00  0.00    +0.000 F 
ATOM     52  C   UNL A   1      19.605  30.854  44.960  0.00  0.00    +0.000 A 
ATOM     53  F   UNL A   1      19.637  29.546  45.248  0.00  0.00    +0.000 F 
ATOM     54  C   UNL A   1      18.824  31.315  43.910  0.00  0.00    +0.000 A 
ATOM     55  F   UNL A   1      18.102  30.451  43.181  0.00  0.00    +0.000 F 
ATOM     56  C   UNL A   1      18.789  32.671  43.616  0.00  0.00    +0.000 A 
ATOM     57  F   UNL A   1      18.024  33.123  42.612  0.00  0.00    +0.000 F 
ATOM     58  C   UNL A   1      19.548  33.568  44.364  0.00  0.00    +0.000 A 
ATOM     59  F   UNL A   1      19.513  34.875  44.068  0.00  0.00    +0.000 F 
ENDBRANCH  15  49
BRANCH   1  63
ATOM     60  C   UNL A   1      29.436  34.150  43.558  0.00  0.00    +0.000 A 
ATOM     61  C   UNL A   1      28.499  35.052  43.038  0.00  0.00    +0.000 A 
ATOM     62  C   UNL A   1      27.350  35.364  43.769  0.00  0.00    +0.000 A 
ATOM     63  C   UNL A   1      27.131  34.774  45.022  0.00  0.00    +0.000 A 
ATOM     64  C   UNL A   1      28.036  33.822  45.507  0.00  0.00    +0.000 A 
ATOM     65  C   UNL A   1      29.187  33.511  44.778  0.00  0.00    +0.000 A 
BRANCH  60  67
ATOM     66  N   UNL A   1      30.800  34.227  41.547  0.00  0.00    +0.000 N 
ATOM     67  C   UNL A   1      30.727  33.857  42.883  0.00  0.00    +0.000 C 
ATOM     68  O   UNL A   1      31.641  33.382  43.549  0.00  0.00    +0.000 OA
ATOM     69  H   UNL A   1      30.002  34.669  41.100  0.00  0.00    +0.000 HD
BRANCH  66  70
ATOM     70  C   UNL A   1      32.022  34.110  40.760  0.00  0.00    +0.000 C 
BRANCH  70  71
ATOM     71  C   UNL A   1      32.391  35.432  40.096  0.00  0.00    +0.000 C 
BRANCH  71  72
ATOM     72  C   UNL A   1      31.556  36.583  40.662  0.00  0.00    +0.000 C 
BRANCH  72  73
ATOM     73  C   UNL A   1      32.040  37.936  40.138  0.00  0.00    +0.000 C 
BRANCH  73  74
ATOM     74  C   UNL A   1      31.939  39.031  41.205  0.00  0.00    +0.000 C 
BRANCH  74  75
ATOM     75  C   UNL A   1      31.587  38.432  42.566  0.00  0.00    +0.000 C 
BRANCH  75  78
ATOM     76  O   UNL A   1      30.170  37.543  44.864  0.00  0.00    +0.000 OA
ATOM     77  C   UNL A   1      29.826  38.580  44.303  0.00  0.00    +0.000 C 
ATOM     78  N   UNL A   1      30.445  39.080  43.180  0.00  0.00    +0.000 N 
ATOM     79  H   UNL A   1      30.157  39.981  42.824  0.00  0.00    +0.000 HD
BRANCH  77  80
ATOM     80  C   UNL A   1      28.664  39.439  44.807  0.00  0.00    +0.000 C 
BRANCH  80  81
ATOM     81  C   UNL A   1      29.097  40.633  45.622  0.00  0.00    +0.000 A 
ATOM     82  C   UNL A   1      28.170  41.739  45.762  0.00  0.00    +0.000 A 
ATOM     83  C   UNL A   1      28.553  42.867  46.376  0.00  0.00    +0.000 A 
ATOM     84  N   UNL A   1      29.817  43.000  46.916  0.00  0.00    +0.000 N 
ATOM     85  C   UNL A   1      30.762  41.994  46.849  0.00  0.00    +0.000 A 
ATOM     86  O   UNL A   1      31.882  42.067  47.338  0.00  0.00    +0.000 OA
ATOM     87  C   UNL A   1      30.334  40.751  46.139  0.00  0.00    +0.000 A 
BRANCH  84  88
ATOM     88  C   UNL A   1      30.253  44.242  47.491  0.00  0.00    +0.000 C 
ATOM     89  F   UNL A   1      29.368  45.227  47.179  0.00  0.00    +0.000 F 
ATOM     90  F   UNL A   1      30.290  44.180  48.848  0.00  0.00    +0.000 F 
ENDBRANCH  84  88
ENDBRANCH  80  81
ENDBRANCH  77  80
ENDBRANCH  75  78
ENDBRANCH  74  75
ENDBRANCH  73  74
ENDBRANCH  72  73
ENDBRANCH  71  72
ENDBRANCH  70  71
ENDBRANCH  66  70
ENDBRANCH  60  67
ENDBRANCH   1  63
TORSDOF 15
ENDMDL
MODEL 9
REMARK VINA RESULT:      -9.6     48.068     52.919
REMARK  Name = 
REMARK  15 active torsions:
REMARK  status: ('A' for Active; 'I' for Inactive)
REMARK    1  A    between atoms: C_2  and  C_3
REMARK    2  A    between atoms: C_3  and  C_4
REMARK    3  A    between atoms: N_7  and  C_8
REMARK    4  A    between atoms: N_14  and  C_15
REMARK    5  A    between atoms: C_15  and  C_16
REMARK    6  A    between atoms: C_16  and  C_17
REMARK    7  A    between atoms: C_17  and  C_18
REMARK    8  A    between atoms: C_18  and  C_19
REMARK    9  A    between atoms: C_19  and  C_20
REMARK   10  A    between atoms: C_20  and  N_21
REMARK   11  A    between atoms: C_22  and  C_24
REMARK   12  A    between atoms: C_27  and  C_28
REMARK   13  A    between atoms: C_32  and  C_33
REMARK   14  A    between atoms: C_49  and  C_50
REMARK   15  A    between atoms: C_64  and  C_65
REMARK                            x       y       z     vdW  Elec       q    Type
REMARK                         _______ _______ _______ _____ _____    ______ ____
ROOT
ATOM      1  C   UNL A   1      53.255  20.041  11.600  0.00  0.00    +0.000 C 
ATOM      2  C   UNL A   1      54.599  19.433  11.366  0.00  0.00    +0.000 C 
ATOM      3  N   UNL A   1      55.633  19.404  12.164  0.00  0.00    +0.000 NA
ATOM      4  C   UNL A   1      56.620  18.728  11.470  0.00  0.00    +0.000 C 
ATOM      5  C   UNL A   1      57.888  18.472  11.858  0.00  0.00    +0.000 C 
ATOM      6  C   UNL A   1      58.444  18.865  13.123  0.00  0.00    +0.000 A 
ATOM      7  C   UNL A   1      59.737  18.677  13.577  0.00  0.00    +0.000 A 
ATOM      8  C   UNL A   1      59.814  19.156  14.889  0.00  0.00    +0.000 A 
ATOM      9  C   UNL A   1      58.583  19.687  15.235  0.00  0.00    +0.000 A 
ATOM     10  N   UNL A   1      57.743  19.508  14.139  0.00  0.00    +0.000 N 
ATOM     11  C   UNL A   1      58.206  20.295  16.481  0.00  0.00    +0.000 C 
ATOM     12  C   UNL A   1      56.983  20.813  16.732  0.00  0.00    +0.000 C 
ATOM     13  N   UNL A   1      55.892  20.872  15.882  0.00  0.00    +0.000 NA
ATOM     14  C   UNL A   1      54.940  21.451  16.571  0.00  0.00    +0.000 C 
ATOM     15  C   UNL A   1      53.551  21.786  16.145  0.00  0.00    +0.000 C 
ATOM     16  C   UNL A   1      53.136  21.446  14.912  0.00  0.00    +0.000 A 
ATOM     17  C   UNL A   1      51.812  21.743  14.375  0.00  0.00    +0.000 A 
ATOM     18  C   UNL A   1      51.724  21.250  13.130  0.00  0.00    +0.000 A 
ATOM     19  C   UNL A   1      52.994  20.620  12.782  0.00  0.00    +0.000 A 
ATOM     20  N   UNL A   1      53.782  20.780  13.898  0.00  0.00    +0.000 N 
ATOM     21  C   UNL A   1      55.319  21.821  17.940  0.00  0.00    +0.000 C 
ATOM     22  C   UNL A   1      56.583  21.420  17.982  0.00  0.00    +0.000 C 
ATOM     23  C   UNL A   1      56.056  18.338  10.196  0.00  0.00    +0.000 C 
ATOM     24  C   UNL A   1      54.810  18.773  10.071  0.00  0.00    +0.000 C 
ATOM     25  H   UNL A   1      56.762  19.795  14.092  0.00  0.00    +0.000 HD
ATOM     26  H   UNL A   1      54.751  20.456  13.960  0.00  0.00    +0.000 HD
ENDROOT
BRANCH   5  27
ATOM     27  C   UNL A   1      58.761  17.736  10.892  0.00  0.00    +0.000 A 
ATOM     28  C   UNL A   1      58.813  16.336  10.893  0.00  0.00    +0.000 A 
ATOM     29  F   UNL A   1      58.095  15.634  11.781  0.00  0.00    +0.000 F 
ATOM     30  C   UNL A   1      59.623  15.653   9.991  0.00  0.00    +0.000 A 
ATOM     31  F   UNL A   1      59.684  14.313  10.026  0.00  0.00    +0.000 F 
ATOM     32  C   UNL A   1      60.382  16.355   9.065  0.00  0.00    +0.000 A 
ATOM     33  F   UNL A   1      61.174  15.695   8.209  0.00  0.00    +0.000 F 
ATOM     34  C   UNL A   1      60.336  17.741   9.044  0.00  0.00    +0.000 A 
ATOM     35  F   UNL A   1      61.077  18.420   8.156  0.00  0.00    +0.000 F 
ATOM     36  C   UNL A   1      59.536  18.429   9.953  0.00  0.00    +0.000 A 
ATOM     37  F   UNL A   1      59.533  19.770   9.933  0.00  0.00    +0.000 F 
ENDBRANCH   5  27
BRANCH  11  38
ATOM     38  C   UNL A   1      59.216  20.373  17.584  0.00  0.00    +0.000 A 
ATOM     39  C   UNL A   1      59.447  19.280  18.431  0.00  0.00    +0.000 A 
ATOM     40  F   UNL A   1      58.765  18.138  18.256  0.00  0.00    +0.000 F 
ATOM     41  C   UNL A   1      60.369  19.365  19.472  0.00  0.00    +0.000 A 
ATOM     42  F   UNL A   1      60.552  18.319  20.289  0.00  0.00    +0.000 F 
ATOM     43  C   UNL A   1      61.088  20.536  19.677  0.00  0.00    +0.000 A 
ATOM     44  F   UNL A   1      61.965  20.617  20.688  0.00  0.00    +0.000 F 
ATOM     45  C   UNL A   1      60.884  21.622  18.837  0.00  0.00    +0.000 A 
ATOM     46  F   UNL A   1      61.575  22.754  19.034  0.00  0.00    +0.000 F 
ATOM     47  C   UNL A   1      59.958  21.543  17.801  0.00  0.00    +0.000 A 
ATOM     48  F   UNL A   1      59.766  22.614  17.016  0.00  0.00    +0.000 F 
ENDBRANCH  11  38
BRANCH  15  49
ATOM     49  C   UNL A   1      52.620  22.497  17.048  0.00  0.00    +0.000 A 
ATOM     50  C   UNL A   1      51.848  21.798  17.984  0.00  0.00    +0.000 A 
ATOM     51  F   UNL A   1      52.015  20.477  18.139  0.00  0.00    +0.000 F 
ATOM     52  C   UNL A   1      50.896  22.458  18.760  0.00  0.00    +0.000 A 
ATOM     53  F   UNL A   1      50.155  21.769  19.638  0.00  0.00    +0.000 F 
ATOM     54  C   UNL A   1      50.711  23.825  18.614  0.00  0.00    +0.000 A 
ATOM     55  F   UNL A   1      49.787  24.458  19.353  0.00  0.00    +0.000 F 
ATOM     56  C   UNL A   1      51.484  24.537  17.708  0.00  0.00    +0.000 A 
ATOM     57  F   UNL A   1      51.318  25.861  17.575  0.00  0.00    +0.000 F 
ATOM     58  C   UNL A   1      52.434  23.878  16.931  0.00  0.00    +0.000 A 
ATOM     59  F   UNL A   1      53.170  24.574  16.053  0.00  0.00    +0.000 F 
ENDBRANCH  15  49
BRANCH   1  63
ATOM     60  C   UNL A   1      50.125  20.024   8.686  0.00  0.00    +0.000 A 
ATOM     61  C   UNL A   1      50.361  18.883   9.464  0.00  0.00    +0.000 A 
ATOM     62  C   UNL A   1      51.409  18.873  10.389  0.00  0.00    +0.000 A 
ATOM     63  C   UNL A   1      52.227  20.003  10.538  0.00  0.00    +0.000 A 
ATOM     64  C   UNL A   1      52.028  21.115   9.710  0.00  0.00    +0.000 A 
ATOM     65  C   UNL A   1      50.980  21.127   8.788  0.00  0.00    +0.000 A 
BRANCH  60  67
ATOM     66  N   UNL A   1      49.252  19.967   6.417  0.00  0.00    +0.000 N 
ATOM     67  C   UNL A   1      48.965  20.138   7.764  0.00  0.00    +0.000 C 
ATOM     68  O   UNL A   1      47.849  20.307   8.246  0.00  0.00    +0.000 OA
ATOM     69  H   UNL A   1      50.205  19.774   6.124  0.00  0.00    +0.000 HD
BRANCH  66  70
ATOM     70  C   UNL A   1      48.222  19.942   5.385  0.00  0.00    +0.000 C 
BRANCH  70  71
ATOM     71  C   UNL A   1      47.729  18.525   5.118  0.00  0.00    +0.000 C 
BRANCH  71  72
ATOM     72  C   UNL A   1      46.926  18.459   3.817  0.00  0.00    +0.000 C 
BRANCH  72  73
ATOM     73  C   UNL A   1      46.829  17.026   3.290  0.00  0.00    +0.000 C 
BRANCH  73  74
ATOM     74  C   UNL A   1      46.550  16.022   4.413  0.00  0.00    +0.000 C 
BRANCH  74  75
ATOM     75  C   UNL A   1      47.475  14.811   4.301  0.00  0.00    +0.000 C 
BRANCH  75  78
ATOM     76  O   UNL A   1      50.161  14.858   3.371  0.00  0.00    +0.000 OA
ATOM     77  C   UNL A   1      49.934  14.966   4.573  0.00  0.00    +0.000 C 
ATOM     78  N   UNL A   1      48.668  14.944   5.114  0.00  0.00    +0.000 N 
ATOM     79  H   UNL A   1      48.556  15.122   6.102  0.00  0.00    +0.000 HD
BRANCH  77  80
ATOM     80  C   UNL A   1      51.047  15.151   5.605  0.00  0.00    +0.000 C 
BRANCH  80  81
ATOM     81  C   UNL A   1      51.909  16.367   5.363  0.00  0.00    +0.000 A 
ATOM     82  C   UNL A   1      53.345  16.227   5.502  0.00  0.00    +0.000 A 
ATOM     83  C   UNL A   1      54.140  17.302   5.412  0.00  0.00    +0.000 A 
ATOM     84  N   UNL A   1      53.626  18.558   5.157  0.00  0.00    +0.000 N 
ATOM     85  C   UNL A   1      52.273  18.787   4.990  0.00  0.00    +0.000 A 
ATOM     86  O   UNL A   1      51.785  19.881   4.737  0.00  0.00    +0.000 OA
ATOM     87  C   UNL A   1      51.394  17.586   5.119  0.00  0.00    +0.000 A 
BRANCH  84  88
ATOM     88  C   UNL A   1      54.470  19.720   5.152  0.00  0.00    +0.000 C 
ATOM     89  F   UNL A   1      54.505  20.266   6.398  0.00  0.00    +0.000 F 
ATOM     90  F   UNL A   1      55.755  19.406   4.838  0.00  0.00    +0.000 F 
ENDBRANCH  84  88
ENDBRANCH  80  81
ENDBRANCH  77  80
ENDBRANCH  75  78
ENDBRANCH  74  75
ENDBRANCH  73  74
ENDBRANCH  72  73
ENDBRANCH  71  72
ENDBRANCH  70  71
ENDBRANCH  66  70
ENDBRANCH  60  67
ENDBRANCH   1  63
TORSDOF 15
ENDMDL
MODEL 10
REMARK VINA RESULT:      -9.6      0.722      7.531
REMARK  Name = 
REMARK  15 active torsions:
REMARK  status: ('A' for Active; 'I' for Inactive)
REMARK    1  A    between atoms: C_2  and  C_3
REMARK    2  A    between atoms: C_3  and  C_4
REMARK    3  A    between atoms: N_7  and  C_8
REMARK    4  A    between atoms: N_14  and  C_15
REMARK    5  A    between atoms: C_15  and  C_16
REMARK    6  A    between atoms: C_16  and  C_17
REMARK    7  A    between atoms: C_17  and  C_18
REMARK    8  A    between atoms: C_18  and  C_19
REMARK    9  A    between atoms: C_19  and  C_20
REMARK   10  A    between atoms: C_20  and  N_21
REMARK   11  A    between atoms: C_22  and  C_24
REMARK   12  A    between atoms: C_27  and  C_28
REMARK   13  A    between atoms: C_32  and  C_33
REMARK   14  A    between atoms: C_49  and  C_50
REMARK   15  A    between atoms: C_64  and  C_65
REMARK                            x       y       z     vdW  Elec       q    Type
REMARK                         _______ _______ _______ _____ _____    ______ ____
ROOT
ATOM      1  C   UNL A   1      13.997  53.897   4.761  0.00  0.00    +0.000 C 
ATOM      2  C   UNL A   1      14.950  54.339   3.699  0.00  0.00    +0.000 C 
ATOM      3  N   UNL A   1      15.493  53.634   2.743  0.00  0.00    +0.000 NA
ATOM      4  C   UNL A   1      16.296  54.515   2.041  0.00  0.00    +0.000 C 
ATOM      5  C   UNL A   1      17.096  54.254   0.984  0.00  0.00    +0.000 C 
ATOM      6  C   UNL A   1      17.239  52.962   0.375  0.00  0.00    +0.000 A 
ATOM      7  C   UNL A   1      18.062  52.606  -0.679  0.00  0.00    +0.000 A 
ATOM      8  C   UNL A   1      17.826  51.262  -0.985  0.00  0.00    +0.000 A 
ATOM      9  C   UNL A   1      16.893  50.767  -0.091  0.00  0.00    +0.000 A 
ATOM     10  N   UNL A   1      16.537  51.819   0.749  0.00  0.00    +0.000 N 
ATOM     11  C   UNL A   1      16.358  49.435  -0.025  0.00  0.00    +0.000 C 
ATOM     12  C   UNL A   1      15.462  49.022   0.899  0.00  0.00    +0.000 C 
ATOM     13  N   UNL A   1      14.904  49.756   1.930  0.00  0.00    +0.000 NA
ATOM     14  C   UNL A   1      14.091  48.934   2.547  0.00  0.00    +0.000 C 
ATOM     15  C   UNL A   1      13.239  49.187   3.744  0.00  0.00    +0.000 C 
ATOM     16  C   UNL A   1      13.221  50.412   4.298  0.00  0.00    +0.000 A 
ATOM     17  C   UNL A   1      12.449  50.773   5.483  0.00  0.00    +0.000 A 
ATOM     18  C   UNL A   1      12.644  52.071   5.755  0.00  0.00    +0.000 A 
ATOM     19  C   UNL A   1      13.571  52.624   4.771  0.00  0.00    +0.000 A 
ATOM     20  N   UNL A   1      13.866  51.571   3.938  0.00  0.00    +0.000 N 
ATOM     21  C   UNL A   1      14.039  47.584   1.972  0.00  0.00    +0.000 C 
ATOM     22  C   UNL A   1      14.906  47.689   0.973  0.00  0.00    +0.000 C 
ATOM     23  C   UNL A   1      16.151  55.813   2.662  0.00  0.00    +0.000 C 
ATOM     24  C   UNL A   1      15.344  55.754   3.712  0.00  0.00    +0.000 C 
ATOM     25  H   UNL A   1      15.860  51.764   1.513  0.00  0.00    +0.000 HD
ATOM     26  H   UNL A   1      14.514  51.637   3.147  0.00  0.00    +0.000 HD
ENDROOT
BRANCH   5  27
ATOM     27  C   UNL A   1      17.882  55.398   0.428  0.00  0.00    +0.000 A 
ATOM     28  C   UNL A   1      17.436  56.097  -0.702  0.00  0.00    +0.000 A 
ATOM     29  F   UNL A   1      16.301  55.731  -1.316  0.00  0.00    +0.000 F 
ATOM     30  C   UNL A   1      18.168  57.162  -1.216  0.00  0.00    +0.000 A 
ATOM     31  F   UNL A   1      17.740  57.800  -2.316  0.00  0.00    +0.000 F 
ATOM     32  C   UNL A   1      19.348  57.557  -0.603  0.00  0.00    +0.000 A 
ATOM     33  F   UNL A   1      20.060  58.573  -1.111  0.00  0.00    +0.000 F 
ATOM     34  C   UNL A   1      19.802  56.883   0.521  0.00  0.00    +0.000 A 
ATOM     35  F   UNL A   1      20.948  57.258   1.108  0.00  0.00    +0.000 F 
ATOM     36  C   UNL A   1      19.079  55.808   1.032  0.00  0.00    +0.000 A 
ATOM     37  F   UNL A   1      19.554  55.152   2.101  0.00  0.00    +0.000 F 
ENDBRANCH   5  27
BRANCH  11  38
ATOM     38  C   UNL A   1      16.810  48.423  -1.032  0.00  0.00    +0.000 A 
ATOM     39  C   UNL A   1      16.067  48.179  -2.196  0.00  0.00    +0.000 A 
ATOM     40  F   UNL A   1      14.935  48.862  -2.427  0.00  0.00    +0.000 F 
ATOM     41  C   UNL A   1      16.476  47.218  -3.119  0.00  0.00    +0.000 A 
ATOM     42  F   UNL A   1      15.735  46.979  -4.208  0.00  0.00    +0.000 F 
ATOM     43  C   UNL A   1      17.643  46.495  -2.904  0.00  0.00    +0.000 A 
ATOM     44  F   UNL A   1      18.027  45.562  -3.788  0.00  0.00    +0.000 F 
ATOM     45  C   UNL A   1      18.400  46.735  -1.766  0.00  0.00    +0.000 A 
ATOM     46  F   UNL A   1      19.525  46.037  -1.555  0.00  0.00    +0.000 F 
ATOM     47  C   UNL A   1      17.989  47.688  -0.839  0.00  0.00    +0.000 A 
ATOM     48  F   UNL A   1      18.729  47.887   0.263  0.00  0.00    +0.000 F 
ENDBRANCH  11  38
BRANCH  15  49
ATOM     49  C   UNL A   1      12.416  48.114   4.344  0.00  0.00    +0.000 A 
ATOM     50  C   UNL A   1      11.086  47.920   3.953  0.00  0.00    +0.000 A 
ATOM     51  F   UNL A   1      10.567  48.649   2.956  0.00  0.00    +0.000 F 
ATOM     52  C   UNL A   1      10.284  46.977   4.595  0.00  0.00    +0.000 A 
ATOM     53  F   UNL A   1       9.008  46.818   4.218  0.00  0.00    +0.000 F 
ATOM     54  C   UNL A   1      10.805  46.212   5.628  0.00  0.00    +0.000 A 
ATOM     55  F   UNL A   1      10.030  45.313   6.252  0.00  0.00    +0.000 F 
ATOM     56  C   UNL A   1      12.129  46.375   6.013  0.00  0.00    +0.000 A 
ATOM     57  F   UNL A   1      12.640  45.628   7.000  0.00  0.00    +0.000 F 
ATOM     58  C   UNL A   1      12.930  47.318   5.373  0.00  0.00    +0.000 A 
ATOM     59  F   UNL A   1      14.205  47.473   5.757  0.00  0.00    +0.000 F 
ENDBRANCH  15  49
BRANCH   1  63
ATOM     60  C   UNL A   1      12.522  56.486   7.829  0.00  0.00    +0.000 A 
ATOM     61  C   UNL A   1      11.844  56.395   6.606  0.00  0.00    +0.000 A 
ATOM     62  C   UNL A   1      12.347  55.580   5.589  0.00  0.00    +0.000 A 
ATOM     63  C   UNL A   1      13.531  54.854   5.787  0.00  0.00    +0.000 A 
ATOM     64  C   UNL A   1      14.240  55.001   6.986  0.00  0.00    +0.000 A 
ATOM     65  C   UNL A   1      13.737  55.814   8.005  0.00  0.00    +0.000 A 
BRANCH  60  67
ATOM     66  N   UNL A   1      11.230  56.513   9.888  0.00  0.00    +0.000 N 
ATOM     67  C   UNL A   1      11.987  57.248   8.987  0.00  0.00    +0.000 C 
ATOM     68  O   UNL A   1      12.295  58.430   9.101  0.00  0.00    +0.000 OA
ATOM     69  H   UNL A   1      11.080  55.521   9.732  0.00  0.00    +0.000 HD
BRANCH  66  70
ATOM     70  C   UNL A   1      10.716  57.075  11.132  0.00  0.00    +0.000 C 
BRANCH  70  71
ATOM     71  C   UNL A   1      10.521  56.000  12.196  0.00  0.00    +0.000 C 
BRANCH  71  72
ATOM     72  C   UNL A   1      11.043  54.646  11.710  0.00  0.00    +0.000 C 
BRANCH  72  73
ATOM     73  C   UNL A   1      11.743  53.879  12.833  0.00  0.00    +0.000 C 
BRANCH  73  74
ATOM     74  C   UNL A   1      13.017  54.588  13.300  0.00  0.00    +0.000 C 
BRANCH  74  75
ATOM     75  C   UNL A   1      14.221  53.650  13.221  0.00  0.00    +0.000 C 
BRANCH  75  78
ATOM     76  O   UNL A   1      15.402  51.069  13.375  0.00  0.00    +0.000 OA
ATOM     77  C   UNL A   1      14.619  51.324  12.465  0.00  0.00    +0.000 C 
ATOM     78  N   UNL A   1      14.008  52.547  12.305  0.00  0.00    +0.000 N 
ATOM     79  H   UNL A   1      13.313  52.655  11.580  0.00  0.00    +0.000 HD
BRANCH  77  80
ATOM     80  C   UNL A   1      14.227  50.291  11.406  0.00  0.00    +0.000 C 
BRANCH  80  81
ATOM     81  C   UNL A   1      14.920  50.483  10.079  0.00  0.00    +0.000 A 
ATOM     82  C   UNL A   1      14.261  49.992   8.885  0.00  0.00    +0.000 A 
ATOM     83  C   UNL A   1      14.889  50.034   7.702  0.00  0.00    +0.000 A 
ATOM     84  N   UNL A   1      16.155  50.570   7.577  0.00  0.00    +0.000 N 
ATOM     85  C   UNL A   1      16.855  51.081   8.655  0.00  0.00    +0.000 A 
ATOM     86  O   UNL A   1      17.967  51.587   8.577  0.00  0.00    +0.000 OA
ATOM     87  C   UNL A   1      16.157  51.004   9.973  0.00  0.00    +0.000 A 
BRANCH  84  88
ATOM     88  C   UNL A   1      16.860  50.531   6.326  0.00  0.00    +0.000 C 
ATOM     89  F   UNL A   1      16.449  49.454   5.603  0.00  0.00    +0.000 F 
ATOM     90  F   UNL A   1      16.593  51.625   5.566  0.00  0.00    +0.000 F 
ENDBRANCH  84  88
ENDBRANCH  80  81
ENDBRANCH  77  80
ENDBRANCH  75  78
ENDBRANCH  74  75
ENDBRANCH  73  74
ENDBRANCH  72  73
ENDBRANCH  71  72
ENDBRANCH  70  71
ENDBRANCH  66  70
ENDBRANCH  60  67
ENDBRANCH   1  63
TORSDOF 15
ENDMDL
