MODEL 1
REMARK VINA RESULT:     -12.4      0.000      0.000
ROOT
ATOM     21  C17 UNL A   1      40.822  28.146  28.538  1.00  0.00    +0.000 C 
ATOM     22  C18 UNL A   1      41.915  29.024  28.038  1.00  0.00    +0.000 C 
ATOM     23  N3  UNL A   1      42.872  29.562  28.721  1.00  0.00    +0.000 N 
ATOM     24  C19 UNL A   1      43.630  30.293  27.809  1.00  0.00    +0.000 C 
ATOM     25  C20 UNL A   1      44.439  31.309  28.216  1.00  0.00    +0.000 C 
ATOM     37  C27 UNL A   1      44.750  31.199  29.618  1.00  0.00    +0.000 C 
ATOM     38  C28 UNL A   1      45.450  30.297  30.393  1.00  0.00    +0.000 C 
ATOM     39  C29 UNL A   1      44.742  30.243  31.630  1.00  0.00    +0.000 C 
ATOM     40  C30 UNL A   1      43.688  31.153  31.559  1.00  0.00    +0.000 C 
ATOM     41  N4  UNL A   1      44.015  31.953  30.496  1.00  0.00    +0.000 N 
ATOM     42  C31 UNL A   1      42.449  31.269  32.288  1.00  0.00    +0.000 C 
ATOM     54  C38 UNL A   1      41.350  31.952  31.852  1.00  0.00    +0.000 C 
ATOM     55  N5  UNL A   1      40.091  31.665  32.356  1.00  0.00    +0.000 N 
ATOM     56  C39 UNL A   1      39.270  32.003  31.401  1.00  0.00    +0.000 C 
ATOM     57  C40 UNL A   1      38.057  31.222  31.054  1.00  0.00    +0.000 C 
ATOM     69  C47 UNL A   1      38.487  30.040  30.541  1.00  0.00    +0.000 C 
ATOM     70  C48 UNL A   1      37.798  28.776  30.386  1.00  0.00    +0.000 C 
ATOM     71  C49 UNL A   1      38.630  27.903  29.781  1.00  0.00    +0.000 C 
ATOM     72  C50 UNL A   1      39.851  28.593  29.364  1.00  0.00    +0.000 C 
ATOM     73  N6  UNL A   1      39.749  29.837  29.950  1.00  0.00    +0.000 N 
ATOM     74  C51 UNL A   1      39.811  32.897  30.390  1.00  0.00    +0.000 C 
ATOM     75  C52 UNL A   1      41.110  32.766  30.664  1.00  0.00    +0.000 C 
ATOM     76  C53 UNL A   1      43.167  29.915  26.500  1.00  0.00    +0.000 C 
ATOM     77  C54 UNL A   1      42.052  29.190  26.582  1.00  0.00    +0.000 C 
ATOM    117  H22 UNL A   1      46.302  29.775  30.135  1.00  0.00    +0.000 H 
ATOM    118  H23 UNL A   1      44.970  29.637  32.434  1.00  0.00    +0.000 H 
ATOM    119  H24 UNL A   1      43.768  32.899  30.384  1.00  0.00    +0.000 H 
ATOM    120  H25 UNL A   1      36.832  28.576  30.689  1.00  0.00    +0.000 H 
ATOM    121  H26 UNL A   1      38.434  26.900  29.633  1.00  0.00    +0.000 H 
ATOM    122  H27 UNL A   1      40.474  30.505  29.954  1.00  0.00    +0.000 H 
ATOM    123  H28 UNL A   1      39.331  33.466  29.674  1.00  0.00    +0.000 H 
ATOM    124  H29 UNL A   1      41.861  33.192  30.099  1.00  0.00    +0.000 H 
ATOM    125  H30 UNL A   1      43.637  30.170  25.617  1.00  0.00    +0.000 H 
ATOM    126  H31 UNL A   1      41.444  28.838  25.826  1.00  0.00    +0.000 H 
ENDROOT
BRANCH   21   20
ATOM     78  C55 UNL A   1      40.079  26.370  26.962  1.00  0.00    +0.000 C 
ATOM     79  C56 UNL A   1      40.127  25.041  26.561  1.00  0.00    +0.000 C 
ATOM     17  C13 UNL A   1      40.981  24.117  27.195  1.00  0.00    +0.000 C 
ATOM     18  C14 UNL A   1      41.881  24.590  28.147  1.00  0.00    +0.000 C 
ATOM     19  C15 UNL A   1      41.816  25.910  28.577  1.00  0.00    +0.000 C 
ATOM    115  H20 UNL A   1      42.599  23.958  28.535  1.00  0.00    +0.000 H 
ATOM    116  H21 UNL A   1      42.464  26.247  29.305  1.00  0.00    +0.000 H 
ATOM     20  C16 UNL A   1      40.872  26.781  28.025  1.00  0.00    +0.000 C 
ATOM    127  H32 UNL A   1      39.463  27.042  26.478  1.00  0.00    +0.000 H 
ATOM    128  H33 UNL A   1      39.526  24.725  25.785  1.00  0.00    +0.000 H 
BRANCH   17   15
ATOM     15  C12 UNL A   1      40.758  22.689  26.845  1.00  0.00    +0.000 C 
ATOM     16  O2  UNL A   1      41.741  21.964  26.670  1.00  0.00    +0.000 O 
BRANCH   15   14
ATOM    114  H19 UNL A   1      38.848  22.435  27.241  1.00  0.00    +0.000 H 
ATOM     14  N2  UNL A   1      39.539  22.116  26.616  1.00  0.00    +0.000 N 
BRANCH   14   13
ATOM    113  H18 UNL A   1      39.100  20.187  26.126  1.00  0.00    +0.000 H 
ATOM     13  C11 UNL A   1      39.025  21.150  25.667  1.00  0.00    +0.000 C 
ATOM    112  H17 UNL A   1      39.604  21.219  24.769  1.00  0.00    +0.000 H 
BRANCH   13   12
ATOM     12  C10 UNL A   1      37.553  21.365  25.310  1.00  0.00    +0.000 C 
ATOM    110  H15 UNL A   1      37.305  20.711  24.501  1.00  0.00    +0.000 H 
ATOM    111  H16 UNL A   1      36.988  21.159  26.195  1.00  0.00    +0.000 H 
BRANCH   12   11
ATOM     11  C9  UNL A   1      37.215  22.800  24.892  1.00  0.00    +0.000 C 
ATOM    108  H13 UNL A   1      38.129  23.299  24.648  1.00  0.00    +0.000 H 
ATOM    109  H14 UNL A   1      36.539  22.720  24.067  1.00  0.00    +0.000 H 
BRANCH   11   10
ATOM     10  C8  UNL A   1      36.491  23.631  25.958  1.00  0.00    +0.000 C 
ATOM    107  H12 UNL A   1      36.717  24.655  25.748  1.00  0.00    +0.000 H 
ATOM    106  H11 UNL A   1      36.837  23.314  26.920  1.00  0.00    +0.000 H 
BRANCH   10    9
ATOM      9  C7  UNL A   1      34.963  23.512  25.937  1.00  0.00    +0.000 C 
ATOM    105  H10 UNL A   1      34.697  23.001  25.036  1.00  0.00    +0.000 H 
ATOM    104  H9  UNL A   1      34.545  24.497  25.979  1.00  0.00    +0.000 H 
BRANCH    9    8
ATOM    102  H7  UNL A   1      35.171  22.567  27.837  1.00  0.00    +0.000 H 
ATOM    103  H8  UNL A   1      33.570  23.227  27.515  1.00  0.00    +0.000 H 
ATOM      8  C6  UNL A   1      34.404  22.697  27.104  1.00  0.00    +0.000 C 
BRANCH    8    7
ATOM    101  H6  UNL A   1      33.964  20.681  27.346  1.00  0.00    +0.000 H 
ATOM      7  N1  UNL A   1      33.944  21.394  26.666  1.00  0.00    +0.000 N 
BRANCH    7    5
ATOM      5  C5  UNL A   1      33.487  21.027  25.433  1.00  0.00    +0.000 C 
ATOM      6  O1  UNL A   1      34.275  20.490  24.652  1.00  0.00    +0.000 O 
BRANCH    5    4
ATOM    100  H5  UNL A   1      31.439  21.164  25.883  1.00  0.00    +0.000 H 
ATOM     99  H4  UNL A   1      31.794  20.719  24.198  1.00  0.00    +0.000 H 
ATOM      4  C4  UNL A   1      32.055  21.344  25.026  1.00  0.00    +0.000 C 
BRANCH    4    3
ATOM    129  H34 UNL A   1      33.159  21.830  22.229  1.00  0.00    +0.000 H 
ATOM      2  C2  UNL A   1      31.260  23.787  25.379  1.00  0.00    +0.000 C 
ATOM      3  C3  UNL A   1      31.844  22.778  24.626  1.00  0.00    +0.000 C 
ATOM    132  H37 UNL A   1      32.136  26.575  22.411  1.00  0.00    +0.000 H 
ATOM    130  H35 UNL A   1      33.673  23.258  20.340  1.00  0.00    +0.000 H 
ATOM    131  H36 UNL A   1      33.193  25.618  20.446  1.00  0.00    +0.000 H 
ATOM     80  C57 UNL A   1      32.254  23.359  23.395  1.00  0.00    +0.000 C 
ATOM     81  C58 UNL A   1      32.911  22.830  22.260  1.00  0.00    +0.000 C 
ATOM     82  C59 UNL A   1      33.226  23.655  21.181  1.00  0.00    +0.000 C 
ATOM     83  C60 UNL A   1      32.940  25.008  21.240  1.00  0.00    +0.000 C 
ATOM     84  C61 UNL A   1      32.311  25.558  22.361  1.00  0.00    +0.000 C 
ATOM     85  C62 UNL A   1      31.916  24.717  23.423  1.00  0.00    +0.000 C 
ATOM     86  N7  UNL A   1      31.176  24.948  24.594  1.00  0.00    +0.000 N 
BRANCH    2    1
ATOM      1  C1  UNL A   1      30.730  23.716  26.780  1.00  0.00    +0.000 C 
ATOM     98  H3  UNL A   1      30.650  22.692  27.078  1.00  0.00    +0.000 H 
ATOM     97  H2  UNL A   1      31.398  24.229  27.439  1.00  0.00    +0.000 H 
ATOM     96  H1  UNL A   1      29.765  24.176  26.819  1.00  0.00    +0.000 H 
ENDBRANCH    2    1
BRANCH   86   87
ATOM     87  C63 UNL A   1      30.450  26.124  24.951  1.00  0.00    +0.000 C 
ATOM     88  O3  UNL A   1      29.235  26.144  24.793  1.00  0.00    +0.000 O 
BRANCH   87   89
ATOM    133  H38 UNL A   1      30.656  28.589  23.831  1.00  0.00    +0.000 H 
ATOM    134  H39 UNL A   1      31.777  30.535  24.774  1.00  0.00    +0.000 H 
ATOM    135  H40 UNL A   1      32.478  28.416  28.343  1.00  0.00    +0.000 H 
ATOM    136  H41 UNL A   1      31.405  26.453  27.388  1.00  0.00    +0.000 H 
ATOM     89  C64 UNL A   1      31.026  27.357  25.513  1.00  0.00    +0.000 C 
ATOM     90  C65 UNL A   1      31.077  28.542  24.773  1.00  0.00    +0.000 C 
ATOM     91  C66 UNL A   1      31.704  29.664  25.323  1.00  0.00    +0.000 C 
ATOM     92  C67 UNL A   1      32.231  29.604  26.615  1.00  0.00    +0.000 C 
ATOM     93 Cl1  UNL A   1      33.044  30.971  27.269  1.00  0.00    +0.000 Cl
ATOM     94  C68 UNL A   1      32.115  28.441  27.377  1.00  0.00    +0.000 C 
ATOM     95  C69 UNL A   1      31.505  27.315  26.829  1.00  0.00    +0.000 C 
ENDBRANCH   87   89
ENDBRANCH   86   87
ENDBRANCH    4    3
ENDBRANCH    5    4
ENDBRANCH    7    5
ENDBRANCH    8    7
ENDBRANCH    9    8
ENDBRANCH   10    9
ENDBRANCH   11   10
ENDBRANCH   12   11
ENDBRANCH   13   12
ENDBRANCH   14   13
ENDBRANCH   15   14
ENDBRANCH   17   15
ENDBRANCH   21   20
BRANCH   25   26
ATOM     33  C25 UNL A   1      44.304  35.016  27.205  1.00  0.00    +0.000 C 
ATOM     34  F4  UNL A   1      43.567  36.099  27.488  1.00  0.00    +0.000 F 
ATOM     35  C26 UNL A   1      43.894  33.768  27.671  1.00  0.00    +0.000 C 
ATOM     36  F5  UNL A   1      42.798  33.782  28.437  1.00  0.00    +0.000 F 
ATOM     26  C21 UNL A   1      44.644  32.593  27.448  1.00  0.00    +0.000 C 
ATOM     27  C22 UNL A   1      45.822  32.762  26.691  1.00  0.00    +0.000 C 
ATOM     28  F1  UNL A   1      46.623  31.718  26.427  1.00  0.00    +0.000 F 
ATOM     29  C23 UNL A   1      46.255  34.022  26.268  1.00  0.00    +0.000 C 
ATOM     30  F2  UNL A   1      47.445  34.149  25.664  1.00  0.00    +0.000 F 
ATOM     31  C24 UNL A   1      45.500  35.150  26.534  1.00  0.00    +0.000 C 
ATOM     32  F3  UNL A   1      45.945  36.365  26.187  1.00  0.00    +0.000 F 
ENDBRANCH   25   26
BRANCH   42   43
ATOM     43  C32 UNL A   1      42.288  30.387  33.496  1.00  0.00    +0.000 C 
ATOM     44  C33 UNL A   1      42.400  30.847  34.820  1.00  0.00    +0.000 C 
ATOM     45  F6  UNL A   1      42.719  32.123  35.080  1.00  0.00    +0.000 F 
ATOM     46  C34 UNL A   1      42.123  30.010  35.901  1.00  0.00    +0.000 C 
ATOM     47  F7  UNL A   1      42.240  30.468  37.156  1.00  0.00    +0.000 F 
ATOM     48  C35 UNL A   1      41.684  28.714  35.680  1.00  0.00    +0.000 C 
ATOM     49  F8  UNL A   1      41.368  27.925  36.716  1.00  0.00    +0.000 F 
ATOM     50  C36 UNL A   1      41.543  28.247  34.383  1.00  0.00    +0.000 C 
ATOM     51  F9  UNL A   1      41.071  27.012  34.163  1.00  0.00    +0.000 F 
ATOM     52  C37 UNL A   1      41.855  29.069  33.304  1.00  0.00    +0.000 C 
ATOM     53  F10 UNL A   1      41.680  28.595  32.061  1.00  0.00    +0.000 F 
ENDBRANCH   42   43
BRANCH   57   58
ATOM     65  C45 UNL A   1      35.278  33.376  29.629  1.00  0.00    +0.000 C 
ATOM     66  F14 UNL A   1      35.001  33.995  28.473  1.00  0.00    +0.000 F 
ATOM     67  C46 UNL A   1      36.350  32.484  29.697  1.00  0.00    +0.000 C 
ATOM     68  F15 UNL A   1      37.076  32.317  28.582  1.00  0.00    +0.000 F 
ATOM     58  C41 UNL A   1      36.729  31.865  30.904  1.00  0.00    +0.000 C 
ATOM     59  C42 UNL A   1      35.941  32.162  32.030  1.00  0.00    +0.000 C 
ATOM     60  F11 UNL A   1      36.256  31.647  33.228  1.00  0.00    +0.000 F 
ATOM     61  C43 UNL A   1      34.868  33.058  31.962  1.00  0.00    +0.000 C 
ATOM     62  F12 UNL A   1      34.185  33.371  33.073  1.00  0.00    +0.000 F 
ATOM     63  C44 UNL A   1      34.548  33.675  30.764  1.00  0.00    +0.000 C 
ATOM     64  F13 UNL A   1      33.567  34.588  30.713  1.00  0.00    +0.000 F 
ENDBRANCH   57   58
TORSDOF 19
ENDMDL
MODEL 2
REMARK VINA RESULT:     -12.3      1.788      2.922
ROOT
ATOM     21  C17 UNL A   1      40.602  27.691  29.181  1.00  0.00    +0.000 C 
ATOM     22  C18 UNL A   1      41.577  28.607  28.527  1.00  0.00    +0.000 C 
ATOM     23  N3  UNL A   1      42.699  29.039  29.005  1.00  0.00    +0.000 N 
ATOM     24  C19 UNL A   1      43.241  29.865  28.025  1.00  0.00    +0.000 C 
ATOM     25  C20 UNL A   1      44.173  30.809  28.331  1.00  0.00    +0.000 C 
ATOM     37  C27 UNL A   1      44.816  30.519  29.586  1.00  0.00    +0.000 C 
ATOM     38  C28 UNL A   1      45.642  29.515  30.049  1.00  0.00    +0.000 C 
ATOM     39  C29 UNL A   1      45.261  29.319  31.410  1.00  0.00    +0.000 C 
ATOM     40  C30 UNL A   1      44.266  30.248  31.713  1.00  0.00    +0.000 C 
ATOM     41  N4  UNL A   1      44.358  31.169  30.703  1.00  0.00    +0.000 N 
ATOM     42  C31 UNL A   1      43.253  30.294  32.739  1.00  0.00    +0.000 C 
ATOM     54  C38 UNL A   1      42.115  31.044  32.676  1.00  0.00    +0.000 C 
ATOM     55  N5  UNL A   1      41.007  30.717  33.443  1.00  0.00    +0.000 N 
ATOM     56  C39 UNL A   1      39.993  31.186  32.772  1.00  0.00    +0.000 C 
ATOM     57  C40 UNL A   1      38.695  30.475  32.652  1.00  0.00    +0.000 C 
ATOM     69  C47 UNL A   1      38.928  29.359  31.913  1.00  0.00    +0.000 C 
ATOM     70  C48 UNL A   1      38.163  28.137  31.790  1.00  0.00    +0.000 C 
ATOM     71  C49 UNL A   1      38.777  27.331  30.897  1.00  0.00    +0.000 C 
ATOM     72  C50 UNL A   1      39.888  28.048  30.270  1.00  0.00    +0.000 C 
ATOM     73  N6  UNL A   1      39.994  29.211  31.004  1.00  0.00    +0.000 N 
ATOM     74  C51 UNL A   1      40.308  32.190  31.769  1.00  0.00    +0.000 C 
ATOM     75  C52 UNL A   1      41.627  32.004  31.689  1.00  0.00    +0.000 C 
ATOM     76  C53 UNL A   1      42.451  29.661  26.839  1.00  0.00    +0.000 C 
ATOM     77  C54 UNL A   1      41.357  28.951  27.114  1.00  0.00    +0.000 C 
ATOM    117  H22 UNL A   1      46.378  29.016  29.526  1.00  0.00    +0.000 H 
ATOM    118  H23 UNL A   1      45.651  28.614  32.054  1.00  0.00    +0.000 H 
ATOM    119  H24 UNL A   1      44.135  32.126  30.767  1.00  0.00    +0.000 H 
ATOM    120  H25 UNL A   1      37.294  27.917  32.301  1.00  0.00    +0.000 H 
ATOM    121  H26 UNL A   1      38.503  26.359  30.688  1.00  0.00    +0.000 H 
ATOM    122  H27 UNL A   1      40.728  29.860  30.903  1.00  0.00    +0.000 H 
ATOM    123  H28 UNL A   1      39.694  32.852  31.268  1.00  0.00    +0.000 H 
ATOM    124  H29 UNL A   1      42.234  32.484  31.007  1.00  0.00    +0.000 H 
ATOM    125  H30 UNL A   1      42.700  30.017  25.902  1.00  0.00    +0.000 H 
ATOM    126  H31 UNL A   1      40.566  28.706  26.499  1.00  0.00    +0.000 H 
ENDROOT
BRANCH   21   20
ATOM     78  C55 UNL A   1      39.326  26.079  27.778  1.00  0.00    +0.000 C 
ATOM     79  C56 UNL A   1      39.223  24.811  27.222  1.00  0.00    +0.000 C 
ATOM     17  C13 UNL A   1      40.253  23.862  27.372  1.00  0.00    +0.000 C 
ATOM     18  C14 UNL A   1      41.443  24.262  27.975  1.00  0.00    +0.000 C 
ATOM     19  C15 UNL A   1      41.541  25.517  28.563  1.00  0.00    +0.000 C 
ATOM    115  H20 UNL A   1      42.255  23.625  27.986  1.00  0.00    +0.000 H 
ATOM    116  H21 UNL A   1      42.414  25.797  29.036  1.00  0.00    +0.000 H 
ATOM     20  C16 UNL A   1      40.458  26.401  28.515  1.00  0.00    +0.000 C 
ATOM    127  H32 UNL A   1      38.573  26.772  27.647  1.00  0.00    +0.000 H 
ATOM    128  H33 UNL A   1      38.375  24.560  26.690  1.00  0.00    +0.000 H 
BRANCH   17   15
ATOM     15  C12 UNL A   1      39.918  22.475  26.950  1.00  0.00    +0.000 C 
ATOM     16  O2  UNL A   1      40.456  21.533  27.537  1.00  0.00    +0.000 O 
BRANCH   15   14
ATOM    114  H19 UNL A   1      39.453  22.493  25.039  1.00  0.00    +0.000 H 
ATOM     14  N2  UNL A   1      39.113  22.147  25.895  1.00  0.00    +0.000 N 
BRANCH   14   13
ATOM    113  H18 UNL A   1      37.643  20.986  26.700  1.00  0.00    +0.000 H 
ATOM     13  C11 UNL A   1      37.876  21.407  25.745  1.00  0.00    +0.000 C 
ATOM    112  H17 UNL A   1      38.021  20.659  24.994  1.00  0.00    +0.000 H 
BRANCH   13   12
ATOM     12  C10 UNL A   1      36.688  22.279  25.336  1.00  0.00    +0.000 C 
ATOM    110  H15 UNL A   1      35.802  21.681  25.381  1.00  0.00    +0.000 H 
ATOM    111  H16 UNL A   1      36.663  23.105  26.015  1.00  0.00    +0.000 H 
BRANCH   12   11
ATOM     11  C9  UNL A   1      36.800  22.868  23.925  1.00  0.00    +0.000 C 
ATOM    108  H13 UNL A   1      37.434  23.728  23.974  1.00  0.00    +0.000 H 
ATOM    109  H14 UNL A   1      37.189  22.087  23.306  1.00  0.00    +0.000 H 
BRANCH   11   10
ATOM     10  C8  UNL A   1      35.470  23.294  23.294  1.00  0.00    +0.000 C 
ATOM    107  H12 UNL A   1      35.529  23.030  22.259  1.00  0.00    +0.000 H 
ATOM    106  H11 UNL A   1      35.346  24.344  23.454  1.00  0.00    +0.000 H 
BRANCH   10    9
ATOM      9  C7  UNL A   1      34.235  22.577  23.853  1.00  0.00    +0.000 C 
ATOM    105  H10 UNL A   1      33.852  23.178  24.649  1.00  0.00    +0.000 H 
ATOM    104  H9  UNL A   1      34.531  21.604  24.190  1.00  0.00    +0.000 H 
BRANCH    9    8
ATOM    102  H7  UNL A   1      33.376  22.947  21.937  1.00  0.00    +0.000 H 
ATOM    103  H8  UNL A   1      32.994  21.371  22.622  1.00  0.00    +0.000 H 
ATOM      8  C6  UNL A   1      33.114  22.414  22.826  1.00  0.00    +0.000 C 
BRANCH    8    7
ATOM    101  H6  UNL A   1      31.292  22.282  23.814  1.00  0.00    +0.000 H 
ATOM      7  N1  UNL A   1      31.856  22.928  23.331  1.00  0.00    +0.000 N 
BRANCH    7    5
ATOM      5  C5  UNL A   1      31.354  24.193  23.222  1.00  0.00    +0.000 C 
ATOM      6  O1  UNL A   1      30.140  24.355  23.365  1.00  0.00    +0.000 O 
BRANCH    5    4
ATOM    100  H5  UNL A   1      32.016  25.660  21.872  1.00  0.00    +0.000 H 
ATOM     99  H4  UNL A   1      33.287  25.010  22.933  1.00  0.00    +0.000 H 
ATOM      4  C4  UNL A   1      32.274  25.350  22.863  1.00  0.00    +0.000 C 
BRANCH    4    3
ATOM    129  H34 UNL A   1      30.173  27.236  21.719  1.00  0.00    +0.000 H 
ATOM      2  C2  UNL A   1      32.801  26.828  24.927  1.00  0.00    +0.000 C 
ATOM      3  C3  UNL A   1      32.112  26.550  23.754  1.00  0.00    +0.000 C 
ATOM    132  H37 UNL A   1      30.913  30.531  25.211  1.00  0.00    +0.000 H 
ATOM    130  H35 UNL A   1      28.889  29.291  21.744  1.00  0.00    +0.000 H 
ATOM    131  H36 UNL A   1      29.281  30.938  23.461  1.00  0.00    +0.000 H 
ATOM     80  C57 UNL A   1      31.233  27.641  23.517  1.00  0.00    +0.000 C 
ATOM     81  C58 UNL A   1      30.311  27.918  22.481  1.00  0.00    +0.000 C 
ATOM     82  C59 UNL A   1      29.587  29.109  22.482  1.00  0.00    +0.000 C 
ATOM     83  C60 UNL A   1      29.806  30.048  23.475  1.00  0.00    +0.000 C 
ATOM     84  C61 UNL A   1      30.729  29.808  24.497  1.00  0.00    +0.000 C 
ATOM     85  C62 UNL A   1      31.407  28.571  24.548  1.00  0.00    +0.000 C 
ATOM     86  N7  UNL A   1      32.276  28.001  25.493  1.00  0.00    +0.000 N 
BRANCH    2    1
ATOM      1  C1  UNL A   1      33.895  26.034  25.575  1.00  0.00    +0.000 C 
ATOM     98  H3  UNL A   1      34.144  25.199  24.956  1.00  0.00    +0.000 H 
ATOM     97  H2  UNL A   1      34.756  26.654  25.704  1.00  0.00    +0.000 H 
ATOM     96  H1  UNL A   1      33.560  25.683  26.530  1.00  0.00    +0.000 H 
ENDBRANCH    2    1
BRANCH   86   87
ATOM     87  C63 UNL A   1      32.585  28.486  26.800  1.00  0.00    +0.000 C 
ATOM     88  O3  UNL A   1      31.966  28.043  27.760  1.00  0.00    +0.000 O 
BRANCH   87   89
ATOM    133  H38 UNL A   1      35.286  28.226  26.896  1.00  0.00    +0.000 H 
ATOM    134  H39 UNL A   1      36.894  29.910  27.611  1.00  0.00    +0.000 H 
ATOM    135  H40 UNL A   1      33.794  32.736  27.963  1.00  0.00    +0.000 H 
ATOM    136  H41 UNL A   1      32.177  31.044  27.299  1.00  0.00    +0.000 H 
ATOM     89  C64 UNL A   1      33.607  29.494  27.128  1.00  0.00    +0.000 C 
ATOM     90  C65 UNL A   1      34.967  29.171  27.159  1.00  0.00    +0.000 C 
ATOM     91  C66 UNL A   1      35.891  30.144  27.552  1.00  0.00    +0.000 C 
ATOM     92  C67 UNL A   1      35.454  31.434  27.863  1.00  0.00    +0.000 C 
ATOM     93 Cl1  UNL A   1      36.587  32.615  28.392  1.00  0.00    +0.000 Cl
ATOM     94  C68 UNL A   1      34.104  31.772  27.762  1.00  0.00    +0.000 C 
ATOM     95  C69 UNL A   1      33.176  30.802  27.387  1.00  0.00    +0.000 C 
ENDBRANCH   87   89
ENDBRANCH   86   87
ENDBRANCH    4    3
ENDBRANCH    5    4
ENDBRANCH    7    5
ENDBRANCH    8    7
ENDBRANCH    9    8
ENDBRANCH   10    9
ENDBRANCH   11   10
ENDBRANCH   12   11
ENDBRANCH   13   12
ENDBRANCH   14   13
ENDBRANCH   15   14
ENDBRANCH   17   15
ENDBRANCH   21   20
BRANCH   25   26
ATOM     33  C25 UNL A   1      43.830  34.597  27.774  1.00  0.00    +0.000 C 
ATOM     34  F4  UNL A   1      43.124  35.618  28.280  1.00  0.00    +0.000 F 
ATOM     35  C26 UNL A   1      43.513  33.293  28.150  1.00  0.00    +0.000 C 
ATOM     36  F5  UNL A   1      42.542  33.187  29.062  1.00  0.00    +0.000 F 
ATOM     26  C21 UNL A   1      44.242  32.175  27.691  1.00  0.00    +0.000 C 
ATOM     27  C22 UNL A   1      45.294  32.464  26.796  1.00  0.00    +0.000 C 
ATOM     28  F1  UNL A   1      46.065  31.482  26.304  1.00  0.00    +0.000 F 
ATOM     29  C23 UNL A   1      45.640  33.776  26.461  1.00  0.00    +0.000 C 
ATOM     30  F2  UNL A   1      46.726  34.007  25.711  1.00  0.00    +0.000 F 
ATOM     31  C24 UNL A   1      44.913  34.843  26.958  1.00  0.00    +0.000 C 
ATOM     32  F3  UNL A   1      45.282  36.102  26.691  1.00  0.00    +0.000 F 
ENDBRANCH   25   26
BRANCH   42   43
ATOM     43  C32 UNL A   1      43.355  29.271  33.837  1.00  0.00    +0.000 C 
ATOM     44  C33 UNL A   1      42.863  27.958  33.729  1.00  0.00    +0.000 C 
ATOM     45  F6  UNL A   1      42.211  27.556  32.630  1.00  0.00    +0.000 F 
ATOM     46  C34 UNL A   1      43.093  27.017  34.733  1.00  0.00    +0.000 C 
ATOM     47  F7  UNL A   1      42.612  25.771  34.613  1.00  0.00    +0.000 F 
ATOM     48  C35 UNL A   1      43.856  27.355  35.840  1.00  0.00    +0.000 C 
ATOM     49  F8  UNL A   1      44.121  26.437  36.781  1.00  0.00    +0.000 F 
ATOM     50  C36 UNL A   1      44.371  28.636  35.955  1.00  0.00    +0.000 C 
ATOM     51  F9  UNL A   1      45.152  28.953  36.997  1.00  0.00    +0.000 F 
ATOM     52  C37 UNL A   1      44.112  29.587  34.972  1.00  0.00    +0.000 C 
ATOM     53  F10 UNL A   1      44.650  30.809  35.101  1.00  0.00    +0.000 F 
ENDBRANCH   42   43
BRANCH   57   58
ATOM     65  C45 UNL A   1      35.357  32.161  32.018  1.00  0.00    +0.000 C 
ATOM     66  F14 UNL A   1      34.480  32.270  31.010  1.00  0.00    +0.000 F 
ATOM     67  C46 UNL A   1      36.414  31.255  31.919  1.00  0.00    +0.000 C 
ATOM     68  F15 UNL A   1      36.511  30.551  30.783  1.00  0.00    +0.000 F 
ATOM     58  C41 UNL A   1      37.403  31.154  32.917  1.00  0.00    +0.000 C 
ATOM     59  C42 UNL A   1      37.245  31.987  34.039  1.00  0.00    +0.000 C 
ATOM     60  F11 UNL A   1      38.162  31.983  35.017  1.00  0.00    +0.000 F 
ATOM     61  C43 UNL A   1      36.185  32.897  34.135  1.00  0.00    +0.000 C 
ATOM     62  F12 UNL A   1      36.108  33.724  35.188  1.00  0.00    +0.000 F 
ATOM     63  C44 UNL A   1      35.251  32.993  33.117  1.00  0.00    +0.000 C 
ATOM     64  F13 UNL A   1      34.278  33.913  33.175  1.00  0.00    +0.000 F 
ENDBRANCH   57   58
TORSDOF 19
ENDMDL
MODEL 3
REMARK VINA RESULT:     -12.1      3.445      9.033
ROOT
ATOM     21  C17 UNL A   1      39.940  29.073  29.027  1.00  0.00    +0.000 C 
ATOM     22  C18 UNL A   1      40.276  28.876  30.464  1.00  0.00    +0.000 C 
ATOM     23  N3  UNL A   1      41.286  29.357  31.113  1.00  0.00    +0.000 N 
ATOM     24  C19 UNL A   1      41.162  28.886  32.417  1.00  0.00    +0.000 C 
ATOM     25  C20 UNL A   1      42.235  28.831  33.254  1.00  0.00    +0.000 C 
ATOM     37  C27 UNL A   1      43.289  29.705  32.808  1.00  0.00    +0.000 C 
ATOM     38  C28 UNL A   1      43.431  31.071  32.674  1.00  0.00    +0.000 C 
ATOM     39  C29 UNL A   1      44.233  31.248  31.508  1.00  0.00    +0.000 C 
ATOM     40  C30 UNL A   1      44.579  29.984  31.032  1.00  0.00    +0.000 C 
ATOM     41  N4  UNL A   1      44.316  29.152  32.087  1.00  0.00    +0.000 N 
ATOM     42  C31 UNL A   1      45.015  29.514  29.740  1.00  0.00    +0.000 C 
ATOM     54  C38 UNL A   1      44.933  28.220  29.314  1.00  0.00    +0.000 C 
ATOM     55  N5  UNL A   1      44.941  27.917  27.962  1.00  0.00    +0.000 N 
ATOM     56  C39 UNL A   1      44.291  26.790  27.874  1.00  0.00    +0.000 C 
ATOM     57  C40 UNL A   1      43.347  26.477  26.772  1.00  0.00    +0.000 C 
ATOM     69  C47 UNL A   1      42.285  27.312  26.918  1.00  0.00    +0.000 C 
ATOM     70  C48 UNL A   1      41.271  27.718  25.970  1.00  0.00    +0.000 C 
ATOM     71  C49 UNL A   1      40.394  28.530  26.597  1.00  0.00    +0.000 C 
ATOM     72  C50 UNL A   1      40.697  28.573  28.028  1.00  0.00    +0.000 C 
ATOM     73  N6  UNL A   1      41.905  27.916  28.133  1.00  0.00    +0.000 N 
ATOM     74  C51 UNL A   1      44.159  26.038  29.111  1.00  0.00    +0.000 C 
ATOM     75  C52 UNL A   1      44.492  26.996  29.978  1.00  0.00    +0.000 C 
ATOM     76  C53 UNL A   1      39.851  28.302  32.517  1.00  0.00    +0.000 C 
ATOM     77  C54 UNL A   1      39.286  28.197  31.314  1.00  0.00    +0.000 C 
ATOM    117  H22 UNL A   1      43.043  31.806  33.286  1.00  0.00    +0.000 H 
ATOM    118  H23 UNL A   1      44.508  32.151  31.091  1.00  0.00    +0.000 H 
ATOM    119  H24 UNL A   1      44.780  28.308  32.292  1.00  0.00    +0.000 H 
ATOM    120  H25 UNL A   1      41.226  27.434  24.978  1.00  0.00    +0.000 H 
ATOM    121  H26 UNL A   1      39.625  29.043  26.137  1.00  0.00    +0.000 H 
ATOM    122  H27 UNL A   1      42.439  27.874  28.961  1.00  0.00    +0.000 H 
ATOM    123  H28 UNL A   1      43.889  25.054  29.271  1.00  0.00    +0.000 H 
ATOM    124  H29 UNL A   1      44.443  26.885  31.002  1.00  0.00    +0.000 H 
ATOM    125  H30 UNL A   1      39.407  28.007  33.402  1.00  0.00    +0.000 H 
ATOM    126  H31 UNL A   1      38.391  27.756  31.050  1.00  0.00    +0.000 H 
ENDROOT
BRANCH   21   20
ATOM     78  C55 UNL A   1      38.553  31.130  29.222  1.00  0.00    +0.000 C 
ATOM     79  C56 UNL A   1      37.330  31.761  29.034  1.00  0.00    +0.000 C 
ATOM     17  C13 UNL A   1      36.257  31.100  28.405  1.00  0.00    +0.000 C 
ATOM     18  C14 UNL A   1      36.484  29.844  27.849  1.00  0.00    +0.000 C 
ATOM     19  C15 UNL A   1      37.693  29.193  28.062  1.00  0.00    +0.000 C 
ATOM    115  H20 UNL A   1      35.752  29.394  27.277  1.00  0.00    +0.000 H 
ATOM    116  H21 UNL A   1      37.845  28.249  27.675  1.00  0.00    +0.000 H 
ATOM     20  C16 UNL A   1      38.704  29.816  28.801  1.00  0.00    +0.000 C 
ATOM    127  H32 UNL A   1      39.338  31.630  29.669  1.00  0.00    +0.000 H 
ATOM    128  H33 UNL A   1      37.206  32.731  29.363  1.00  0.00    +0.000 H 
BRANCH   17   15
ATOM     15  C12 UNL A   1      34.939  31.787  28.489  1.00  0.00    +0.000 C 
ATOM     16  O2  UNL A   1      34.784  32.663  29.343  1.00  0.00    +0.000 O 
BRANCH   15   14
ATOM    114  H19 UNL A   1      33.386  32.264  27.380  1.00  0.00    +0.000 H 
ATOM     14  N2  UNL A   1      33.838  31.469  27.744  1.00  0.00    +0.000 N 
BRANCH   14   13
ATOM    113  H18 UNL A   1      32.811  29.786  28.262  1.00  0.00    +0.000 H 
ATOM     13  C11 UNL A   1      33.183  30.234  27.364  1.00  0.00    +0.000 C 
ATOM    112  H17 UNL A   1      33.898  29.613  26.865  1.00  0.00    +0.000 H 
BRANCH   13   12
ATOM     12  C10 UNL A   1      31.986  30.437  26.434  1.00  0.00    +0.000 C 
ATOM    110  H15 UNL A   1      31.153  30.758  27.024  1.00  0.00    +0.000 H 
ATOM    111  H16 UNL A   1      32.280  31.164  25.707  1.00  0.00    +0.000 H 
BRANCH   12   11
ATOM     11  C9  UNL A   1      31.573  29.179  25.662  1.00  0.00    +0.000 C 
ATOM    108  H13 UNL A   1      32.343  28.447  25.786  1.00  0.00    +0.000 H 
ATOM    109  H14 UNL A   1      30.630  28.878  26.065  1.00  0.00    +0.000 H 
BRANCH   11   10
ATOM     10  C8  UNL A   1      31.352  29.386  24.160  1.00  0.00    +0.000 C 
ATOM    107  H12 UNL A   1      32.306  29.260  23.693  1.00  0.00    +0.000 H 
ATOM    106  H11 UNL A   1      30.938  30.362  24.014  1.00  0.00    +0.000 H 
BRANCH   10    9
ATOM      9  C7  UNL A   1      30.413  28.367  23.503  1.00  0.00    +0.000 C 
ATOM    105  H10 UNL A   1      29.634  28.917  23.020  1.00  0.00    +0.000 H 
ATOM    104  H9  UNL A   1      30.033  27.716  24.264  1.00  0.00    +0.000 H 
BRANCH    9    8
ATOM    102  H7  UNL A   1      30.737  26.511  22.504  1.00  0.00    +0.000 H 
ATOM    103  H8  UNL A   1      30.873  27.934  21.475  1.00  0.00    +0.000 H 
ATOM      8  C6  UNL A   1      31.098  27.515  22.434  1.00  0.00    +0.000 C 
BRANCH    8    7
ATOM    101  H6  UNL A   1      32.995  28.358  22.398  1.00  0.00    +0.000 H 
ATOM      7  N1  UNL A   1      32.537  27.511  22.603  1.00  0.00    +0.000 N 
BRANCH    7    5
ATOM      5  C5  UNL A   1      33.339  26.484  23.010  1.00  0.00    +0.000 C 
ATOM      6  O1  UNL A   1      33.598  25.587  22.205  1.00  0.00    +0.000 O 
BRANCH    5    4
ATOM    100  H5  UNL A   1      33.384  27.249  24.967  1.00  0.00    +0.000 H 
ATOM     99  H4  UNL A   1      34.904  26.493  24.438  1.00  0.00    +0.000 H 
ATOM      4  C4  UNL A   1      33.836  26.430  24.448  1.00  0.00    +0.000 C 
BRANCH    4    3
ATOM    129  H34 UNL A   1      30.850  26.457  25.046  1.00  0.00    +0.000 H 
ATOM      2  C2  UNL A   1      34.267  24.131  25.568  1.00  0.00    +0.000 C 
ATOM      3  C3  UNL A   1      33.440  25.176  25.177  1.00  0.00    +0.000 C 
ATOM    132  H37 UNL A   1      31.080  22.275  27.507  1.00  0.00    +0.000 H 
ATOM    130  H35 UNL A   1      28.844  25.505  26.018  1.00  0.00    +0.000 H 
ATOM    131  H36 UNL A   1      28.968  23.446  27.265  1.00  0.00    +0.000 H 
ATOM     80  C57 UNL A   1      32.129  24.864  25.630  1.00  0.00    +0.000 C 
ATOM     81  C58 UNL A   1      30.898  25.553  25.540  1.00  0.00    +0.000 C 
ATOM     82  C59 UNL A   1      29.747  25.017  26.117  1.00  0.00    +0.000 C 
ATOM     83  C60 UNL A   1      29.819  23.829  26.823  1.00  0.00    +0.000 C 
ATOM     84  C61 UNL A   1      31.030  23.141  26.946  1.00  0.00    +0.000 C 
ATOM     85  C62 UNL A   1      32.182  23.635  26.298  1.00  0.00    +0.000 C 
ATOM     86  N7  UNL A   1      33.478  23.118  26.136  1.00  0.00    +0.000 N 
BRANCH    2    1
ATOM      1  C1  UNL A   1      35.751  24.005  25.400  1.00  0.00    +0.000 C 
ATOM     98  H3  UNL A   1      36.228  24.883  25.781  1.00  0.00    +0.000 H 
ATOM     97  H2  UNL A   1      36.098  23.148  25.937  1.00  0.00    +0.000 H 
ATOM     96  H1  UNL A   1      35.982  23.895  24.361  1.00  0.00    +0.000 H 
ENDBRANCH    2    1
BRANCH   86   87
ATOM     87  C63 UNL A   1      33.943  21.808  26.463  1.00  0.00    +0.000 C 
ATOM     88  O3  UNL A   1      34.475  21.621  27.551  1.00  0.00    +0.000 O 
BRANCH   87   89
ATOM    133  H38 UNL A   1      31.737  20.652  25.382  1.00  0.00    +0.000 H 
ATOM    134  H39 UNL A   1      31.649  18.579  24.105  1.00  0.00    +0.000 H 
ATOM    135  H40 UNL A   1      35.850  18.338  24.185  1.00  0.00    +0.000 H 
ATOM    136  H41 UNL A   1      35.942  20.379  25.504  1.00  0.00    +0.000 H 
ATOM     89  C64 UNL A   1      33.842  20.616  25.604  1.00  0.00    +0.000 C 
ATOM     90  C65 UNL A   1      32.605  20.139  25.160  1.00  0.00    +0.000 C 
ATOM     91  C66 UNL A   1      32.558  18.959  24.411  1.00  0.00    +0.000 C 
ATOM     92  C67 UNL A   1      33.742  18.298  24.078  1.00  0.00    +0.000 C 
ATOM     93 Cl1  UNL A   1      33.676  16.821  23.198  1.00  0.00    +0.000 Cl
ATOM     94  C68 UNL A   1      34.979  18.816  24.463  1.00  0.00    +0.000 C 
ATOM     95  C69 UNL A   1      35.032  19.983  25.223  1.00  0.00    +0.000 C 
ENDBRANCH   87   89
ENDBRANCH   86   87
ENDBRANCH    4    3
ENDBRANCH    5    4
ENDBRANCH    7    5
ENDBRANCH    8    7
ENDBRANCH    9    8
ENDBRANCH   10    9
ENDBRANCH   11   10
ENDBRANCH   12   11
ENDBRANCH   13   12
ENDBRANCH   14   13
ENDBRANCH   15   14
ENDBRANCH   17   15
ENDBRANCH   21   20
BRANCH   25   26
ATOM     33  C25 UNL A   1      41.875  26.544  36.323  1.00  0.00    +0.000 C 
ATOM     34  F4  UNL A   1      41.291  26.581  37.529  1.00  0.00    +0.000 F 
ATOM     35  C26 UNL A   1      41.918  27.702  35.548  1.00  0.00    +0.000 C 
ATOM     36  F5  UNL A   1      41.294  28.760  36.076  1.00  0.00    +0.000 F 
ATOM     26  C21 UNL A   1      42.478  27.725  34.253  1.00  0.00    +0.000 C 
ATOM     27  C22 UNL A   1      43.023  26.502  33.807  1.00  0.00    +0.000 C 
ATOM     28  F1  UNL A   1      43.570  26.400  32.586  1.00  0.00    +0.000 F 
ATOM     29  C23 UNL A   1      42.933  25.332  34.567  1.00  0.00    +0.000 C 
ATOM     30  F2  UNL A   1      43.348  24.168  34.048  1.00  0.00    +0.000 F 
ATOM     31  C24 UNL A   1      42.350  25.352  35.821  1.00  0.00    +0.000 C 
ATOM     32  F3  UNL A   1      42.204  24.221  36.522  1.00  0.00    +0.000 F 
ENDBRANCH   25   26
BRANCH   42   43
ATOM     43  C32 UNL A   1      45.366  30.563  28.720  1.00  0.00    +0.000 C 
ATOM     44  C33 UNL A   1      44.421  31.191  27.889  1.00  0.00    +0.000 C 
ATOM     45  F6  UNL A   1      43.129  30.835  27.925  1.00  0.00    +0.000 F 
ATOM     46  C34 UNL A   1      44.787  32.241  27.047  1.00  0.00    +0.000 C 
ATOM     47  F7  UNL A   1      43.871  32.824  26.259  1.00  0.00    +0.000 F 
ATOM     48  C35 UNL A   1      46.089  32.716  27.054  1.00  0.00    +0.000 C 
ATOM     49  F8  UNL A   1      46.429  33.760  26.285  1.00  0.00    +0.000 F 
ATOM     50  C36 UNL A   1      47.030  32.129  27.884  1.00  0.00    +0.000 C 
ATOM     51  F9  UNL A   1      48.278  32.617  27.933  1.00  0.00    +0.000 F 
ATOM     52  C37 UNL A   1      46.677  31.056  28.697  1.00  0.00    +0.000 C 
ATOM     53  F10 UNL A   1      47.606  30.529  29.509  1.00  0.00    +0.000 F 
ENDBRANCH   42   43
BRANCH   57   58
ATOM     65  C45 UNL A   1      42.893  22.814  25.899  1.00  0.00    +0.000 C 
ATOM     66  F14 UNL A   1      42.135  21.787  26.307  1.00  0.00    +0.000 F 
ATOM     67  C46 UNL A   1      42.613  24.104  26.353  1.00  0.00    +0.000 C 
ATOM     68  F15 UNL A   1      41.596  24.239  27.216  1.00  0.00    +0.000 F 
ATOM     58  C41 UNL A   1      43.423  25.205  26.014  1.00  0.00    +0.000 C 
ATOM     59  C42 UNL A   1      44.506  24.941  25.157  1.00  0.00    +0.000 C 
ATOM     60  F11 UNL A   1      45.351  25.925  24.815  1.00  0.00    +0.000 F 
ATOM     61  C43 UNL A   1      44.787  23.646  24.704  1.00  0.00    +0.000 C 
ATOM     62  F12 UNL A   1      45.871  23.423  23.946  1.00  0.00    +0.000 F 
ATOM     63  C44 UNL A   1      43.989  22.583  25.088  1.00  0.00    +0.000 C 
ATOM     64  F13 UNL A   1      44.299  21.333  24.714  1.00  0.00    +0.000 F 
ENDBRANCH   57   58
TORSDOF 19
ENDMDL
MODEL 4
REMARK VINA RESULT:     -12.0      3.368      8.859
ROOT
ATOM     21  C17 UNL A   1      40.080  28.783  29.946  1.00  0.00    +0.000 C 
ATOM     22  C18 UNL A   1      40.723  28.649  31.282  1.00  0.00    +0.000 C 
ATOM     23  N3  UNL A   1      41.858  29.136  31.666  1.00  0.00    +0.000 N 
ATOM     24  C19 UNL A   1      42.020  28.735  32.989  1.00  0.00    +0.000 C 
ATOM     25  C20 UNL A   1      43.250  28.694  33.571  1.00  0.00    +0.000 C 
ATOM     37  C27 UNL A   1      44.191  29.518  32.858  1.00  0.00    +0.000 C 
ATOM     38  C28 UNL A   1      44.319  30.872  32.622  1.00  0.00    +0.000 C 
ATOM     39  C29 UNL A   1      44.845  30.970  31.300  1.00  0.00    +0.000 C 
ATOM     40  C30 UNL A   1      45.060  29.675  30.828  1.00  0.00    +0.000 C 
ATOM     41  N4  UNL A   1      45.025  28.904  31.960  1.00  0.00    +0.000 N 
ATOM     42  C31 UNL A   1      45.193  29.131  29.499  1.00  0.00    +0.000 C 
ATOM     54  C38 UNL A   1      45.001  27.819  29.173  1.00  0.00    +0.000 C 
ATOM     55  N5  UNL A   1      44.706  27.449  27.871  1.00  0.00    +0.000 N 
ATOM     56  C39 UNL A   1      44.037  26.336  27.989  1.00  0.00    +0.000 C 
ATOM     57  C40 UNL A   1      42.868  25.993  27.141  1.00  0.00    +0.000 C 
ATOM     69  C47 UNL A   1      41.877  26.860  27.472  1.00  0.00    +0.000 C 
ATOM     70  C48 UNL A   1      40.683  27.244  26.749  1.00  0.00    +0.000 C 
ATOM     71  C49 UNL A   1      39.978  28.108  27.509  1.00  0.00    +0.000 C 
ATOM     72  C50 UNL A   1      40.591  28.215  28.834  1.00  0.00    +0.000 C 
ATOM     73  N6  UNL A   1      41.784  27.533  28.706  1.00  0.00    +0.000 N 
ATOM     74  C51 UNL A   1      44.172  25.650  29.263  1.00  0.00    +0.000 C 
ATOM     75  C52 UNL A   1      44.701  26.642  29.983  1.00  0.00    +0.000 C 
ATOM     76  C53 UNL A   1      40.755  28.190  33.408  1.00  0.00    +0.000 C 
ATOM     77  C54 UNL A   1      39.937  28.039  32.366  1.00  0.00    +0.000 C 
ATOM    117  H22 UNL A   1      44.086  31.646  33.263  1.00  0.00    +0.000 H 
ATOM    118  H23 UNL A   1      45.033  31.844  30.784  1.00  0.00    +0.000 H 
ATOM    119  H24 UNL A   1      45.512  28.060  32.102  1.00  0.00    +0.000 H 
ATOM    120  H25 UNL A   1      40.416  26.912  25.809  1.00  0.00    +0.000 H 
ATOM    121  H26 UNL A   1      39.133  28.617  27.203  1.00  0.00    +0.000 H 
ATOM    122  H27 UNL A   1      42.486  27.519  29.397  1.00  0.00    +0.000 H 
ATOM    123  H28 UNL A   1      43.931  24.683  29.532  1.00  0.00    +0.000 H 
ATOM    124  H29 UNL A   1      44.879  26.583  30.998  1.00  0.00    +0.000 H 
ATOM    125  H30 UNL A   1      40.514  27.950  34.382  1.00  0.00    +0.000 H 
ATOM    126  H31 UNL A   1      39.000  27.608  32.329  1.00  0.00    +0.000 H 
ENDROOT
BRANCH   21   20
ATOM     78  C55 UNL A   1      37.609  28.937  30.196  1.00  0.00    +0.000 C 
ATOM     79  C56 UNL A   1      36.454  29.705  30.132  1.00  0.00    +0.000 C 
ATOM     17  C13 UNL A   1      36.509  31.086  29.857  1.00  0.00    +0.000 C 
ATOM     18  C14 UNL A   1      37.758  31.699  29.783  1.00  0.00    +0.000 C 
ATOM     19  C15 UNL A   1      38.916  30.932  29.813  1.00  0.00    +0.000 C 
ATOM    115  H20 UNL A   1      37.823  32.726  29.706  1.00  0.00    +0.000 H 
ATOM    116  H21 UNL A   1      39.838  31.388  29.726  1.00  0.00    +0.000 H 
ATOM     20  C16 UNL A   1      38.835  29.544  29.959  1.00  0.00    +0.000 C 
ATOM    127  H32 UNL A   1      37.558  27.930  30.416  1.00  0.00    +0.000 H 
ATOM    128  H33 UNL A   1      35.539  29.256  30.288  1.00  0.00    +0.000 H 
BRANCH   17   15
ATOM     15  C12 UNL A   1      35.204  31.739  29.569  1.00  0.00    +0.000 C 
ATOM     16  O2  UNL A   1      34.632  32.342  30.480  1.00  0.00    +0.000 O 
BRANCH   15   14
ATOM    114  H19 UNL A   1      33.971  32.451  28.211  1.00  0.00    +0.000 H 
ATOM     14  N2  UNL A   1      34.529  31.658  28.383  1.00  0.00    +0.000 N 
BRANCH   14   13
ATOM    113  H18 UNL A   1      35.145  29.903  27.551  1.00  0.00    +0.000 H 
ATOM     13  C11 UNL A   1      34.445  30.677  27.320  1.00  0.00    +0.000 C 
ATOM    112  H17 UNL A   1      34.667  31.165  26.394  1.00  0.00    +0.000 H 
BRANCH   13   12
ATOM     12  C10 UNL A   1      33.069  30.019  27.203  1.00  0.00    +0.000 C 
ATOM    110  H15 UNL A   1      32.407  30.500  27.891  1.00  0.00    +0.000 H 
ATOM    111  H16 UNL A   1      32.759  30.131  26.185  1.00  0.00    +0.000 H 
BRANCH   12   11
ATOM     11  C9  UNL A   1      33.068  28.516  27.503  1.00  0.00    +0.000 C 
ATOM    108  H13 UNL A   1      34.051  28.241  27.822  1.00  0.00    +0.000 H 
ATOM    109  H14 UNL A   1      32.319  28.361  28.251  1.00  0.00    +0.000 H 
BRANCH   11   10
ATOM     10  C8  UNL A   1      32.684  27.620  26.321  1.00  0.00    +0.000 C 
ATOM    107  H12 UNL A   1      31.841  28.082  25.852  1.00  0.00    +0.000 H 
ATOM    106  H11 UNL A   1      32.471  26.642  26.698  1.00  0.00    +0.000 H 
BRANCH   10    9
ATOM      9  C7  UNL A   1      33.762  27.489  25.238  1.00  0.00    +0.000 C 
ATOM    105  H10 UNL A   1      33.752  26.475  24.900  1.00  0.00    +0.000 H 
ATOM    104  H9  UNL A   1      34.706  27.761  25.664  1.00  0.00    +0.000 H 
BRANCH    9    8
ATOM    102  H7  UNL A   1      34.045  29.292  24.136  1.00  0.00    +0.000 H 
ATOM    103  H8  UNL A   1      33.832  27.851  23.146  1.00  0.00    +0.000 H 
ATOM      8  C6  UNL A   1      33.506  28.376  24.020  1.00  0.00    +0.000 C 
BRANCH    8    7
ATOM    101  H6  UNL A   1      31.636  28.994  24.680  1.00  0.00    +0.000 H 
ATOM      7  N1  UNL A   1      32.095  28.675  23.870  1.00  0.00    +0.000 N 
BRANCH    7    5
ATOM      5  C5  UNL A   1      31.322  28.570  22.750  1.00  0.00    +0.000 C 
ATOM      6  O1  UNL A   1      31.330  29.501  21.942  1.00  0.00    +0.000 O 
BRANCH    5    4
ATOM    100  H5  UNL A   1      30.304  27.222  21.500  1.00  0.00    +0.000 H 
ATOM     99  H4  UNL A   1      29.495  27.540  23.051  1.00  0.00    +0.000 H 
ATOM      4  C4  UNL A   1      30.425  27.356  22.555  1.00  0.00    +0.000 C 
BRANCH    4    3
ATOM    129  H34 UNL A   1      29.104  26.635  25.203  1.00  0.00    +0.000 H 
ATOM      2  C2  UNL A   1      32.015  25.307  22.533  1.00  0.00    +0.000 C 
ATOM      3  C3  UNL A   1      31.008  26.080  23.096  1.00  0.00    +0.000 C 
ATOM    132  H37 UNL A   1      31.995  22.785  25.848  1.00  0.00    +0.000 H 
ATOM    130  H35 UNL A   1      28.854  25.242  27.170  1.00  0.00    +0.000 H 
ATOM    131  H36 UNL A   1      30.311  23.351  27.503  1.00  0.00    +0.000 H 
ATOM     80  C57 UNL A   1      30.641  25.460  24.322  1.00  0.00    +0.000 C 
ATOM     81  C58 UNL A   1      29.698  25.800  25.319  1.00  0.00    +0.000 C 
ATOM     82  C59 UNL A   1      29.568  25.011  26.462  1.00  0.00    +0.000 C 
ATOM     83  C60 UNL A   1      30.399  23.920  26.646  1.00  0.00    +0.000 C 
ATOM     84  C61 UNL A   1      31.354  23.578  25.684  1.00  0.00    +0.000 C 
ATOM     85  C62 UNL A   1      31.438  24.322  24.488  1.00  0.00    +0.000 C 
ATOM     86  N7  UNL A   1      32.189  24.153  23.313  1.00  0.00    +0.000 N 
BRANCH    2    1
ATOM      1  C1  UNL A   1      32.794  25.563  21.279  1.00  0.00    +0.000 C 
ATOM     98  H3  UNL A   1      33.816  25.289  21.433  1.00  0.00    +0.000 H 
ATOM     97  H2  UNL A   1      32.384  24.983  20.480  1.00  0.00    +0.000 H 
ATOM     96  H1  UNL A   1      32.738  26.603  21.031  1.00  0.00    +0.000 H 
ENDBRANCH    2    1
BRANCH   86   87
ATOM     87  C63 UNL A   1      32.984  23.027  22.939  1.00  0.00    +0.000 C 
ATOM     88  O3  UNL A   1      32.585  22.287  22.047  1.00  0.00    +0.000 O 
BRANCH   87   89
ATOM    133  H38 UNL A   1      35.425  24.163  22.592  1.00  0.00    +0.000 H 
ATOM    134  H39 UNL A   1      37.549  23.368  23.483  1.00  0.00    +0.000 H 
ATOM    135  H40 UNL A   1      35.533  20.375  25.649  1.00  0.00    +0.000 H 
ATOM    136  H41 UNL A   1      33.414  21.132  24.723  1.00  0.00    +0.000 H 
ATOM     89  C64 UNL A   1      34.279  22.650  23.530  1.00  0.00    +0.000 C 
ATOM     90  C65 UNL A   1      35.454  23.337  23.210  1.00  0.00    +0.000 C 
ATOM     91  C66 UNL A   1      36.670  22.891  23.737  1.00  0.00    +0.000 C 
ATOM     92  C67 UNL A   1      36.693  21.799  24.607  1.00  0.00    +0.000 C 
ATOM     93 Cl1  UNL A   1      38.196  21.224  25.216  1.00  0.00    +0.000 Cl
ATOM     94  C68 UNL A   1      35.509  21.161  24.980  1.00  0.00    +0.000 C 
ATOM     95  C69 UNL A   1      34.296  21.591  24.446  1.00  0.00    +0.000 C 
ENDBRANCH   87   89
ENDBRANCH   86   87
ENDBRANCH    4    3
ENDBRANCH    5    4
ENDBRANCH    7    5
ENDBRANCH    8    7
ENDBRANCH    9    8
ENDBRANCH   10    9
ENDBRANCH   11   10
ENDBRANCH   12   11
ENDBRANCH   13   12
ENDBRANCH   14   13
ENDBRANCH   15   14
ENDBRANCH   17   15
ENDBRANCH   21   20
BRANCH   25   26
ATOM     33  C25 UNL A   1      43.857  26.783  36.852  1.00  0.00    +0.000 C 
ATOM     34  F4  UNL A   1      43.887  27.046  38.166  1.00  0.00    +0.000 F 
ATOM     35  C26 UNL A   1      43.774  27.839  35.945  1.00  0.00    +0.000 C 
ATOM     36  F5  UNL A   1      43.664  29.052  36.496  1.00  0.00    +0.000 F 
ATOM     26  C21 UNL A   1      43.694  27.634  34.550  1.00  0.00    +0.000 C 
ATOM     27  C22 UNL A   1      43.737  26.287  34.134  1.00  0.00    +0.000 C 
ATOM     28  F1  UNL A   1      43.654  25.969  32.832  1.00  0.00    +0.000 F 
ATOM     29  C23 UNL A   1      43.770  25.230  35.048  1.00  0.00    +0.000 C 
ATOM     30  F2  UNL A   1      43.680  23.967  34.610  1.00  0.00    +0.000 F 
ATOM     31  C24 UNL A   1      43.821  25.480  36.408  1.00  0.00    +0.000 C 
ATOM     32  F3  UNL A   1      43.786  24.471  37.287  1.00  0.00    +0.000 F 
ENDBRANCH   25   26
BRANCH   42   43
ATOM     43  C32 UNL A   1      45.323  30.119  28.372  1.00  0.00    +0.000 C 
ATOM     44  C33 UNL A   1      44.229  30.750  27.756  1.00  0.00    +0.000 C 
ATOM     45  F6  UNL A   1      42.972  30.452  28.116  1.00  0.00    +0.000 F 
ATOM     46  C34 UNL A   1      44.416  31.746  26.798  1.00  0.00    +0.000 C 
ATOM     47  F7  UNL A   1      43.357  32.333  26.219  1.00  0.00    +0.000 F 
ATOM     48  C35 UNL A   1      45.696  32.164  26.472  1.00  0.00    +0.000 C 
ATOM     49  F8  UNL A   1      45.877  33.157  25.590  1.00  0.00    +0.000 F 
ATOM     50  C36 UNL A   1      46.790  31.573  27.086  1.00  0.00    +0.000 C 
ATOM     51  F9  UNL A   1      48.027  32.008  26.812  1.00  0.00    +0.000 F 
ATOM     52  C37 UNL A   1      46.606  30.553  28.014  1.00  0.00    +0.000 C 
ATOM     53  F10 UNL A   1      47.685  30.022  28.610  1.00  0.00    +0.000 F 
ENDBRANCH   42   43
BRANCH   57   58
ATOM     65  C45 UNL A   1      42.305  22.278  26.616  1.00  0.00    +0.000 C 
ATOM     66  F14 UNL A   1      41.744  21.260  27.282  1.00  0.00    +0.000 F 
ATOM     67  C46 UNL A   1      42.129  23.585  27.075  1.00  0.00    +0.000 C 
ATOM     68  F15 UNL A   1      41.416  23.747  28.198  1.00  0.00    +0.000 F 
ATOM     58  C41 UNL A   1      42.758  24.682  26.454  1.00  0.00    +0.000 C 
ATOM     59  C42 UNL A   1      43.539  24.395  25.322  1.00  0.00    +0.000 C 
ATOM     60  F11 UNL A   1      44.205  25.376  24.694  1.00  0.00    +0.000 F 
ATOM     61  C43 UNL A   1      43.717  23.083  24.865  1.00  0.00    +0.000 C 
ATOM     62  F12 UNL A   1      44.528  22.842  23.824  1.00  0.00    +0.000 F 
ATOM     63  C44 UNL A   1      43.112  22.026  25.522  1.00  0.00    +0.000 C 
ATOM     64  F13 UNL A   1      43.339  20.764  25.129  1.00  0.00    +0.000 F 
ENDBRANCH   57   58
TORSDOF 19
ENDMDL
MODEL 5
REMARK VINA RESULT:     -11.8      3.941      8.375
ROOT
ATOM     21  C17 UNL A   1      41.776  27.964  28.272  1.00  0.00    +0.000 C 
ATOM     22  C18 UNL A   1      42.045  26.650  27.624  1.00  0.00    +0.000 C 
ATOM     23  N3  UNL A   1      42.504  25.575  28.177  1.00  0.00    +0.000 N 
ATOM     24  C19 UNL A   1      42.583  24.626  27.162  1.00  0.00    +0.000 C 
ATOM     25  C20 UNL A   1      43.400  23.542  27.269  1.00  0.00    +0.000 C 
ATOM     37  C27 UNL A   1      43.746  23.284  28.643  1.00  0.00    +0.000 C 
ATOM     38  C28 UNL A   1      43.047  22.901  29.769  1.00  0.00    +0.000 C 
ATOM     39  C29 UNL A   1      43.673  23.594  30.848  1.00  0.00    +0.000 C 
ATOM     40  C30 UNL A   1      44.748  24.314  30.327  1.00  0.00    +0.000 C 
ATOM     41  N4  UNL A   1      44.954  23.751  29.095  1.00  0.00    +0.000 N 
ATOM     42  C31 UNL A   1      45.483  25.457  30.810  1.00  0.00    +0.000 C 
ATOM     54  C38 UNL A   1      46.231  26.288  30.028  1.00  0.00    +0.000 C 
ATOM     55  N5  UNL A   1      46.531  27.575  30.446  1.00  0.00    +0.000 N 
ATOM     56  C39 UNL A   1      46.701  28.248  29.342  1.00  0.00    +0.000 C 
ATOM     57  C40 UNL A   1      46.229  29.643  29.156  1.00  0.00    +0.000 C 
ATOM     69  C47 UNL A   1      44.872  29.600  29.160  1.00  0.00    +0.000 C 
ATOM     70  C48 UNL A   1      43.899  30.647  29.389  1.00  0.00    +0.000 C 
ATOM     71  C49 UNL A   1      42.662  30.126  29.245  1.00  0.00    +0.000 C 
ATOM     72  C50 UNL A   1      42.761  28.749  28.757  1.00  0.00    +0.000 C 
ATOM     73  N6  UNL A   1      44.107  28.461  28.838  1.00  0.00    +0.000 N 
ATOM     74  C51 UNL A   1      46.948  27.454  28.150  1.00  0.00    +0.000 C 
ATOM     75  C52 UNL A   1      46.564  26.260  28.607  1.00  0.00    +0.000 C 
ATOM     76  C53 UNL A   1      41.885  25.179  26.031  1.00  0.00    +0.000 C 
ATOM     77  C54 UNL A   1      41.599  26.465  26.234  1.00  0.00    +0.000 C 
ATOM    117  H22 UNL A   1      42.246  22.252  29.821  1.00  0.00    +0.000 H 
ATOM    118  H23 UNL A   1      43.381  23.568  31.837  1.00  0.00    +0.000 H 
ATOM    119  H24 UNL A   1      45.814  23.692  28.620  1.00  0.00    +0.000 H 
ATOM    120  H25 UNL A   1      44.115  31.628  29.625  1.00  0.00    +0.000 H 
ATOM    121  H26 UNL A   1      41.780  30.623  29.446  1.00  0.00    +0.000 H 
ATOM    122  H27 UNL A   1      44.488  27.565  28.689  1.00  0.00    +0.000 H 
ATOM    123  H28 UNL A   1      47.313  27.731  27.225  1.00  0.00    +0.000 H 
ATOM    124  H29 UNL A   1      46.509  25.412  28.021  1.00  0.00    +0.000 H 
ATOM    125  H30 UNL A   1      41.639  24.650  25.179  1.00  0.00    +0.000 H 
ATOM    126  H31 UNL A   1      41.175  27.149  25.588  1.00  0.00    +0.000 H 
ENDROOT
BRANCH   21   20
ATOM     78  C55 UNL A   1      39.790  29.085  27.275  1.00  0.00    +0.000 C 
ATOM     79  C56 UNL A   1      38.459  29.463  27.387  1.00  0.00    +0.000 C 
ATOM     17  C13 UNL A   1      37.682  29.082  28.498  1.00  0.00    +0.000 C 
ATOM     18  C14 UNL A   1      38.235  28.200  29.424  1.00  0.00    +0.000 C 
ATOM     19  C15 UNL A   1      39.576  27.845  29.338  1.00  0.00    +0.000 C 
ATOM    115  H20 UNL A   1      37.648  27.810  30.178  1.00  0.00    +0.000 H 
ATOM    116  H21 UNL A   1      39.989  27.217  30.044  1.00  0.00    +0.000 H 
ATOM     20  C16 UNL A   1      40.366  28.338  28.295  1.00  0.00    +0.000 C 
ATOM    127  H32 UNL A   1      40.345  29.355  26.448  1.00  0.00    +0.000 H 
ATOM    128  H33 UNL A   1      38.032  30.034  26.642  1.00  0.00    +0.000 H 
BRANCH   17   15
ATOM     15  C12 UNL A   1      36.360  29.753  28.621  1.00  0.00    +0.000 C 
ATOM     16  O2  UNL A   1      36.025  30.199  29.721  1.00  0.00    +0.000 O 
BRANCH   15   14
ATOM    114  H19 UNL A   1      35.589  29.202  26.897  1.00  0.00    +0.000 H 
ATOM     14  N2  UNL A   1      35.431  29.847  27.624  1.00  0.00    +0.000 N 
BRANCH   14   13
ATOM    113  H18 UNL A   1      34.402  31.144  26.435  1.00  0.00    +0.000 H 
ATOM     13  C11 UNL A   1      34.266  30.676  27.387  1.00  0.00    +0.000 C 
ATOM    112  H17 UNL A   1      34.191  31.387  28.184  1.00  0.00    +0.000 H 
BRANCH   13   12
ATOM     12  C10 UNL A   1      32.958  29.887  27.318  1.00  0.00    +0.000 C 
ATOM    110  H15 UNL A   1      32.370  30.136  28.176  1.00  0.00    +0.000 H 
ATOM    111  H16 UNL A   1      32.482  30.159  26.399  1.00  0.00    +0.000 H 
BRANCH   12   11
ATOM     11  C9  UNL A   1      33.146  28.366  27.287  1.00  0.00    +0.000 C 
ATOM    108  H13 UNL A   1      34.161  28.152  27.547  1.00  0.00    +0.000 H 
ATOM    109  H14 UNL A   1      32.435  27.963  27.976  1.00  0.00    +0.000 H 
BRANCH   11   10
ATOM     10  C8  UNL A   1      32.853  27.706  25.935  1.00  0.00    +0.000 C 
ATOM    107  H12 UNL A   1      31.882  28.043  25.638  1.00  0.00    +0.000 H 
ATOM    106  H11 UNL A   1      32.910  26.645  26.062  1.00  0.00    +0.000 H 
BRANCH   10    9
ATOM      9  C7  UNL A   1      33.812  28.102  24.806  1.00  0.00    +0.000 C 
ATOM    105  H10 UNL A   1      34.079  27.207  24.287  1.00  0.00    +0.000 H 
ATOM    104  H9  UNL A   1      34.664  28.587  25.238  1.00  0.00    +0.000 H 
BRANCH    9    8
ATOM    102  H7  UNL A   1      33.477  30.052  24.010  1.00  0.00    +0.000 H 
ATOM    103  H8  UNL A   1      33.521  28.764  22.809  1.00  0.00    +0.000 H 
ATOM      8  C6  UNL A   1      33.183  29.049  23.784  1.00  0.00    +0.000 C 
BRANCH    8    7
ATOM    101  H6  UNL A   1      31.317  29.033  24.694  1.00  0.00    +0.000 H 
ATOM      7  N1  UNL A   1      31.736  28.966  23.806  1.00  0.00    +0.000 N 
BRANCH    7    5
ATOM      5  C5  UNL A   1      30.881  28.808  22.754  1.00  0.00    +0.000 C 
ATOM      6  O1  UNL A   1      30.598  29.797  22.074  1.00  0.00    +0.000 O 
BRANCH    5    4
ATOM    100  H5  UNL A   1      30.257  27.307  21.423  1.00  0.00    +0.000 H 
ATOM     99  H4  UNL A   1      29.257  27.453  22.886  1.00  0.00    +0.000 H 
ATOM      4  C4  UNL A   1      30.249  27.450  22.483  1.00  0.00    +0.000 C 
BRANCH    4    3
ATOM    129  H34 UNL A   1      28.891  26.533  25.051  1.00  0.00    +0.000 H 
ATOM      2  C2  UNL A   1      32.167  25.710  22.611  1.00  0.00    +0.000 C 
ATOM      3  C3  UNL A   1      31.005  26.300  23.088  1.00  0.00    +0.000 C 
ATOM    132  H37 UNL A   1      32.353  23.251  25.968  1.00  0.00    +0.000 H 
ATOM    130  H35 UNL A   1      28.750  25.135  27.025  1.00  0.00    +0.000 H 
ATOM    131  H36 UNL A   1      30.486  23.529  27.494  1.00  0.00    +0.000 H 
ATOM     80  C57 UNL A   1      30.666  25.637  24.300  1.00  0.00    +0.000 C 
ATOM     81  C58 UNL A   1      29.611  25.815  25.224  1.00  0.00    +0.000 C 
ATOM     82  C59 UNL A   1      29.540  25.026  26.372  1.00  0.00    +0.000 C 
ATOM     83  C60 UNL A   1      30.533  24.098  26.633  1.00  0.00    +0.000 C 
ATOM     84  C61 UNL A   1      31.598  23.919  25.745  1.00  0.00    +0.000 C 
ATOM     85  C62 UNL A   1      31.635  24.656  24.542  1.00  0.00    +0.000 C 
ATOM     86  N7  UNL A   1      32.484  24.611  23.424  1.00  0.00    +0.000 N 
BRANCH    2    1
ATOM      1  C1  UNL A   1      32.976  26.088  21.407  1.00  0.00    +0.000 C 
ATOM     98  H3  UNL A   1      34.016  26.072  21.657  1.00  0.00    +0.000 H 
ATOM     97  H2  UNL A   1      32.788  25.390  20.618  1.00  0.00    +0.000 H 
ATOM     96  H1  UNL A   1      32.700  27.072  21.088  1.00  0.00    +0.000 H 
ENDBRANCH    2    1
BRANCH   86   87
ATOM     87  C63 UNL A   1      33.486  23.637  23.128  1.00  0.00    +0.000 C 
ATOM     88  O3  UNL A   1      33.279  22.824  22.234  1.00  0.00    +0.000 O 
BRANCH   87   89
ATOM    133  H38 UNL A   1      35.613  22.086  22.467  1.00  0.00    +0.000 H 
ATOM    134  H39 UNL A   1      37.672  21.806  23.739  1.00  0.00    +0.000 H 
ATOM    135  H40 UNL A   1      36.404  24.758  26.460  1.00  0.00    +0.000 H 
ATOM    136  H41 UNL A   1      34.324  25.004  25.222  1.00  0.00    +0.000 H 
ATOM     89  C64 UNL A   1      34.788  23.505  23.803  1.00  0.00    +0.000 C 
ATOM     90  C65 UNL A   1      35.766  22.623  23.335  1.00  0.00    +0.000 C 
ATOM     91  C66 UNL A   1      36.955  22.478  24.056  1.00  0.00    +0.000 C 
ATOM     92  C67 UNL A   1      37.171  23.243  25.204  1.00  0.00    +0.000 C 
ATOM     93 Cl1  UNL A   1      38.614  23.026  26.115  1.00  0.00    +0.000 Cl
ATOM     94  C68 UNL A   1      36.222  24.174  25.628  1.00  0.00    +0.000 C 
ATOM     95  C69 UNL A   1      35.028  24.312  24.922  1.00  0.00    +0.000 C 
ENDBRANCH   87   89
ENDBRANCH   86   87
ENDBRANCH    4    3
ENDBRANCH    5    4
ENDBRANCH    7    5
ENDBRANCH    8    7
ENDBRANCH    9    8
ENDBRANCH   10    9
ENDBRANCH   11   10
ENDBRANCH   12   11
ENDBRANCH   13   12
ENDBRANCH   14   13
ENDBRANCH   15   14
ENDBRANCH   17   15
ENDBRANCH   21   20
BRANCH   25   26
ATOM     33  C25 UNL A   1      46.146  22.941  24.647  1.00  0.00    +0.000 C 
ATOM     34  F4  UNL A   1      47.153  23.626  24.085  1.00  0.00    +0.000 F 
ATOM     35  C26 UNL A   1      45.235  23.611  25.462  1.00  0.00    +0.000 C 
ATOM     36  F5  UNL A   1      45.499  24.906  25.662  1.00  0.00    +0.000 F 
ATOM     26  C21 UNL A   1      44.178  22.946  26.120  1.00  0.00    +0.000 C 
ATOM     27  C22 UNL A   1      44.086  21.561  25.871  1.00  0.00    +0.000 C 
ATOM     28  F1  UNL A   1      43.130  20.821  26.453  1.00  0.00    +0.000 F 
ATOM     29  C23 UNL A   1      45.031  20.885  25.093  1.00  0.00    +0.000 C 
ATOM     30  F2  UNL A   1      44.976  19.550  24.990  1.00  0.00    +0.000 F 
ATOM     31  C24 UNL A   1      46.066  21.575  24.489  1.00  0.00    +0.000 C 
ATOM     32  F3  UNL A   1      47.009  20.921  23.799  1.00  0.00    +0.000 F 
ENDBRANCH   25   26
BRANCH   42   43
ATOM     43  C32 UNL A   1      45.212  25.887  32.226  1.00  0.00    +0.000 C 
ATOM     44  C33 UNL A   1      44.080  26.624  32.616  1.00  0.00    +0.000 C 
ATOM     45  F6  UNL A   1      43.185  27.041  31.709  1.00  0.00    +0.000 F 
ATOM     46  C34 UNL A   1      43.820  26.891  33.960  1.00  0.00    +0.000 C 
ATOM     47  F7  UNL A   1      42.737  27.599  34.310  1.00  0.00    +0.000 F 
ATOM     48  C35 UNL A   1      44.659  26.387  34.942  1.00  0.00    +0.000 C 
ATOM     49  F8  UNL A   1      44.382  26.598  36.237  1.00  0.00    +0.000 F 
ATOM     50  C36 UNL A   1      45.767  25.637  34.582  1.00  0.00    +0.000 C 
ATOM     51  F9  UNL A   1      46.552  25.105  35.529  1.00  0.00    +0.000 F 
ATOM     52  C37 UNL A   1      46.048  25.402  33.239  1.00  0.00    +0.000 C 
ATOM     53  F10 UNL A   1      47.113  24.647  32.927  1.00  0.00    +0.000 F 
ENDBRANCH   42   43
BRANCH   57   58
ATOM     65  C45 UNL A   1      48.723  32.500  29.087  1.00  0.00    +0.000 C 
ATOM     66  F14 UNL A   1      49.613  33.056  29.921  1.00  0.00    +0.000 F 
ATOM     67  C46 UNL A   1      48.113  31.293  29.431  1.00  0.00    +0.000 C 
ATOM     68  F15 UNL A   1      48.440  30.760  30.617  1.00  0.00    +0.000 F 
ATOM     58  C41 UNL A   1      47.118  30.705  28.626  1.00  0.00    +0.000 C 
ATOM     59  C42 UNL A   1      46.801  31.381  27.434  1.00  0.00    +0.000 C 
ATOM     60  F11 UNL A   1      45.837  30.912  26.629  1.00  0.00    +0.000 F 
ATOM     61  C43 UNL A   1      47.412  32.593  27.092  1.00  0.00    +0.000 C 
ATOM     62  F12 UNL A   1      47.031  33.244  25.982  1.00  0.00    +0.000 F 
ATOM     63  C44 UNL A   1      48.361  33.159  27.926  1.00  0.00    +0.000 C 
ATOM     64  F13 UNL A   1      48.893  34.355  27.636  1.00  0.00    +0.000 F 
ENDBRANCH   57   58
TORSDOF 19
ENDMDL
MODEL 6
REMARK VINA RESULT:     -11.8      3.609      9.117
ROOT
ATOM     21  C17 UNL A   1      40.092  28.950  30.358  1.00  0.00    +0.000 C 
ATOM     22  C18 UNL A   1      40.804  28.749  31.650  1.00  0.00    +0.000 C 
ATOM     23  N3  UNL A   1      42.008  29.112  31.954  1.00  0.00    +0.000 N 
ATOM     24  C19 UNL A   1      42.214  28.696  33.266  1.00  0.00    +0.000 C 
ATOM     25  C20 UNL A   1      43.469  28.525  33.765  1.00  0.00    +0.000 C 
ATOM     37  C27 UNL A   1      44.443  29.242  32.985  1.00  0.00    +0.000 C 
ATOM     38  C28 UNL A   1      44.699  30.574  32.730  1.00  0.00    +0.000 C 
ATOM     39  C29 UNL A   1      45.143  30.614  31.376  1.00  0.00    +0.000 C 
ATOM     40  C30 UNL A   1      45.186  29.304  30.901  1.00  0.00    +0.000 C 
ATOM     41  N4  UNL A   1      45.145  28.541  32.038  1.00  0.00    +0.000 N 
ATOM     42  C31 UNL A   1      45.171  28.747  29.571  1.00  0.00    +0.000 C 
ATOM     54  C38 UNL A   1      44.819  27.463  29.268  1.00  0.00    +0.000 C 
ATOM     55  N5  UNL A   1      44.399  27.126  27.991  1.00  0.00    +0.000 N 
ATOM     56  C39 UNL A   1      43.625  26.091  28.162  1.00  0.00    +0.000 C 
ATOM     57  C40 UNL A   1      42.372  25.875  27.396  1.00  0.00    +0.000 C 
ATOM     69  C47 UNL A   1      41.503  26.843  27.786  1.00  0.00    +0.000 C 
ATOM     70  C48 UNL A   1      40.312  27.353  27.141  1.00  0.00    +0.000 C 
ATOM     71  C49 UNL A   1      39.755  28.289  27.938  1.00  0.00    +0.000 C 
ATOM     72  C50 UNL A   1      40.464  28.329  29.219  1.00  0.00    +0.000 C 
ATOM     73  N6  UNL A   1      41.565  27.524  29.018  1.00  0.00    +0.000 N 
ATOM     74  C51 UNL A   1      43.770  25.396  29.431  1.00  0.00    +0.000 C 
ATOM     75  C52 UNL A   1      44.449  26.326  30.105  1.00  0.00    +0.000 C 
ATOM     76  C53 UNL A   1      40.929  28.291  33.772  1.00  0.00    +0.000 C 
ATOM     77  C54 UNL A   1      40.032  28.227  32.788  1.00  0.00    +0.000 C 
ATOM    117  H22 UNL A   1      44.593  31.370  33.379  1.00  0.00    +0.000 H 
ATOM    118  H23 UNL A   1      45.389  31.463  30.842  1.00  0.00    +0.000 H 
ATOM    119  H24 UNL A   1      45.546  27.650  32.155  1.00  0.00    +0.000 H 
ATOM    120  H25 UNL A   1      39.949  27.051  26.223  1.00  0.00    +0.000 H 
ATOM    121  H26 UNL A   1      38.952  28.885  27.685  1.00  0.00    +0.000 H 
ATOM    122  H27 UNL A   1      42.307  27.435  29.660  1.00  0.00    +0.000 H 
ATOM    123  H28 UNL A   1      43.445  24.460  29.722  1.00  0.00    +0.000 H 
ATOM    124  H29 UNL A   1      44.687  26.249  31.107  1.00  0.00    +0.000 H 
ATOM    125  H30 UNL A   1      40.729  28.079  34.762  1.00  0.00    +0.000 H 
ATOM    126  H31 UNL A   1      39.053  27.900  32.816  1.00  0.00    +0.000 H 
ENDROOT
BRANCH   21   20
ATOM     78  C55 UNL A   1      39.051  31.207  30.226  1.00  0.00    +0.000 C 
ATOM     79  C56 UNL A   1      37.929  32.010  30.388  1.00  0.00    +0.000 C 
ATOM     17  C13 UNL A   1      36.683  31.459  30.746  1.00  0.00    +0.000 C 
ATOM     18  C14 UNL A   1      36.561  30.072  30.802  1.00  0.00    +0.000 C 
ATOM     19  C15 UNL A   1      37.685  29.265  30.675  1.00  0.00    +0.000 C 
ATOM    115  H20 UNL A   1      35.633  29.642  30.940  1.00  0.00    +0.000 H 
ATOM    116  H21 UNL A   1      37.594  28.241  30.749  1.00  0.00    +0.000 H 
ATOM     20  C16 UNL A   1      38.939  29.841  30.447  1.00  0.00    +0.000 C 
ATOM    127  H32 UNL A   1      39.955  31.619  29.947  1.00  0.00    +0.000 H 
ATOM    128  H33 UNL A   1      38.011  33.028  30.245  1.00  0.00    +0.000 H 
BRANCH   17   15
ATOM     15  C12 UNL A   1      35.632  32.439  31.130  1.00  0.00    +0.000 C 
ATOM     16  O2  UNL A   1      34.959  32.217  32.139  1.00  0.00    +0.000 O 
BRANCH   15   14
ATOM    114  H19 UNL A   1      35.700  34.366  30.745  1.00  0.00    +0.000 H 
ATOM     14  N2  UNL A   1      35.283  33.543  30.404  1.00  0.00    +0.000 N 
BRANCH   14   13
ATOM    113  H18 UNL A   1      34.528  34.821  29.008  1.00  0.00    +0.000 H 
ATOM     13  C11 UNL A   1      34.444  33.782  29.248  1.00  0.00    +0.000 C 
ATOM    112  H17 UNL A   1      33.441  33.501  29.495  1.00  0.00    +0.000 H 
BRANCH   13   12
ATOM     12  C10 UNL A   1      34.873  32.999  28.006  1.00  0.00    +0.000 C 
ATOM    110  H15 UNL A   1      34.765  33.635  27.153  1.00  0.00    +0.000 H 
ATOM    111  H16 UNL A   1      35.886  32.695  28.168  1.00  0.00    +0.000 H 
BRANCH   12   11
ATOM     11  C9  UNL A   1      34.062  31.721  27.762  1.00  0.00    +0.000 C 
ATOM    108  H13 UNL A   1      33.370  31.608  28.569  1.00  0.00    +0.000 H 
ATOM    109  H14 UNL A   1      33.590  31.845  26.810  1.00  0.00    +0.000 H 
BRANCH   11   10
ATOM     10  C8  UNL A   1      34.892  30.436  27.665  1.00  0.00    +0.000 C 
ATOM    107  H12 UNL A   1      34.812  29.952  28.615  1.00  0.00    +0.000 H 
ATOM    106  H11 UNL A   1      35.896  30.706  27.412  1.00  0.00    +0.000 H 
BRANCH   10    9
ATOM      9  C7  UNL A   1      34.393  29.427  26.623  1.00  0.00    +0.000 C 
ATOM    105  H10 UNL A   1      35.249  28.912  26.244  1.00  0.00    +0.000 H 
ATOM    104  H9  UNL A   1      33.871  29.961  25.856  1.00  0.00    +0.000 H 
BRANCH    9    8
ATOM    102  H7  UNL A   1      34.031  27.564  27.596  1.00  0.00    +0.000 H 
ATOM    103  H8  UNL A   1      32.871  28.832  27.981  1.00  0.00    +0.000 H 
ATOM      8  C6  UNL A   1      33.451  28.373  27.207  1.00  0.00    +0.000 C 
BRANCH    8    7
ATOM    101  H6  UNL A   1      31.753  28.418  26.011  1.00  0.00    +0.000 H 
ATOM      7  N1  UNL A   1      32.542  27.861  26.200  1.00  0.00    +0.000 N 
BRANCH    7    5
ATOM      5  C5  UNL A   1      32.640  26.704  25.482  1.00  0.00    +0.000 C 
ATOM      6  O1  UNL A   1      32.766  26.783  24.257  1.00  0.00    +0.000 O 
BRANCH    5    4
ATOM    100  H5  UNL A   1      31.489  25.203  26.396  1.00  0.00    +0.000 H 
ATOM     99  H4  UNL A   1      33.124  25.390  27.071  1.00  0.00    +0.000 H 
ATOM      4  C4  UNL A   1      32.527  25.359  26.184  1.00  0.00    +0.000 C 
BRANCH    4    3
ATOM    129  H34 UNL A   1      35.551  25.052  26.367  1.00  0.00    +0.000 H 
ATOM      2  C2  UNL A   1      32.198  23.363  24.561  1.00  0.00    +0.000 C 
ATOM      3  C3  UNL A   1      32.983  24.198  25.344  1.00  0.00    +0.000 C 
ATOM    132  H37 UNL A   1      35.597  21.410  23.153  1.00  0.00    +0.000 H 
ATOM    130  H35 UNL A   1      37.644  23.993  25.759  1.00  0.00    +0.000 H 
ATOM    131  H36 UNL A   1      37.667  22.207  24.140  1.00  0.00    +0.000 H 
ATOM     80  C57 UNL A   1      34.332  23.779  25.180  1.00  0.00    +0.000 C 
ATOM     81  C58 UNL A   1      35.552  24.258  25.709  1.00  0.00    +0.000 C 
ATOM     82  C59 UNL A   1      36.759  23.663  25.344  1.00  0.00    +0.000 C 
ATOM     83  C60 UNL A   1      36.769  22.631  24.422  1.00  0.00    +0.000 C 
ATOM     84  C61 UNL A   1      35.576  22.155  23.868  1.00  0.00    +0.000 C 
ATOM     85  C62 UNL A   1      34.345  22.697  24.292  1.00  0.00    +0.000 C 
ATOM     86  N7  UNL A   1      33.010  22.354  24.021  1.00  0.00    +0.000 N 
BRANCH    2    1
ATOM      1  C1  UNL A   1      30.719  23.427  24.325  1.00  0.00    +0.000 C 
ATOM     98  H3  UNL A   1      30.398  22.534  23.832  1.00  0.00    +0.000 H 
ATOM     97  H2  UNL A   1      30.213  23.519  25.262  1.00  0.00    +0.000 H 
ATOM     96  H1  UNL A   1      30.493  24.275  23.712  1.00  0.00    +0.000 H 
ENDBRANCH    2    1
BRANCH   86   87
ATOM     87  C63 UNL A   1      32.528  21.197  23.336  1.00  0.00    +0.000 C 
ATOM     88  O3  UNL A   1      32.019  21.329  22.230  1.00  0.00    +0.000 O 
BRANCH   87   89
ATOM    133  H38 UNL A   1      32.660  20.297  25.894  1.00  0.00    +0.000 H 
ATOM    134  H39 UNL A   1      32.918  17.986  26.621  1.00  0.00    +0.000 H 
ATOM    135  H40 UNL A   1      32.584  16.683  22.633  1.00  0.00    +0.000 H 
ATOM    136  H41 UNL A   1      32.377  18.992  21.896  1.00  0.00    +0.000 H 
ATOM     89  C64 UNL A   1      32.584  19.812  23.835  1.00  0.00    +0.000 C 
ATOM     90  C65 UNL A   1      32.683  19.533  25.201  1.00  0.00    +0.000 C 
ATOM     91  C66 UNL A   1      32.812  18.204  25.618  1.00  0.00    +0.000 C 
ATOM     92  C67 UNL A   1      32.796  17.174  24.676  1.00  0.00    +0.000 C 
ATOM     93 Cl1  UNL A   1      33.003  15.545  25.189  1.00  0.00    +0.000 Cl
ATOM     94  C68 UNL A   1      32.626  17.453  23.319  1.00  0.00    +0.000 C 
ATOM     95  C69 UNL A   1      32.513  18.776  22.896  1.00  0.00    +0.000 C 
ENDBRANCH   87   89
ENDBRANCH   86   87
ENDBRANCH    4    3
ENDBRANCH    5    4
ENDBRANCH    7    5
ENDBRANCH    8    7
ENDBRANCH    9    8
ENDBRANCH   10    9
ENDBRANCH   11   10
ENDBRANCH   12   11
ENDBRANCH   13   12
ENDBRANCH   14   13
ENDBRANCH   15   14
ENDBRANCH   17   15
ENDBRANCH   21   20
BRANCH   25   26
ATOM     33  C25 UNL A   1      44.075  26.558  37.013  1.00  0.00    +0.000 C 
ATOM     34  F4  UNL A   1      44.210  26.815  38.322  1.00  0.00    +0.000 F 
ATOM     35  C26 UNL A   1      44.044  27.618  36.108  1.00  0.00    +0.000 C 
ATOM     36  F5  UNL A   1      44.091  28.835  36.658  1.00  0.00    +0.000 F 
ATOM     26  C21 UNL A   1      43.861  27.423  34.721  1.00  0.00    +0.000 C 
ATOM     27  C22 UNL A   1      43.743  26.079  34.309  1.00  0.00    +0.000 C 
ATOM     28  F1  UNL A   1      43.551  25.773  33.017  1.00  0.00    +0.000 F 
ATOM     29  C23 UNL A   1      43.724  25.023  35.226  1.00  0.00    +0.000 C 
ATOM     30  F2  UNL A   1      43.480  23.776  34.799  1.00  0.00    +0.000 F 
ATOM     31  C24 UNL A   1      43.880  25.265  36.578  1.00  0.00    +0.000 C 
ATOM     32  F3  UNL A   1      43.797  24.263  37.463  1.00  0.00    +0.000 F 
ENDBRANCH   25   26
BRANCH   42   43
ATOM     43  C32 UNL A   1      45.331  29.714  28.430  1.00  0.00    +0.000 C 
ATOM     44  C33 UNL A   1      44.271  30.457  27.881  1.00  0.00    +0.000 C 
ATOM     45  F6  UNL A   1      43.016  30.296  28.324  1.00  0.00    +0.000 F 
ATOM     46  C34 UNL A   1      44.499  31.427  26.905  1.00  0.00    +0.000 C 
ATOM     47  F7  UNL A   1      43.473  32.122  26.392  1.00  0.00    +0.000 F 
ATOM     48  C35 UNL A   1      45.793  31.707  26.493  1.00  0.00    +0.000 C 
ATOM     49  F8  UNL A   1      46.019  32.674  25.593  1.00  0.00    +0.000 F 
ATOM     50  C36 UNL A   1      46.855  31.003  27.038  1.00  0.00    +0.000 C 
ATOM     51  F9  UNL A   1      48.111  31.304  26.681  1.00  0.00    +0.000 F 
ATOM     52  C37 UNL A   1      46.626  30.009  27.985  1.00  0.00    +0.000 C 
ATOM     53  F10 UNL A   1      47.680  29.368  28.513  1.00  0.00    +0.000 F 
ENDBRANCH   42   43
BRANCH   57   58
ATOM     65  C45 UNL A   1      41.041  22.364  26.853  1.00  0.00    +0.000 C 
ATOM     66  F14 UNL A   1      40.143  21.548  27.422  1.00  0.00    +0.000 F 
ATOM     67  C46 UNL A   1      41.103  23.703  27.242  1.00  0.00    +0.000 C 
ATOM     68  F15 UNL A   1      40.260  24.098  28.207  1.00  0.00    +0.000 F 
ATOM     58  C41 UNL A   1      42.076  24.583  26.729  1.00  0.00    +0.000 C 
ATOM     59  C42 UNL A   1      42.956  24.050  25.771  1.00  0.00    +0.000 C 
ATOM     60  F11 UNL A   1      43.937  24.808  25.260  1.00  0.00    +0.000 F 
ATOM     61  C43 UNL A   1      42.894  22.706  25.384  1.00  0.00    +0.000 C 
ATOM     62  F12 UNL A   1      43.796  22.216  24.521  1.00  0.00    +0.000 F 
ATOM     63  C44 UNL A   1      41.946  21.862  25.937  1.00  0.00    +0.000 C 
ATOM     64  F13 UNL A   1      41.932  20.559  25.621  1.00  0.00    +0.000 F 
ENDBRANCH   57   58
TORSDOF 19
ENDMDL
MODEL 7
REMARK VINA RESULT:     -11.7      1.532      2.252
ROOT
ATOM     21  C17 UNL A   1      41.078  28.187  28.509  1.00  0.00    +0.000 C 
ATOM     22  C18 UNL A   1      42.183  29.114  28.140  1.00  0.00    +0.000 C 
ATOM     23  N3  UNL A   1      43.056  29.656  28.925  1.00  0.00    +0.000 N 
ATOM     24  C19 UNL A   1      43.869  30.440  28.112  1.00  0.00    +0.000 C 
ATOM     25  C20 UNL A   1      44.605  31.465  28.624  1.00  0.00    +0.000 C 
ATOM     37  C27 UNL A   1      44.791  31.313  30.044  1.00  0.00    +0.000 C 
ATOM     38  C28 UNL A   1      45.447  30.405  30.849  1.00  0.00    +0.000 C 
ATOM     39  C29 UNL A   1      44.633  30.286  32.014  1.00  0.00    +0.000 C 
ATOM     40  C30 UNL A   1      43.560  31.166  31.877  1.00  0.00    +0.000 C 
ATOM     41  N4  UNL A   1      43.956  32.013  30.876  1.00  0.00    +0.000 N 
ATOM     42  C31 UNL A   1      42.257  31.220  32.494  1.00  0.00    +0.000 C 
ATOM     54  C38 UNL A   1      41.181  31.885  31.982  1.00  0.00    +0.000 C 
ATOM     55  N5  UNL A   1      39.892  31.543  32.359  1.00  0.00    +0.000 N 
ATOM     56  C39 UNL A   1      39.150  31.892  31.345  1.00  0.00    +0.000 C 
ATOM     57  C40 UNL A   1      37.999  31.088  30.862  1.00  0.00    +0.000 C 
ATOM     69  C47 UNL A   1      38.511  29.938  30.352  1.00  0.00    +0.000 C 
ATOM     70  C48 UNL A   1      37.881  28.661  30.093  1.00  0.00    +0.000 C 
ATOM     71  C49 UNL A   1      38.792  27.835  29.538  1.00  0.00    +0.000 C 
ATOM     72  C50 UNL A   1      40.023  28.575  29.257  1.00  0.00    +0.000 C 
ATOM     73  N6  UNL A   1      39.828  29.794  29.872  1.00  0.00    +0.000 N 
ATOM     74  C51 UNL A   1      39.750  32.837  30.418  1.00  0.00    +0.000 C 
ATOM     75  C52 UNL A   1      41.023  32.734  30.804  1.00  0.00    +0.000 C 
ATOM     76  C53 UNL A   1      43.539  30.096  26.754  1.00  0.00    +0.000 C 
ATOM     77  C54 UNL A   1      42.445  29.337  26.710  1.00  0.00    +0.000 C 
ATOM    117  H22 UNL A   1      46.336  29.918  30.653  1.00  0.00    +0.000 H 
ATOM    118  H23 UNL A   1      44.806  29.659  32.815  1.00  0.00    +0.000 H 
ATOM    119  H24 UNL A   1      43.689  32.955  30.773  1.00  0.00    +0.000 H 
ATOM    120  H25 UNL A   1      36.898  28.422  30.300  1.00  0.00    +0.000 H 
ATOM    121  H26 UNL A   1      38.643  26.833  29.340  1.00  0.00    +0.000 H 
ATOM    122  H27 UNL A   1      40.527  30.482  29.965  1.00  0.00    +0.000 H 
ATOM    123  H28 UNL A   1      39.319  33.417  29.680  1.00  0.00    +0.000 H 
ATOM    124  H29 UNL A   1      41.808  33.202  30.325  1.00  0.00    +0.000 H 
ATOM    125  H30 UNL A   1      44.079  30.397  25.926  1.00  0.00    +0.000 H 
ATOM    126  H31 UNL A   1      41.920  28.994  25.890  1.00  0.00    +0.000 H 
ENDROOT
BRANCH   21   20
ATOM     78  C55 UNL A   1      42.109  25.922  28.493  1.00  0.00    +0.000 C 
ATOM     79  C56 UNL A   1      42.242  24.682  27.884  1.00  0.00    +0.000 C 
ATOM     17  C13 UNL A   1      41.475  24.338  26.754  1.00  0.00    +0.000 C 
ATOM     18  C14 UNL A   1      40.477  25.215  26.336  1.00  0.00    +0.000 C 
ATOM     19  C15 UNL A   1      40.361  26.471  26.919  1.00  0.00    +0.000 C 
ATOM    115  H20 UNL A   1      39.822  24.932  25.590  1.00  0.00    +0.000 H 
ATOM    116  H21 UNL A   1      39.640  27.129  26.584  1.00  0.00    +0.000 H 
ATOM     20  C16 UNL A   1      41.219  26.844  27.958  1.00  0.00    +0.000 C 
ATOM    127  H32 UNL A   1      42.663  26.157  29.332  1.00  0.00    +0.000 H 
ATOM    128  H33 UNL A   1      42.916  24.001  28.266  1.00  0.00    +0.000 H 
BRANCH   17   15
ATOM     15  C12 UNL A   1      41.887  23.092  26.051  1.00  0.00    +0.000 C 
ATOM     16  O2  UNL A   1      42.964  23.082  25.451  1.00  0.00    +0.000 O 
BRANCH   15   14
ATOM    114  H19 UNL A   1      41.489  21.324  25.287  1.00  0.00    +0.000 H 
ATOM     14  N2  UNL A   1      41.124  21.964  25.940  1.00  0.00    +0.000 N 
BRANCH   14   13
ATOM    113  H18 UNL A   1      39.703  22.134  27.391  1.00  0.00    +0.000 H 
ATOM     13  C11 UNL A   1      39.904  21.490  26.561  1.00  0.00    +0.000 C 
ATOM    112  H17 UNL A   1      40.052  20.473  26.861  1.00  0.00    +0.000 H 
BRANCH   13   12
ATOM     12  C10 UNL A   1      38.685  21.550  25.640  1.00  0.00    +0.000 C 
ATOM    110  H15 UNL A   1      39.023  21.461  24.629  1.00  0.00    +0.000 H 
ATOM    111  H16 UNL A   1      38.039  20.748  25.930  1.00  0.00    +0.000 H 
BRANCH   12   11
ATOM     11  C9  UNL A   1      37.870  22.842  25.764  1.00  0.00    +0.000 C 
ATOM    108  H13 UNL A   1      37.414  22.855  26.731  1.00  0.00    +0.000 H 
ATOM    109  H14 UNL A   1      38.559  23.645  25.607  1.00  0.00    +0.000 H 
BRANCH   11   10
ATOM     10  C8  UNL A   1      36.766  23.014  24.715  1.00  0.00    +0.000 C 
ATOM    107  H12 UNL A   1      37.257  23.086  23.767  1.00  0.00    +0.000 H 
ATOM    106  H11 UNL A   1      36.203  23.889  24.964  1.00  0.00    +0.000 H 
BRANCH   10    9
ATOM      9  C7  UNL A   1      35.793  21.834  24.608  1.00  0.00    +0.000 C 
ATOM    105  H10 UNL A   1      36.364  20.939  24.733  1.00  0.00    +0.000 H 
ATOM    104  H9  UNL A   1      35.312  21.875  23.652  1.00  0.00    +0.000 H 
BRANCH    9    8
ATOM    102  H7  UNL A   1      33.777  21.574  25.254  1.00  0.00    +0.000 H 
ATOM    103  H8  UNL A   1      34.995  21.135  26.448  1.00  0.00    +0.000 H 
ATOM      8  C6  UNL A   1      34.715  21.840  25.693  1.00  0.00    +0.000 C 
BRANCH    8    7
ATOM    101  H6  UNL A   1      35.430  23.538  26.650  1.00  0.00    +0.000 H 
ATOM      7  N1  UNL A   1      34.594  23.145  26.312  1.00  0.00    +0.000 N 
BRANCH    7    5
ATOM      5  C5  UNL A   1      33.469  23.899  26.484  1.00  0.00    +0.000 C 
ATOM      6  O1  UNL A   1      32.438  23.336  26.859  1.00  0.00    +0.000 O 
BRANCH    5    4
ATOM    100  H5  UNL A   1      34.479  25.618  25.823  1.00  0.00    +0.000 H 
ATOM     99  H4  UNL A   1      33.208  25.930  27.027  1.00  0.00    +0.000 H 
ATOM      4  C4  UNL A   1      33.488  25.383  26.150  1.00  0.00    +0.000 C 
BRANCH    4    3
ATOM    129  H34 UNL A   1      34.495  24.257  23.505  1.00  0.00    +0.000 H 
ATOM      2  C2  UNL A   1      31.401  26.530  25.124  1.00  0.00    +0.000 C 
ATOM      3  C3  UNL A   1      32.555  25.764  25.034  1.00  0.00    +0.000 C 
ATOM    132  H37 UNL A   1      30.934  26.396  20.987  1.00  0.00    +0.000 H 
ATOM    130  H35 UNL A   1      34.359  23.966  21.103  1.00  0.00    +0.000 H 
ATOM    131  H36 UNL A   1      32.610  25.054  19.853  1.00  0.00    +0.000 H 
ATOM     80  C57 UNL A   1      32.727  25.425  23.664  1.00  0.00    +0.000 C 
ATOM     81  C58 UNL A   1      33.718  24.686  22.979  1.00  0.00    +0.000 C 
ATOM     82  C59 UNL A   1      33.654  24.535  21.595  1.00  0.00    +0.000 C 
ATOM     83  C60 UNL A   1      32.642  25.153  20.880  1.00  0.00    +0.000 C 
ATOM     84  C61 UNL A   1      31.663  25.908  21.533  1.00  0.00    +0.000 C 
ATOM     85  C62 UNL A   1      31.674  25.999  22.940  1.00  0.00    +0.000 C 
ATOM     86  N7  UNL A   1      30.781  26.564  23.865  1.00  0.00    +0.000 N 
BRANCH    2    1
ATOM      1  C1  UNL A   1      30.818  27.197  26.333  1.00  0.00    +0.000 C 
ATOM     98  H3  UNL A   1      29.946  27.749  26.050  1.00  0.00    +0.000 H 
ATOM     97  H2  UNL A   1      30.552  26.456  27.056  1.00  0.00    +0.000 H 
ATOM     96  H1  UNL A   1      31.541  27.865  26.754  1.00  0.00    +0.000 H 
ENDBRANCH    2    1
BRANCH   86   87
ATOM     87  C63 UNL A   1      29.472  27.076  23.613  1.00  0.00    +0.000 C 
ATOM     88  O3  UNL A   1      28.498  26.402  23.928  1.00  0.00    +0.000 O 
BRANCH   87   89
ATOM    133  H38 UNL A   1      31.036  28.666  22.065  1.00  0.00    +0.000 H 
ATOM    134  H39 UNL A   1      30.487  30.885  21.223  1.00  0.00    +0.000 H 
ATOM    135  H40 UNL A   1      26.592  30.524  22.779  1.00  0.00    +0.000 H 
ATOM    136  H41 UNL A   1      27.150  28.329  23.666  1.00  0.00    +0.000 H 
ATOM     89  C64 UNL A   1      29.157  28.376  22.997  1.00  0.00    +0.000 C 
ATOM     90  C65 UNL A   1      30.107  29.077  22.248  1.00  0.00    +0.000 C 
ATOM     91  C66 UNL A   1      29.784  30.343  21.750  1.00  0.00    +0.000 C 
ATOM     92  C67 UNL A   1      28.510  30.872  21.965  1.00  0.00    +0.000 C 
ATOM     93 Cl1  UNL A   1      28.132  32.449  21.392  1.00  0.00    +0.000 Cl
ATOM     94  C68 UNL A   1      27.542  30.138  22.652  1.00  0.00    +0.000 C 
ATOM     95  C69 UNL A   1      27.862  28.883  23.165  1.00  0.00    +0.000 C 
ENDBRANCH   87   89
ENDBRANCH   86   87
ENDBRANCH    4    3
ENDBRANCH    5    4
ENDBRANCH    7    5
ENDBRANCH    8    7
ENDBRANCH    9    8
ENDBRANCH   10    9
ENDBRANCH   11   10
ENDBRANCH   12   11
ENDBRANCH   13   12
ENDBRANCH   14   13
ENDBRANCH   15   14
ENDBRANCH   17   15
ENDBRANCH   21   20
BRANCH   25   26
ATOM     33  C25 UNL A   1      44.379  35.185  27.678  1.00  0.00    +0.000 C 
ATOM     34  F4  UNL A   1      43.539  36.212  27.871  1.00  0.00    +0.000 F 
ATOM     35  C26 UNL A   1      43.987  33.900  28.054  1.00  0.00    +0.000 C 
ATOM     36  F5  UNL A   1      42.792  33.824  28.649  1.00  0.00    +0.000 F 
ATOM     26  C21 UNL A   1      44.836  32.781  27.921  1.00  0.00    +0.000 C 
ATOM     27  C22 UNL A   1      46.099  33.044  27.350  1.00  0.00    +0.000 C 
ATOM     28  F1  UNL A   1      46.996  32.060  27.187  1.00  0.00    +0.000 F 
ATOM     29  C23 UNL A   1      46.507  34.341  27.022  1.00  0.00    +0.000 C 
ATOM     30  F2  UNL A   1      47.762  34.558  26.604  1.00  0.00    +0.000 F 
ATOM     31  C24 UNL A   1      45.649  35.411  27.195  1.00  0.00    +0.000 C 
ATOM     32  F3  UNL A   1      46.060  36.661  26.943  1.00  0.00    +0.000 F 
ENDBRANCH   25   26
BRANCH   42   43
ATOM     43  C32 UNL A   1      42.017  30.291  33.652  1.00  0.00    +0.000 C 
ATOM     44  C33 UNL A   1      41.654  28.940  33.508  1.00  0.00    +0.000 C 
ATOM     45  F6  UNL A   1      41.443  28.411  32.295  1.00  0.00    +0.000 F 
ATOM     46  C34 UNL A   1      41.562  28.096  34.614  1.00  0.00    +0.000 C 
ATOM     47  F7  UNL A   1      41.210  26.811  34.455  1.00  0.00    +0.000 F 
ATOM     48  C35 UNL A   1      41.877  28.570  35.878  1.00  0.00    +0.000 C 
ATOM     49  F8  UNL A   1      41.840  27.747  36.935  1.00  0.00    +0.000 F 
ATOM     50  C36 UNL A   1      42.261  29.892  36.040  1.00  0.00    +0.000 C 
ATOM     51  F9  UNL A   1      42.615  30.343  37.252  1.00  0.00    +0.000 F 
ATOM     52  C37 UNL A   1      42.317  30.746  34.942  1.00  0.00    +0.000 C 
ATOM     53  F10 UNL A   1      42.720  32.011  35.131  1.00  0.00    +0.000 F 
ENDBRANCH   42   43
BRANCH   57   58
ATOM     65  C45 UNL A   1      35.258  33.105  29.186  1.00  0.00    +0.000 C 
ATOM     66  F14 UNL A   1      35.027  33.652  27.985  1.00  0.00    +0.000 F 
ATOM     67  C46 UNL A   1      36.339  32.239  29.355  1.00  0.00    +0.000 C 
ATOM     68  F15 UNL A   1      37.120  32.022  28.288  1.00  0.00    +0.000 F 
ATOM     58  C41 UNL A   1      36.669  31.697  30.613  1.00  0.00    +0.000 C 
ATOM     59  C42 UNL A   1      35.824  32.043  31.682  1.00  0.00    +0.000 C 
ATOM     60  F11 UNL A   1      36.088  31.602  32.921  1.00  0.00    +0.000 F 
ATOM     61  C43 UNL A   1      34.741  32.914  31.511  1.00  0.00    +0.000 C 
ATOM     62  F12 UNL A   1      34.001  33.276  32.569  1.00  0.00    +0.000 F 
ATOM     63  C44 UNL A   1      34.469  33.455  30.266  1.00  0.00    +0.000 C 
ATOM     64  F13 UNL A   1      33.477  34.345  30.116  1.00  0.00    +0.000 F 
ENDBRANCH   57   58
TORSDOF 19
ENDMDL
MODEL 8
REMARK VINA RESULT:     -11.5      2.112      4.055
ROOT
ATOM     21  C17 UNL A   1      40.894  27.810  28.968  1.00  0.00    +0.000 C 
ATOM     22  C18 UNL A   1      42.077  28.595  28.520  1.00  0.00    +0.000 C 
ATOM     23  N3  UNL A   1      43.087  28.979  29.231  1.00  0.00    +0.000 N 
ATOM     24  C19 UNL A   1      43.920  29.682  28.365  1.00  0.00    +0.000 C 
ATOM     25  C20 UNL A   1      44.835  30.575  28.834  1.00  0.00    +0.000 C 
ATOM     37  C27 UNL A   1      45.131  30.337  30.223  1.00  0.00    +0.000 C 
ATOM     38  C28 UNL A   1      45.729  29.314  30.931  1.00  0.00    +0.000 C 
ATOM     39  C29 UNL A   1      45.018  29.254  32.166  1.00  0.00    +0.000 C 
ATOM     40  C30 UNL A   1      44.069  30.276  32.163  1.00  0.00    +0.000 C 
ATOM     41  N4  UNL A   1      44.483  31.106  31.154  1.00  0.00    +0.000 N 
ATOM     42  C31 UNL A   1      42.850  30.478  32.907  1.00  0.00    +0.000 C 
ATOM     54  C38 UNL A   1      41.833  31.304  32.525  1.00  0.00    +0.000 C 
ATOM     55  N5  UNL A   1      40.550  31.122  33.017  1.00  0.00    +0.000 N 
ATOM     56  C39 UNL A   1      39.771  31.612  32.093  1.00  0.00    +0.000 C 
ATOM     57  C40 UNL A   1      38.480  30.992  31.702  1.00  0.00    +0.000 C 
ATOM     69  C47 UNL A   1      38.778  29.808  31.109  1.00  0.00    +0.000 C 
ATOM     70  C48 UNL A   1      37.956  28.640  30.874  1.00  0.00    +0.000 C 
ATOM     71  C49 UNL A   1      38.688  27.724  30.206  1.00  0.00    +0.000 C 
ATOM     72  C50 UNL A   1      39.978  28.303  29.828  1.00  0.00    +0.000 C 
ATOM     73  N6  UNL A   1      40.012  29.509  30.497  1.00  0.00    +0.000 N 
ATOM     74  C51 UNL A   1      40.407  32.508  31.141  1.00  0.00    +0.000 C 
ATOM     75  C52 UNL A   1      41.684  32.217  31.396  1.00  0.00    +0.000 C 
ATOM     76  C53 UNL A   1      43.420  29.446  27.036  1.00  0.00    +0.000 C 
ATOM     77  C54 UNL A   1      42.231  28.843  27.078  1.00  0.00    +0.000 C 
ATOM    117  H22 UNL A   1      46.519  28.721  30.633  1.00  0.00    +0.000 H 
ATOM    118  H23 UNL A   1      45.178  28.575  32.926  1.00  0.00    +0.000 H 
ATOM    119  H24 UNL A   1      44.340  32.078  31.107  1.00  0.00    +0.000 H 
ATOM    120  H25 UNL A   1      36.974  28.527  31.170  1.00  0.00    +0.000 H 
ATOM    121  H26 UNL A   1      38.384  26.761  29.993  1.00  0.00    +0.000 H 
ATOM    122  H27 UNL A   1      40.805  30.092  30.540  1.00  0.00    +0.000 H 
ATOM    123  H28 UNL A   1      39.992  33.172  30.468  1.00  0.00    +0.000 H 
ATOM    124  H29 UNL A   1      42.477  32.596  30.856  1.00  0.00    +0.000 H 
ATOM    125  H30 UNL A   1      43.915  29.707  26.169  1.00  0.00    +0.000 H 
ATOM    126  H31 UNL A   1      41.590  28.611  26.304  1.00  0.00    +0.000 H 
ENDROOT
BRANCH   21   20
ATOM     78  C55 UNL A   1      39.845  26.192  27.396  1.00  0.00    +0.000 C 
ATOM     79  C56 UNL A   1      39.761  24.895  26.905  1.00  0.00    +0.000 C 
ATOM     17  C13 UNL A   1      40.637  23.887  27.354  1.00  0.00    +0.000 C 
ATOM     18  C14 UNL A   1      41.682  24.244  28.202  1.00  0.00    +0.000 C 
ATOM     19  C15 UNL A   1      41.752  25.531  28.723  1.00  0.00    +0.000 C 
ATOM    115  H20 UNL A   1      42.407  23.551  28.446  1.00  0.00    +0.000 H 
ATOM    116  H21 UNL A   1      42.510  25.781  29.375  1.00  0.00    +0.000 H 
ATOM     20  C16 UNL A   1      40.795  26.485  28.364  1.00  0.00    +0.000 C 
ATOM    127  H32 UNL A   1      39.209  26.926  27.047  1.00  0.00    +0.000 H 
ATOM    128  H33 UNL A   1      39.043  24.667  26.200  1.00  0.00    +0.000 H 
BRANCH   17   15
ATOM     15  C12 UNL A   1      40.286  22.500  26.945  1.00  0.00    +0.000 C 
ATOM     16  O2  UNL A   1      40.773  21.558  27.575  1.00  0.00    +0.000 O 
BRANCH   15   14
ATOM    114  H19 UNL A   1      40.048  22.122  25.030  1.00  0.00    +0.000 H 
ATOM     14  N2  UNL A   1      39.523  22.169  25.861  1.00  0.00    +0.000 N 
BRANCH   14   13
ATOM    113  H18 UNL A   1      37.854  21.106  26.348  1.00  0.00    +0.000 H 
ATOM     13  C11 UNL A   1      38.120  21.872  25.651  1.00  0.00    +0.000 C 
ATOM    112  H17 UNL A   1      37.990  21.562  24.635  1.00  0.00    +0.000 H 
BRANCH   13   12
ATOM     12  C10 UNL A   1      37.196  23.062  25.916  1.00  0.00    +0.000 C 
ATOM    110  H15 UNL A   1      37.177  23.244  26.969  1.00  0.00    +0.000 H 
ATOM    111  H16 UNL A   1      37.590  23.888  25.361  1.00  0.00    +0.000 H 
BRANCH   12   11
ATOM     11  C9  UNL A   1      35.755  22.853  25.436  1.00  0.00    +0.000 C 
ATOM    108  H13 UNL A   1      35.752  22.900  24.367  1.00  0.00    +0.000 H 
ATOM    109  H14 UNL A   1      35.447  21.905  25.821  1.00  0.00    +0.000 H 
BRANCH   11   10
ATOM     10  C8  UNL A   1      34.744  23.879  25.960  1.00  0.00    +0.000 C 
ATOM    107  H12 UNL A   1      35.115  24.214  26.905  1.00  0.00    +0.000 H 
ATOM    106  H11 UNL A   1      33.789  23.401  26.028  1.00  0.00    +0.000 H 
BRANCH   10    9
ATOM      9  C7  UNL A   1      34.590  25.131  25.088  1.00  0.00    +0.000 C 
ATOM    105  H10 UNL A   1      33.911  24.887  24.299  1.00  0.00    +0.000 H 
ATOM    104  H9  UNL A   1      35.556  25.408  24.718  1.00  0.00    +0.000 H 
BRANCH    9    8
ATOM    102  H7  UNL A   1      33.424  25.963  26.668  1.00  0.00    +0.000 H 
ATOM    103  H8  UNL A   1      34.807  26.939  26.182  1.00  0.00    +0.000 H 
ATOM      8  C6  UNL A   1      34.000  26.323  25.843  1.00  0.00    +0.000 C 
BRANCH    8    7
ATOM    101  H6  UNL A   1      32.608  27.811  25.438  1.00  0.00    +0.000 H 
ATOM      7  N1  UNL A   1      33.146  27.121  24.986  1.00  0.00    +0.000 N 
BRANCH    7    5
ATOM      5  C5  UNL A   1      32.993  27.040  23.631  1.00  0.00    +0.000 C 
ATOM      6  O1  UNL A   1      33.820  27.605  22.912  1.00  0.00    +0.000 O 
BRANCH    5    4
ATOM    100  H5  UNL A   1      31.872  26.388  21.978  1.00  0.00    +0.000 H 
ATOM     99  H4  UNL A   1      30.899  26.802  23.408  1.00  0.00    +0.000 H 
ATOM      4  C4  UNL A   1      31.785  26.325  23.043  1.00  0.00    +0.000 C 
BRANCH    4    3
ATOM    129  H34 UNL A   1      30.334  25.943  25.693  1.00  0.00    +0.000 H 
ATOM      2  C2  UNL A   1      32.238  23.799  22.670  1.00  0.00    +0.000 C 
ATOM      3  C3  UNL A   1      31.718  24.865  23.393  1.00  0.00    +0.000 C 
ATOM    132  H37 UNL A   1      31.112  21.148  25.681  1.00  0.00    +0.000 H 
ATOM    130  H35 UNL A   1      29.504  24.571  27.511  1.00  0.00    +0.000 H 
ATOM    131  H36 UNL A   1      29.920  22.197  27.517  1.00  0.00    +0.000 H 
ATOM     80  C57 UNL A   1      31.130  24.325  24.569  1.00  0.00    +0.000 C 
ATOM     81  C58 UNL A   1      30.473  24.921  25.670  1.00  0.00    +0.000 C 
ATOM     82  C59 UNL A   1      30.014  24.136  26.727  1.00  0.00    +0.000 C 
ATOM     83  C60 UNL A   1      30.245  22.771  26.723  1.00  0.00    +0.000 C 
ATOM     84  C61 UNL A   1      30.912  22.161  25.656  1.00  0.00    +0.000 C 
ATOM     85  C62 UNL A   1      31.308  22.936  24.546  1.00  0.00    +0.000 C 
ATOM     86  N7  UNL A   1      31.871  22.601  23.303  1.00  0.00    +0.000 N 
BRANCH    2    1
ATOM      1  C1  UNL A   1      33.022  23.834  21.394  1.00  0.00    +0.000 C 
ATOM     98  H3  UNL A   1      33.509  24.782  21.301  1.00  0.00    +0.000 H 
ATOM     97  H2  UNL A   1      33.754  23.055  21.403  1.00  0.00    +0.000 H 
ATOM     96  H1  UNL A   1      32.359  23.692  20.565  1.00  0.00    +0.000 H 
ENDBRANCH    2    1
BRANCH   86   87
ATOM     87  C63 UNL A   1      32.042  21.297  22.746  1.00  0.00    +0.000 C 
ATOM     88  O3  UNL A   1      31.575  21.057  21.639  1.00  0.00    +0.000 O 
BRANCH   87   89
ATOM    133  H38 UNL A   1      34.039  21.345  24.585  1.00  0.00    +0.000 H 
ATOM    134  H39 UNL A   1      35.268  19.432  25.459  1.00  0.00    +0.000 H 
ATOM    135  H40 UNL A   1      32.729  16.821  23.349  1.00  0.00    +0.000 H 
ATOM    136  H41 UNL A   1      31.530  18.728  22.432  1.00  0.00    +0.000 H 
ATOM     89  C64 UNL A   1      32.751  20.173  23.381  1.00  0.00    +0.000 C 
ATOM     90  C65 UNL A   1      33.787  20.387  24.294  1.00  0.00    +0.000 C 
ATOM     91  C66 UNL A   1      34.480  19.287  24.810  1.00  0.00    +0.000 C 
ATOM     92  C67 UNL A   1      34.102  17.993  24.445  1.00  0.00    +0.000 C 
ATOM     93 Cl1  UNL A   1      34.987  16.645  25.044  1.00  0.00    +0.000 Cl
ATOM     94  C68 UNL A   1      33.021  17.782  23.589  1.00  0.00    +0.000 C 
ATOM     95  C69 UNL A   1      32.337  18.874  23.058  1.00  0.00    +0.000 C 
ENDBRANCH   87   89
ENDBRANCH   86   87
ENDBRANCH    4    3
ENDBRANCH    5    4
ENDBRANCH    7    5
ENDBRANCH    8    7
ENDBRANCH    9    8
ENDBRANCH   10    9
ENDBRANCH   11   10
ENDBRANCH   12   11
ENDBRANCH   13   12
ENDBRANCH   14   13
ENDBRANCH   15   14
ENDBRANCH   17   15
ENDBRANCH   21   20
BRANCH   25   26
ATOM     33  C25 UNL A   1      46.548  33.162  26.563  1.00  0.00    +0.000 C 
ATOM     34  F4  UNL A   1      47.705  33.293  25.900  1.00  0.00    +0.000 F 
ATOM     35  C26 UNL A   1      46.385  32.101  27.453  1.00  0.00    +0.000 C 
ATOM     36  F5  UNL A   1      47.415  31.250  27.514  1.00  0.00    +0.000 F 
ATOM     26  C21 UNL A   1      45.179  31.877  28.151  1.00  0.00    +0.000 C 
ATOM     27  C22 UNL A   1      44.158  32.820  27.912  1.00  0.00    +0.000 C 
ATOM     28  F1  UNL A   1      42.962  32.702  28.510  1.00  0.00    +0.000 F 
ATOM     29  C23 UNL A   1      44.307  33.853  26.982  1.00  0.00    +0.000 C 
ATOM     30  F2  UNL A   1      43.265  34.646  26.694  1.00  0.00    +0.000 F 
ATOM     31  C24 UNL A   1      45.499  34.017  26.301  1.00  0.00    +0.000 C 
ATOM     32  F3  UNL A   1      45.623  34.964  25.362  1.00  0.00    +0.000 F 
ENDBRANCH   25   26
BRANCH   42   43
ATOM     43  C32 UNL A   1      42.594  29.539  34.054  1.00  0.00    +0.000 C 
ATOM     44  C33 UNL A   1      41.938  28.303  33.921  1.00  0.00    +0.000 C 
ATOM     45  F6  UNL A   1      41.445  27.911  32.738  1.00  0.00    +0.000 F 
ATOM     46  C34 UNL A   1      41.835  27.421  34.997  1.00  0.00    +0.000 C 
ATOM     47  F7  UNL A   1      41.202  26.247  34.848  1.00  0.00    +0.000 F 
ATOM     48  C35 UNL A   1      42.425  27.735  36.211  1.00  0.00    +0.000 C 
ATOM     49  F8  UNL A   1      42.372  26.866  37.230  1.00  0.00    +0.000 F 
ATOM     50  C36 UNL A   1      43.098  28.937  36.358  1.00  0.00    +0.000 C 
ATOM     51  F9  UNL A   1      43.713  29.224  37.514  1.00  0.00    +0.000 F 
ATOM     52  C37 UNL A   1      43.169  29.836  35.297  1.00  0.00    +0.000 C 
ATOM     53  F10 UNL A   1      43.852  30.978  35.465  1.00  0.00    +0.000 F 
ENDBRANCH   42   43
BRANCH   57   58
ATOM     65  C45 UNL A   1      35.931  33.487  30.411  1.00  0.00    +0.000 C 
ATOM     66  F14 UNL A   1      35.699  34.168  29.280  1.00  0.00    +0.000 F 
ATOM     67  C46 UNL A   1      36.897  32.479  30.426  1.00  0.00    +0.000 C 
ATOM     68  F15 UNL A   1      37.573  32.265  29.288  1.00  0.00    +0.000 F 
ATOM     58  C41 UNL A   1      37.230  31.785  31.605  1.00  0.00    +0.000 C 
ATOM     59  C42 UNL A   1      36.507  32.134  32.759  1.00  0.00    +0.000 C 
ATOM     60  F11 UNL A   1      36.788  31.551  33.934  1.00  0.00    +0.000 F 
ATOM     61  C43 UNL A   1      35.541  33.147  32.744  1.00  0.00    +0.000 C 
ATOM     62  F12 UNL A   1      34.923  33.501  33.881  1.00  0.00    +0.000 F 
ATOM     63  C44 UNL A   1      35.265  33.832  31.572  1.00  0.00    +0.000 C 
ATOM     64  F13 UNL A   1      34.393  34.850  31.572  1.00  0.00    +0.000 F 
ENDBRANCH   57   58
TORSDOF 19
ENDMDL
MODEL 9
REMARK VINA RESULT:     -11.4     26.139     32.573
ROOT
ATOM     21  C17 UNL A   1      22.080  18.504   4.991  1.00  0.00    +0.000 C 
ATOM     22  C18 UNL A   1      21.630  17.117   4.689  1.00  0.00    +0.000 C 
ATOM     23  N3  UNL A   1      21.328  16.183   5.531  1.00  0.00    +0.000 N 
ATOM     24  C19 UNL A   1      20.974  15.076   4.765  1.00  0.00    +0.000 C 
ATOM     25  C20 UNL A   1      21.011  13.817   5.282  1.00  0.00    +0.000 C 
ATOM     37  C27 UNL A   1      20.983  13.843   6.721  1.00  0.00    +0.000 C 
ATOM     38  C28 UNL A   1      20.062  14.234   7.671  1.00  0.00    +0.000 C 
ATOM     39  C29 UNL A   1      20.836  14.790   8.731  1.00  0.00    +0.000 C 
ATOM     40  C30 UNL A   1      22.183  14.657   8.393  1.00  0.00    +0.000 C 
ATOM     41  N4  UNL A   1      22.177  13.730   7.384  1.00  0.00    +0.000 N 
ATOM     42  C31 UNL A   1      23.373  15.340   8.837  1.00  0.00    +0.000 C 
ATOM     54  C38 UNL A   1      24.548  15.387   8.144  1.00  0.00    +0.000 C 
ATOM     55  N5  UNL A   1      25.473  16.390   8.384  1.00  0.00    +0.000 N 
ATOM     56  C39 UNL A   1      26.125  16.512   7.262  1.00  0.00    +0.000 C 
ATOM     57  C40 UNL A   1      26.555  17.819   6.706  1.00  0.00    +0.000 C 
ATOM     69  C47 UNL A   1      25.425  18.486   6.356  1.00  0.00    +0.000 C 
ATOM     70  C48 UNL A   1      25.199  19.897   6.123  1.00  0.00    +0.000 C 
ATOM     71  C49 UNL A   1      23.914  20.074   5.753  1.00  0.00    +0.000 C 
ATOM     72  C50 UNL A   1      23.270  18.772   5.569  1.00  0.00    +0.000 C 
ATOM     73  N6  UNL A   1      24.193  17.870   6.056  1.00  0.00    +0.000 N 
ATOM     74  C51 UNL A   1      26.017  15.390   6.344  1.00  0.00    +0.000 C 
ATOM     75  C52 UNL A   1      24.972  14.767   6.892  1.00  0.00    +0.000 C 
ATOM     76  C53 UNL A   1      20.854  15.541   3.408  1.00  0.00    +0.000 C 
ATOM     77  C54 UNL A   1      21.327  16.782   3.289  1.00  0.00    +0.000 C 
ATOM    117  H22 UNL A   1      19.035  14.142   7.626  1.00  0.00    +0.000 H 
ATOM    118  H23 UNL A   1      20.466  15.217   9.595  1.00  0.00    +0.000 H 
ATOM    119  H24 UNL A   1      22.901  13.097   7.174  1.00  0.00    +0.000 H 
ATOM    120  H25 UNL A   1      25.905  20.644   6.225  1.00  0.00    +0.000 H 
ATOM    121  H26 UNL A   1      23.454  20.988   5.618  1.00  0.00    +0.000 H 
ATOM    122  H27 UNL A   1      24.013  16.910   6.180  1.00  0.00    +0.000 H 
ATOM    123  H28 UNL A   1      26.582  15.147   5.515  1.00  0.00    +0.000 H 
ATOM    124  H29 UNL A   1      24.515  13.939   6.478  1.00  0.00    +0.000 H 
ATOM    125  H30 UNL A   1      20.455  14.988   2.633  1.00  0.00    +0.000 H 
ATOM    126  H31 UNL A   1      21.448  17.356   2.440  1.00  0.00    +0.000 H 
ENDROOT
BRANCH   21   20
ATOM     78  C55 UNL A   1      19.868  19.637   5.115  1.00  0.00    +0.000 C 
ATOM     79  C56 UNL A   1      19.000  20.605   4.626  1.00  0.00    +0.000 C 
ATOM     17  C13 UNL A   1      19.398  21.497   3.612  1.00  0.00    +0.000 C 
ATOM     18  C14 UNL A   1      20.728  21.483   3.198  1.00  0.00    +0.000 C 
ATOM     19  C15 UNL A   1      21.592  20.497   3.657  1.00  0.00    +0.000 C 
ATOM    115  H20 UNL A   1      21.073  22.207   2.548  1.00  0.00    +0.000 H 
ATOM    116  H21 UNL A   1      22.568  20.472   3.324  1.00  0.00    +0.000 H 
ATOM     20  C16 UNL A   1      21.142  19.539   4.570  1.00  0.00    +0.000 C 
ATOM    127  H32 UNL A   1      19.572  19.000   5.871  1.00  0.00    +0.000 H 
ATOM    128  H33 UNL A   1      18.046  20.669   5.013  1.00  0.00    +0.000 H 
BRANCH   17   15
ATOM     15  C12 UNL A   1      18.309  22.311   3.006  1.00  0.00    +0.000 C 
ATOM     16  O2  UNL A   1      17.174  22.223   3.480  1.00  0.00    +0.000 O 
BRANCH   15   14
ATOM    114  H19 UNL A   1      19.138  23.786   2.003  1.00  0.00    +0.000 H 
ATOM     14  N2  UNL A   1      18.441  23.099   1.898  1.00  0.00    +0.000 N 
BRANCH   14   13
ATOM    113  H18 UNL A   1      17.957  24.142   0.215  1.00  0.00    +0.000 H 
ATOM     13  C11 UNL A   1      17.794  23.159   0.603  1.00  0.00    +0.000 C 
ATOM    112  H17 UNL A   1      16.755  22.940   0.735  1.00  0.00    +0.000 H 
BRANCH   13   12
ATOM     12  C10 UNL A   1      18.370  22.173  -0.415  1.00  0.00    +0.000 C 
ATOM    110  H15 UNL A   1      19.390  21.981  -0.156  1.00  0.00    +0.000 H 
ATOM    111  H16 UNL A   1      17.761  21.294  -0.372  1.00  0.00    +0.000 H 
BRANCH   12   11
ATOM     11  C9  UNL A   1      18.326  22.672  -1.863  1.00  0.00    +0.000 C 
ATOM    108  H13 UNL A   1      17.456  22.260  -2.330  1.00  0.00    +0.000 H 
ATOM    109  H14 UNL A   1      18.314  23.741  -1.811  1.00  0.00    +0.000 H 
BRANCH   11   10
ATOM     10  C8  UNL A   1      19.544  22.298  -2.714  1.00  0.00    +0.000 C 
ATOM    107  H12 UNL A   1      19.649  23.070  -3.448  1.00  0.00    +0.000 H 
ATOM    106  H11 UNL A   1      19.370  21.333  -3.141  1.00  0.00    +0.000 H 
BRANCH   10    9
ATOM      9  C7  UNL A   1      20.871  22.248  -1.948  1.00  0.00    +0.000 C 
ATOM    105  H10 UNL A   1      21.633  21.979  -2.648  1.00  0.00    +0.000 H 
ATOM    104  H9  UNL A   1      20.780  21.531  -1.158  1.00  0.00    +0.000 H 
BRANCH    9    8
ATOM    102  H7  UNL A   1      20.438  23.989  -0.795  1.00  0.00    +0.000 H 
ATOM    103  H8  UNL A   1      22.107  23.435  -0.692  1.00  0.00    +0.000 H 
ATOM      8  C6  UNL A   1      21.269  23.593  -1.339  1.00  0.00    +0.000 C 
BRANCH    8    7
ATOM    101  H6  UNL A   1      22.438  24.292  -2.907  1.00  0.00    +0.000 H 
ATOM      7  N1  UNL A   1      21.657  24.543  -2.363  1.00  0.00    +0.000 N 
BRANCH    7    5
ATOM      5  C5  UNL A   1      21.078  25.740  -2.670  1.00  0.00    +0.000 C 
ATOM      6  O1  UNL A   1      21.709  26.534  -3.372  1.00  0.00    +0.000 O 
BRANCH    5    4
ATOM    100  H5  UNL A   1      19.432  25.299  -1.440  1.00  0.00    +0.000 H 
ATOM     99  H4  UNL A   1      19.028  26.222  -2.906  1.00  0.00    +0.000 H 
ATOM      4  C4  UNL A   1      19.715  26.097  -2.094  1.00  0.00    +0.000 C 
BRANCH    4    3
ATOM    129  H34 UNL A   1      21.687  25.850   0.214  1.00  0.00    +0.000 H 
ATOM      2  C2  UNL A   1      18.943  28.494  -1.474  1.00  0.00    +0.000 C 
ATOM      3  C3  UNL A   1      19.716  27.358  -1.275  1.00  0.00    +0.000 C 
ATOM    132  H37 UNL A   1      20.458  30.191   2.017  1.00  0.00    +0.000 H 
ATOM    130  H35 UNL A   1      22.769  26.688   2.214  1.00  0.00    +0.000 H 
ATOM    131  H36 UNL A   1      22.134  28.828   3.124  1.00  0.00    +0.000 H 
ATOM     80  C57 UNL A   1      20.501  27.584  -0.111  1.00  0.00    +0.000 C 
ATOM     81  C58 UNL A   1      21.446  26.786   0.575  1.00  0.00    +0.000 C 
ATOM     82  C59 UNL A   1      22.054  27.258   1.737  1.00  0.00    +0.000 C 
ATOM     83  C60 UNL A   1      21.695  28.492   2.252  1.00  0.00    +0.000 C 
ATOM     84  C61 UNL A   1      20.746  29.289   1.604  1.00  0.00    +0.000 C 
ATOM     85  C62 UNL A   1      20.186  28.855   0.384  1.00  0.00    +0.000 C 
ATOM     86  N7  UNL A   1      19.325  29.470  -0.540  1.00  0.00    +0.000 N 
BRANCH    2    1
ATOM      1  C1  UNL A   1      17.897  28.737  -2.518  1.00  0.00    +0.000 C 
ATOM     98  H3  UNL A   1      18.301  29.360  -3.288  1.00  0.00    +0.000 H 
ATOM     97  H2  UNL A   1      17.589  27.803  -2.939  1.00  0.00    +0.000 H 
ATOM     96  H1  UNL A   1      17.054  29.223  -2.071  1.00  0.00    +0.000 H 
ENDBRANCH    2    1
BRANCH   86   87
ATOM     87  C63 UNL A   1      18.904  30.834  -0.566  1.00  0.00    +0.000 C 
ATOM     88  O3  UNL A   1      19.551  31.644  -1.220  1.00  0.00    +0.000 O 
BRANCH   87   89
ATOM    133  H38 UNL A   1      16.274  30.247  -0.897  1.00  0.00    +0.000 H 
ATOM    134  H39 UNL A   1      14.384  31.338   0.185  1.00  0.00    +0.000 H 
ATOM    135  H40 UNL A   1      17.030  33.612   2.539  1.00  0.00    +0.000 H 
ATOM    136  H41 UNL A   1      18.922  32.564   1.426  1.00  0.00    +0.000 H 
ATOM     89  C64 UNL A   1      17.731  31.389   0.129  1.00  0.00    +0.000 C 
ATOM     90  C65 UNL A   1      16.432  30.988  -0.196  1.00  0.00    +0.000 C 
ATOM     91  C66 UNL A   1      15.348  31.602   0.439  1.00  0.00    +0.000 C 
ATOM     92  C67 UNL A   1      15.574  32.571   1.419  1.00  0.00    +0.000 C 
ATOM     93 Cl1  UNL A   1      14.238  33.358   2.164  1.00  0.00    +0.000 Cl
ATOM     94  C68 UNL A   1      16.873  32.918   1.792  1.00  0.00    +0.000 C 
ATOM     95  C69 UNL A   1      17.957  32.321   1.150  1.00  0.00    +0.000 C 
ENDBRANCH   87   89
ENDBRANCH   86   87
ENDBRANCH    4    3
ENDBRANCH    5    4
ENDBRANCH    7    5
ENDBRANCH    8    7
ENDBRANCH    9    8
ENDBRANCH   10    9
ENDBRANCH   11   10
ENDBRANCH   12   11
ENDBRANCH   13   12
ENDBRANCH   14   13
ENDBRANCH   15   14
ENDBRANCH   17   15
ENDBRANCH   21   20
BRANCH   25   26
ATOM     33  C25 UNL A   1      20.927  10.737   2.981  1.00  0.00    +0.000 C 
ATOM     34  F4  UNL A   1      20.012   9.905   2.464  1.00  0.00    +0.000 F 
ATOM     35  C26 UNL A   1      20.543  11.658   3.954  1.00  0.00    +0.000 C 
ATOM     36  F5  UNL A   1      19.237  11.664   4.244  1.00  0.00    +0.000 F 
ATOM     26  C21 UNL A   1      21.443  12.593   4.509  1.00  0.00    +0.000 C 
ATOM     27  C22 UNL A   1      22.769  12.510   4.035  1.00  0.00    +0.000 C 
ATOM     28  F1  UNL A   1      23.710  13.358   4.481  1.00  0.00    +0.000 F 
ATOM     29  C23 UNL A   1      23.139  11.620   3.023  1.00  0.00    +0.000 C 
ATOM     30  F2  UNL A   1      24.378  11.667   2.515  1.00  0.00    +0.000 F 
ATOM     31  C24 UNL A   1      22.215  10.740   2.490  1.00  0.00    +0.000 C 
ATOM     32  F3  UNL A   1      22.550   9.932   1.476  1.00  0.00    +0.000 F 
ENDBRANCH   25   26
BRANCH   42   43
ATOM     43  C32 UNL A   1      23.227  16.249  10.027  1.00  0.00    +0.000 C 
ATOM     44  C33 UNL A   1      22.692  17.548   9.958  1.00  0.00    +0.000 C 
ATOM     45  F6  UNL A   1      22.323  18.077   8.783  1.00  0.00    +0.000 F 
ATOM     46  C34 UNL A   1      22.470  18.299  11.112  1.00  0.00    +0.000 C 
ATOM     47  F7  UNL A   1      21.962  19.537  11.023  1.00  0.00    +0.000 F 
ATOM     48  C35 UNL A   1      22.734  17.752  12.358  1.00  0.00    +0.000 C 
ATOM     49  F8  UNL A   1      22.474  18.453  13.470  1.00  0.00    +0.000 F 
ATOM     50  C36 UNL A   1      23.240  16.465  12.451  1.00  0.00    +0.000 C 
ATOM     51  F9  UNL A   1      23.449  15.913  13.654  1.00  0.00    +0.000 F 
ATOM     52  C37 UNL A   1      23.497  15.728  11.299  1.00  0.00    +0.000 C 
ATOM     53  F10 UNL A   1      23.959  14.474  11.426  1.00  0.00    +0.000 F 
ENDBRANCH   42   43
BRANCH   57   58
ATOM     65  C45 UNL A   1      29.647  17.735   4.510  1.00  0.00    +0.000 C 
ATOM     66  F14 UNL A   1      29.943  17.475   3.229  1.00  0.00    +0.000 F 
ATOM     67  C46 UNL A   1      28.312  17.855   4.901  1.00  0.00    +0.000 C 
ATOM     68  F15 UNL A   1      27.381  17.670   3.955  1.00  0.00    +0.000 F 
ATOM     58  C41 UNL A   1      27.946  18.054   6.246  1.00  0.00    +0.000 C 
ATOM     59  C42 UNL A   1      29.000  18.167   7.169  1.00  0.00    +0.000 C 
ATOM     60  F11 UNL A   1      28.739  18.318   8.476  1.00  0.00    +0.000 F 
ATOM     61  C43 UNL A   1      30.338  18.044   6.777  1.00  0.00    +0.000 C 
ATOM     62  F12 UNL A   1      31.312  18.086   7.697  1.00  0.00    +0.000 F 
ATOM     63  C44 UNL A   1      30.658  17.813   5.450  1.00  0.00    +0.000 C 
ATOM     64  F13 UNL A   1      31.934  17.623   5.084  1.00  0.00    +0.000 F 
ENDBRANCH   57   58
TORSDOF 19
ENDMDL
MODEL 10
REMARK VINA RESULT:     -11.3     35.056     41.454
ROOT
ATOM     21  C17 UNL A   1       8.410  30.186   0.590  1.00  0.00    +0.000 C 
ATOM     22  C18 UNL A   1       7.626  31.018  -0.364  1.00  0.00    +0.000 C 
ATOM     23  N3  UNL A   1       7.546  30.886  -1.648  1.00  0.00    +0.000 N 
ATOM     24  C19 UNL A   1       6.700  31.901  -2.086  1.00  0.00    +0.000 C 
ATOM     25  C20 UNL A   1       6.721  32.331  -3.378  1.00  0.00    +0.000 C 
ATOM     37  C27 UNL A   1       7.318  31.349  -4.245  1.00  0.00    +0.000 C 
ATOM     38  C28 UNL A   1       6.984  30.073  -4.648  1.00  0.00    +0.000 C 
ATOM     39  C29 UNL A   1       8.226  29.382  -4.762  1.00  0.00    +0.000 C 
ATOM     40  C30 UNL A   1       9.247  30.289  -4.476  1.00  0.00    +0.000 C 
ATOM     41  N4  UNL A   1       8.638  31.512  -4.579  1.00  0.00    +0.000 N 
ATOM     42  C31 UNL A   1      10.616  30.116  -4.057  1.00  0.00    +0.000 C 
ATOM     54  C38 UNL A   1      11.366  31.073  -3.437  1.00  0.00    +0.000 C 
ATOM     55  N5  UNL A   1      12.474  30.724  -2.679  1.00  0.00    +0.000 N 
ATOM     56  C39 UNL A   1      12.591  31.687  -1.808  1.00  0.00    +0.000 C 
ATOM     57  C40 UNL A   1      12.975  31.462  -0.391  1.00  0.00    +0.000 C 
ATOM     69  C47 UNL A   1      11.950  30.788   0.190  1.00  0.00    +0.000 C 
ATOM     70  C48 UNL A   1      11.912  29.994   1.399  1.00  0.00    +0.000 C 
ATOM     71  C49 UNL A   1      10.649  29.558   1.591  1.00  0.00    +0.000 C 
ATOM     72  C50 UNL A   1       9.760  30.174   0.604  1.00  0.00    +0.000 C 
ATOM     73  N6  UNL A   1      10.618  30.806  -0.271  1.00  0.00    +0.000 N 
ATOM     74  C51 UNL A   1      11.895  32.921  -2.131  1.00  0.00    +0.000 C 
ATOM     75  C52 UNL A   1      11.091  32.465  -3.093  1.00  0.00    +0.000 C 
ATOM     76  C53 UNL A   1       6.099  32.467  -0.907  1.00  0.00    +0.000 C 
ATOM     77  C54 UNL A   1       6.696  32.012   0.194  1.00  0.00    +0.000 C 
ATOM    117  H22 UNL A   1       6.039  29.699  -4.831  1.00  0.00    +0.000 H 
ATOM    118  H23 UNL A   1       8.348  28.388  -5.011  1.00  0.00    +0.000 H 
ATOM    119  H24 UNL A   1       9.071  32.355  -4.844  1.00  0.00    +0.000 H 
ATOM    120  H25 UNL A   1      12.717  29.793   2.013  1.00  0.00    +0.000 H 
ATOM    121  H26 UNL A   1      10.353  28.892   2.322  1.00  0.00    +0.000 H 
ATOM    122  H27 UNL A   1      10.334  31.221  -1.119  1.00  0.00    +0.000 H 
ATOM    123  H28 UNL A   1      11.994  33.869  -1.735  1.00  0.00    +0.000 H 
ATOM    124  H29 UNL A   1      10.356  33.032  -3.544  1.00  0.00    +0.000 H 
ATOM    125  H30 UNL A   1       5.311  33.135  -0.915  1.00  0.00    +0.000 H 
ATOM    126  H31 UNL A   1       6.545  32.284   1.178  1.00  0.00    +0.000 H 
ENDROOT
BRANCH   21   20
ATOM     78  C55 UNL A   1       7.084  28.172   1.205  1.00  0.00    +0.000 C 
ATOM     79  C56 UNL A   1       6.260  27.525   2.116  1.00  0.00    +0.000 C 
ATOM     17  C13 UNL A   1       5.952  28.104   3.362  1.00  0.00    +0.000 C 
ATOM     18  C14 UNL A   1       6.601  29.282   3.726  1.00  0.00    +0.000 C 
ATOM     19  C15 UNL A   1       7.401  29.952   2.808  1.00  0.00    +0.000 C 
ATOM    115  H20 UNL A   1       6.488  29.659   4.680  1.00  0.00    +0.000 H 
ATOM    116  H21 UNL A   1       7.854  30.840   3.071  1.00  0.00    +0.000 H 
ATOM     20  C16 UNL A   1       7.591  29.424   1.527  1.00  0.00    +0.000 C 
ATOM    127  H32 UNL A   1       7.317  27.730   0.302  1.00  0.00    +0.000 H 
ATOM    128  H33 UNL A   1       5.864  26.603   1.874  1.00  0.00    +0.000 H 
BRANCH   17   15
ATOM     15  C12 UNL A   1       4.870  27.436   4.134  1.00  0.00    +0.000 C 
ATOM     16  O2  UNL A   1       4.273  28.085   4.997  1.00  0.00    +0.000 O 
BRANCH   15   14
ATOM    114  H19 UNL A   1       3.804  25.967   3.376  1.00  0.00    +0.000 H 
ATOM     14  N2  UNL A   1       4.527  26.118   4.027  1.00  0.00    +0.000 N 
BRANCH   14   13
ATOM    113  H18 UNL A   1       5.088  24.165   3.869  1.00  0.00    +0.000 H 
ATOM     13  C11 UNL A   1       4.981  24.890   4.648  1.00  0.00    +0.000 C 
ATOM    112  H17 UNL A   1       4.260  24.597   5.382  1.00  0.00    +0.000 H 
BRANCH   13   12
ATOM     12  C10 UNL A   1       6.343  25.018   5.333  1.00  0.00    +0.000 C 
ATOM    110  H15 UNL A   1       6.816  25.908   4.975  1.00  0.00    +0.000 H 
ATOM    111  H16 UNL A   1       6.158  25.044   6.386  1.00  0.00    +0.000 H 
BRANCH   12   11
ATOM     11  C9  UNL A   1       7.284  23.835   5.078  1.00  0.00    +0.000 C 
ATOM    108  H13 UNL A   1       6.714  23.047   4.635  1.00  0.00    +0.000 H 
ATOM    109  H14 UNL A   1       8.063  24.205   4.445  1.00  0.00    +0.000 H 
BRANCH   11   10
ATOM     10  C8  UNL A   1       7.976  23.278   6.327  1.00  0.00    +0.000 C 
ATOM    107  H12 UNL A   1       7.250  22.674   6.830  1.00  0.00    +0.000 H 
ATOM    106  H11 UNL A   1       8.317  24.103   6.916  1.00  0.00    +0.000 H 
BRANCH   10    9
ATOM      9  C7  UNL A   1       9.175  22.365   6.043  1.00  0.00    +0.000 C 
ATOM    105  H10 UNL A   1       9.871  22.928   5.460  1.00  0.00    +0.000 H 
ATOM    104  H9  UNL A   1       8.825  21.496   5.525  1.00  0.00    +0.000 H 
BRANCH    9    8
ATOM    102  H7  UNL A   1       9.414  22.335   8.162  1.00  0.00    +0.000 H 
ATOM    103  H8  UNL A   1       9.881  20.845   7.347  1.00  0.00    +0.000 H 
ATOM      8  C6  UNL A   1       9.904  21.914   7.309  1.00  0.00    +0.000 C 
BRANCH    8    7
ATOM    101  H6  UNL A   1      11.584  22.850   8.092  1.00  0.00    +0.000 H 
ATOM      7  N1  UNL A   1      11.289  22.340   7.303  1.00  0.00    +0.000 N 
BRANCH    7    5
ATOM      5  C5  UNL A   1      12.236  22.124   6.344  1.00  0.00    +0.000 C 
ATOM      6  O1  UNL A   1      12.509  20.961   6.040  1.00  0.00    +0.000 O 
BRANCH    5    4
ATOM    100  H5  UNL A   1      13.936  22.942   5.420  1.00  0.00    +0.000 H 
ATOM     99  H4  UNL A   1      13.047  24.078   6.459  1.00  0.00    +0.000 H 
ATOM      4  C4  UNL A   1      12.976  23.302   5.726  1.00  0.00    +0.000 C 
BRANCH    4    3
ATOM    129  H34 UNL A   1      11.057  25.534   6.506  1.00  0.00    +0.000 H 
ATOM      2  C2  UNL A   1      12.475  23.454   3.186  1.00  0.00    +0.000 C 
ATOM      3  C3  UNL A   1      12.306  23.862   4.502  1.00  0.00    +0.000 C 
ATOM    132  H37 UNL A   1       9.518  26.108   1.934  1.00  0.00    +0.000 H 
ATOM    130  H35 UNL A   1       9.387  27.212   5.986  1.00  0.00    +0.000 H 
ATOM    131  H36 UNL A   1       8.603  27.473   3.721  1.00  0.00    +0.000 H 
ATOM     80  C57 UNL A   1      11.336  24.902   4.496  1.00  0.00    +0.000 C 
ATOM     81  C58 UNL A   1      10.757  25.675   5.529  1.00  0.00    +0.000 C 
ATOM     82  C59 UNL A   1       9.781  26.626   5.234  1.00  0.00    +0.000 C 
ATOM     83  C60 UNL A   1       9.340  26.781   3.932  1.00  0.00    +0.000 C 
ATOM     84  C61 UNL A   1       9.881  26.012   2.896  1.00  0.00    +0.000 C 
ATOM     85  C62 UNL A   1      10.925  25.104   3.173  1.00  0.00    +0.000 C 
ATOM     86  N7  UNL A   1      11.734  24.304   2.350  1.00  0.00    +0.000 N 
BRANCH    2    1
ATOM      1  C1  UNL A   1      13.329  22.341   2.659  1.00  0.00    +0.000 C 
ATOM     98  H3  UNL A   1      14.082  22.744   2.014  1.00  0.00    +0.000 H 
ATOM     97  H2  UNL A   1      13.794  21.831   3.476  1.00  0.00    +0.000 H 
ATOM     96  H1  UNL A   1      12.719  21.655   2.109  1.00  0.00    +0.000 H 
ENDBRANCH    2    1
BRANCH   86   87
ATOM     87  C63 UNL A   1      11.823  24.329   0.925  1.00  0.00    +0.000 C 
ATOM     88  O3  UNL A   1      11.168  23.523   0.274  1.00  0.00    +0.000 O 
BRANCH   87   89
ATOM    133  H38 UNL A   1      11.845  27.043   0.928  1.00  0.00    +0.000 H 
ATOM    134  H39 UNL A   1      13.124  28.498  -0.550  1.00  0.00    +0.000 H 
ATOM    135  H40 UNL A   1      15.056  25.142  -2.200  1.00  0.00    +0.000 H 
ATOM    136  H41 UNL A   1      13.745  23.681  -0.763  1.00  0.00    +0.000 H 
ATOM     89  C64 UNL A   1      12.645  25.254   0.127  1.00  0.00    +0.000 C 
ATOM     90  C65 UNL A   1      12.498  26.640   0.237  1.00  0.00    +0.000 C 
ATOM     91  C66 UNL A   1      13.247  27.474  -0.598  1.00  0.00    +0.000 C 
ATOM     92  C67 UNL A   1      14.161  26.920  -1.498  1.00  0.00    +0.000 C 
ATOM     93 Cl1  UNL A   1      15.045  27.948  -2.557  1.00  0.00    +0.000 Cl
ATOM     94  C68 UNL A   1      14.356  25.540  -1.554  1.00  0.00    +0.000 C 
ATOM     95  C69 UNL A   1      13.601  24.702  -0.736  1.00  0.00    +0.000 C 
ENDBRANCH   87   89
ENDBRANCH   86   87
ENDBRANCH    4    3
ENDBRANCH    5    4
ENDBRANCH    7    5
ENDBRANCH    8    7
ENDBRANCH    9    8
ENDBRANCH   10    9
ENDBRANCH   11   10
ENDBRANCH   12   11
ENDBRANCH   13   12
ENDBRANCH   14   13
ENDBRANCH   15   14
ENDBRANCH   17   15
ENDBRANCH   21   20
BRANCH   25   26
ATOM     33  C25 UNL A   1       7.498  35.979  -4.311  1.00  0.00    +0.000 C 
ATOM     34  F4  UNL A   1       8.496  36.859  -4.143  1.00  0.00    +0.000 F 
ATOM     35  C26 UNL A   1       7.539  34.761  -3.633  1.00  0.00    +0.000 C 
ATOM     36  F5  UNL A   1       8.639  34.555  -2.903  1.00  0.00    +0.000 F 
ATOM     26  C21 UNL A   1       6.545  33.771  -3.797  1.00  0.00    +0.000 C 
ATOM     27  C22 UNL A   1       5.490  34.112  -4.669  1.00  0.00    +0.000 C 
ATOM     28  F1  UNL A   1       4.497  33.243  -4.913  1.00  0.00    +0.000 F 
ATOM     29  C23 UNL A   1       5.480  35.312  -5.385  1.00  0.00    +0.000 C 
ATOM     30  F2  UNL A   1       4.524  35.535  -6.298  1.00  0.00    +0.000 F 
ATOM     31  C24 UNL A   1       6.490  36.241  -5.212  1.00  0.00    +0.000 C 
ATOM     32  F3  UNL A   1       6.516  37.362  -5.944  1.00  0.00    +0.000 F 
ENDBRANCH   25   26
BRANCH   42   43
ATOM     43  C32 UNL A   1      11.166  28.717  -4.100  1.00  0.00    +0.000 C 
ATOM     44  C33 UNL A   1      10.766  27.692  -3.224  1.00  0.00    +0.000 C 
ATOM     45  F6  UNL A   1       9.887  27.932  -2.241  1.00  0.00    +0.000 F 
ATOM     46  C34 UNL A   1      11.221  26.384  -3.388  1.00  0.00    +0.000 C 
ATOM     47  F7  UNL A   1      10.830  25.422  -2.539  1.00  0.00    +0.000 F 
ATOM     48  C35 UNL A   1      12.045  26.064  -4.456  1.00  0.00    +0.000 C 
ATOM     49  F8  UNL A   1      12.442  24.798  -4.645  1.00  0.00    +0.000 F 
ATOM     50  C36 UNL A   1      12.433  27.053  -5.346  1.00  0.00    +0.000 C 
ATOM     51  F9  UNL A   1      13.188  26.740  -6.408  1.00  0.00    +0.000 F 
ATOM     52  C37 UNL A   1      12.010  28.367  -5.162  1.00  0.00    +0.000 C 
ATOM     53  F10 UNL A   1      12.380  29.293  -6.059  1.00  0.00    +0.000 F 
ENDBRANCH   42   43
BRANCH   57   58
ATOM     65  C45 UNL A   1      16.318  32.301   1.193  1.00  0.00    +0.000 C 
ATOM     66  F14 UNL A   1      17.545  31.764   1.256  1.00  0.00    +0.000 F 
ATOM     67  C46 UNL A   1      15.375  31.768   0.312  1.00  0.00    +0.000 C 
ATOM     68  F15 UNL A   1      15.751  30.708  -0.416  1.00  0.00    +0.000 F 
ATOM     58  C41 UNL A   1      14.051  32.247   0.261  1.00  0.00    +0.000 C 
ATOM     59  C42 UNL A   1      13.743  33.319   1.117  1.00  0.00    +0.000 C 
ATOM     60  F11 UNL A   1      12.495  33.810   1.161  1.00  0.00    +0.000 F 
ATOM     61  C43 UNL A   1      14.689  33.850   2.002  1.00  0.00    +0.000 C 
ATOM     62  F12 UNL A   1      14.336  34.825   2.853  1.00  0.00    +0.000 F 
ATOM     63  C44 UNL A   1      15.971  33.329   2.049  1.00  0.00    +0.000 C 
ATOM     64  F13 UNL A   1      16.856  33.788   2.946  1.00  0.00    +0.000 F 
ENDBRANCH   57   58
TORSDOF 19
ENDMDL
