MODEL 1
REMARK VINA RESULT:      -7.6      0.000      0.000
ROOT
ATOM    140  H40 UNL A   1      49.100   7.876  53.574  1.00  0.00    +0.000 H 
ATOM    141  H41 UNL A   1      50.991   9.567  54.177  1.00  0.00    +0.000 H 
ATOM    142  H42 UNL A   1      49.031  10.953  50.803  1.00  0.00    +0.000 H 
ATOM    143  H43 UNL A   1      48.334  15.362  46.243  1.00  0.00    +0.000 H 
ATOM    144  H44 UNL A   1      46.558  13.662  45.597  1.00  0.00    +0.000 H 
ATOM    145  H45 UNL A   1      48.479  12.262  49.008  1.00  0.00    +0.000 H 
ATOM    146  H46 UNL A   1      52.030  15.658  50.087  1.00  0.00    +0.000 H 
ATOM    147  H47 UNL A   1      52.801  14.077  51.946  1.00  0.00    +0.000 H 
ATOM    148  H48 UNL A   1      45.391   7.682  49.709  1.00  0.00    +0.000 H 
ATOM    149  H49 UNL A   1      44.931   8.978  47.548  1.00  0.00    +0.000 H 
ATOM     38  C31 UNL A   1      46.438  11.387  47.311  1.00  0.00    +0.000 C 
ATOM     39  C32 UNL A   1      46.542  10.339  48.385  1.00  0.00    +0.000 C 
ATOM     40  N4  UNL A   1      47.335  10.295  49.428  1.00  0.00    +0.000 N 
ATOM     41  C33 UNL A   1      46.987   9.143  50.120  1.00  0.00    +0.000 C 
ATOM     42  C34 UNL A   1      47.539   8.634  51.248  1.00  0.00    +0.000 C 
ATOM     54  C41 UNL A   1      48.658   9.214  51.941  1.00  0.00    +0.000 C 
ATOM     55  C42 UNL A   1      49.321   8.743  53.062  1.00  0.00    +0.000 C 
ATOM     56  C43 UNL A   1      50.343   9.646  53.379  1.00  0.00    +0.000 C 
ATOM     57  C44 UNL A   1      50.332  10.663  52.439  1.00  0.00    +0.000 C 
ATOM     58  N5  UNL A   1      49.287  10.391  51.570  1.00  0.00    +0.000 N 
ATOM     59  C45 UNL A   1      51.213  11.796  52.333  1.00  0.00    +0.000 C 
ATOM     71  C52 UNL A   1      51.104  12.780  51.408  1.00  0.00    +0.000 C 
ATOM     72  N6  UNL A   1      50.177  12.916  50.385  1.00  0.00    +0.000 N 
ATOM     73  C53 UNL A   1      50.478  14.036  49.774  1.00  0.00    +0.000 C 
ATOM     74  C54 UNL A   1      49.829  14.664  48.572  1.00  0.00    +0.000 C 
ATOM     86  C61 UNL A   1      48.827  14.018  47.946  1.00  0.00    +0.000 C 
ATOM     87  C62 UNL A   1      48.135  14.483  46.747  1.00  0.00    +0.000 C 
ATOM     88  C63 UNL A   1      47.199  13.583  46.402  1.00  0.00    +0.000 C 
ATOM     89  C64 UNL A   1      47.234  12.472  47.353  1.00  0.00    +0.000 C 
ATOM     90  N7  UNL A   1      48.225  12.819  48.237  1.00  0.00    +0.000 N 
ATOM     91  C65 UNL A   1      51.621  14.751  50.360  1.00  0.00    +0.000 C 
ATOM     92  C66 UNL A   1      51.988  13.924  51.328  1.00  0.00    +0.000 C 
ATOM     93  C67 UNL A   1      45.892   8.529  49.398  1.00  0.00    +0.000 C 
ATOM     94  C68 UNL A   1      45.616   9.199  48.288  1.00  0.00    +0.000 C 
ENDROOT
BRANCH   38   37
ATOM     34  C27 UNL A   1      43.502  10.891  44.214  1.00  0.00    +0.000 C 
ATOM     35  C28 UNL A   1      44.780  10.338  44.067  1.00  0.00    +0.000 C 
ATOM     36  C29 UNL A   1      45.739  10.504  45.069  1.00  0.00    +0.000 C 
ATOM     37  C30 UNL A   1      45.437  11.244  46.223  1.00  0.00    +0.000 C 
ATOM    138  H38 UNL A   1      45.016   9.806  43.214  1.00  0.00    +0.000 H 
ATOM    139  H39 UNL A   1      46.674  10.080  44.961  1.00  0.00    +0.000 H 
ATOM    150  H50 UNL A   1      43.937  12.380  47.187  1.00  0.00    +0.000 H 
ATOM    151  H51 UNL A   1      42.230  11.963  45.515  1.00  0.00    +0.000 H 
ATOM     95  C69 UNL A   1      44.160  11.807  46.358  1.00  0.00    +0.000 C 
ATOM     96  C70 UNL A   1      43.186  11.597  45.379  1.00  0.00    +0.000 C 
BRANCH   34   32
ATOM     33  O4  UNL A   1      42.667   9.663  42.401  1.00  0.00    +0.000 O 
ATOM     32  C26 UNL A   1      42.491  10.608  43.167  1.00  0.00    +0.000 C 
BRANCH   32   31
ATOM    137  H37 UNL A   1      40.778  11.388  43.832  1.00  0.00    +0.000 H 
ATOM     31  N3  UNL A   1      41.359  11.370  43.039  1.00  0.00    +0.000 N 
BRANCH   31   30
ATOM     30  C25 UNL A   1      40.884  12.158  41.915  1.00  0.00    +0.000 C 
ATOM    135  H35 UNL A   1      40.497  11.497  41.168  1.00  0.00    +0.000 H 
ATOM    136  H36 UNL A   1      40.123  12.821  42.275  1.00  0.00    +0.000 H 
BRANCH   30   29
ATOM    133  H33 UNL A   1      42.898  12.431  41.315  1.00  0.00    +0.000 H 
ATOM     29  C24 UNL A   1      41.996  13.007  41.299  1.00  0.00    +0.000 C 
ATOM    134  H34 UNL A   1      41.663  13.257  40.313  1.00  0.00    +0.000 H 
BRANCH   29   28
ATOM    131  H31 UNL A   1      41.349  14.688  42.419  1.00  0.00    +0.000 H 
ATOM     28  C23 UNL A   1      42.272  14.340  42.005  1.00  0.00    +0.000 C 
ATOM    132  H32 UNL A   1      43.027  14.129  42.733  1.00  0.00    +0.000 H 
BRANCH   28   27
ATOM    129  H29 UNL A   1      43.267  15.010  40.251  1.00  0.00    +0.000 H 
ATOM    130  H30 UNL A   1      42.029  16.120  40.921  1.00  0.00    +0.000 H 
ATOM     27  C22 UNL A   1      42.845  15.459  41.126  1.00  0.00    +0.000 C 
BRANCH   27   26
ATOM     26  C21 UNL A   1      43.930  16.322  41.782  1.00  0.00    +0.000 C 
ATOM    127  H27 UNL A   1      44.822  15.738  41.863  1.00  0.00    +0.000 H 
ATOM    128  H28 UNL A   1      44.056  17.184  41.161  1.00  0.00    +0.000 H 
BRANCH   26   25
ATOM     25  C20 UNL A   1      43.561  16.833  43.176  1.00  0.00    +0.000 C 
ATOM    125  H25 UNL A   1      42.714  17.482  43.092  1.00  0.00    +0.000 H 
ATOM    126  H26 UNL A   1      43.343  15.987  43.791  1.00  0.00    +0.000 H 
BRANCH   25   24
ATOM    124  H24 UNL A   1      44.776  18.478  43.445  1.00  0.00    +0.000 H 
ATOM     24  N2  UNL A   1      44.650  17.565  43.790  1.00  0.00    +0.000 N 
BRANCH   24   22
ATOM     22  C19 UNL A   1      45.528  17.200  44.763  1.00  0.00    +0.000 C 
ATOM     23  O3  UNL A   1      46.507  16.533  44.406  1.00  0.00    +0.000 O 
BRANCH   22   20
ATOM     20  C17 UNL A   1      45.349  17.566  46.244  1.00  0.00    +0.000 C 
ATOM    120  H20 UNL A   1      44.559  18.288  46.280  1.00  0.00    +0.000 H 
BRANCH   20   19
ATOM     97  C71 UNL A   1      45.487  16.062  48.250  1.00  0.00    +0.000 C 
ATOM     98  C72 UNL A   1      45.012  15.041  49.075  1.00  0.00    +0.000 C 
ATOM     99  F16 UNL A   1      45.754  14.725  50.149  1.00  0.00    +0.000 F 
ATOM     16  C13 UNL A   1      43.816  14.355  48.804  1.00  0.00    +0.000 C 
ATOM     17  C14 UNL A   1      43.146  14.712  47.622  1.00  0.00    +0.000 C 
ATOM     18  C15 UNL A   1      43.641  15.708  46.767  1.00  0.00    +0.000 C 
ATOM     19  C16 UNL A   1      44.804  16.420  47.081  1.00  0.00    +0.000 C 
ATOM    118  H18 UNL A   1      42.266  14.230  47.378  1.00  0.00    +0.000 H 
ATOM    119  H19 UNL A   1      43.139  15.920  45.889  1.00  0.00    +0.000 H 
ATOM    152  H52 UNL A   1      46.354  16.559  48.505  1.00  0.00    +0.000 H 
BRANCH   16   15
ATOM    100  C73 UNL A   1      41.982  13.362  50.212  1.00  0.00    +0.000 C 
ATOM     11  C8  UNL A   1      41.513  12.447  51.160  1.00  0.00    +0.000 C 
ATOM     12  C9  UNL A   1      42.346  11.412  51.582  1.00  0.00    +0.000 C 
ATOM     13  C10 UNL A   1      43.624  11.284  51.043  1.00  0.00    +0.000 C 
ATOM     14  C11 UNL A   1      44.097  12.225  50.125  1.00  0.00    +0.000 C 
ATOM     15  C12 UNL A   1      43.295  13.301  49.705  1.00  0.00    +0.000 C 
ATOM    115  H15 UNL A   1      42.016  10.741  52.292  1.00  0.00    +0.000 H 
ATOM    116  H16 UNL A   1      44.224  10.492  51.324  1.00  0.00    +0.000 H 
ATOM    117  H17 UNL A   1      45.053  12.130  49.748  1.00  0.00    +0.000 H 
ATOM    153  H53 UNL A   1      41.349  14.104  49.874  1.00  0.00    +0.000 H 
BRANCH   11   10
ATOM     10  N1  UNL A   1      40.275  12.596  51.805  1.00  0.00    +0.000 N 
ATOM    114  H14 UNL A   1      39.495  12.248  51.315  1.00  0.00    +0.000 H 
BRANCH   10    8
ATOM      9  O2  UNL A   1      39.426  12.527  53.894  1.00  0.00    +0.000 O 
ATOM      8  C7  UNL A   1      40.006  13.158  53.024  1.00  0.00    +0.000 C 
BRANCH    8    7
ATOM      7  O1  UNL A   1      40.328  14.476  53.094  1.00  0.00    +0.000 O 
BRANCH    7    6
ATOM    113  H13 UNL A   1      39.431  16.211  53.680  1.00  0.00    +0.000 H 
ATOM      6  C6  UNL A   1      39.260  15.430  52.970  1.00  0.00    +0.000 C 
ATOM    112  H12 UNL A   1      38.330  14.932  53.156  1.00  0.00    +0.000 H 
BRANCH    6    5
ATOM      5  C5  UNL A   1      39.209  16.063  51.575  1.00  0.00    +0.000 C 
ATOM    110  H10 UNL A   1      38.911  15.304  50.881  1.00  0.00    +0.000 H 
ATOM    111  H11 UNL A   1      38.519  16.877  51.652  1.00  0.00    +0.000 H 
BRANCH    5    4
ATOM    108  H8  UNL A   1      41.146  16.866  51.915  1.00  0.00    +0.000 H 
ATOM      4  C4  UNL A   1      40.521  16.675  51.068  1.00  0.00    +0.000 C 
ATOM    109  H9  UNL A   1      40.936  15.965  50.383  1.00  0.00    +0.000 H 
BRANCH    4    3
ATOM    106  H6  UNL A   1      40.087  17.741  49.281  1.00  0.00    +0.000 H 
ATOM      3  C3  UNL A   1      40.369  17.985  50.285  1.00  0.00    +0.000 C 
ATOM    107  H7  UNL A   1      39.631  18.561  50.803  1.00  0.00    +0.000 H 
BRANCH    3    2
ATOM    105  H5  UNL A   1      41.928  19.051  51.235  1.00  0.00    +0.000 H 
ATOM      2  C2  UNL A   1      41.628  18.853  50.227  1.00  0.00    +0.000 C 
ATOM    104  H4  UNL A   1      41.398  19.754  49.697  1.00  0.00    +0.000 H 
BRANCH    2    1
ATOM      1  C1  UNL A   1      42.789  18.162  49.530  1.00  0.00    +0.000 C 
ATOM    101  H1  UNL A   1      43.676  18.748  49.648  1.00  0.00    +0.000 H 
ATOM    102  H2  UNL A   1      42.568  18.056  48.488  1.00  0.00    +0.000 H 
ATOM    103  H3  UNL A   1      42.940  17.195  49.962  1.00  0.00    +0.000 H 
ENDBRANCH    2    1
ENDBRANCH    3    2
ENDBRANCH    4    3
ENDBRANCH    5    4
ENDBRANCH    6    5
ENDBRANCH    7    6
ENDBRANCH    8    7
ENDBRANCH   10    8
ENDBRANCH   11   10
ENDBRANCH   16   15
ENDBRANCH   20   19
BRANCH   20   21
ATOM    121  H21 UNL A   1      46.398  19.394  46.606  1.00  0.00    +0.000 H 
ATOM    122  H22 UNL A   1      47.436  17.999  46.427  1.00  0.00    +0.000 H 
ATOM    123  H23 UNL A   1      46.526  18.229  47.902  1.00  0.00    +0.000 H 
ATOM     21  C18 UNL A   1      46.514  18.356  46.839  1.00  0.00    +0.000 C 
ENDBRANCH   20   21
ENDBRANCH   22   20
ENDBRANCH   24   22
ENDBRANCH   25   24
ENDBRANCH   26   25
ENDBRANCH   27   26
ENDBRANCH   28   27
ENDBRANCH   29   28
ENDBRANCH   30   29
ENDBRANCH   31   30
ENDBRANCH   32   31
ENDBRANCH   34   32
ENDBRANCH   38   37
BRANCH   42   43
ATOM     43  C35 UNL A   1      46.942   7.375  51.803  1.00  0.00    +0.000 C 
ATOM     44  C36 UNL A   1      47.517   6.120  51.555  1.00  0.00    +0.000 C 
ATOM     45  F1  UNL A   1      48.596   6.017  50.765  1.00  0.00    +0.000 F 
ATOM     46  C37 UNL A   1      46.962   4.962  52.092  1.00  0.00    +0.000 C 
ATOM     47  F2  UNL A   1      47.505   3.769  51.811  1.00  0.00    +0.000 F 
ATOM     48  C38 UNL A   1      45.842   5.039  52.907  1.00  0.00    +0.000 C 
ATOM     49  F3  UNL A   1      45.313   3.923  53.427  1.00  0.00    +0.000 F 
ATOM     50  C39 UNL A   1      45.267   6.271  53.177  1.00  0.00    +0.000 C 
ATOM     51  F4  UNL A   1      44.190   6.347  53.971  1.00  0.00    +0.000 F 
ATOM     52  C40 UNL A   1      45.805   7.429  52.623  1.00  0.00    +0.000 C 
ATOM     53  F5  UNL A   1      45.222   8.607  52.894  1.00  0.00    +0.000 F 
ENDBRANCH   42   43
BRANCH   59   60
ATOM     65  C49 UNL A   1      54.462  12.124  55.138  1.00  0.00    +0.000 C 
ATOM     66  F8  UNL A   1      55.468  12.220  56.017  1.00  0.00    +0.000 F 
ATOM     67  C50 UNL A   1      53.229  12.686  55.430  1.00  0.00    +0.000 C 
ATOM     68  F9  UNL A   1      53.047  13.339  56.586  1.00  0.00    +0.000 F 
ATOM     69  C51 UNL A   1      52.176  12.568  54.527  1.00  0.00    +0.000 C 
ATOM     70  F10 UNL A   1      50.990  13.109  54.840  1.00  0.00    +0.000 F 
ATOM     60  C46 UNL A   1      52.346  11.895  53.307  1.00  0.00    +0.000 C 
ATOM     61  C47 UNL A   1      53.607  11.350  53.024  1.00  0.00    +0.000 C 
ATOM     62  F6  UNL A   1      53.810  10.685  51.876  1.00  0.00    +0.000 F 
ATOM     63  C48 UNL A   1      54.650  11.452  53.938  1.00  0.00    +0.000 C 
ATOM     64  F7  UNL A   1      55.835  10.887  53.666  1.00  0.00    +0.000 F 
ENDBRANCH   59   60
BRANCH   74   75
ATOM     75  C55 UNL A   1      50.311  15.964  48.045  1.00  0.00    +0.000 C 
ATOM     76  C56 UNL A   1      51.405  16.022  47.169  1.00  0.00    +0.000 C 
ATOM     77  F11 UNL A   1      52.037  14.894  46.814  1.00  0.00    +0.000 F 
ATOM     78  C57 UNL A   1      51.877  17.242  46.693  1.00  0.00    +0.000 C 
ATOM     79  F12 UNL A   1      52.950  17.274  45.890  1.00  0.00    +0.000 F 
ATOM     80  C58 UNL A   1      51.251  18.423  47.061  1.00  0.00    +0.000 C 
ATOM     81  F13 UNL A   1      51.706  19.597  46.601  1.00  0.00    +0.000 F 
ATOM     82  C59 UNL A   1      50.156  18.387  47.911  1.00  0.00    +0.000 C 
ATOM     83  F14 UNL A   1      49.542  19.526  48.261  1.00  0.00    +0.000 F 
ATOM     84  C60 UNL A   1      49.695  17.169  48.407  1.00  0.00    +0.000 C 
ATOM     85  F15 UNL A   1      48.643  17.163  49.238  1.00  0.00    +0.000 F 
ENDBRANCH   74   75
TORSDOF 27
ENDMDL
MODEL 2
REMARK VINA RESULT:      -7.6      1.534      2.918
ROOT
ATOM    140  H40 UNL A   1      48.144   6.858  53.868  1.00  0.00    +0.000 H 
ATOM    141  H41 UNL A   1      50.140   8.296  54.735  1.00  0.00    +0.000 H 
ATOM    142  H42 UNL A   1      48.609  10.104  51.338  1.00  0.00    +0.000 H 
ATOM    143  H43 UNL A   1      48.729  14.858  47.084  1.00  0.00    +0.000 H 
ATOM    144  H44 UNL A   1      46.850  13.403  46.183  1.00  0.00    +0.000 H 
ATOM    145  H45 UNL A   1      48.338  11.582  49.612  1.00  0.00    +0.000 H 
ATOM    146  H46 UNL A   1      52.111  14.504  51.202  1.00  0.00    +0.000 H 
ATOM    147  H47 UNL A   1      52.566  12.729  52.989  1.00  0.00    +0.000 H 
ATOM    148  H48 UNL A   1      44.761   7.316  49.736  1.00  0.00    +0.000 H 
ATOM    149  H49 UNL A   1      44.610   8.796  47.651  1.00  0.00    +0.000 H 
ATOM     38  C31 UNL A   1      46.364  11.043  47.707  1.00  0.00    +0.000 C 
ATOM     39  C32 UNL A   1      46.276   9.920  48.704  1.00  0.00    +0.000 C 
ATOM     40  N4  UNL A   1      46.973   9.723  49.796  1.00  0.00    +0.000 N 
ATOM     41  C33 UNL A   1      46.456   8.570  50.373  1.00  0.00    +0.000 C 
ATOM     42  C34 UNL A   1      46.861   7.931  51.497  1.00  0.00    +0.000 C 
ATOM     54  C41 UNL A   1      47.973   8.342  52.312  1.00  0.00    +0.000 C 
ATOM     55  C42 UNL A   1      48.492   7.729  53.440  1.00  0.00    +0.000 C 
ATOM     56  C43 UNL A   1      49.570   8.496  53.899  1.00  0.00    +0.000 C 
ATOM     57  C44 UNL A   1      49.737   9.569  53.040  1.00  0.00    +0.000 C 
ATOM     58  N5  UNL A   1      48.745   9.468  52.079  1.00  0.00    +0.000 N 
ATOM     59  C45 UNL A   1      50.732  10.608  53.085  1.00  0.00    +0.000 C 
ATOM     71  C52 UNL A   1      50.798  11.657  52.231  1.00  0.00    +0.000 C 
ATOM     72  N6  UNL A   1      49.975  11.959  51.155  1.00  0.00    +0.000 N 
ATOM     73  C53 UNL A   1      50.435  13.079  50.654  1.00  0.00    +0.000 C 
ATOM     74  C54 UNL A   1      49.952  13.852  49.458  1.00  0.00    +0.000 C 
ATOM     86  C61 UNL A   1      48.944  13.359  48.713  1.00  0.00    +0.000 C 
ATOM     87  C62 UNL A   1      48.403  13.974  47.505  1.00  0.00    +0.000 C 
ATOM     88  C63 UNL A   1      47.412  13.203  47.025  1.00  0.00    +0.000 C 
ATOM     89  C64 UNL A   1      47.259  12.032  47.890  1.00  0.00    +0.000 C 
ATOM     90  N7  UNL A   1      48.204  12.213  48.868  1.00  0.00    +0.000 N 
ATOM     91  C65 UNL A   1      51.593  13.629  51.375  1.00  0.00    +0.000 C 
ATOM     92  C66 UNL A   1      51.796  12.705  52.302  1.00  0.00    +0.000 C 
ATOM     93  C67 UNL A   1      45.368   8.125  49.528  1.00  0.00    +0.000 C 
ATOM     94  C68 UNL A   1      45.252   8.893  48.453  1.00  0.00    +0.000 C 
ENDROOT
BRANCH   38   37
ATOM     34  C27 UNL A   1      43.663  11.062  44.367  1.00  0.00    +0.000 C 
ATOM     35  C28 UNL A   1      44.942  10.508  44.234  1.00  0.00    +0.000 C 
ATOM     36  C29 UNL A   1      45.825  10.508  45.317  1.00  0.00    +0.000 C 
ATOM     37  C30 UNL A   1      45.446  11.080  46.541  1.00  0.00    +0.000 C 
ATOM    138  H38 UNL A   1      45.235  10.100  43.332  1.00  0.00    +0.000 H 
ATOM    139  H39 UNL A   1      46.761  10.085  45.216  1.00  0.00    +0.000 H 
ATOM    150  H50 UNL A   1      43.890  12.096  47.549  1.00  0.00    +0.000 H 
ATOM    151  H51 UNL A   1      42.309  11.962  45.715  1.00  0.00    +0.000 H 
ATOM     95  C69 UNL A   1      44.168  11.645  46.663  1.00  0.00    +0.000 C 
ATOM     96  C70 UNL A   1      43.268  11.598  45.596  1.00  0.00    +0.000 C 
BRANCH   34   32
ATOM     33  O4  UNL A   1      42.815   9.989  42.463  1.00  0.00    +0.000 O 
ATOM     32  C26 UNL A   1      42.730  10.954  43.220  1.00  0.00    +0.000 C 
BRANCH   32   31
ATOM    137  H37 UNL A   1      40.967  11.830  43.557  1.00  0.00    +0.000 H 
ATOM     31  N3  UNL A   1      41.767  11.902  42.988  1.00  0.00    +0.000 N 
BRANCH   31   30
ATOM     30  C25 UNL A   1      41.742  12.997  42.035  1.00  0.00    +0.000 C 
ATOM    135  H35 UNL A   1      41.930  12.608  41.055  1.00  0.00    +0.000 H 
ATOM    136  H36 UNL A   1      40.777  13.460  42.088  1.00  0.00    +0.000 H 
BRANCH   30   29
ATOM    133  H33 UNL A   1      43.751  13.584  42.365  1.00  0.00    +0.000 H 
ATOM     29  C24 UNL A   1      42.793  14.060  42.355  1.00  0.00    +0.000 C 
ATOM    134  H34 UNL A   1      42.692  14.811  41.600  1.00  0.00    +0.000 H 
BRANCH   29   28
ATOM    131  H31 UNL A   1      41.866  15.538  43.562  1.00  0.00    +0.000 H 
ATOM     28  C23 UNL A   1      42.609  14.781  43.696  1.00  0.00    +0.000 C 
ATOM    132  H32 UNL A   1      42.336  14.019  44.398  1.00  0.00    +0.000 H 
BRANCH   28   27
ATOM    129  H29 UNL A   1      44.047  16.345  43.721  1.00  0.00    +0.000 H 
ATOM    130  H30 UNL A   1      43.651  15.621  45.313  1.00  0.00    +0.000 H 
ATOM     27  C22 UNL A   1      43.862  15.449  44.277  1.00  0.00    +0.000 C 
BRANCH   27   26
ATOM     26  C21 UNL A   1      45.138  14.601  44.243  1.00  0.00    +0.000 C 
ATOM    127  H27 UNL A   1      45.146  13.968  45.104  1.00  0.00    +0.000 H 
ATOM    128  H28 UNL A   1      45.118  14.050  43.325  1.00  0.00    +0.000 H 
BRANCH   26   25
ATOM     25  C20 UNL A   1      46.430  15.419  44.236  1.00  0.00    +0.000 C 
ATOM    125  H25 UNL A   1      47.212  14.833  44.673  1.00  0.00    +0.000 H 
ATOM    126  H26 UNL A   1      46.656  15.673  43.222  1.00  0.00    +0.000 H 
BRANCH   25   24
ATOM    124  H24 UNL A   1      45.756  17.344  44.541  1.00  0.00    +0.000 H 
ATOM     24  N2  UNL A   1      46.296  16.651  44.986  1.00  0.00    +0.000 N 
BRANCH   24   22
ATOM     22  C19 UNL A   1      46.792  17.011  46.200  1.00  0.00    +0.000 C 
ATOM     23  O3  UNL A   1      48.022  16.971  46.331  1.00  0.00    +0.000 O 
BRANCH   22   20
ATOM     20  C17 UNL A   1      45.908  17.442  47.380  1.00  0.00    +0.000 C 
ATOM    120  H20 UNL A   1      45.105  18.009  46.960  1.00  0.00    +0.000 H 
BRANCH   20   19
ATOM     97  C71 UNL A   1      45.846  15.598  49.084  1.00  0.00    +0.000 C 
ATOM     98  C72 UNL A   1      45.222  14.545  49.756  1.00  0.00    +0.000 C 
ATOM     99  F16 UNL A   1      45.936  13.913  50.701  1.00  0.00    +0.000 F 
ATOM     16  C13 UNL A   1      43.909  14.142  49.460  1.00  0.00    +0.000 C 
ATOM     17  C14 UNL A   1      43.269  14.820  48.410  1.00  0.00    +0.000 C 
ATOM     18  C15 UNL A   1      43.906  15.852  47.703  1.00  0.00    +0.000 C 
ATOM     19  C16 UNL A   1      45.194  16.278  48.047  1.00  0.00    +0.000 C 
ATOM    118  H18 UNL A   1      42.305  14.554  48.153  1.00  0.00    +0.000 H 
ATOM    119  H19 UNL A   1      43.417  16.304  46.914  1.00  0.00    +0.000 H 
ATOM    152  H52 UNL A   1      46.800  15.879  49.355  1.00  0.00    +0.000 H 
BRANCH   16   15
ATOM    100  C73 UNL A   1      41.975  13.247  50.798  1.00  0.00    +0.000 C 
ATOM     11  C8  UNL A   1      41.381  12.273  51.608  1.00  0.00    +0.000 C 
ATOM     12  C9  UNL A   1      42.028  11.052  51.796  1.00  0.00    +0.000 C 
ATOM     13  C10 UNL A   1      43.244  10.804  51.163  1.00  0.00    +0.000 C 
ATOM     14  C11 UNL A   1      43.847  11.797  50.387  1.00  0.00    +0.000 C 
ATOM     15  C12 UNL A   1      43.237  13.051  50.204  1.00  0.00    +0.000 C 
ATOM    115  H15 UNL A   1      41.607  10.334  52.405  1.00  0.00    +0.000 H 
ATOM    116  H16 UNL A   1      43.700   9.884  51.268  1.00  0.00    +0.000 H 
ATOM    117  H17 UNL A   1      44.756  11.607  49.938  1.00  0.00    +0.000 H 
ATOM    153  H53 UNL A   1      41.475  14.134  50.631  1.00  0.00    +0.000 H 
BRANCH   11   10
ATOM     10  N1  UNL A   1      40.212  12.516  52.347  1.00  0.00    +0.000 N 
ATOM    114  H14 UNL A   1      39.367  12.411  51.854  1.00  0.00    +0.000 H 
BRANCH   10    8
ATOM      9  O2  UNL A   1      39.014  12.808  54.237  1.00  0.00    +0.000 O 
ATOM      8  C7  UNL A   1      40.091  12.877  53.662  1.00  0.00    +0.000 C 
BRANCH    8    7
ATOM      7  O1  UNL A   1      41.223  13.420  54.181  1.00  0.00    +0.000 O 
BRANCH    7    6
ATOM    113  H13 UNL A   1      40.835  12.675  56.038  1.00  0.00    +0.000 H 
ATOM      6  C6  UNL A   1      41.690  12.907  55.440  1.00  0.00    +0.000 C 
ATOM    112  H12 UNL A   1      42.303  13.650  55.909  1.00  0.00    +0.000 H 
BRANCH    6    5
ATOM      5  C5  UNL A   1      42.513  11.625  55.272  1.00  0.00    +0.000 C 
ATOM    110  H10 UNL A   1      42.137  10.901  55.965  1.00  0.00    +0.000 H 
ATOM    111  H11 UNL A   1      42.404  11.343  54.245  1.00  0.00    +0.000 H 
BRANCH    5    4
ATOM    108  H8  UNL A   1      44.189  11.827  56.563  1.00  0.00    +0.000 H 
ATOM      4  C4  UNL A   1      44.023  11.761  55.508  1.00  0.00    +0.000 C 
ATOM    109  H9  UNL A   1      44.473  10.901  55.057  1.00  0.00    +0.000 H 
BRANCH    4    3
ATOM    106  H6  UNL A   1      43.901  13.596  54.441  1.00  0.00    +0.000 H 
ATOM      3  C3  UNL A   1      44.678  12.981  54.847  1.00  0.00    +0.000 C 
ATOM    107  H7  UNL A   1      45.248  13.467  55.611  1.00  0.00    +0.000 H 
BRANCH    3    2
ATOM    105  H5  UNL A   1      46.606  13.085  53.985  1.00  0.00    +0.000 H 
ATOM      2  C2  UNL A   1      45.662  12.654  53.721  1.00  0.00    +0.000 C 
ATOM    104  H4  UNL A   1      45.282  13.060  52.807  1.00  0.00    +0.000 H 
BRANCH    2    1
ATOM      1  C1  UNL A   1      45.874  11.160  53.539  1.00  0.00    +0.000 C 
ATOM    101  H1  UNL A   1      46.893  10.914  53.760  1.00  0.00    +0.000 H 
ATOM    102  H2  UNL A   1      45.653  10.888  52.528  1.00  0.00    +0.000 H 
ATOM    103  H3  UNL A   1      45.227  10.624  54.202  1.00  0.00    +0.000 H 
ENDBRANCH    2    1
ENDBRANCH    3    2
ENDBRANCH    4    3
ENDBRANCH    5    4
ENDBRANCH    6    5
ENDBRANCH    7    6
ENDBRANCH    8    7
ENDBRANCH   10    8
ENDBRANCH   11   10
ENDBRANCH   16   15
ENDBRANCH   20   19
BRANCH   20   21
ATOM    121  H21 UNL A   1      47.622  18.357  48.274  1.00  0.00    +0.000 H 
ATOM    122  H22 UNL A   1      46.214  18.315  49.309  1.00  0.00    +0.000 H 
ATOM    123  H23 UNL A   1      46.294  19.456  47.987  1.00  0.00    +0.000 H 
ATOM     21  C18 UNL A   1      46.559  18.469  48.307  1.00  0.00    +0.000 C 
ENDBRANCH   20   21
ENDBRANCH   22   20
ENDBRANCH   24   22
ENDBRANCH   25   24
ENDBRANCH   26   25
ENDBRANCH   27   26
ENDBRANCH   28   27
ENDBRANCH   29   28
ENDBRANCH   30   29
ENDBRANCH   31   30
ENDBRANCH   32   31
ENDBRANCH   34   32
ENDBRANCH   38   37
BRANCH   42   43
ATOM     43  C35 UNL A   1      46.098   6.708  51.909  1.00  0.00    +0.000 C 
ATOM     44  C36 UNL A   1      44.855   6.801  52.550  1.00  0.00    +0.000 C 
ATOM     45  F1  UNL A   1      44.342   8.003  52.855  1.00  0.00    +0.000 F 
ATOM     46  C37 UNL A   1      44.149   5.657  52.910  1.00  0.00    +0.000 C 
ATOM     47  F2  UNL A   1      42.979   5.768  53.556  1.00  0.00    +0.000 F 
ATOM     48  C38 UNL A   1      44.658   4.401  52.612  1.00  0.00    +0.000 C 
ATOM     49  F3  UNL A   1      43.974   3.301  52.955  1.00  0.00    +0.000 F 
ATOM     50  C39 UNL A   1      45.879   4.286  51.966  1.00  0.00    +0.000 C 
ATOM     51  F4  UNL A   1      46.369   3.075  51.670  1.00  0.00    +0.000 F 
ATOM     52  C40 UNL A   1      46.599   5.428  51.624  1.00  0.00    +0.000 C 
ATOM     53  F5  UNL A   1      47.782   5.287  51.008  1.00  0.00    +0.000 F 
ENDBRANCH   42   43
BRANCH   59   60
ATOM     65  C49 UNL A   1      53.771  10.318  56.121  1.00  0.00    +0.000 C 
ATOM     66  F8  UNL A   1      54.722  10.235  57.060  1.00  0.00    +0.000 F 
ATOM     67  C50 UNL A   1      53.994   9.792  54.857  1.00  0.00    +0.000 C 
ATOM     68  F9  UNL A   1      55.157   9.187  54.580  1.00  0.00    +0.000 F 
ATOM     69  C51 UNL A   1      53.015   9.899  53.874  1.00  0.00    +0.000 C 
ATOM     70  F10 UNL A   1      53.262   9.394  52.656  1.00  0.00    +0.000 F 
ATOM     60  C46 UNL A   1      51.787  10.521  54.145  1.00  0.00    +0.000 C 
ATOM     61  C47 UNL A   1      51.575  11.030  55.434  1.00  0.00    +0.000 C 
ATOM     62  F6  UNL A   1      50.422  11.647  55.733  1.00  0.00    +0.000 F 
ATOM     63  C48 UNL A   1      52.564  10.940  56.408  1.00  0.00    +0.000 C 
ATOM     64  F7  UNL A   1      52.357  11.470  57.622  1.00  0.00    +0.000 F 
ENDBRANCH   59   60
BRANCH   74   75
ATOM     75  C55 UNL A   1      50.603  15.127  49.068  1.00  0.00    +0.000 C 
ATOM     76  C56 UNL A   1      50.112  16.355  49.533  1.00  0.00    +0.000 C 
ATOM     77  F11 UNL A   1      49.033  16.386  50.327  1.00  0.00    +0.000 F 
ATOM     78  C57 UNL A   1      50.704  17.555  49.148  1.00  0.00    +0.000 C 
ATOM     79  F12 UNL A   1      50.191  18.718  49.573  1.00  0.00    +0.000 F 
ATOM     80  C58 UNL A   1      51.811  17.549  48.313  1.00  0.00    +0.000 C 
ATOM     81  F13 UNL A   1      52.380  18.705  47.943  1.00  0.00    +0.000 F 
ATOM     82  C59 UNL A   1      52.323  16.344  47.856  1.00  0.00    +0.000 C 
ATOM     83  F14 UNL A   1      53.399  16.334  47.056  1.00  0.00    +0.000 F 
ATOM     84  C60 UNL A   1      51.719  15.143  48.221  1.00  0.00    +0.000 C 
ATOM     85  F15 UNL A   1      52.227  13.993  47.756  1.00  0.00    +0.000 F 
ENDBRANCH   74   75
TORSDOF 27
ENDMDL
MODEL 3
REMARK VINA RESULT:      -7.6      1.209      1.978
ROOT
ATOM    140  H40 UNL A   1      49.534   8.558  53.573  1.00  0.00    +0.000 H 
ATOM    141  H41 UNL A   1      51.328  10.382  54.080  1.00  0.00    +0.000 H 
ATOM    142  H42 UNL A   1      49.216  11.534  50.709  1.00  0.00    +0.000 H 
ATOM    143  H43 UNL A   1      48.151  15.742  46.032  1.00  0.00    +0.000 H 
ATOM    144  H44 UNL A   1      46.472  13.916  45.480  1.00  0.00    +0.000 H 
ATOM    145  H45 UNL A   1      48.546  12.748  48.888  1.00  0.00    +0.000 H 
ATOM    146  H46 UNL A   1      51.898  16.391  49.782  1.00  0.00    +0.000 H 
ATOM    147  H47 UNL A   1      52.805  14.921  51.672  1.00  0.00    +0.000 H 
ATOM    148  H48 UNL A   1      45.767   8.010  49.798  1.00  0.00    +0.000 H 
ATOM    149  H49 UNL A   1      45.183   9.204  47.610  1.00  0.00    +0.000 H 
ATOM     38  C31 UNL A   1      46.530  11.693  47.265  1.00  0.00    +0.000 C 
ATOM     39  C32 UNL A   1      46.722  10.689  48.368  1.00  0.00    +0.000 C 
ATOM     40  N4  UNL A   1      47.537  10.728  49.394  1.00  0.00    +0.000 N 
ATOM     41  C33 UNL A   1      47.276   9.579  50.129  1.00  0.00    +0.000 C 
ATOM     42  C34 UNL A   1      47.882   9.142  51.260  1.00  0.00    +0.000 C 
ATOM     54  C41 UNL A   1      48.976   9.813  51.909  1.00  0.00    +0.000 C 
ATOM     55  C42 UNL A   1      49.690   9.420  53.029  1.00  0.00    +0.000 C 
ATOM     56  C43 UNL A   1      50.660  10.394  53.295  1.00  0.00    +0.000 C 
ATOM     57  C44 UNL A   1      50.566  11.378  52.324  1.00  0.00    +0.000 C 
ATOM     58  N5  UNL A   1      49.523  11.014  51.488  1.00  0.00    +0.000 N 
ATOM     59  C45 UNL A   1      51.371  12.560  52.164  1.00  0.00    +0.000 C 
ATOM     71  C52 UNL A   1      51.183  13.505  51.212  1.00  0.00    +0.000 C 
ATOM     72  N6  UNL A   1      50.228  13.550  50.205  1.00  0.00    +0.000 N 
ATOM     73  C53 UNL A   1      50.445  14.666  49.554  1.00  0.00    +0.000 C 
ATOM     74  C54 UNL A   1      49.733  15.213  48.348  1.00  0.00    +0.000 C 
ATOM     86  C61 UNL A   1      48.761  14.487  47.765  1.00  0.00    +0.000 C 
ATOM     87  C62 UNL A   1      48.018  14.869  46.568  1.00  0.00    +0.000 C 
ATOM     88  C63 UNL A   1      47.133  13.902  46.272  1.00  0.00    +0.000 C 
ATOM     89  C64 UNL A   1      47.257  12.826  47.256  1.00  0.00    +0.000 C 
ATOM     90  N7  UNL A   1      48.242  13.263  48.107  1.00  0.00    +0.000 N 
ATOM     91  C65 UNL A   1      51.553  15.469  50.092  1.00  0.00    +0.000 C 
ATOM     92  C66 UNL A   1      51.991  14.699  51.076  1.00  0.00    +0.000 C 
ATOM     93  C67 UNL A   1      46.208   8.876  49.451  1.00  0.00    +0.000 C 
ATOM     94  C68 UNL A   1      45.868   9.491  48.327  1.00  0.00    +0.000 C 
ENDROOT
BRANCH   38   37
ATOM     34  C27 UNL A   1      43.569  10.916  44.251  1.00  0.00    +0.000 C 
ATOM     35  C28 UNL A   1      44.877  10.441  44.091  1.00  0.00    +0.000 C 
ATOM     36  C29 UNL A   1      45.843  10.699  45.067  1.00  0.00    +0.000 C 
ATOM     37  C30 UNL A   1      45.519  11.454  46.204  1.00  0.00    +0.000 C 
ATOM    138  H38 UNL A   1      45.128   9.899  43.250  1.00  0.00    +0.000 H 
ATOM    139  H39 UNL A   1      46.801  10.333  44.950  1.00  0.00    +0.000 H 
ATOM    150  H50 UNL A   1      43.969  12.521  47.168  1.00  0.00    +0.000 H 
ATOM    151  H51 UNL A   1      42.258  11.945  45.548  1.00  0.00    +0.000 H 
ATOM     95  C69 UNL A   1      44.211  11.938  46.351  1.00  0.00    +0.000 C 
ATOM     96  C70 UNL A   1      43.232  11.636  45.401  1.00  0.00    +0.000 C 
BRANCH   34   32
ATOM     33  O4  UNL A   1      42.747   9.544  42.538  1.00  0.00    +0.000 O 
ATOM     32  C26 UNL A   1      42.557  10.538  43.236  1.00  0.00    +0.000 C 
BRANCH   32   31
ATOM    137  H37 UNL A   1      40.702  11.090  43.726  1.00  0.00    +0.000 H 
ATOM     31  N3  UNL A   1      41.408  11.265  43.063  1.00  0.00    +0.000 N 
BRANCH   31   30
ATOM     30  C25 UNL A   1      41.069  12.254  42.056  1.00  0.00    +0.000 C 
ATOM    135  H35 UNL A   1      41.104  11.792  41.091  1.00  0.00    +0.000 H 
ATOM    136  H36 UNL A   1      40.086  12.622  42.272  1.00  0.00    +0.000 H 
BRANCH   30   29
ATOM    133  H33 UNL A   1      43.028  13.060  41.996  1.00  0.00    +0.000 H 
ATOM     29  C24 UNL A   1      42.031  13.442  42.072  1.00  0.00    +0.000 C 
ATOM    134  H34 UNL A   1      41.745  14.064  41.250  1.00  0.00    +0.000 H 
BRANCH   29   28
ATOM    131  H31 UNL A   1      41.027  14.855  43.293  1.00  0.00    +0.000 H 
ATOM     28  C23 UNL A   1      41.958  14.329  43.320  1.00  0.00    +0.000 C 
ATOM    132  H32 UNL A   1      42.061  13.664  44.153  1.00  0.00    +0.000 H 
BRANCH   28   27
ATOM    129  H29 UNL A   1      43.140  15.925  42.567  1.00  0.00    +0.000 H 
ATOM    130  H30 UNL A   1      42.819  15.955  44.331  1.00  0.00    +0.000 H 
ATOM     27  C22 UNL A   1      43.079  15.364  43.477  1.00  0.00    +0.000 C 
BRANCH   27   26
ATOM     26  C21 UNL A   1      44.470  14.790  43.771  1.00  0.00    +0.000 C 
ATOM    127  H27 UNL A   1      44.494  14.471  44.791  1.00  0.00    +0.000 H 
ATOM    128  H28 UNL A   1      44.623  13.984  43.082  1.00  0.00    +0.000 H 
BRANCH   26   25
ATOM     25  C20 UNL A   1      45.613  15.782  43.549  1.00  0.00    +0.000 C 
ATOM    125  H25 UNL A   1      46.519  15.354  43.927  1.00  0.00    +0.000 H 
ATOM    126  H26 UNL A   1      45.684  15.975  42.500  1.00  0.00    +0.000 H 
BRANCH   25   24
ATOM    124  H24 UNL A   1      44.631  17.570  43.851  1.00  0.00    +0.000 H 
ATOM     24  N2  UNL A   1      45.375  17.042  44.221  1.00  0.00    +0.000 N 
BRANCH   24   22
ATOM     22  C19 UNL A   1      46.010  17.619  45.278  1.00  0.00    +0.000 C 
ATOM     23  O3  UNL A   1      47.220  17.835  45.148  1.00  0.00    +0.000 O 
BRANCH   22   20
ATOM     20  C17 UNL A   1      45.300  17.991  46.588  1.00  0.00    +0.000 C 
ATOM    120  H20 UNL A   1      44.394  18.487  46.307  1.00  0.00    +0.000 H 
BRANCH   20   19
ATOM     97  C71 UNL A   1      45.528  16.363  48.487  1.00  0.00    +0.000 C 
ATOM     98  C72 UNL A   1      45.098  15.281  49.256  1.00  0.00    +0.000 C 
ATOM     99  F16 UNL A   1      45.878  14.912  50.285  1.00  0.00    +0.000 F 
ATOM     16  C13 UNL A   1      43.910  14.587  48.973  1.00  0.00    +0.000 C 
ATOM     17  C14 UNL A   1      43.198  15.005  47.837  1.00  0.00    +0.000 C 
ATOM     18  C15 UNL A   1      43.647  16.066  47.035  1.00  0.00    +0.000 C 
ATOM     19  C16 UNL A   1      44.804  16.782  47.363  1.00  0.00    +0.000 C 
ATOM    118  H18 UNL A   1      42.321  14.520  47.587  1.00  0.00    +0.000 H 
ATOM    119  H19 UNL A   1      43.115  16.323  46.188  1.00  0.00    +0.000 H 
ATOM    152  H52 UNL A   1      46.392  16.862  48.749  1.00  0.00    +0.000 H 
BRANCH   16   15
ATOM    100  C73 UNL A   1      42.185  13.518  50.461  1.00  0.00    +0.000 C 
ATOM     11  C8  UNL A   1      41.774  12.528  51.360  1.00  0.00    +0.000 C 
ATOM     12  C9  UNL A   1      42.601  11.429  51.592  1.00  0.00    +0.000 C 
ATOM     13  C10 UNL A   1      43.813  11.314  50.914  1.00  0.00    +0.000 C 
ATOM     14  C11 UNL A   1      44.231  12.328  50.047  1.00  0.00    +0.000 C 
ATOM     15  C12 UNL A   1      43.437  13.465  49.818  1.00  0.00    +0.000 C 
ATOM    115  H15 UNL A   1      42.316  10.701  52.264  1.00  0.00    +0.000 H 
ATOM    116  H16 UNL A   1      44.403  10.479  51.053  1.00  0.00    +0.000 H 
ATOM    117  H17 UNL A   1      45.139  12.240  49.565  1.00  0.00    +0.000 H 
ATOM    153  H53 UNL A   1      41.553  14.310  50.264  1.00  0.00    +0.000 H 
BRANCH   11   10
ATOM     10  N1  UNL A   1      40.614  12.651  52.141  1.00  0.00    +0.000 N 
ATOM    114  H14 UNL A   1      39.788  12.304  51.734  1.00  0.00    +0.000 H 
BRANCH   10    8
ATOM      9  O2  UNL A   1      41.443  13.310  54.133  1.00  0.00    +0.000 O 
ATOM      8  C7  UNL A   1      40.478  13.186  53.394  1.00  0.00    +0.000 C 
BRANCH    8    7
ATOM      7  O1  UNL A   1      39.187  13.423  53.743  1.00  0.00    +0.000 O 
BRANCH    7    6
ATOM    113  H13 UNL A   1      38.279  15.016  52.853  1.00  0.00    +0.000 H 
ATOM      6  C6  UNL A   1      38.749  14.791  53.787  1.00  0.00    +0.000 C 
ATOM    112  H12 UNL A   1      39.600  15.420  53.954  1.00  0.00    +0.000 H 
BRANCH    6    5
ATOM      5  C5  UNL A   1      37.728  15.037  54.902  1.00  0.00    +0.000 C 
ATOM    110  H10 UNL A   1      37.300  14.093  55.170  1.00  0.00    +0.000 H 
ATOM    111  H11 UNL A   1      38.272  15.509  55.694  1.00  0.00    +0.000 H 
BRANCH    5    4
ATOM    108  H8  UNL A   1      36.313  15.839  53.535  1.00  0.00    +0.000 H 
ATOM      4  C4  UNL A   1      36.578  15.994  54.560  1.00  0.00    +0.000 C 
ATOM    109  H9  UNL A   1      35.787  15.766  55.245  1.00  0.00    +0.000 H 
BRANCH    4    3
ATOM    106  H6  UNL A   1      37.570  17.577  55.573  1.00  0.00    +0.000 H 
ATOM      3  C3  UNL A   1      36.891  17.483  54.751  1.00  0.00    +0.000 C 
ATOM    107  H7  UNL A   1      37.299  17.826  53.823  1.00  0.00    +0.000 H 
BRANCH    3    2
ATOM    105  H5  UNL A   1      35.883  18.922  55.927  1.00  0.00    +0.000 H 
ATOM      2  C2  UNL A   1      35.675  18.367  55.036  1.00  0.00    +0.000 C 
ATOM    104  H4  UNL A   1      34.816  17.740  55.151  1.00  0.00    +0.000 H 
BRANCH    2    1
ATOM      1  C1  UNL A   1      35.401  19.368  53.925  1.00  0.00    +0.000 C 
ATOM    101  H1  UNL A   1      35.754  18.974  52.994  1.00  0.00    +0.000 H 
ATOM    102  H2  UNL A   1      35.908  20.286  54.139  1.00  0.00    +0.000 H 
ATOM    103  H3  UNL A   1      34.349  19.549  53.859  1.00  0.00    +0.000 H 
ENDBRANCH    2    1
ENDBRANCH    3    2
ENDBRANCH    4    3
ENDBRANCH    5    4
ENDBRANCH    6    5
ENDBRANCH    7    6
ENDBRANCH    8    7
ENDBRANCH   10    8
ENDBRANCH   11   10
ENDBRANCH   16   15
ENDBRANCH   20   19
BRANCH   20   21
ATOM    121  H21 UNL A   1      46.355  19.846  46.735  1.00  0.00    +0.000 H 
ATOM    122  H22 UNL A   1      46.839  18.654  47.918  1.00  0.00    +0.000 H 
ATOM    123  H23 UNL A   1      45.322  19.502  48.102  1.00  0.00    +0.000 H 
ATOM     21  C18 UNL A   1      46.007  19.080  47.396  1.00  0.00    +0.000 C 
ENDBRANCH   20   21
ENDBRANCH   22   20
ENDBRANCH   24   22
ENDBRANCH   25   24
ENDBRANCH   26   25
ENDBRANCH   27   26
ENDBRANCH   28   27
ENDBRANCH   29   28
ENDBRANCH   30   29
ENDBRANCH   31   30
ENDBRANCH   32   31
ENDBRANCH   34   32
ENDBRANCH   38   37
BRANCH   42   43
ATOM     43  C35 UNL A   1      47.377   7.867  51.866  1.00  0.00    +0.000 C 
ATOM     44  C36 UNL A   1      46.228   7.843  52.671  1.00  0.00    +0.000 C 
ATOM     45  F1  UNL A   1      45.582   8.983  52.958  1.00  0.00    +0.000 F 
ATOM     46  C37 UNL A   1      45.760   6.649  53.211  1.00  0.00    +0.000 C 
ATOM     47  F2  UNL A   1      44.683   6.653  54.009  1.00  0.00    +0.000 F 
ATOM     48  C38 UNL A   1      46.412   5.456  52.935  1.00  0.00    +0.000 C 
ATOM     49  F3  UNL A   1      45.956   4.306  53.452  1.00  0.00    +0.000 F 
ATOM     50  C39 UNL A   1      47.540   5.455  52.129  1.00  0.00    +0.000 C 
ATOM     51  F4  UNL A   1      48.166   4.303  51.855  1.00  0.00    +0.000 F 
ATOM     52  C40 UNL A   1      48.025   6.651  51.605  1.00  0.00    +0.000 C 
ATOM     53  F5  UNL A   1      49.125   6.622  50.837  1.00  0.00    +0.000 F 
ENDBRANCH   42   43
BRANCH   59   60
ATOM     65  C49 UNL A   1      54.653  13.180  54.880  1.00  0.00    +0.000 C 
ATOM     66  F8  UNL A   1      55.670  13.368  55.733  1.00  0.00    +0.000 F 
ATOM     67  C50 UNL A   1      53.431  13.793  55.110  1.00  0.00    +0.000 C 
ATOM     68  F9  UNL A   1      53.271  14.587  56.178  1.00  0.00    +0.000 F 
ATOM     69  C51 UNL A   1      52.368  13.581  54.237  1.00  0.00    +0.000 C 
ATOM     70  F10 UNL A   1      51.193  14.176  54.491  1.00  0.00    +0.000 F 
ATOM     60  C46 UNL A   1      52.516  12.761  53.109  1.00  0.00    +0.000 C 
ATOM     61  C47 UNL A   1      53.765  12.164  52.885  1.00  0.00    +0.000 C 
ATOM     62  F6  UNL A   1      53.947  11.360  51.827  1.00  0.00    +0.000 F 
ATOM     63  C48 UNL A   1      54.819  12.362  53.771  1.00  0.00    +0.000 C 
ATOM     64  F7  UNL A   1      55.993  11.749  53.561  1.00  0.00    +0.000 F 
ENDBRANCH   59   60
BRANCH   74   75
ATOM     75  C55 UNL A   1      50.122  16.524  47.770  1.00  0.00    +0.000 C 
ATOM     76  C56 UNL A   1      51.116  16.606  46.784  1.00  0.00    +0.000 C 
ATOM     77  F11 UNL A   1      51.736  15.494  46.366  1.00  0.00    +0.000 F 
ATOM     78  C57 UNL A   1      51.502  17.836  46.258  1.00  0.00    +0.000 C 
ATOM     79  F12 UNL A   1      52.483  17.892  45.346  1.00  0.00    +0.000 F 
ATOM     80  C58 UNL A   1      50.887  19.002  46.688  1.00  0.00    +0.000 C 
ATOM     81  F13 UNL A   1      51.259  20.185  46.181  1.00  0.00    +0.000 F 
ATOM     82  C59 UNL A   1      49.889  18.940  47.650  1.00  0.00    +0.000 C 
ATOM     83  F14 UNL A   1      49.285  20.064  48.060  1.00  0.00    +0.000 F 
ATOM     84  C60 UNL A   1      49.516  17.714  48.194  1.00  0.00    +0.000 C 
ATOM     85  F15 UNL A   1      48.558  17.683  49.131  1.00  0.00    +0.000 F 
ENDBRANCH   74   75
TORSDOF 27
ENDMDL
MODEL 4
REMARK VINA RESULT:      -7.4      1.431      2.436
ROOT
ATOM    140  H40 UNL A   1      48.106   7.014  53.708  1.00  0.00    +0.000 H 
ATOM    141  H41 UNL A   1      50.194   8.396  54.438  1.00  0.00    +0.000 H 
ATOM    142  H42 UNL A   1      48.593  10.149  51.045  1.00  0.00    +0.000 H 
ATOM    143  H43 UNL A   1      48.724  14.743  46.619  1.00  0.00    +0.000 H 
ATOM    144  H44 UNL A   1      46.751  13.338  45.850  1.00  0.00    +0.000 H 
ATOM    145  H45 UNL A   1      48.309  11.576  49.278  1.00  0.00    +0.000 H 
ATOM    146  H46 UNL A   1      52.262  14.390  50.604  1.00  0.00    +0.000 H 
ATOM    147  H47 UNL A   1      52.721  12.660  52.434  1.00  0.00    +0.000 H 
ATOM    148  H48 UNL A   1      44.571   7.471  49.705  1.00  0.00    +0.000 H 
ATOM    149  H49 UNL A   1      44.391   8.883  47.576  1.00  0.00    +0.000 H 
ATOM     38  C31 UNL A   1      46.236  11.054  47.477  1.00  0.00    +0.000 C 
ATOM     39  C32 UNL A   1      46.144   9.972  48.517  1.00  0.00    +0.000 C 
ATOM     40  N4  UNL A   1      46.879   9.783  49.586  1.00  0.00    +0.000 N 
ATOM     41  C33 UNL A   1      46.341   8.674  50.225  1.00  0.00    +0.000 C 
ATOM     42  C34 UNL A   1      46.767   8.058  51.354  1.00  0.00    +0.000 C 
ATOM     54  C41 UNL A   1      47.928   8.450  52.108  1.00  0.00    +0.000 C 
ATOM     55  C42 UNL A   1      48.470   7.855  53.235  1.00  0.00    +0.000 C 
ATOM     56  C43 UNL A   1      49.597   8.591  53.621  1.00  0.00    +0.000 C 
ATOM     57  C44 UNL A   1      49.771   9.626  52.716  1.00  0.00    +0.000 C 
ATOM     58  N5  UNL A   1      48.735   9.534  51.801  1.00  0.00    +0.000 N 
ATOM     59  C45 UNL A   1      50.808  10.623  52.682  1.00  0.00    +0.000 C 
ATOM     71  C52 UNL A   1      50.880  11.639  51.789  1.00  0.00    +0.000 C 
ATOM     72  N6  UNL A   1      50.025  11.937  50.738  1.00  0.00    +0.000 N 
ATOM     73  C53 UNL A   1      50.508  13.019  50.177  1.00  0.00    +0.000 C 
ATOM     74  C54 UNL A   1      50.006  13.769  48.976  1.00  0.00    +0.000 C 
ATOM     86  C61 UNL A   1      48.948  13.294  48.291  1.00  0.00    +0.000 C 
ATOM     87  C62 UNL A   1      48.381  13.888  47.084  1.00  0.00    +0.000 C 
ATOM     88  C63 UNL A   1      47.340  13.144  46.674  1.00  0.00    +0.000 C 
ATOM     89  C64 UNL A   1      47.176  12.011  47.587  1.00  0.00    +0.000 C 
ATOM     90  N7  UNL A   1      48.169  12.186  48.518  1.00  0.00    +0.000 N 
ATOM     91  C65 UNL A   1      51.717  13.544  50.830  1.00  0.00    +0.000 C 
ATOM     92  C66 UNL A   1      51.921  12.645  51.781  1.00  0.00    +0.000 C 
ATOM     93  C67 UNL A   1      45.200   8.246  49.443  1.00  0.00    +0.000 C 
ATOM     94  C68 UNL A   1      45.070   8.980  48.347  1.00  0.00    +0.000 C 
ENDROOT
BRANCH   38   37
ATOM     34  C27 UNL A   1      43.391  11.077  44.258  1.00  0.00    +0.000 C 
ATOM     35  C28 UNL A   1      44.596  10.376  44.127  1.00  0.00    +0.000 C 
ATOM     36  C29 UNL A   1      45.526  10.374  45.170  1.00  0.00    +0.000 C 
ATOM     37  C30 UNL A   1      45.271  11.090  46.349  1.00  0.00    +0.000 C 
ATOM    138  H38 UNL A   1      44.799   9.860  43.257  1.00  0.00    +0.000 H 
ATOM    139  H39 UNL A   1      46.406   9.842  45.072  1.00  0.00    +0.000 H 
ATOM    150  H50 UNL A   1      43.883  12.357  47.318  1.00  0.00    +0.000 H 
ATOM    151  H51 UNL A   1      42.208  12.237  45.568  1.00  0.00    +0.000 H 
ATOM     95  C69 UNL A   1      44.068  11.801  46.469  1.00  0.00    +0.000 C 
ATOM     96  C70 UNL A   1      43.117  11.761  45.447  1.00  0.00    +0.000 C 
BRANCH   34   32
ATOM     33  O4  UNL A   1      42.432  10.002  42.410  1.00  0.00    +0.000 O 
ATOM     32  C26 UNL A   1      42.397  10.973  43.163  1.00  0.00    +0.000 C 
BRANCH   32   31
ATOM    137  H37 UNL A   1      40.712  11.929  43.647  1.00  0.00    +0.000 H 
ATOM     31  N3  UNL A   1      41.432  11.929  42.977  1.00  0.00    +0.000 N 
BRANCH   31   30
ATOM     30  C25 UNL A   1      41.308  12.944  41.945  1.00  0.00    +0.000 C 
ATOM    135  H35 UNL A   1      41.401  12.476  40.987  1.00  0.00    +0.000 H 
ATOM    136  H36 UNL A   1      40.350  13.411  42.056  1.00  0.00    +0.000 H 
BRANCH   30   29
ATOM    133  H33 UNL A   1      43.336  13.548  42.054  1.00  0.00    +0.000 H 
ATOM     29  C24 UNL A   1      42.379  14.026  42.074  1.00  0.00    +0.000 C 
ATOM    134  H34 UNL A   1      42.217  14.699  41.258  1.00  0.00    +0.000 H 
BRANCH   29   28
ATOM    131  H31 UNL A   1      41.609  15.672  43.168  1.00  0.00    +0.000 H 
ATOM     28  C23 UNL A   1      42.302  14.877  43.347  1.00  0.00    +0.000 C 
ATOM    132  H32 UNL A   1      42.006  14.205  44.126  1.00  0.00    +0.000 H 
BRANCH   28   27
ATOM    129  H29 UNL A   1      43.885  16.279  43.132  1.00  0.00    +0.000 H 
ATOM    130  H30 UNL A   1      43.443  15.850  44.816  1.00  0.00    +0.000 H 
ATOM     27  C22 UNL A   1      43.621  15.502  43.819  1.00  0.00    +0.000 C 
BRANCH   27   26
ATOM     26  C21 UNL A   1      44.809  14.537  43.918  1.00  0.00    +0.000 C 
ATOM    127  H27 UNL A   1      44.788  14.074  44.881  1.00  0.00    +0.000 H 
ATOM    128  H28 UNL A   1      44.703  13.834  43.118  1.00  0.00    +0.000 H 
BRANCH   26   25
ATOM     25  C20 UNL A   1      46.173  15.207  43.735  1.00  0.00    +0.000 C 
ATOM    125  H25 UNL A   1      46.926  14.574  44.157  1.00  0.00    +0.000 H 
ATOM    126  H26 UNL A   1      46.331  15.355  42.688  1.00  0.00    +0.000 H 
BRANCH   25   24
ATOM    124  H24 UNL A   1      45.715  17.208  43.935  1.00  0.00    +0.000 H 
ATOM     24  N2  UNL A   1      46.232  16.500  44.384  1.00  0.00    +0.000 N 
BRANCH   24   22
ATOM     22  C19 UNL A   1      46.884  16.902  45.509  1.00  0.00    +0.000 C 
ATOM     23  O3  UNL A   1      48.117  16.808  45.499  1.00  0.00    +0.000 O 
BRANCH   22   20
ATOM     20  C17 UNL A   1      46.166  17.440  46.755  1.00  0.00    +0.000 C 
ATOM    120  H20 UNL A   1      45.386  18.080  46.397  1.00  0.00    +0.000 H 
BRANCH   20   19
ATOM     97  C71 UNL A   1      45.998  15.809  48.657  1.00  0.00    +0.000 C 
ATOM     98  C72 UNL A   1      45.329  14.846  49.415  1.00  0.00    +0.000 C 
ATOM     99  F16 UNL A   1      45.988  14.325  50.462  1.00  0.00    +0.000 F 
ATOM     16  C13 UNL A   1      44.027  14.419  49.103  1.00  0.00    +0.000 C 
ATOM     17  C14 UNL A   1      43.447  14.975  47.951  1.00  0.00    +0.000 C 
ATOM     18  C15 UNL A   1      44.131  15.912  47.161  1.00  0.00    +0.000 C 
ATOM     19  C16 UNL A   1      45.406  16.367  47.516  1.00  0.00    +0.000 C 
ATOM    118  H18 UNL A   1      42.494  14.686  47.679  1.00  0.00    +0.000 H 
ATOM    119  H19 UNL A   1      43.686  16.272  46.302  1.00  0.00    +0.000 H 
ATOM    152  H52 UNL A   1      46.941  16.114  48.941  1.00  0.00    +0.000 H 
BRANCH   16   15
ATOM    100  C73 UNL A   1      42.080  13.749  50.549  1.00  0.00    +0.000 C 
ATOM     11  C8  UNL A   1      41.447  12.872  51.438  1.00  0.00    +0.000 C 
ATOM     12  C9  UNL A   1      42.016  11.623  51.687  1.00  0.00    +0.000 C 
ATOM     13  C10 UNL A   1      43.190  11.251  51.037  1.00  0.00    +0.000 C 
ATOM     14  C11 UNL A   1      43.835  12.148  50.182  1.00  0.00    +0.000 C 
ATOM     15  C12 UNL A   1      43.306  13.428  49.935  1.00  0.00    +0.000 C 
ATOM    115  H15 UNL A   1      41.566  10.976  52.352  1.00  0.00    +0.000 H 
ATOM    116  H16 UNL A   1      43.585  10.309  51.190  1.00  0.00    +0.000 H 
ATOM    117  H17 UNL A   1      44.714  11.867  49.721  1.00  0.00    +0.000 H 
ATOM    153  H53 UNL A   1      41.637  14.656  50.339  1.00  0.00    +0.000 H 
BRANCH   11   10
ATOM     10  N1  UNL A   1      40.323  13.243  52.191  1.00  0.00    +0.000 N 
ATOM    114  H14 UNL A   1      39.609  13.703  51.693  1.00  0.00    +0.000 H 
BRANCH   10    8
ATOM      9  O2  UNL A   1      41.004  12.880  54.312  1.00  0.00    +0.000 O 
ATOM      8  C7  UNL A   1      40.084  13.048  53.525  1.00  0.00    +0.000 C 
BRANCH    8    7
ATOM      7  O1  UNL A   1      38.764  12.937  53.828  1.00  0.00    +0.000 O 
BRANCH    7    6
ATOM    113  H13 UNL A   1      39.045  13.163  55.834  1.00  0.00    +0.000 H 
ATOM      6  C6  UNL A   1      38.326  13.451  55.096  1.00  0.00    +0.000 C 
ATOM    112  H12 UNL A   1      37.359  13.047  55.317  1.00  0.00    +0.000 H 
BRANCH    6    5
ATOM      5  C5  UNL A   1      38.233  14.981  55.100  1.00  0.00    +0.000 C 
ATOM    110  H10 UNL A   1      38.763  15.340  55.957  1.00  0.00    +0.000 H 
ATOM    111  H11 UNL A   1      38.648  15.298  54.165  1.00  0.00    +0.000 H 
BRANCH    5    4
ATOM    108  H8  UNL A   1      36.123  14.752  55.196  1.00  0.00    +0.000 H 
ATOM      4  C4  UNL A   1      36.815  15.566  55.144  1.00  0.00    +0.000 C 
ATOM    109  H9  UNL A   1      36.785  16.208  56.001  1.00  0.00    +0.000 H 
BRANCH    4    3
ATOM    106  H6  UNL A   1      37.250  16.429  53.251  1.00  0.00    +0.000 H 
ATOM      3  C3  UNL A   1      36.433  16.440  53.943  1.00  0.00    +0.000 C 
ATOM    107  H7  UNL A   1      35.533  16.023  53.543  1.00  0.00    +0.000 H 
BRANCH    3    2
ATOM    105  H5  UNL A   1      35.133  18.108  53.912  1.00  0.00    +0.000 H 
ATOM      2  C2  UNL A   1      36.116  17.899  54.281  1.00  0.00    +0.000 C 
ATOM    104  H4  UNL A   1      36.854  18.523  53.823  1.00  0.00    +0.000 H 
BRANCH    2    1
ATOM      1  C1  UNL A   1      36.110  18.169  55.777  1.00  0.00    +0.000 C 
ATOM    101  H1  UNL A   1      35.705  19.142  55.963  1.00  0.00    +0.000 H 
ATOM    102  H2  UNL A   1      37.111  18.123  56.152  1.00  0.00    +0.000 H 
ATOM    103  H3  UNL A   1      35.510  17.434  56.271  1.00  0.00    +0.000 H 
ENDBRANCH    2    1
ENDBRANCH    3    2
ENDBRANCH    4    3
ENDBRANCH    5    4
ENDBRANCH    6    5
ENDBRANCH    7    6
ENDBRANCH    8    7
ENDBRANCH   10    8
ENDBRANCH   11   10
ENDBRANCH   16   15
ENDBRANCH   20   19
BRANCH   20   21
ATOM    121  H21 UNL A   1      48.032  18.124  47.545  1.00  0.00    +0.000 H 
ATOM    122  H22 UNL A   1      46.667  18.388  48.606  1.00  0.00    +0.000 H 
ATOM    123  H23 UNL A   1      46.891  19.402  47.200  1.00  0.00    +0.000 H 
ATOM     21  C18 UNL A   1      47.002  18.411  47.589  1.00  0.00    +0.000 C 
ENDBRANCH   20   21
ENDBRANCH   22   20
ENDBRANCH   24   22
ENDBRANCH   25   24
ENDBRANCH   26   25
ENDBRANCH   27   26
ENDBRANCH   28   27
ENDBRANCH   29   28
ENDBRANCH   30   29
ENDBRANCH   31   30
ENDBRANCH   32   31
ENDBRANCH   34   32
ENDBRANCH   38   37
BRANCH   42   43
ATOM     43  C35 UNL A   1      45.974   6.883  51.842  1.00  0.00    +0.000 C 
ATOM     44  C36 UNL A   1      46.317   5.570  51.489  1.00  0.00    +0.000 C 
ATOM     45  F1  UNL A   1      47.343   5.341  50.656  1.00  0.00    +0.000 F 
ATOM     46  C37 UNL A   1      45.582   4.487  51.965  1.00  0.00    +0.000 C 
ATOM     47  F2  UNL A   1      45.903   3.243  51.585  1.00  0.00    +0.000 F 
ATOM     48  C38 UNL A   1      44.511   4.695  52.822  1.00  0.00    +0.000 C 
ATOM     49  F3  UNL A   1      43.809   3.651  53.284  1.00  0.00    +0.000 F 
ATOM     50  C39 UNL A   1      44.165   5.984  53.196  1.00  0.00    +0.000 C 
ATOM     51  F4  UNL A   1      43.136   6.186  54.031  1.00  0.00    +0.000 F 
ATOM     52  C40 UNL A   1      44.883   7.071  52.704  1.00  0.00    +0.000 C 
ATOM     53  F5  UNL A   1      44.519   8.308  53.075  1.00  0.00    +0.000 F 
ENDBRANCH   42   43
BRANCH   59   60
ATOM     65  C49 UNL A   1      53.957  10.311  55.601  1.00  0.00    +0.000 C 
ATOM     66  F8  UNL A   1      54.944  10.219  56.503  1.00  0.00    +0.000 F 
ATOM     67  C50 UNL A   1      54.065   9.654  54.385  1.00  0.00    +0.000 C 
ATOM     68  F9  UNL A   1      55.151   8.914  54.118  1.00  0.00    +0.000 F 
ATOM     69  C51 UNL A   1      53.052   9.767  53.438  1.00  0.00    +0.000 C 
ATOM     70  F10 UNL A   1      53.187   9.132  52.264  1.00  0.00    +0.000 F 
ATOM     60  C46 UNL A   1      51.903  10.529  53.700  1.00  0.00    +0.000 C 
ATOM     61  C47 UNL A   1      51.806  11.170  54.943  1.00  0.00    +0.000 C 
ATOM     62  F6  UNL A   1      50.733  11.922  55.231  1.00  0.00    +0.000 F 
ATOM     63  C48 UNL A   1      52.831  11.072  55.878  1.00  0.00    +0.000 C 
ATOM     64  F7  UNL A   1      52.737  11.727  57.045  1.00  0.00    +0.000 F 
ENDBRANCH   59   60
BRANCH   74   75
ATOM     75  C55 UNL A   1      50.691  15.001  48.512  1.00  0.00    +0.000 C 
ATOM     76  C56 UNL A   1      50.221  16.268  48.888  1.00  0.00    +0.000 C 
ATOM     77  F11 UNL A   1      49.132  16.374  49.663  1.00  0.00    +0.000 F 
ATOM     78  C57 UNL A   1      50.845  17.427  48.435  1.00  0.00    +0.000 C 
ATOM     79  F12 UNL A   1      50.353  18.626  48.775  1.00  0.00    +0.000 F 
ATOM     80  C58 UNL A   1      51.963  17.342  47.618  1.00  0.00    +0.000 C 
ATOM     81  F13 UNL A   1      52.563  18.458  47.182  1.00  0.00    +0.000 F 
ATOM     82  C59 UNL A   1      52.455  16.098  47.249  1.00  0.00    +0.000 C 
ATOM     83  F14 UNL A   1      53.540  16.013  46.468  1.00  0.00    +0.000 F 
ATOM     84  C60 UNL A   1      51.819  14.938  47.684  1.00  0.00    +0.000 C 
ATOM     85  F15 UNL A   1      52.306  13.748  47.302  1.00  0.00    +0.000 F 
ENDBRANCH   74   75
TORSDOF 27
ENDMDL
MODEL 5
REMARK VINA RESULT:      -7.4     62.453     67.779
ROOT
ATOM    140  H40 UNL A   1      14.029  46.753   2.909  1.00  0.00    +0.000 H 
ATOM    141  H41 UNL A   1      15.558  47.012   0.812  1.00  0.00    +0.000 H 
ATOM    142  H42 UNL A   1      15.180  50.721   2.615  1.00  0.00    +0.000 H 
ATOM    143  H43 UNL A   1      16.589  56.942   2.794  1.00  0.00    +0.000 H 
ATOM    144  H44 UNL A   1      15.018  56.708   4.778  1.00  0.00    +0.000 H 
ATOM    145  H45 UNL A   1      15.407  52.963   3.015  1.00  0.00    +0.000 H 
ATOM    146  H46 UNL A   1      18.436  53.610  -0.949  1.00  0.00    +0.000 H 
ATOM    147  H47 UNL A   1      17.989  51.158  -1.532  1.00  0.00    +0.000 H 
ATOM    148  H48 UNL A   1      12.259  50.158   6.652  1.00  0.00    +0.000 H 
ATOM    149  H49 UNL A   1      12.272  52.699   6.966  1.00  0.00    +0.000 H 
ATOM     38  C31 UNL A   1      14.010  54.070   5.168  1.00  0.00    +0.000 C 
ATOM     39  C32 UNL A   1      13.677  52.603   5.187  1.00  0.00    +0.000 C 
ATOM     40  N4  UNL A   1      14.097  51.647   4.395  1.00  0.00    +0.000 N 
ATOM     41  C33 UNL A   1      13.527  50.477   4.879  1.00  0.00    +0.000 C 
ATOM     42  C34 UNL A   1      13.626  49.219   4.385  1.00  0.00    +0.000 C 
ATOM     54  C41 UNL A   1      14.353  48.867   3.194  1.00  0.00    +0.000 C 
ATOM     55  C42 UNL A   1      14.467  47.628   2.585  1.00  0.00    +0.000 C 
ATOM     56  C43 UNL A   1      15.280  47.770   1.453  1.00  0.00    +0.000 C 
ATOM     57  C44 UNL A   1      15.646  49.101   1.344  1.00  0.00    +0.000 C 
ATOM     58  N5  UNL A   1      15.080  49.760   2.424  1.00  0.00    +0.000 N 
ATOM     59  C45 UNL A   1      16.447  49.731   0.328  1.00  0.00    +0.000 C 
ATOM     71  C52 UNL A   1      16.805  51.038   0.321  1.00  0.00    +0.000 C 
ATOM     72  N6  UNL A   1      16.488  52.034   1.234  1.00  0.00    +0.000 N 
ATOM     73  C53 UNL A   1      17.078  53.120   0.800  1.00  0.00    +0.000 C 
ATOM     74  C54 UNL A   1      17.052  54.508   1.376  1.00  0.00    +0.000 C 
ATOM     86  C61 UNL A   1      16.293  54.763   2.458  1.00  0.00    +0.000 C 
ATOM     87  C62 UNL A   1      16.134  56.066   3.097  1.00  0.00    +0.000 C 
ATOM     88  C63 UNL A   1      15.300  55.945   4.144  1.00  0.00    +0.000 C 
ATOM     89  C64 UNL A   1      14.857  54.554   4.241  1.00  0.00    +0.000 C 
ATOM     90  N7  UNL A   1      15.502  53.924   3.204  1.00  0.00    +0.000 N 
ATOM     91  C65 UNL A   1      17.860  52.928  -0.431  1.00  0.00    +0.000 C 
ATOM     92  C66 UNL A   1      17.628  51.652  -0.700  1.00  0.00    +0.000 C 
ATOM     93  C67 UNL A   1      12.755  50.835   6.050  1.00  0.00    +0.000 C 
ATOM     94  C68 UNL A   1      12.768  52.145   6.250  1.00  0.00    +0.000 C 
ENDROOT
BRANCH   38   37
ATOM     34  C27 UNL A   1      12.385  56.783   8.075  1.00  0.00    +0.000 C 
ATOM     35  C28 UNL A   1      13.583  56.107   8.337  1.00  0.00    +0.000 C 
ATOM     36  C29 UNL A   1      14.109  55.218   7.396  1.00  0.00    +0.000 C 
ATOM     37  C30 UNL A   1      13.432  54.980   6.190  1.00  0.00    +0.000 C 
ATOM    138  H38 UNL A   1      14.078  56.264   9.228  1.00  0.00    +0.000 H 
ATOM    139  H39 UNL A   1      15.000  54.735   7.589  1.00  0.00    +0.000 H 
ATOM    150  H50 UNL A   1      11.703  55.459   5.071  1.00  0.00    +0.000 H 
ATOM    151  H51 UNL A   1      10.871  57.111   6.639  1.00  0.00    +0.000 H 
ATOM     95  C69 UNL A   1      12.226  55.650   5.940  1.00  0.00    +0.000 C 
ATOM     96  C70 UNL A   1      11.727  56.577   6.859  1.00  0.00    +0.000 C 
BRANCH   34   32
ATOM     33  O4  UNL A   1      12.067  58.982   8.824  1.00  0.00    +0.000 O 
ATOM     32  C26 UNL A   1      11.916  57.785   9.062  1.00  0.00    +0.000 C 
BRANCH   32   31
ATOM    137  H37 UNL A   1      11.623  57.881  11.036  1.00  0.00    +0.000 H 
ATOM     31  N3  UNL A   1      11.307  57.409  10.232  1.00  0.00    +0.000 N 
BRANCH   31   30
ATOM     30  C25 UNL A   1      10.267  56.425  10.471  1.00  0.00    +0.000 C 
ATOM    135  H35 UNL A   1       9.780  56.654  11.396  1.00  0.00    +0.000 H 
ATOM    136  H36 UNL A   1       9.579  56.466   9.652  1.00  0.00    +0.000 H 
BRANCH   30   29
ATOM    133  H33 UNL A   1      10.046  54.359  10.889  1.00  0.00    +0.000 H 
ATOM     29  C24 UNL A   1      10.827  55.005  10.546  1.00  0.00    +0.000 C 
ATOM    134  H34 UNL A   1      11.176  54.774   9.561  1.00  0.00    +0.000 H 
BRANCH   29   28
ATOM    131  H31 UNL A   1      12.652  55.690  11.382  1.00  0.00    +0.000 H 
ATOM     28  C23 UNL A   1      12.033  54.823  11.476  1.00  0.00    +0.000 C 
ATOM    132  H32 UNL A   1      11.624  54.682  12.455  1.00  0.00    +0.000 H 
BRANCH   28   27
ATOM    129  H29 UNL A   1      12.369  52.939  10.553  1.00  0.00    +0.000 H 
ATOM    130  H30 UNL A   1      13.822  53.961  10.796  1.00  0.00    +0.000 H 
ATOM     27  C22 UNL A   1      12.907  53.591  11.211  1.00  0.00    +0.000 C 
BRANCH   27   26
ATOM     26  C21 UNL A   1      13.304  52.784  12.453  1.00  0.00    +0.000 C 
ATOM    127  H27 UNL A   1      12.919  53.284  13.316  1.00  0.00    +0.000 H 
ATOM    128  H28 UNL A   1      12.896  51.803  12.327  1.00  0.00    +0.000 H 
BRANCH   26   25
ATOM     25  C20 UNL A   1      14.814  52.614  12.629  1.00  0.00    +0.000 C 
ATOM    125  H25 UNL A   1      15.223  53.530  13.003  1.00  0.00    +0.000 H 
ATOM    126  H26 UNL A   1      14.978  51.808  13.311  1.00  0.00    +0.000 H 
BRANCH   25   24
ATOM    124  H24 UNL A   1      15.343  52.947  10.663  1.00  0.00    +0.000 H 
ATOM     24  N2  UNL A   1      15.471  52.285  11.381  1.00  0.00    +0.000 N 
BRANCH   24   22
ATOM     22  C19 UNL A   1      16.235  51.213  11.034  1.00  0.00    +0.000 C 
ATOM     23  O3  UNL A   1      17.294  51.062  11.654  1.00  0.00    +0.000 O 
BRANCH   22   20
ATOM     20  C17 UNL A   1      15.845  50.222   9.928  1.00  0.00    +0.000 C 
ATOM    120  H20 UNL A   1      16.449  49.352  10.079  1.00  0.00    +0.000 H 
BRANCH   20   19
ATOM     97  C71 UNL A   1      13.376  50.411   9.503  1.00  0.00    +0.000 C 
ATOM     98  C72 UNL A   1      12.062  49.948   9.578  1.00  0.00    +0.000 C 
ATOM     99  F16 UNL A   1      11.106  50.728   9.048  1.00  0.00    +0.000 F 
ATOM     16  C13 UNL A   1      11.733  48.726  10.188  1.00  0.00    +0.000 C 
ATOM     17  C14 UNL A   1      12.793  48.014  10.772  1.00  0.00    +0.000 C 
ATOM     18  C15 UNL A   1      14.111  48.495  10.737  1.00  0.00    +0.000 C 
ATOM     19  C16 UNL A   1      14.430  49.687  10.077  1.00  0.00    +0.000 C 
ATOM    118  H18 UNL A   1      12.598  47.113  11.237  1.00  0.00    +0.000 H 
ATOM    119  H19 UNL A   1      14.860  47.961  11.206  1.00  0.00    +0.000 H 
ATOM    152  H52 UNL A   1      13.575  51.300   9.019  1.00  0.00    +0.000 H 
BRANCH   16   15
ATOM    100  C73 UNL A   1       9.914  47.198   9.357  1.00  0.00    +0.000 C 
ATOM     11  C8  UNL A   1       8.577  46.793   9.293  1.00  0.00    +0.000 C 
ATOM     12  C9  UNL A   1       7.644  47.377  10.149  1.00  0.00    +0.000 C 
ATOM     13  C10 UNL A   1       8.051  48.337  11.072  1.00  0.00    +0.000 C 
ATOM     14  C11 UNL A   1       9.382  48.762  11.102  1.00  0.00    +0.000 C 
ATOM     15  C12 UNL A   1      10.341  48.219  10.228  1.00  0.00    +0.000 C 
ATOM    115  H15 UNL A   1       6.652  47.097  10.099  1.00  0.00    +0.000 H 
ATOM    116  H16 UNL A   1       7.368  48.736  11.734  1.00  0.00    +0.000 H 
ATOM    117  H17 UNL A   1       9.668  49.488  11.777  1.00  0.00    +0.000 H 
ATOM    153  H53 UNL A   1      10.608  46.736   8.748  1.00  0.00    +0.000 H 
BRANCH   11   10
ATOM     10  N1  UNL A   1       8.103  45.907   8.313  1.00  0.00    +0.000 N 
ATOM    114  H14 UNL A   1       8.475  44.997   8.345  1.00  0.00    +0.000 H 
BRANCH   10    8
ATOM      9  O2  UNL A   1       6.080  45.628   7.353  1.00  0.00    +0.000 O 
ATOM      8  C7  UNL A   1       7.189  46.138   7.319  1.00  0.00    +0.000 C 
BRANCH    8    7
ATOM      7  O1  UNL A   1       7.690  46.858   6.281  1.00  0.00    +0.000 O 
BRANCH    7    6
ATOM    113  H13 UNL A   1       6.074  48.099   6.234  1.00  0.00    +0.000 H 
ATOM      6  C6  UNL A   1       7.124  48.155   6.036  1.00  0.00    +0.000 C 
ATOM    112  H12 UNL A   1       7.313  48.427   5.017  1.00  0.00    +0.000 H 
BRANCH    6    5
ATOM      5  C5  UNL A   1       7.721  49.230   6.951  1.00  0.00    +0.000 C 
ATOM    110  H10 UNL A   1       7.075  50.083   6.920  1.00  0.00    +0.000 H 
ATOM    111  H11 UNL A   1       7.798  48.776   7.917  1.00  0.00    +0.000 H 
BRANCH    5    4
ATOM    108  H8  UNL A   1       9.635  49.966   7.507  1.00  0.00    +0.000 H 
ATOM      4  C4  UNL A   1       9.138  49.699   6.598  1.00  0.00    +0.000 C 
ATOM    109  H9  UNL A   1       9.601  48.884   6.081  1.00  0.00    +0.000 H 
BRANCH    4    3
ATOM    106  H6  UNL A   1       8.236  51.348   5.605  1.00  0.00    +0.000 H 
ATOM      3  C3  UNL A   1       9.208  50.902   5.648  1.00  0.00    +0.000 C 
ATOM    107  H7  UNL A   1       9.957  51.555   6.045  1.00  0.00    +0.000 H 
BRANCH    3    2
ATOM    105  H5  UNL A   1       8.922  49.891   3.813  1.00  0.00    +0.000 H 
ATOM      2  C2  UNL A   1       9.643  50.571   4.219  1.00  0.00    +0.000 C 
ATOM    104  H4  UNL A   1      10.622  50.140   4.250  1.00  0.00    +0.000 H 
BRANCH    2    1
ATOM      1  C1  UNL A   1       9.679  51.794   3.316  1.00  0.00    +0.000 C 
ATOM    101  H1  UNL A   1       8.681  52.142   3.146  1.00  0.00    +0.000 H 
ATOM    102  H2  UNL A   1      10.130  51.534   2.381  1.00  0.00    +0.000 H 
ATOM    103  H3  UNL A   1      10.251  52.567   3.785  1.00  0.00    +0.000 H 
ENDBRANCH    2    1
ENDBRANCH    3    2
ENDBRANCH    4    3
ENDBRANCH    5    4
ENDBRANCH    6    5
ENDBRANCH    7    6
ENDBRANCH    8    7
ENDBRANCH   10    8
ENDBRANCH   11   10
ENDBRANCH   16   15
ENDBRANCH   20   19
BRANCH   20   21
ATOM    121  H21 UNL A   1      15.402  50.864   7.936  1.00  0.00    +0.000 H 
ATOM    122  H22 UNL A   1      16.829  49.863   8.063  1.00  0.00    +0.000 H 
ATOM    123  H23 UNL A   1      16.881  51.529   8.589  1.00  0.00    +0.000 H 
ATOM     21  C18 UNL A   1      16.271  50.651   8.524  1.00  0.00    +0.000 C 
ENDBRANCH   20   21
ENDBRANCH   22   20
ENDBRANCH   24   22
ENDBRANCH   25   24
ENDBRANCH   26   25
ENDBRANCH   27   26
ENDBRANCH   28   27
ENDBRANCH   29   28
ENDBRANCH   30   29
ENDBRANCH   31   30
ENDBRANCH   32   31
ENDBRANCH   34   32
ENDBRANCH   38   37
BRANCH   42   43
ATOM     43  C35 UNL A   1      12.922  48.126   5.131  1.00  0.00    +0.000 C 
ATOM     44  C36 UNL A   1      11.775  47.507   4.614  1.00  0.00    +0.000 C 
ATOM     45  F1  UNL A   1      11.250  47.922   3.451  1.00  0.00    +0.000 F 
ATOM     46  C37 UNL A   1      11.143  46.479   5.309  1.00  0.00    +0.000 C 
ATOM     47  F2  UNL A   1      10.026  45.927   4.816  1.00  0.00    +0.000 F 
ATOM     48  C38 UNL A   1      11.660  46.034   6.517  1.00  0.00    +0.000 C 
ATOM     49  F3  UNL A   1      11.053  45.041   7.182  1.00  0.00    +0.000 F 
ATOM     50  C39 UNL A   1      12.803  46.622   7.038  1.00  0.00    +0.000 C 
ATOM     51  F4  UNL A   1      13.308  46.187   8.201  1.00  0.00    +0.000 F 
ATOM     52  C40 UNL A   1      13.424  47.665   6.357  1.00  0.00    +0.000 C 
ATOM     53  F5  UNL A   1      14.523  48.222   6.890  1.00  0.00    +0.000 F 
ENDBRANCH   42   43
BRANCH   59   60
ATOM     65  C49 UNL A   1      17.827  47.324  -2.963  1.00  0.00    +0.000 C 
ATOM     66  F8  UNL A   1      18.255  46.566  -3.982  1.00  0.00    +0.000 F 
ATOM     67  C50 UNL A   1      18.550  47.370  -1.781  1.00  0.00    +0.000 C 
ATOM     68  F9  UNL A   1      19.686  46.668  -1.663  1.00  0.00    +0.000 F 
ATOM     69  C51 UNL A   1      18.095  48.139  -0.714  1.00  0.00    +0.000 C 
ATOM     70  F10 UNL A   1      18.806  48.155   0.423  1.00  0.00    +0.000 F 
ATOM     60  C46 UNL A   1      16.913  48.888  -0.819  1.00  0.00    +0.000 C 
ATOM     61  C47 UNL A   1      16.207  48.841  -2.029  1.00  0.00    +0.000 C 
ATOM     62  F6  UNL A   1      15.064  49.530  -2.169  1.00  0.00    +0.000 F 
ATOM     63  C48 UNL A   1      16.654  48.055  -3.086  1.00  0.00    +0.000 C 
ATOM     64  F7  UNL A   1      15.942  47.992  -4.220  1.00  0.00    +0.000 F 
ENDBRANCH   59   60
BRANCH   74   75
ATOM     75  C55 UNL A   1      17.818  55.607   0.738  1.00  0.00    +0.000 C 
ATOM     76  C56 UNL A   1      19.102  55.944   1.191  1.00  0.00    +0.000 C 
ATOM     77  F11 UNL A   1      19.642  55.280   2.223  1.00  0.00    +0.000 F 
ATOM     78  C57 UNL A   1      19.814  56.991   0.613  1.00  0.00    +0.000 C 
ATOM     79  F12 UNL A   1      21.022  57.320   1.091  1.00  0.00    +0.000 F 
ATOM     80  C58 UNL A   1      19.269  57.704  -0.444  1.00  0.00    +0.000 C 
ATOM     81  F13 UNL A   1      19.955  58.712  -1.000  1.00  0.00    +0.000 F 
ATOM     82  C59 UNL A   1      18.008  57.375  -0.920  1.00  0.00    +0.000 C 
ATOM     83  F14 UNL A   1      17.482  58.056  -1.947  1.00  0.00    +0.000 F 
ATOM     84  C60 UNL A   1      17.284  56.343  -0.328  1.00  0.00    +0.000 C 
ATOM     85  F15 UNL A   1      16.062  56.053  -0.798  1.00  0.00    +0.000 F 
ENDBRANCH   74   75
TORSDOF 27
ENDMDL
MODEL 6
REMARK VINA RESULT:      -7.3     31.071     36.759
ROOT
ATOM    140  H40 UNL A   1      16.427  34.933  48.043  1.00  0.00    +0.000 H 
ATOM    141  H41 UNL A   1      15.335  36.031  50.142  1.00  0.00    +0.000 H 
ATOM    142  H42 UNL A   1      19.016  37.819  49.502  1.00  0.00    +0.000 H 
ATOM    143  H43 UNL A   1      23.435  42.107  51.174  1.00  0.00    +0.000 H 
ATOM    144  H44 UNL A   1      24.542  40.968  49.190  1.00  0.00    +0.000 H 
ATOM    145  H45 UNL A   1      20.836  39.178  49.781  1.00  0.00    +0.000 H 
ATOM    146  H46 UNL A   1      18.829  41.449  53.796  1.00  0.00    +0.000 H 
ATOM    147  H47 UNL A   1      16.906  39.768  53.629  1.00  0.00    +0.000 H 
ATOM    148  H48 UNL A   1      21.053  35.694  45.443  1.00  0.00    +0.000 H 
ATOM    149  H49 UNL A   1      23.208  37.003  45.889  1.00  0.00    +0.000 H 
ATOM     38  C31 UNL A   1      22.994  38.873  48.031  1.00  0.00    +0.000 C 
ATOM     39  C32 UNL A   1      21.967  37.871  47.578  1.00  0.00    +0.000 C 
ATOM     40  N4  UNL A   1      20.771  37.633  48.059  1.00  0.00    +0.000 N 
ATOM     41  C33 UNL A   1      20.225  36.649  47.246  1.00  0.00    +0.000 C 
ATOM     42  C34 UNL A   1      19.020  36.037  47.351  1.00  0.00    +0.000 C 
ATOM     54  C41 UNL A   1      18.064  36.294  48.395  1.00  0.00    +0.000 C 
ATOM     55  C42 UNL A   1      16.840  35.685  48.615  1.00  0.00    +0.000 C 
ATOM     56  C43 UNL A   1      16.258  36.268  49.748  1.00  0.00    +0.000 C 
ATOM     57  C44 UNL A   1      17.135  37.217  50.247  1.00  0.00    +0.000 C 
ATOM     58  N5  UNL A   1      18.232  37.230  49.402  1.00  0.00    +0.000 N 
ATOM     59  C45 UNL A   1      16.988  38.048  51.413  1.00  0.00    +0.000 C 
ATOM     71  C52 UNL A   1      17.873  38.995  51.808  1.00  0.00    +0.000 C 
ATOM     72  N6  UNL A   1      19.078  39.360  51.224  1.00  0.00    +0.000 N 
ATOM     73  C53 UNL A   1      19.558  40.328  51.965  1.00  0.00    +0.000 C 
ATOM     74  C54 UNL A   1      20.852  41.080  51.821  1.00  0.00    +0.000 C 
ATOM     86  C61 UNL A   1      21.718  40.730  50.852  1.00  0.00    +0.000 C 
ATOM     87  C62 UNL A   1      23.026  41.337  50.621  1.00  0.00    +0.000 C 
ATOM     88  C63 UNL A   1      23.614  40.733  49.575  1.00  0.00    +0.000 C 
ATOM     89  C64 UNL A   1      22.725  39.686  49.069  1.00  0.00    +0.000 C 
ATOM     90  N7  UNL A   1      21.622  39.762  49.883  1.00  0.00    +0.000 N 
ATOM     91  C65 UNL A   1      18.695  40.704  53.094  1.00  0.00    +0.000 C 
ATOM     92  C66 UNL A   1      17.702  39.836  52.974  1.00  0.00    +0.000 C 
ATOM     93  C67 UNL A   1      21.204  36.353  46.222  1.00  0.00    +0.000 C 
ATOM     94  C68 UNL A   1      22.321  37.040  46.416  1.00  0.00    +0.000 C 
ENDROOT
BRANCH   38   37
ATOM     34  C27 UNL A   1      26.780  39.264  46.039  1.00  0.00    +0.000 C 
ATOM     35  C28 UNL A   1      25.755  40.184  45.788  1.00  0.00    +0.000 C 
ATOM     36  C29 UNL A   1      24.520  40.054  46.429  1.00  0.00    +0.000 C 
ATOM     37  C30 UNL A   1      24.289  38.990  47.314  1.00  0.00    +0.000 C 
ATOM    138  H38 UNL A   1      25.911  40.961  45.126  1.00  0.00    +0.000 H 
ATOM    139  H39 UNL A   1      23.774  40.745  46.250  1.00  0.00    +0.000 H 
ATOM    150  H50 UNL A   1      25.147  37.260  48.175  1.00  0.00    +0.000 H 
ATOM    151  H51 UNL A   1      27.335  37.573  47.177  1.00  0.00    +0.000 H 
ATOM     95  C69 UNL A   1      25.316  38.064  47.551  1.00  0.00    +0.000 C 
ATOM     96  C70 UNL A   1      26.566  38.224  46.949  1.00  0.00    +0.000 C 
BRANCH   34   32
ATOM     33  O4  UNL A   1      28.648  40.590  45.543  1.00  0.00    +0.000 O 
ATOM     32  C26 UNL A   1      28.102  39.497  45.408  1.00  0.00    +0.000 C 
BRANCH   32   31
ATOM    137  H37 UNL A   1      28.504  38.495  43.729  1.00  0.00    +0.000 H 
ATOM     31  N3  UNL A   1      28.734  38.519  44.685  1.00  0.00    +0.000 N 
BRANCH   31   30
ATOM     30  C25 UNL A   1      29.691  37.513  45.110  1.00  0.00    +0.000 C 
ATOM    135  H35 UNL A   1      30.469  37.445  44.378  1.00  0.00    +0.000 H 
ATOM    136  H36 UNL A   1      30.081  37.809  46.062  1.00  0.00    +0.000 H 
BRANCH   30   29
ATOM    133  H33 UNL A   1      29.814  35.399  45.192  1.00  0.00    +0.000 H 
ATOM     29  C24 UNL A   1      29.044  36.138  45.272  1.00  0.00    +0.000 C 
ATOM    134  H34 UNL A   1      28.557  36.152  46.224  1.00  0.00    +0.000 H 
BRANCH   29   28
ATOM    131  H31 UNL A   1      27.561  36.720  43.872  1.00  0.00    +0.000 H 
ATOM     28  C23 UNL A   1      27.957  35.799  44.245  1.00  0.00    +0.000 C 
ATOM    132  H32 UNL A   1      28.438  35.197  43.503  1.00  0.00    +0.000 H 
BRANCH   28   27
ATOM    129  H29 UNL A   1      26.818  34.005  44.275  1.00  0.00    +0.000 H 
ATOM    130  H30 UNL A   1      26.903  34.904  45.824  1.00  0.00    +0.000 H 
ATOM     27  C22 UNL A   1      26.782  34.958  44.762  1.00  0.00    +0.000 C 
BRANCH   27   26
ATOM     26  C21 UNL A   1      25.390  35.555  44.527  1.00  0.00    +0.000 C 
ATOM    127  H27 UNL A   1      24.933  35.728  45.478  1.00  0.00    +0.000 H 
ATOM    128  H28 UNL A   1      25.531  36.456  43.966  1.00  0.00    +0.000 H 
BRANCH   26   25
ATOM     25  C20 UNL A   1      24.461  34.663  43.702  1.00  0.00    +0.000 C 
ATOM    125  H25 UNL A   1      23.953  35.269  42.980  1.00  0.00    +0.000 H 
ATOM    126  H26 UNL A   1      25.058  33.913  43.228  1.00  0.00    +0.000 H 
BRANCH   25   24
ATOM    124  H24 UNL A   1      22.796  34.593  44.916  1.00  0.00    +0.000 H 
ATOM     24  N2  UNL A   1      23.475  33.996  44.527  1.00  0.00    +0.000 N 
BRANCH   24   22
ATOM     22  C19 UNL A   1      23.334  32.684  44.857  1.00  0.00    +0.000 C 
ATOM     23  O3  UNL A   1      22.945  31.925  43.961  1.00  0.00    +0.000 O 
BRANCH   22   20
ATOM     20  C17 UNL A   1      23.620  32.130  46.260  1.00  0.00    +0.000 C 
ATOM    120  H20 UNL A   1      24.598  31.698  46.217  1.00  0.00    +0.000 H 
BRANCH   20   19
ATOM     97  C71 UNL A   1      22.638  33.610  48.035  1.00  0.00    +0.000 C 
ATOM     98  C72 UNL A   1      22.726  34.578  49.037  1.00  0.00    +0.000 C 
ATOM     99  F16 UNL A   1      21.584  34.936  49.646  1.00  0.00    +0.000 F 
ATOM     16  C13 UNL A   1      23.947  35.173  49.399  1.00  0.00    +0.000 C 
ATOM     17  C14 UNL A   1      25.075  34.781  48.659  1.00  0.00    +0.000 C 
ATOM     18  C15 UNL A   1      24.985  33.840  47.622  1.00  0.00    +0.000 C 
ATOM     19  C16 UNL A   1      23.771  33.217  47.311  1.00  0.00    +0.000 C 
ATOM    118  H18 UNL A   1      25.993  35.196  48.885  1.00  0.00    +0.000 H 
ATOM    119  H19 UNL A   1      25.830  33.602  47.077  1.00  0.00    +0.000 H 
ATOM    152  H52 UNL A   1      21.725  33.180  47.824  1.00  0.00    +0.000 H 
BRANCH   16   15
ATOM    100  C73 UNL A   1      22.943  36.430  51.333  1.00  0.00    +0.000 C 
ATOM     11  C8  UNL A   1      22.971  37.452  52.288  1.00  0.00    +0.000 C 
ATOM     12  C9  UNL A   1      24.135  38.204  52.451  1.00  0.00    +0.000 C 
ATOM     13  C10 UNL A   1      25.261  37.919  51.683  1.00  0.00    +0.000 C 
ATOM     14  C11 UNL A   1      25.210  36.921  50.705  1.00  0.00    +0.000 C 
ATOM     15  C12 UNL A   1      24.042  36.168  50.491  1.00  0.00    +0.000 C 
ATOM    115  H15 UNL A   1      24.161  38.970  53.141  1.00  0.00    +0.000 H 
ATOM    116  H16 UNL A   1      26.135  38.447  51.835  1.00  0.00    +0.000 H 
ATOM    117  H17 UNL A   1      26.045  36.732  50.130  1.00  0.00    +0.000 H 
ATOM    153  H53 UNL A   1      22.093  35.852  51.242  1.00  0.00    +0.000 H 
BRANCH   11   10
ATOM     10  N1  UNL A   1      21.832  37.842  53.010  1.00  0.00    +0.000 N 
ATOM    114  H14 UNL A   1      21.504  38.752  52.828  1.00  0.00    +0.000 H 
BRANCH   10    8
ATOM      9  O2  UNL A   1      19.894  37.131  53.920  1.00  0.00    +0.000 O 
ATOM      8  C7  UNL A   1      21.116  37.126  53.932  1.00  0.00    +0.000 C 
BRANCH    8    7
ATOM      7  O1  UNL A   1      21.889  36.551  54.889  1.00  0.00    +0.000 O 
BRANCH    7    6
ATOM    113  H13 UNL A   1      23.215  35.002  54.868  1.00  0.00    +0.000 H 
ATOM      6  C6  UNL A   1      22.159  35.144  54.770  1.00  0.00    +0.000 C 
ATOM    112  H12 UNL A   1      21.808  34.805  53.817  1.00  0.00    +0.000 H 
BRANCH    6    5
ATOM      5  C5  UNL A   1      21.469  34.328  55.869  1.00  0.00    +0.000 C 
ATOM    110  H10 UNL A   1      21.214  33.374  55.457  1.00  0.00    +0.000 H 
ATOM    111  H11 UNL A   1      22.169  34.281  56.677  1.00  0.00    +0.000 H 
BRANCH    5    4
ATOM    108  H8  UNL A   1      20.479  35.612  57.243  1.00  0.00    +0.000 H 
ATOM      4  C4  UNL A   1      20.193  34.942  56.459  1.00  0.00    +0.000 C 
ATOM    109  H9  UNL A   1      19.692  35.426  55.646  1.00  0.00    +0.000 H 
BRANCH    4    3
ATOM    106  H6  UNL A   1      19.316  33.007  56.518  1.00  0.00    +0.000 H 
ATOM      3  C3  UNL A   1      19.192  33.934  57.037  1.00  0.00    +0.000 C 
ATOM    107  H7  UNL A   1      19.404  33.865  58.083  1.00  0.00    +0.000 H 
BRANCH    3    2
ATOM    105  H5  UNL A   1      17.166  33.744  57.613  1.00  0.00    +0.000 H 
ATOM      2  C2  UNL A   1      17.722  34.347  56.926  1.00  0.00    +0.000 C 
ATOM    104  H4  UNL A   1      17.401  34.197  55.916  1.00  0.00    +0.000 H 
BRANCH    2    1
ATOM      1  C1  UNL A   1      17.489  35.802  57.299  1.00  0.00    +0.000 C 
ATOM    101  H1  UNL A   1      17.752  36.430  56.472  1.00  0.00    +0.000 H 
ATOM    102  H2  UNL A   1      18.094  36.055  58.145  1.00  0.00    +0.000 H 
ATOM    103  H3  UNL A   1      16.458  35.948  57.543  1.00  0.00    +0.000 H 
ENDBRANCH    2    1
ENDBRANCH    3    2
ENDBRANCH    4    3
ENDBRANCH    5    4
ENDBRANCH    6    5
ENDBRANCH    7    6
ENDBRANCH    8    7
ENDBRANCH   10    8
ENDBRANCH   11   10
ENDBRANCH   16   15
ENDBRANCH   20   19
BRANCH   20   21
ATOM    121  H21 UNL A   1      23.101  30.061  46.099  1.00  0.00    +0.000 H 
ATOM    122  H22 UNL A   1      21.742  31.117  46.404  1.00  0.00    +0.000 H 
ATOM    123  H23 UNL A   1      22.859  30.736  47.693  1.00  0.00    +0.000 H 
ATOM     21  C18 UNL A   1      22.767  30.920  46.642  1.00  0.00    +0.000 C 
ENDBRANCH   20   21
ENDBRANCH   22   20
ENDBRANCH   24   22
ENDBRANCH   25   24
ENDBRANCH   26   25
ENDBRANCH   27   26
ENDBRANCH   28   27
ENDBRANCH   29   28
ENDBRANCH   30   29
ENDBRANCH   31   30
ENDBRANCH   32   31
ENDBRANCH   34   32
ENDBRANCH   38   37
BRANCH   42   43
ATOM     43  C35 UNL A   1      18.670  35.018  46.308  1.00  0.00    +0.000 C 
ATOM     44  C36 UNL A   1      17.819  35.329  45.237  1.00  0.00    +0.000 C 
ATOM     45  F1  UNL A   1      17.256  36.543  45.153  1.00  0.00    +0.000 F 
ATOM     46  C37 UNL A   1      17.518  34.378  44.266  1.00  0.00    +0.000 C 
ATOM     47  F2  UNL A   1      16.673  34.683  43.271  1.00  0.00    +0.000 F 
ATOM     48  C38 UNL A   1      18.081  33.112  44.332  1.00  0.00    +0.000 C 
ATOM     49  F3  UNL A   1      17.795  32.200  43.393  1.00  0.00    +0.000 F 
ATOM     50  C39 UNL A   1      18.937  32.789  45.374  1.00  0.00    +0.000 C 
ATOM     51  F4  UNL A   1      19.488  31.569  45.434  1.00  0.00    +0.000 F 
ATOM     52  C40 UNL A   1      19.223  33.730  46.360  1.00  0.00    +0.000 C 
ATOM     53  F5  UNL A   1      20.046  33.387  47.362  1.00  0.00    +0.000 F 
ENDBRANCH   42   43
BRANCH   59   60
ATOM     65  C49 UNL A   1      13.489  37.514  53.863  1.00  0.00    +0.000 C 
ATOM     66  F8  UNL A   1      12.396  37.342  54.618  1.00  0.00    +0.000 F 
ATOM     67  C50 UNL A   1      13.392  38.156  52.637  1.00  0.00    +0.000 C 
ATOM     68  F9  UNL A   1      12.206  38.617  52.215  1.00  0.00    +0.000 F 
ATOM     69  C51 UNL A   1      14.522  38.316  51.842  1.00  0.00    +0.000 C 
ATOM     70  F10 UNL A   1      14.398  38.928  50.655  1.00  0.00    +0.000 F 
ATOM     60  C46 UNL A   1      15.775  37.848  52.268  1.00  0.00    +0.000 C 
ATOM     61  C47 UNL A   1      15.854  37.218  53.518  1.00  0.00    +0.000 C 
ATOM     62  F6  UNL A   1      17.028  36.742  53.959  1.00  0.00    +0.000 F 
ATOM     63  C48 UNL A   1      14.718  37.042  54.301  1.00  0.00    +0.000 C 
ATOM     64  F7  UNL A   1      14.808  36.400  55.475  1.00  0.00    +0.000 F 
ENDBRANCH   59   60
BRANCH   74   75
ATOM     75  C55 UNL A   1      21.201  42.173  52.762  1.00  0.00    +0.000 C 
ATOM     76  C56 UNL A   1      21.862  41.897  53.968  1.00  0.00    +0.000 C 
ATOM     77  F11 UNL A   1      22.171  40.631  54.286  1.00  0.00    +0.000 F 
ATOM     78  C57 UNL A   1      22.168  42.915  54.866  1.00  0.00    +0.000 C 
ATOM     79  F12 UNL A   1      22.764  42.620  56.030  1.00  0.00    +0.000 F 
ATOM     80  C58 UNL A   1      21.844  44.230  54.567  1.00  0.00    +0.000 C 
ATOM     81  F13 UNL A   1      22.139  45.209  55.432  1.00  0.00    +0.000 F 
ATOM     82  C59 UNL A   1      21.205  44.526  53.371  1.00  0.00    +0.000 C 
ATOM     83  F14 UNL A   1      20.899  45.797  53.074  1.00  0.00    +0.000 F 
ATOM     84  C60 UNL A   1      20.878  43.506  52.481  1.00  0.00    +0.000 C 
ATOM     85  F15 UNL A   1      20.250  43.819  51.338  1.00  0.00    +0.000 F 
ENDBRANCH   74   75
TORSDOF 27
ENDMDL
MODEL 7
REMARK VINA RESULT:      -7.3     22.430     29.316
ROOT
ATOM    140  H40 UNL A   1      33.926  35.404  44.703  1.00  0.00    +0.000 H 
ATOM    141  H41 UNL A   1      35.500  34.747  46.677  1.00  0.00    +0.000 H 
ATOM    142  H42 UNL A   1      31.842  32.892  47.253  1.00  0.00    +0.000 H 
ATOM    143  H43 UNL A   1      28.076  29.063  50.699  1.00  0.00    +0.000 H 
ATOM    144  H44 UNL A   1      26.512  29.784  48.830  1.00  0.00    +0.000 H 
ATOM    145  H45 UNL A   1      30.184  31.631  48.200  1.00  0.00    +0.000 H 
ATOM    146  H46 UNL A   1      33.120  30.207  52.029  1.00  0.00    +0.000 H 
ATOM    147  H47 UNL A   1      34.891  31.806  51.100  1.00  0.00    +0.000 H 
ATOM    148  H48 UNL A   1      28.871  34.164  43.419  1.00  0.00    +0.000 H 
ATOM    149  H49 UNL A   1      26.922  32.988  44.591  1.00  0.00    +0.000 H 
ATOM     38  C31 UNL A   1      27.680  31.590  46.958  1.00  0.00    +0.000 C 
ATOM     39  C32 UNL A   1      28.540  32.472  46.095  1.00  0.00    +0.000 C 
ATOM     40  N4  UNL A   1      29.803  32.794  46.237  1.00  0.00    +0.000 N 
ATOM     41  C33 UNL A   1      30.117  33.589  45.142  1.00  0.00    +0.000 C 
ATOM     42  C34 UNL A   1      31.289  34.201  44.849  1.00  0.00    +0.000 C 
ATOM     54  C41 UNL A   1      32.463  34.154  45.679  1.00  0.00    +0.000 C 
ATOM     55  C42 UNL A   1      33.681  34.786  45.491  1.00  0.00    +0.000 C 
ATOM     56  C43 UNL A   1      34.522  34.441  46.556  1.00  0.00    +0.000 C 
ATOM     57  C44 UNL A   1      33.817  33.619  47.420  1.00  0.00    +0.000 C 
ATOM     58  N5  UNL A   1      32.560  33.443  46.863  1.00  0.00    +0.000 N 
ATOM     59  C45 UNL A   1      34.251  33.041  48.664  1.00  0.00    +0.000 C 
ATOM     71  C52 UNL A   1      33.513  32.201  49.429  1.00  0.00    +0.000 C 
ATOM     72  N6  UNL A   1      32.224  31.733  49.216  1.00  0.00    +0.000 N 
ATOM     73  C53 UNL A   1      31.959  30.938  50.224  1.00  0.00    +0.000 C 
ATOM     74  C54 UNL A   1      30.696  30.182  50.528  1.00  0.00    +0.000 C 
ATOM     86  C61 UNL A   1      29.623  30.334  49.730  1.00  0.00    +0.000 C 
ATOM     87  C62 UNL A   1      28.321  29.702  49.926  1.00  0.00    +0.000 C 
ATOM     88  C63 UNL A   1      27.492  30.086  48.941  1.00  0.00    +0.000 C 
ATOM     89  C64 UNL A   1      28.205  31.002  48.050  1.00  0.00    +0.000 C 
ATOM     90  N7  UNL A   1      29.463  31.086  48.592  1.00  0.00    +0.000 N 
ATOM     91  C65 UNL A   1      33.066  30.793  51.181  1.00  0.00    +0.000 C 
ATOM     92  C66 UNL A   1      33.973  31.612  50.670  1.00  0.00    +0.000 C 
ATOM     93  C67 UNL A   1      28.923  33.678  44.328  1.00  0.00    +0.000 C 
ATOM     94  C68 UNL A   1      27.905  33.052  44.902  1.00  0.00    +0.000 C 
ENDROOT
BRANCH   38   37
ATOM     34  C27 UNL A   1      23.566  30.823  45.989  1.00  0.00    +0.000 C 
ATOM     35  C28 UNL A   1      24.557  29.903  45.627  1.00  0.00    +0.000 C 
ATOM     36  C29 UNL A   1      25.897  30.154  45.934  1.00  0.00    +0.000 C 
ATOM     37  C30 UNL A   1      26.264  31.339  46.590  1.00  0.00    +0.000 C 
ATOM    138  H38 UNL A   1      24.297  29.036  45.130  1.00  0.00    +0.000 H 
ATOM    139  H39 UNL A   1      26.620  29.464  45.677  1.00  0.00    +0.000 H 
ATOM    150  H50 UNL A   1      25.529  33.152  47.393  1.00  0.00    +0.000 H 
ATOM    151  H51 UNL A   1      23.191  32.644  46.991  1.00  0.00    +0.000 H 
ATOM     95  C69 UNL A   1      25.267  32.263  46.938  1.00  0.00    +0.000 C 
ATOM     96  C70 UNL A   1      23.923  31.987  46.677  1.00  0.00    +0.000 C 
BRANCH   34   32
ATOM     33  O4  UNL A   1      21.798  29.294  45.811  1.00  0.00    +0.000 O 
ATOM     32  C26 UNL A   1      22.150  30.469  45.726  1.00  0.00    +0.000 C 
BRANCH   32   31
ATOM    137  H37 UNL A   1      21.539  32.116  44.777  1.00  0.00    +0.000 H 
ATOM     31  N3  UNL A   1      21.221  31.422  45.398  1.00  0.00    +0.000 N 
BRANCH   31   30
ATOM     30  C25 UNL A   1      19.840  31.569  45.823  1.00  0.00    +0.000 C 
ATOM    135  H35 UNL A   1      19.527  30.663  46.299  1.00  0.00    +0.000 H 
ATOM    136  H36 UNL A   1      19.789  32.398  46.499  1.00  0.00    +0.000 H 
BRANCH   30   29
ATOM    133  H33 UNL A   1      18.933  31.015  43.990  1.00  0.00    +0.000 H 
ATOM     29  C24 UNL A   1      18.907  31.858  44.648  1.00  0.00    +0.000 C 
ATOM    134  H34 UNL A   1      17.943  32.042  45.076  1.00  0.00    +0.000 H 
BRANCH   29   28
ATOM    131  H31 UNL A   1      20.317  33.197  43.800  1.00  0.00    +0.000 H 
ATOM     28  C23 UNL A   1      19.252  33.108  43.829  1.00  0.00    +0.000 C 
ATOM    132  H32 UNL A   1      18.799  32.958  42.870  1.00  0.00    +0.000 H 
BRANCH   28   27
ATOM    129  H29 UNL A   1      19.258  34.725  45.207  1.00  0.00    +0.000 H 
ATOM    130  H30 UNL A   1      18.745  35.124  43.537  1.00  0.00    +0.000 H 
ATOM     27  C22 UNL A   1      18.683  34.433  44.352  1.00  0.00    +0.000 C 
BRANCH   27   26
ATOM     26  C21 UNL A   1      17.207  34.401  44.765  1.00  0.00    +0.000 C 
ATOM    127  H27 UNL A   1      16.625  34.127  43.911  1.00  0.00    +0.000 H 
ATOM    128  H28 UNL A   1      17.126  33.693  45.564  1.00  0.00    +0.000 H 
BRANCH   26   25
ATOM     25  C20 UNL A   1      16.680  35.733  45.301  1.00  0.00    +0.000 C 
ATOM    125  H25 UNL A   1      17.405  36.495  45.101  1.00  0.00    +0.000 H 
ATOM    126  H26 UNL A   1      15.753  35.942  44.812  1.00  0.00    +0.000 H 
BRANCH   25   24
ATOM    124  H24 UNL A   1      15.911  34.905  47.026  1.00  0.00    +0.000 H 
ATOM     24  N2  UNL A   1      16.434  35.684  46.727  1.00  0.00    +0.000 N 
BRANCH   24   22
ATOM     22  C19 UNL A   1      16.802  36.536  47.722  1.00  0.00    +0.000 C 
ATOM     23  O3  UNL A   1      16.078  37.521  47.906  1.00  0.00    +0.000 O 
BRANCH   22   20
ATOM     20  C17 UNL A   1      18.052  36.330  48.591  1.00  0.00    +0.000 C 
ATOM    120  H20 UNL A   1      17.879  35.439  49.157  1.00  0.00    +0.000 H 
BRANCH   20   19
ATOM     97  C71 UNL A   1      19.782  36.933  46.872  1.00  0.00    +0.000 C 
ATOM     98  C72 UNL A   1      20.937  36.684  46.130  1.00  0.00    +0.000 C 
ATOM     99  F16 UNL A   1      21.309  37.622  45.243  1.00  0.00    +0.000 F 
ATOM     16  C13 UNL A   1      21.685  35.505  46.281  1.00  0.00    +0.000 C 
ATOM     17  C14 UNL A   1      21.179  34.556  47.185  1.00  0.00    +0.000 C 
ATOM     18  C15 UNL A   1      19.995  34.782  47.903  1.00  0.00    +0.000 C 
ATOM     19  C16 UNL A   1      19.292  35.986  47.781  1.00  0.00    +0.000 C 
ATOM    118  H18 UNL A   1      21.692  33.671  47.324  1.00  0.00    +0.000 H 
ATOM    119  H19 UNL A   1      19.635  34.047  48.533  1.00  0.00    +0.000 H 
ATOM    152  H52 UNL A   1      19.281  37.826  46.749  1.00  0.00    +0.000 H 
BRANCH   16   15
ATOM    100  C73 UNL A   1      24.151  35.851  45.918  1.00  0.00    +0.000 C 
ATOM     11  C8  UNL A   1      25.312  35.739  45.146  1.00  0.00    +0.000 C 
ATOM     12  C9  UNL A   1      25.283  34.984  43.974  1.00  0.00    +0.000 C 
ATOM     13  C10 UNL A   1      24.112  34.332  43.594  1.00  0.00    +0.000 C 
ATOM     14  C11 UNL A   1      22.947  34.482  44.352  1.00  0.00    +0.000 C 
ATOM     15  C12 UNL A   1      22.934  35.265  45.520  1.00  0.00    +0.000 C 
ATOM    115  H15 UNL A   1      26.129  34.907  43.388  1.00  0.00    +0.000 H 
ATOM    116  H16 UNL A   1      24.104  33.738  42.750  1.00  0.00    +0.000 H 
ATOM    117  H17 UNL A   1      22.082  34.009  44.050  1.00  0.00    +0.000 H 
ATOM    153  H53 UNL A   1      24.187  36.380  46.804  1.00  0.00    +0.000 H 
BRANCH   11   10
ATOM     10  N1  UNL A   1      26.482  36.459  45.432  1.00  0.00    +0.000 N 
ATOM    114  H14 UNL A   1      26.830  37.016  44.699  1.00  0.00    +0.000 H 
BRANCH   10    8
ATOM      9  O2  UNL A   1      27.336  35.492  47.283  1.00  0.00    +0.000 O 
ATOM      8  C7  UNL A   1      27.203  36.493  46.596  1.00  0.00    +0.000 C 
BRANCH    8    7
ATOM      7  O1  UNL A   1      27.617  37.741  46.940  1.00  0.00    +0.000 O 
BRANCH    7    6
ATOM    113  H13 UNL A   1      27.015  39.098  48.336  1.00  0.00    +0.000 H 
ATOM      6  C6  UNL A   1      26.628  38.654  47.443  1.00  0.00    +0.000 C 
ATOM    112  H12 UNL A   1      25.725  38.113  47.637  1.00  0.00    +0.000 H 
BRANCH    6    5
ATOM      5  C5  UNL A   1      26.323  39.781  46.449  1.00  0.00    +0.000 C 
ATOM    110  H10 UNL A   1      26.900  40.636  46.735  1.00  0.00    +0.000 H 
ATOM    111  H11 UNL A   1      26.571  39.390  45.484  1.00  0.00    +0.000 H 
BRANCH    5    4
ATOM    108  H8  UNL A   1      24.717  41.058  47.000  1.00  0.00    +0.000 H 
ATOM      4  C4  UNL A   1      24.854  40.214  46.358  1.00  0.00    +0.000 C 
ATOM    109  H9  UNL A   1      24.671  40.428  45.325  1.00  0.00    +0.000 H 
BRANCH    4    3
ATOM    106  H6  UNL A   1      23.140  39.024  45.950  1.00  0.00    +0.000 H 
ATOM      3  C3  UNL A   1      23.833  39.142  46.758  1.00  0.00    +0.000 C 
ATOM    107  H7  UNL A   1      24.393  38.255  46.966  1.00  0.00    +0.000 H 
BRANCH    3    2
ATOM    105  H5  UNL A   1      22.105  39.886  47.722  1.00  0.00    +0.000 H 
ATOM      2  C2  UNL A   1      23.034  39.452  48.026  1.00  0.00    +0.000 C 
ATOM    104  H4  UNL A   1      23.606  40.121  48.634  1.00  0.00    +0.000 H 
BRANCH    2    1
ATOM      1  C1  UNL A   1      22.715  38.207  48.840  1.00  0.00    +0.000 C 
ATOM    101  H1  UNL A   1      22.615  38.473  49.872  1.00  0.00    +0.000 H 
ATOM    102  H2  UNL A   1      23.507  37.496  48.729  1.00  0.00    +0.000 H 
ATOM    103  H3  UNL A   1      21.799  37.778  48.492  1.00  0.00    +0.000 H 
ENDBRANCH    2    1
ENDBRANCH    3    2
ENDBRANCH    4    3
ENDBRANCH    5    4
ENDBRANCH    6    5
ENDBRANCH    7    6
ENDBRANCH    8    7
ENDBRANCH   10    8
ENDBRANCH   11   10
ENDBRANCH   16   15
ENDBRANCH   20   19
BRANCH   20   21
ATOM    121  H21 UNL A   1      17.741  37.025  50.589  1.00  0.00    +0.000 H 
ATOM    122  H22 UNL A   1      17.784  38.296  49.390  1.00  0.00    +0.000 H 
ATOM    123  H23 UNL A   1      19.266  37.517  49.892  1.00  0.00    +0.000 H 
ATOM     21  C18 UNL A   1      18.223  37.369  49.698  1.00  0.00    +0.000 C 
ENDBRANCH   20   21
ENDBRANCH   22   20
ENDBRANCH   24   22
ENDBRANCH   25   24
ENDBRANCH   26   25
ENDBRANCH   27   26
ENDBRANCH   28   27
ENDBRANCH   29   28
ENDBRANCH   30   29
ENDBRANCH   31   30
ENDBRANCH   32   31
ENDBRANCH   34   32
ENDBRANCH   38   37
BRANCH   42   43
ATOM     43  C35 UNL A   1      31.359  34.984  43.572  1.00  0.00    +0.000 C 
ATOM     44  C36 UNL A   1      31.067  36.356  43.537  1.00  0.00    +0.000 C 
ATOM     45  F1  UNL A   1      30.666  36.989  44.650  1.00  0.00    +0.000 F 
ATOM     46  C37 UNL A   1      31.155  37.075  42.348  1.00  0.00    +0.000 C 
ATOM     47  F2  UNL A   1      30.835  38.376  42.329  1.00  0.00    +0.000 F 
ATOM     48  C38 UNL A   1      31.561  36.444  41.181  1.00  0.00    +0.000 C 
ATOM     49  F3  UNL A   1      31.650  37.139  40.039  1.00  0.00    +0.000 F 
ATOM     50  C39 UNL A   1      31.869  35.093  41.197  1.00  0.00    +0.000 C 
ATOM     51  F4  UNL A   1      32.269  34.484  40.072  1.00  0.00    +0.000 F 
ATOM     52  C40 UNL A   1      31.760  34.365  42.379  1.00  0.00    +0.000 C 
ATOM     53  F5  UNL A   1      32.055  33.056  42.362  1.00  0.00    +0.000 F 
ENDBRANCH   42   43
BRANCH   59   60
ATOM     65  C49 UNL A   1      38.179  34.036  50.115  1.00  0.00    +0.000 C 
ATOM     66  F8  UNL A   1      39.405  34.348  50.558  1.00  0.00    +0.000 F 
ATOM     67  C50 UNL A   1      37.994  32.923  49.310  1.00  0.00    +0.000 C 
ATOM     68  F9  UNL A   1      39.040  32.149  48.986  1.00  0.00    +0.000 F 
ATOM     69  C51 UNL A   1      36.725  32.610  48.832  1.00  0.00    +0.000 C 
ATOM     70  F10 UNL A   1      36.576  31.536  48.043  1.00  0.00    +0.000 F 
ATOM     60  C46 UNL A   1      35.615  33.401  49.165  1.00  0.00    +0.000 C 
ATOM     61  C47 UNL A   1      35.822  34.512  49.995  1.00  0.00    +0.000 C 
ATOM     62  F6  UNL A   1      34.792  35.306  50.327  1.00  0.00    +0.000 F 
ATOM     63  C48 UNL A   1      37.095  34.833  50.454  1.00  0.00    +0.000 C 
ATOM     64  F7  UNL A   1      37.278  35.923  51.213  1.00  0.00    +0.000 F 
ENDBRANCH   59   60
BRANCH   74   75
ATOM     75  C55 UNL A   1      30.608  29.306  51.723  1.00  0.00    +0.000 C 
ATOM     76  C56 UNL A   1      30.817  27.923  51.615  1.00  0.00    +0.000 C 
ATOM     77  F11 UNL A   1      31.084  27.379  50.419  1.00  0.00    +0.000 F 
ATOM     78  C57 UNL A   1      30.710  27.094  52.728  1.00  0.00    +0.000 C 
ATOM     79  F12 UNL A   1      30.874  25.771  52.592  1.00  0.00    +0.000 F 
ATOM     80  C58 UNL A   1      30.418  27.632  53.972  1.00  0.00    +0.000 C 
ATOM     81  F13 UNL A   1      30.315  26.833  55.043  1.00  0.00    +0.000 F 
ATOM     82  C59 UNL A   1      30.225  29.000  54.104  1.00  0.00    +0.000 C 
ATOM     83  F14 UNL A   1      29.952  29.524  55.306  1.00  0.00    +0.000 F 
ATOM     84  C60 UNL A   1      30.310  29.828  52.987  1.00  0.00    +0.000 C 
ATOM     85  F15 UNL A   1      30.107  31.145  53.139  1.00  0.00    +0.000 F 
ENDBRANCH   74   75
TORSDOF 27
ENDMDL
MODEL 8
REMARK VINA RESULT:      -7.3     22.361     29.022
ROOT
ATOM    140  H40 UNL A   1      33.930  35.368  44.699  1.00  0.00    +0.000 H 
ATOM    141  H41 UNL A   1      35.503  34.666  46.657  1.00  0.00    +0.000 H 
ATOM    142  H42 UNL A   1      31.827  32.843  47.221  1.00  0.00    +0.000 H 
ATOM    143  H43 UNL A   1      28.032  29.006  50.626  1.00  0.00    +0.000 H 
ATOM    144  H44 UNL A   1      26.470  29.771  48.773  1.00  0.00    +0.000 H 
ATOM    145  H45 UNL A   1      30.159  31.586  48.156  1.00  0.00    +0.000 H 
ATOM    146  H46 UNL A   1      33.094  30.076  51.952  1.00  0.00    +0.000 H 
ATOM    147  H47 UNL A   1      34.879  31.668  51.040  1.00  0.00    +0.000 H 
ATOM    148  H48 UNL A   1      28.857  34.203  43.416  1.00  0.00    +0.000 H 
ATOM    149  H49 UNL A   1      26.899  33.031  44.579  1.00  0.00    +0.000 H 
ATOM     38  C31 UNL A   1      27.650  31.590  46.923  1.00  0.00    +0.000 C 
ATOM     39  C32 UNL A   1      28.517  32.476  46.069  1.00  0.00    +0.000 C 
ATOM     40  N4  UNL A   1      29.784  32.782  46.210  1.00  0.00    +0.000 N 
ATOM     41  C33 UNL A   1      30.102  33.588  45.126  1.00  0.00    +0.000 C 
ATOM     42  C34 UNL A   1      31.280  34.192  44.837  1.00  0.00    +0.000 C 
ATOM     54  C41 UNL A   1      32.456  34.121  45.662  1.00  0.00    +0.000 C 
ATOM     55  C42 UNL A   1      33.680  34.742  45.479  1.00  0.00    +0.000 C 
ATOM     56  C43 UNL A   1      34.522  34.373  46.536  1.00  0.00    +0.000 C 
ATOM     57  C44 UNL A   1      33.810  33.546  47.390  1.00  0.00    +0.000 C 
ATOM     58  N5  UNL A   1      32.550  33.391  46.836  1.00  0.00    +0.000 N 
ATOM     59  C45 UNL A   1      34.243  32.946  48.624  1.00  0.00    +0.000 C 
ATOM     71  C52 UNL A   1      33.499  32.102  49.380  1.00  0.00    +0.000 C 
ATOM     72  N6  UNL A   1      32.204  31.652  49.166  1.00  0.00    +0.000 N 
ATOM     73  C53 UNL A   1      31.934  30.846  50.163  1.00  0.00    +0.000 C 
ATOM     74  C54 UNL A   1      30.664  30.099  50.461  1.00  0.00    +0.000 C 
ATOM     86  C61 UNL A   1      29.589  30.274  49.669  1.00  0.00    +0.000 C 
ATOM     87  C62 UNL A   1      28.282  29.654  49.861  1.00  0.00    +0.000 C 
ATOM     88  C63 UNL A   1      27.453  30.061  48.885  1.00  0.00    +0.000 C 
ATOM     89  C64 UNL A   1      28.172  30.982  48.004  1.00  0.00    +0.000 C 
ATOM     90  N7  UNL A   1      29.434  31.043  48.542  1.00  0.00    +0.000 N 
ATOM     91  C65 UNL A   1      33.043  30.675  51.113  1.00  0.00    +0.000 C 
ATOM     92  C66 UNL A   1      33.957  31.491  50.610  1.00  0.00    +0.000 C 
ATOM     93  C67 UNL A   1      28.906  33.703  44.318  1.00  0.00    +0.000 C 
ATOM     94  C68 UNL A   1      27.883  33.080  44.886  1.00  0.00    +0.000 C 
ENDROOT
BRANCH   38   37
ATOM     34  C27 UNL A   1      23.524  30.883  45.959  1.00  0.00    +0.000 C 
ATOM     35  C28 UNL A   1      24.503  29.952  45.588  1.00  0.00    +0.000 C 
ATOM     36  C29 UNL A   1      25.846  30.184  45.894  1.00  0.00    +0.000 C 
ATOM     37  C30 UNL A   1      26.230  31.360  46.557  1.00  0.00    +0.000 C 
ATOM    138  H38 UNL A   1      24.231  29.092  45.086  1.00  0.00    +0.000 H 
ATOM    139  H39 UNL A   1      26.560  29.486  45.631  1.00  0.00    +0.000 H 
ATOM    150  H50 UNL A   1      25.521  33.177  47.372  1.00  0.00    +0.000 H 
ATOM    151  H51 UNL A   1      23.176  32.703  46.973  1.00  0.00    +0.000 H 
ATOM     95  C69 UNL A   1      25.247  32.295  46.913  1.00  0.00    +0.000 C 
ATOM     96  C70 UNL A   1      23.898  32.038  46.653  1.00  0.00    +0.000 C 
BRANCH   34   32
ATOM     33  O4  UNL A   1      21.742  29.375  45.750  1.00  0.00    +0.000 O 
ATOM     32  C26 UNL A   1      22.104  30.549  45.696  1.00  0.00    +0.000 C 
BRANCH   32   31
ATOM    137  H37 UNL A   1      21.525  32.276  44.878  1.00  0.00    +0.000 H 
ATOM     31  N3  UNL A   1      21.181  31.520  45.405  1.00  0.00    +0.000 N 
BRANCH   31   30
ATOM     30  C25 UNL A   1      19.773  31.606  45.749  1.00  0.00    +0.000 C 
ATOM    135  H35 UNL A   1      19.456  30.666  46.150  1.00  0.00    +0.000 H 
ATOM    136  H36 UNL A   1      19.656  32.391  46.468  1.00  0.00    +0.000 H 
BRANCH   30   29
ATOM    133  H33 UNL A   1      19.000  31.146  43.830  1.00  0.00    +0.000 H 
ATOM     29  C24 UNL A   1      18.906  31.945  44.536  1.00  0.00    +0.000 C 
ATOM    134  H34 UNL A   1      17.912  32.073  44.912  1.00  0.00    +0.000 H 
BRANCH   29   28
ATOM    131  H31 UNL A   1      20.327  33.340  43.807  1.00  0.00    +0.000 H 
ATOM     28  C23 UNL A   1      19.261  33.253  43.821  1.00  0.00    +0.000 C 
ATOM    132  H32 UNL A   1      18.815  33.181  42.850  1.00  0.00    +0.000 H 
BRANCH   28   27
ATOM    129  H29 UNL A   1      19.220  34.722  45.355  1.00  0.00    +0.000 H 
ATOM    130  H30 UNL A   1      18.822  35.302  43.707  1.00  0.00    +0.000 H 
ATOM     27  C22 UNL A   1      18.693  34.535  44.442  1.00  0.00    +0.000 C 
BRANCH   27   26
ATOM     26  C21 UNL A   1      17.194  34.506  44.762  1.00  0.00    +0.000 C 
ATOM    127  H27 UNL A   1      16.661  34.300  43.858  1.00  0.00    +0.000 H 
ATOM    128  H28 UNL A   1      17.052  33.750  45.507  1.00  0.00    +0.000 H 
BRANCH   26   25
ATOM     25  C20 UNL A   1      16.656  35.811  45.350  1.00  0.00    +0.000 C 
ATOM    125  H25 UNL A   1      17.397  36.575  45.229  1.00  0.00    +0.000 H 
ATOM    126  H26 UNL A   1      15.754  36.060  44.833  1.00  0.00    +0.000 H 
BRANCH   25   24
ATOM    124  H24 UNL A   1      15.799  34.894  46.987  1.00  0.00    +0.000 H 
ATOM     24  N2  UNL A   1      16.344  35.682  46.759  1.00  0.00    +0.000 N 
BRANCH   24   22
ATOM     22  C19 UNL A   1      16.674  36.469  47.818  1.00  0.00    +0.000 C 
ATOM     23  O3  UNL A   1      15.938  37.437  48.042  1.00  0.00    +0.000 O 
BRANCH   22   20
ATOM     20  C17 UNL A   1      17.897  36.212  48.712  1.00  0.00    +0.000 C 
ATOM    120  H20 UNL A   1      17.720  35.276  49.198  1.00  0.00    +0.000 H 
BRANCH   20   19
ATOM     97  C71 UNL A   1      19.665  36.973  47.098  1.00  0.00    +0.000 C 
ATOM     98  C72 UNL A   1      20.849  36.803  46.379  1.00  0.00    +0.000 C 
ATOM     99  F16 UNL A   1      21.226  37.808  45.573  1.00  0.00    +0.000 F 
ATOM     16  C13 UNL A   1      21.621  35.632  46.473  1.00  0.00    +0.000 C 
ATOM     17  C14 UNL A   1      21.109  34.611  47.291  1.00  0.00    +0.000 C 
ATOM     18  C15 UNL A   1      19.897  34.760  47.984  1.00  0.00    +0.000 C 
ATOM     19  C16 UNL A   1      19.169  35.954  47.922  1.00  0.00    +0.000 C 
ATOM    118  H18 UNL A   1      21.638  33.730  47.386  1.00  0.00    +0.000 H 
ATOM    119  H19 UNL A   1      19.535  33.975  48.549  1.00  0.00    +0.000 H 
ATOM    152  H52 UNL A   1      19.147  37.861  47.021  1.00  0.00    +0.000 H 
BRANCH   16   15
ATOM    100  C73 UNL A   1      24.057  36.165  46.143  1.00  0.00    +0.000 C 
ATOM     11  C8  UNL A   1      25.238  36.126  45.393  1.00  0.00    +0.000 C 
ATOM     12  C9  UNL A   1      25.291  35.342  44.241  1.00  0.00    +0.000 C 
ATOM     13  C10 UNL A   1      24.182  34.590  43.859  1.00  0.00    +0.000 C 
ATOM     14  C11 UNL A   1      22.996  34.665  44.593  1.00  0.00    +0.000 C 
ATOM     15  C12 UNL A   1      22.898  35.473  45.740  1.00  0.00    +0.000 C 
ATOM    115  H15 UNL A   1      26.151  35.319  43.672  1.00  0.00    +0.000 H 
ATOM    116  H16 UNL A   1      24.238  33.976  43.031  1.00  0.00    +0.000 H 
ATOM    117  H17 UNL A   1      22.176  34.118  44.290  1.00  0.00    +0.000 H 
ATOM    153  H53 UNL A   1      24.035  36.716  47.015  1.00  0.00    +0.000 H 
BRANCH   11   10
ATOM     10  N1  UNL A   1      26.342  36.944  45.680  1.00  0.00    +0.000 N 
ATOM    114  H14 UNL A   1      26.416  37.764  45.141  1.00  0.00    +0.000 H 
BRANCH   10    8
ATOM      9  O2  UNL A   1      28.192  37.601  46.793  1.00  0.00    +0.000 O 
ATOM      8  C7  UNL A   1      27.328  36.756  46.612  1.00  0.00    +0.000 C 
BRANCH    8    7
ATOM      7  O1  UNL A   1      27.304  35.524  47.183  1.00  0.00    +0.000 O 
BRANCH    7    6
ATOM    113  H13 UNL A   1      26.356  35.102  48.937  1.00  0.00    +0.000 H 
ATOM      6  C6  UNL A   1      27.314  35.454  48.618  1.00  0.00    +0.000 C 
ATOM    112  H12 UNL A   1      27.519  36.430  49.009  1.00  0.00    +0.000 H 
BRANCH    6    5
ATOM      5  C5  UNL A   1      28.375  34.481  49.143  1.00  0.00    +0.000 C 
ATOM    110  H10 UNL A   1      27.868  33.620  49.527  1.00  0.00    +0.000 H 
ATOM    111  H11 UNL A   1      29.015  34.274  48.310  1.00  0.00    +0.000 H 
BRANCH    5    4
ATOM    108  H8  UNL A   1      28.862  35.926  50.622  1.00  0.00    +0.000 H 
ATOM      4  C4  UNL A   1      29.291  35.020  50.249  1.00  0.00    +0.000 C 
ATOM    109  H9  UNL A   1      29.360  34.245  50.983  1.00  0.00    +0.000 H 
BRANCH    4    3
ATOM    106  H6  UNL A   1      31.180  35.947  50.557  1.00  0.00    +0.000 H 
ATOM      3  C3  UNL A   1      30.731  35.322  49.812  1.00  0.00    +0.000 C 
ATOM    107  H7  UNL A   1      31.217  34.375  49.705  1.00  0.00    +0.000 H 
BRANCH    3    2
ATOM    105  H5  UNL A   1      30.084  36.760  48.404  1.00  0.00    +0.000 H 
ATOM      2  C2  UNL A   1      30.861  36.026  48.460  1.00  0.00    +0.000 C 
ATOM    104  H4  UNL A   1      30.774  35.295  47.684  1.00  0.00    +0.000 H 
BRANCH    2    1
ATOM      1  C1  UNL A   1      32.189  36.750  48.299  1.00  0.00    +0.000 C 
ATOM    101  H1  UNL A   1      32.164  37.668  48.850  1.00  0.00    +0.000 H 
ATOM    102  H2  UNL A   1      32.357  36.960  47.263  1.00  0.00    +0.000 H 
ATOM    103  H3  UNL A   1      32.979  36.133  48.671  1.00  0.00    +0.000 H 
ENDBRANCH    2    1
ENDBRANCH    3    2
ENDBRANCH    4    3
ENDBRANCH    5    4
ENDBRANCH    6    5
ENDBRANCH    7    6
ENDBRANCH    8    7
ENDBRANCH   10    8
ENDBRANCH   11   10
ENDBRANCH   16   15
ENDBRANCH   20   19
BRANCH   20   21
ATOM    121  H21 UNL A   1      19.029  37.205  50.231  1.00  0.00    +0.000 H 
ATOM    122  H22 UNL A   1      17.394  36.807  50.704  1.00  0.00    +0.000 H 
ATOM    123  H23 UNL A   1      17.688  38.140  49.614  1.00  0.00    +0.000 H 
ATOM     21  C18 UNL A   1      18.011  37.162  49.904  1.00  0.00    +0.000 C 
ENDBRANCH   20   21
ENDBRANCH   22   20
ENDBRANCH   24   22
ENDBRANCH   25   24
ENDBRANCH   26   25
ENDBRANCH   27   26
ENDBRANCH   28   27
ENDBRANCH   29   28
ENDBRANCH   30   29
ENDBRANCH   31   30
ENDBRANCH   32   31
ENDBRANCH   34   32
ENDBRANCH   38   37
BRANCH   42   43
ATOM     43  C35 UNL A   1      31.354  34.993  43.572  1.00  0.00    +0.000 C 
ATOM     44  C36 UNL A   1      31.671  34.396  42.343  1.00  0.00    +0.000 C 
ATOM     45  F1  UNL A   1      31.968  33.089  42.286  1.00  0.00    +0.000 F 
ATOM     46  C37 UNL A   1      31.717  35.149  41.173  1.00  0.00    +0.000 C 
ATOM     47  F2  UNL A   1      32.060  34.566  40.016  1.00  0.00    +0.000 F 
ATOM     48  C38 UNL A   1      31.420  36.504  41.205  1.00  0.00    +0.000 C 
ATOM     49  F3  UNL A   1      31.459  37.226  40.076  1.00  0.00    +0.000 F 
ATOM     50  C39 UNL A   1      31.089  37.111  42.406  1.00  0.00    +0.000 C 
ATOM     51  F4  UNL A   1      30.794  38.418  42.437  1.00  0.00    +0.000 F 
ATOM     52  C40 UNL A   1      31.064  36.366  43.582  1.00  0.00    +0.000 C 
ATOM     53  F5  UNL A   1      30.750  36.982  44.732  1.00  0.00    +0.000 F 
ENDBRANCH   42   43
BRANCH   59   60
ATOM     65  C49 UNL A   1      38.187  33.877  50.074  1.00  0.00    +0.000 C 
ATOM     66  F8  UNL A   1      39.418  34.169  50.517  1.00  0.00    +0.000 F 
ATOM     67  C50 UNL A   1      37.989  32.783  49.246  1.00  0.00    +0.000 C 
ATOM     68  F9  UNL A   1      39.027  32.009  48.898  1.00  0.00    +0.000 F 
ATOM     69  C51 UNL A   1      36.715  32.492  48.768  1.00  0.00    +0.000 C 
ATOM     70  F10 UNL A   1      36.552  31.437  47.956  1.00  0.00    +0.000 F 
ATOM     60  C46 UNL A   1      35.613  33.284  49.125  1.00  0.00    +0.000 C 
ATOM     61  C47 UNL A   1      35.833  34.374  49.979  1.00  0.00    +0.000 C 
ATOM     62  F6  UNL A   1      34.811  35.168  50.335  1.00  0.00    +0.000 F 
ATOM     63  C48 UNL A   1      37.111  34.674  50.437  1.00  0.00    +0.000 C 
ATOM     64  F7  UNL A   1      37.307  35.746  51.220  1.00  0.00    +0.000 F 
ENDBRANCH   59   60
BRANCH   74   75
ATOM     75  C55 UNL A   1      30.571  29.206  51.643  1.00  0.00    +0.000 C 
ATOM     76  C56 UNL A   1      30.311  29.729  52.917  1.00  0.00    +0.000 C 
ATOM     77  F11 UNL A   1      30.160  31.052  53.080  1.00  0.00    +0.000 F 
ATOM     78  C57 UNL A   1      30.249  28.899  54.034  1.00  0.00    +0.000 C 
ATOM     79  F12 UNL A   1      30.040  29.428  55.247  1.00  0.00    +0.000 F 
ATOM     80  C58 UNL A   1      30.418  27.530  53.893  1.00  0.00    +0.000 C 
ATOM     81  F13 UNL A   1      30.358  26.731  54.968  1.00  0.00    +0.000 F 
ATOM     82  C59 UNL A   1      30.658  26.990  52.638  1.00  0.00    +0.000 C 
ATOM     83  F14 UNL A   1      30.814  25.666  52.498  1.00  0.00    +0.000 F 
ATOM     84  C60 UNL A   1      30.744  27.821  51.524  1.00  0.00    +0.000 C 
ATOM     85  F15 UNL A   1      30.989  27.275  50.324  1.00  0.00    +0.000 F 
ENDBRANCH   74   75
TORSDOF 27
ENDMDL
MODEL 9
REMARK VINA RESULT:      -7.3     48.545     55.186
ROOT
ATOM    140  H40 UNL A   1      12.463  20.696   9.259  1.00  0.00    +0.000 H 
ATOM    141  H41 UNL A   1      12.684  18.479  10.615  1.00  0.00    +0.000 H 
ATOM    142  H42 UNL A   1      15.842  18.694   7.944  1.00  0.00    +0.000 H 
ATOM    143  H43 UNL A   1      21.169  16.190   5.480  1.00  0.00    +0.000 H 
ATOM    144  H44 UNL A   1      20.896  18.301   4.090  1.00  0.00    +0.000 H 
ATOM    145  H45 UNL A   1      17.735  18.135   6.786  1.00  0.00    +0.000 H 
ATOM    146  H46 UNL A   1      18.345  13.862   9.369  1.00  0.00    +0.000 H 
ATOM    147  H47 UNL A   1      16.102  14.369  10.494  1.00  0.00    +0.000 H 
ATOM    148  H48 UNL A   1      15.383  22.985   5.390  1.00  0.00    +0.000 H 
ATOM    149  H49 UNL A   1      17.333  22.259   3.898  1.00  0.00    +0.000 H 
ATOM     38  C31 UNL A   1      18.589  19.842   4.743  1.00  0.00    +0.000 C 
ATOM     39  C32 UNL A   1      17.356  20.488   5.316  1.00  0.00    +0.000 C 
ATOM     40  N4  UNL A   1      16.596  20.092   6.307  1.00  0.00    +0.000 N 
ATOM     41  C33 UNL A   1      15.627  21.074   6.458  1.00  0.00    +0.000 C 
ATOM     42  C34 UNL A   1      14.587  21.111   7.326  1.00  0.00    +0.000 C 
ATOM     54  C41 UNL A   1      14.274  20.070   8.268  1.00  0.00    +0.000 C 
ATOM     55  C42 UNL A   1      13.210  19.994   9.151  1.00  0.00    +0.000 C 
ATOM     56  C43 UNL A   1      13.324  18.798   9.871  1.00  0.00    +0.000 C 
ATOM     57  C44 UNL A   1      14.442  18.120   9.415  1.00  0.00    +0.000 C 
ATOM     58  N5  UNL A   1      15.021  18.916   8.441  1.00  0.00    +0.000 N 
ATOM     59  C45 UNL A   1      14.944  16.837   9.830  1.00  0.00    +0.000 C 
ATOM     71  C52 UNL A   1      16.080  16.261   9.368  1.00  0.00    +0.000 C 
ATOM     72  N6  UNL A   1      16.977  16.738   8.422  1.00  0.00    +0.000 N 
ATOM     73  C53 UNL A   1      17.918  15.831   8.330  1.00  0.00    +0.000 C 
ATOM     74  C54 UNL A   1      19.126  15.806   7.436  1.00  0.00    +0.000 C 
ATOM     86  C61 UNL A   1      19.307  16.792   6.537  1.00  0.00    +0.000 C 
ATOM     87  C62 UNL A   1      20.404  16.877   5.577  1.00  0.00    +0.000 C 
ATOM     88  C63 UNL A   1      20.258  17.990   4.839  1.00  0.00    +0.000 C 
ATOM     89  C64 UNL A   1      19.048  18.691   5.269  1.00  0.00    +0.000 C 
ATOM     90  N7  UNL A   1      18.553  17.912   6.285  1.00  0.00    +0.000 N 
ATOM     91  C65 UNL A   1      17.735  14.683   9.229  1.00  0.00    +0.000 C 
ATOM     92  C66 UNL A   1      16.582  14.977   9.811  1.00  0.00    +0.000 C 
ATOM     93  C67 UNL A   1      15.910  22.102   5.478  1.00  0.00    +0.000 C 
ATOM     94  C68 UNL A   1      16.935  21.761   4.710  1.00  0.00    +0.000 C 
ENDROOT
BRANCH   38   37
ATOM     34  C27 UNL A   1      20.638  21.797   1.513  1.00  0.00    +0.000 C 
ATOM     35  C28 UNL A   1      19.565  20.937   1.248  1.00  0.00    +0.000 C 
ATOM     36  C29 UNL A   1      18.902  20.295   2.296  1.00  0.00    +0.000 C 
ATOM     37  C30 UNL A   1      19.317  20.488   3.623  1.00  0.00    +0.000 C 
ATOM    138  H38 UNL A   1      19.263  20.777   0.274  1.00  0.00    +0.000 H 
ATOM    139  H39 UNL A   1      18.101  19.675   2.094  1.00  0.00    +0.000 H 
ATOM    150  H50 UNL A   1      20.737  21.464   4.849  1.00  0.00    +0.000 H 
ATOM    151  H51 UNL A   1      21.789  22.692   3.041  1.00  0.00    +0.000 H 
ATOM     95  C69 UNL A   1      20.402  21.339   3.880  1.00  0.00    +0.000 C 
ATOM     96  C70 UNL A   1      21.031  22.021   2.836  1.00  0.00    +0.000 C 
BRANCH   34   32
ATOM     33  O4  UNL A   1      22.292  22.106  -0.118  1.00  0.00    +0.000 O 
ATOM     32  C26 UNL A   1      21.249  22.527   0.377  1.00  0.00    +0.000 C 
BRANCH   32   31
ATOM    137  H37 UNL A   1      19.870  23.972   0.334  1.00  0.00    +0.000 H 
ATOM     31  N3  UNL A   1      20.671  23.657  -0.143  1.00  0.00    +0.000 N 
BRANCH   31   30
ATOM     30  C25 UNL A   1      21.057  24.464  -1.286  1.00  0.00    +0.000 C 
ATOM    135  H35 UNL A   1      22.112  24.366  -1.440  1.00  0.00    +0.000 H 
ATOM    136  H36 UNL A   1      20.509  24.115  -2.137  1.00  0.00    +0.000 H 
BRANCH   30   29
ATOM    133  H33 UNL A   1      21.522  26.521  -1.498  1.00  0.00    +0.000 H 
ATOM     29  C24 UNL A   1      20.723  25.942  -1.084  1.00  0.00    +0.000 C 
ATOM    134  H34 UNL A   1      19.782  26.100  -1.566  1.00  0.00    +0.000 H 
BRANCH   29   28
ATOM    131  H31 UNL A   1      19.846  27.199   0.383  1.00  0.00    +0.000 H 
ATOM     28  C23 UNL A   1      20.531  26.377   0.374  1.00  0.00    +0.000 C 
ATOM    132  H32 UNL A   1      20.178  25.508   0.890  1.00  0.00    +0.000 H 
BRANCH   28   27
ATOM    129  H29 UNL A   1      22.096  26.014   1.765  1.00  0.00    +0.000 H 
ATOM    130  H30 UNL A   1      22.520  27.046   0.362  1.00  0.00    +0.000 H 
ATOM     27  C22 UNL A   1      21.799  26.814   1.119  1.00  0.00    +0.000 C 
BRANCH   27   26
ATOM     26  C21 UNL A   1      21.660  28.081   1.970  1.00  0.00    +0.000 C 
ATOM    127  H27 UNL A   1      20.637  28.389   1.952  1.00  0.00    +0.000 H 
ATOM    128  H28 UNL A   1      21.998  27.830   2.955  1.00  0.00    +0.000 H 
BRANCH   26   25
ATOM     25  C20 UNL A   1      22.524  29.250   1.494  1.00  0.00    +0.000 C 
ATOM    125  H25 UNL A   1      21.939  30.147   1.527  1.00  0.00    +0.000 H 
ATOM    126  H26 UNL A   1      23.374  29.318   2.139  1.00  0.00    +0.000 H 
BRANCH   25   24
ATOM    124  H24 UNL A   1      23.701  28.367   0.050  1.00  0.00    +0.000 H 
ATOM     24  N2  UNL A   1      23.002  29.055   0.141  1.00  0.00    +0.000 N 
BRANCH   24   22
ATOM     22  C19 UNL A   1      22.650  29.663  -1.023  1.00  0.00    +0.000 C 
ATOM     23  O3  UNL A   1      23.460  30.470  -1.496  1.00  0.00    +0.000 O 
BRANCH   22   20
ATOM     20  C17 UNL A   1      21.319  29.401  -1.744  1.00  0.00    +0.000 C 
ATOM    120  H20 UNL A   1      21.083  28.372  -1.571  1.00  0.00    +0.000 H 
BRANCH   20   19
ATOM     97  C71 UNL A   1      18.875  29.545  -1.183  1.00  0.00    +0.000 C 
ATOM     98  C72 UNL A   1      17.768  30.155  -0.591  1.00  0.00    +0.000 C 
ATOM     99  F16 UNL A   1      16.579  29.552  -0.749  1.00  0.00    +0.000 F 
ATOM     16  C13 UNL A   1      17.873  31.354   0.133  1.00  0.00    +0.000 C 
ATOM     17  C14 UNL A   1      19.148  31.942   0.186  1.00  0.00    +0.000 C 
ATOM     18  C15 UNL A   1      20.256  31.355  -0.443  1.00  0.00    +0.000 C 
ATOM     19  C16 UNL A   1      20.145  30.132  -1.114  1.00  0.00    +0.000 C 
ATOM    118  H18 UNL A   1      19.271  32.828   0.702  1.00  0.00    +0.000 H 
ATOM    119  H19 UNL A   1      21.170  31.834  -0.412  1.00  0.00    +0.000 H 
ATOM    152  H52 UNL A   1      18.756  28.649  -1.680  1.00  0.00    +0.000 H 
BRANCH   16   15
ATOM    100  C73 UNL A   1      15.391  31.559   0.494  1.00  0.00    +0.000 C 
ATOM     11  C8  UNL A   1      14.270  32.216   1.013  1.00  0.00    +0.000 C 
ATOM     12  C9  UNL A   1      14.449  33.281   1.896  1.00  0.00    +0.000 C 
ATOM     13  C10 UNL A   1      15.734  33.667   2.269  1.00  0.00    +0.000 C 
ATOM     14  C11 UNL A   1      16.848  33.030   1.715  1.00  0.00    +0.000 C 
ATOM     15  C12 UNL A   1      16.702  31.976   0.796  1.00  0.00    +0.000 C 
ATOM    115  H15 UNL A   1      13.630  33.782   2.272  1.00  0.00    +0.000 H 
ATOM    116  H16 UNL A   1      15.864  34.427   2.955  1.00  0.00    +0.000 H 
ATOM    117  H17 UNL A   1      17.795  33.338   1.985  1.00  0.00    +0.000 H 
ATOM    153  H53 UNL A   1      15.254  30.748  -0.129  1.00  0.00    +0.000 H 
BRANCH   11   10
ATOM     10  N1  UNL A   1      12.963  31.929   0.588  1.00  0.00    +0.000 N 
ATOM    114  H14 UNL A   1      12.884  31.540  -0.313  1.00  0.00    +0.000 H 
BRANCH   10    8
ATOM      9  O2  UNL A   1      11.083  33.093   1.038  1.00  0.00    +0.000 O 
ATOM      8  C7  UNL A   1      11.784  32.117   1.258  1.00  0.00    +0.000 C 
BRANCH    8    7
ATOM      7  O1  UNL A   1      11.570  31.203   2.240  1.00  0.00    +0.000 O 
BRANCH    7    6
ATOM    113  H13 UNL A   1      11.416  29.559   1.045  1.00  0.00    +0.000 H 
ATOM      6  C6  UNL A   1      10.900  29.983   1.880  1.00  0.00    +0.000 C 
ATOM    112  H12 UNL A   1       9.882  30.209   1.635  1.00  0.00    +0.000 H 
BRANCH    6    5
ATOM      5  C5  UNL A   1      10.916  28.956   3.018  1.00  0.00    +0.000 C 
ATOM    110  H10 UNL A   1      11.138  28.000   2.593  1.00  0.00    +0.000 H 
ATOM    111  H11 UNL A   1      11.652  29.306   3.713  1.00  0.00    +0.000 H 
BRANCH    5    4
ATOM    108  H8  UNL A   1       9.873  28.727   4.855  1.00  0.00    +0.000 H 
ATOM      4  C4  UNL A   1       9.616  28.824   3.821  1.00  0.00    +0.000 C 
ATOM    109  H9  UNL A   1       9.042  29.702   3.605  1.00  0.00    +0.000 H 
BRANCH    4    3
ATOM    106  H6  UNL A   1       8.993  27.330   2.444  1.00  0.00    +0.000 H 
ATOM      3  C3  UNL A   1       8.731  27.632   3.437  1.00  0.00    +0.000 C 
ATOM    107  H7  UNL A   1       8.912  26.874   4.171  1.00  0.00    +0.000 H 
BRANCH    3    2
ATOM    105  H5  UNL A   1       6.814  27.343   4.279  1.00  0.00    +0.000 H 
ATOM      2  C2  UNL A   1       7.226  27.907   3.469  1.00  0.00    +0.000 C 
ATOM    104  H4  UNL A   1       6.806  27.617   2.529  1.00  0.00    +0.000 H 
BRANCH    2    1
ATOM      1  C1  UNL A   1       6.900  29.371   3.716  1.00  0.00    +0.000 C 
ATOM    101  H1  UNL A   1       6.130  29.684   3.041  1.00  0.00    +0.000 H 
ATOM    102  H2  UNL A   1       7.777  29.964   3.556  1.00  0.00    +0.000 H 
ATOM    103  H3  UNL A   1       6.564  29.497   4.723  1.00  0.00    +0.000 H 
ENDBRANCH    2    1
ENDBRANCH    3    2
ENDBRANCH    4    3
ENDBRANCH    5    4
ENDBRANCH    6    5
ENDBRANCH    7    6
ENDBRANCH    8    7
ENDBRANCH   10    8
ENDBRANCH   11   10
ENDBRANCH   16   15
ENDBRANCH   20   19
BRANCH   20   21
ATOM    121  H21 UNL A   1      20.443  29.615  -3.683  1.00  0.00    +0.000 H 
ATOM    122  H22 UNL A   1      21.795  28.509  -3.629  1.00  0.00    +0.000 H 
ATOM    123  H23 UNL A   1      22.073  30.233  -3.564  1.00  0.00    +0.000 H 
ATOM     21  C18 UNL A   1      21.414  29.443  -3.269  1.00  0.00    +0.000 C 
ENDBRANCH   20   21
ENDBRANCH   22   20
ENDBRANCH   24   22
ENDBRANCH   25   24
ENDBRANCH   26   25
ENDBRANCH   27   26
ENDBRANCH   28   27
ENDBRANCH   29   28
ENDBRANCH   30   29
ENDBRANCH   31   30
ENDBRANCH   32   31
ENDBRANCH   34   32
ENDBRANCH   38   37
BRANCH   42   43
ATOM     43  C35 UNL A   1      13.700  22.320   7.290  1.00  0.00    +0.000 C 
ATOM     44  C36 UNL A   1      12.634  22.421   6.385  1.00  0.00    +0.000 C 
ATOM     45  F1  UNL A   1      12.416  21.448   5.488  1.00  0.00    +0.000 F 
ATOM     46  C37 UNL A   1      11.808  23.542   6.377  1.00  0.00    +0.000 C 
ATOM     47  F2  UNL A   1      10.818  23.635   5.478  1.00  0.00    +0.000 F 
ATOM     48  C38 UNL A   1      12.014  24.566   7.289  1.00  0.00    +0.000 C 
ATOM     49  F3  UNL A   1      11.214  25.641   7.283  1.00  0.00    +0.000 F 
ATOM     50  C39 UNL A   1      13.053  24.480   8.203  1.00  0.00    +0.000 C 
ATOM     51  F4  UNL A   1      13.248  25.465   9.090  1.00  0.00    +0.000 F 
ATOM     52  C40 UNL A   1      13.896  23.371   8.199  1.00  0.00    +0.000 C 
ATOM     53  F5  UNL A   1      14.899  23.319   9.088  1.00  0.00    +0.000 F 
ENDBRANCH   42   43
BRANCH   59   60
ATOM     65  C49 UNL A   1      12.695  14.613  12.751  1.00  0.00    +0.000 C 
ATOM     66  F8  UNL A   1      11.991  13.929  13.663  1.00  0.00    +0.000 F 
ATOM     67  C50 UNL A   1      13.683  15.498  13.156  1.00  0.00    +0.000 C 
ATOM     68  F9  UNL A   1      13.944  15.658  14.461  1.00  0.00    +0.000 F 
ATOM     69  C51 UNL A   1      14.400  16.225  12.210  1.00  0.00    +0.000 C 
ATOM     70  F10 UNL A   1      15.340  17.084  12.630  1.00  0.00    +0.000 F 
ATOM     60  C46 UNL A   1      14.149  16.067  10.839  1.00  0.00    +0.000 C 
ATOM     61  C47 UNL A   1      13.158  15.154  10.450  1.00  0.00    +0.000 C 
ATOM     62  F6  UNL A   1      12.875  14.981   9.150  1.00  0.00    +0.000 F 
ATOM     63  C48 UNL A   1      12.430  14.444  11.399  1.00  0.00    +0.000 C 
ATOM     64  F7  UNL A   1      11.459  13.607  11.008  1.00  0.00    +0.000 F 
ENDBRANCH   59   60
BRANCH   74   75
ATOM     75  C55 UNL A   1      20.096  14.685   7.504  1.00  0.00    +0.000 C 
ATOM     76  C56 UNL A   1      21.197  14.740   8.371  1.00  0.00    +0.000 C 
ATOM     77  F11 UNL A   1      21.391  15.824   9.137  1.00  0.00    +0.000 F 
ATOM     78  C57 UNL A   1      22.123  13.702   8.419  1.00  0.00    +0.000 C 
ATOM     79  F12 UNL A   1      23.189  13.797   9.226  1.00  0.00    +0.000 F 
ATOM     80  C58 UNL A   1      21.953  12.579   7.624  1.00  0.00    +0.000 C 
ATOM     81  F13 UNL A   1      22.845  11.580   7.671  1.00  0.00    +0.000 F 
ATOM     82  C59 UNL A   1      20.860  12.496   6.773  1.00  0.00    +0.000 C 
ATOM     83  F14 UNL A   1      20.688  11.408   6.010  1.00  0.00    +0.000 F 
ATOM     84  C60 UNL A   1      19.945  13.544   6.706  1.00  0.00    +0.000 C 
ATOM     85  F15 UNL A   1      18.904  13.444   5.866  1.00  0.00    +0.000 F 
ENDBRANCH   74   75
TORSDOF 27
ENDMDL
MODEL 10
REMARK VINA RESULT:      -7.2      1.796      2.437
ROOT
ATOM    140  H40 UNL A   1      48.207   7.126  53.760  1.00  0.00    +0.000 H 
ATOM    141  H41 UNL A   1      50.257   8.545  54.525  1.00  0.00    +0.000 H 
ATOM    142  H42 UNL A   1      48.676  10.275  51.110  1.00  0.00    +0.000 H 
ATOM    143  H43 UNL A   1      48.790  14.880  46.695  1.00  0.00    +0.000 H 
ATOM    144  H44 UNL A   1      46.855  13.441  45.894  1.00  0.00    +0.000 H 
ATOM    145  H45 UNL A   1      48.393  11.700  49.342  1.00  0.00    +0.000 H 
ATOM    146  H46 UNL A   1      52.273  14.584  50.733  1.00  0.00    +0.000 H 
ATOM    147  H47 UNL A   1      52.736  12.859  52.567  1.00  0.00    +0.000 H 
ATOM    148  H48 UNL A   1      44.725   7.527  49.704  1.00  0.00    +0.000 H 
ATOM    149  H49 UNL A   1      44.551   8.939  47.576  1.00  0.00    +0.000 H 
ATOM     38  C31 UNL A   1      46.357  11.145  47.509  1.00  0.00    +0.000 C 
ATOM     39  C32 UNL A   1      46.270  10.058  48.546  1.00  0.00    +0.000 C 
ATOM     40  N4  UNL A   1      46.991   9.881  49.626  1.00  0.00    +0.000 N 
ATOM     41  C33 UNL A   1      46.465   8.761  50.254  1.00  0.00    +0.000 C 
ATOM     42  C34 UNL A   1      46.885   8.150  51.388  1.00  0.00    +0.000 C 
ATOM     54  C41 UNL A   1      48.027   8.562  52.160  1.00  0.00    +0.000 C 
ATOM     55  C42 UNL A   1      48.562   7.974  53.294  1.00  0.00    +0.000 C 
ATOM     56  C43 UNL A   1      49.669   8.730  53.699  1.00  0.00    +0.000 C 
ATOM     57  C44 UNL A   1      49.838   9.770  52.799  1.00  0.00    +0.000 C 
ATOM     58  N5  UNL A   1      48.818   9.661  51.868  1.00  0.00    +0.000 N 
ATOM     59  C45 UNL A   1      50.857  10.786  52.783  1.00  0.00    +0.000 C 
ATOM     71  C52 UNL A   1      50.924  11.805  51.893  1.00  0.00    +0.000 C 
ATOM     72  N6  UNL A   1      50.079  12.090  50.828  1.00  0.00    +0.000 N 
ATOM     73  C53 UNL A   1      50.551  13.182  50.278  1.00  0.00    +0.000 C 
ATOM     74  C54 UNL A   1      50.053  13.925  49.070  1.00  0.00    +0.000 C 
ATOM     86  C61 UNL A   1      49.015  13.432  48.368  1.00  0.00    +0.000 C 
ATOM     87  C62 UNL A   1      48.455  14.018  47.154  1.00  0.00    +0.000 C 
ATOM     88  C63 UNL A   1      47.435  13.255  46.727  1.00  0.00    +0.000 C 
ATOM     89  C64 UNL A   1      47.278  12.118  47.635  1.00  0.00    +0.000 C 
ATOM     90  N7  UNL A   1      48.254  12.309  48.582  1.00  0.00    +0.000 N 
ATOM     91  C65 UNL A   1      51.739  13.728  50.949  1.00  0.00    +0.000 C 
ATOM     92  C66 UNL A   1      51.946  12.831  51.902  1.00  0.00    +0.000 C 
ATOM     93  C67 UNL A   1      45.344   8.314  49.454  1.00  0.00    +0.000 C 
ATOM     94  C68 UNL A   1      45.216   9.048  48.357  1.00  0.00    +0.000 C 
ENDROOT
BRANCH   38   37
ATOM     34  C27 UNL A   1      43.565  11.118  44.244  1.00  0.00    +0.000 C 
ATOM     35  C28 UNL A   1      44.810  10.491  44.111  1.00  0.00    +0.000 C 
ATOM     36  C29 UNL A   1      45.723  10.505  45.169  1.00  0.00    +0.000 C 
ATOM     37  C30 UNL A   1      45.409  11.165  46.367  1.00  0.00    +0.000 C 
ATOM    138  H38 UNL A   1      45.055  10.017  43.227  1.00  0.00    +0.000 H 
ATOM    139  H39 UNL A   1      46.632  10.027  45.068  1.00  0.00    +0.000 H 
ATOM    150  H50 UNL A   1      43.937  12.318  47.354  1.00  0.00    +0.000 H 
ATOM    151  H51 UNL A   1      42.299  12.164  45.572  1.00  0.00    +0.000 H 
ATOM     95  C69 UNL A   1      44.166  11.803  46.489  1.00  0.00    +0.000 C 
ATOM     96  C70 UNL A   1      43.234  11.744  45.450  1.00  0.00    +0.000 C 
BRANCH   34   32
ATOM     33  O4  UNL A   1      42.498   9.927  42.531  1.00  0.00    +0.000 O 
ATOM     32  C26 UNL A   1      42.595  10.996  43.130  1.00  0.00    +0.000 C 
BRANCH   32   31
ATOM    137  H37 UNL A   1      41.461  12.598  43.499  1.00  0.00    +0.000 H 
ATOM     31  N3  UNL A   1      41.796  12.045  42.757  1.00  0.00    +0.000 N 
BRANCH   31   30
ATOM     30  C25 UNL A   1      41.366  12.471  41.436  1.00  0.00    +0.000 C 
ATOM    135  H35 UNL A   1      41.868  11.878  40.701  1.00  0.00    +0.000 H 
ATOM    136  H36 UNL A   1      40.304  12.343  41.378  1.00  0.00    +0.000 H 
BRANCH   30   29
ATOM    133  H33 UNL A   1      41.898  14.060  40.139  1.00  0.00    +0.000 H 
ATOM     29  C24 UNL A   1      41.678  13.945  41.180  1.00  0.00    +0.000 C 
ATOM    134  H34 UNL A   1      40.814  14.489  41.499  1.00  0.00    +0.000 H 
BRANCH   29   28
ATOM    131  H31 UNL A   1      43.332  13.702  42.486  1.00  0.00    +0.000 H 
ATOM     28  C23 UNL A   1      42.857  14.515  41.978  1.00  0.00    +0.000 C 
ATOM    132  H32 UNL A   1      43.481  15.006  41.259  1.00  0.00    +0.000 H 
BRANCH   28   27
ATOM    129  H29 UNL A   1      41.573  16.023  42.746  1.00  0.00    +0.000 H 
ATOM    130  H30 UNL A   1      42.484  15.076  43.965  1.00  0.00    +0.000 H 
ATOM     27  C22 UNL A   1      42.509  15.583  43.022  1.00  0.00    +0.000 C 
BRANCH   27   26
ATOM     26  C21 UNL A   1      43.534  16.712  43.178  1.00  0.00    +0.000 C 
ATOM    127  H27 UNL A   1      43.426  17.381  42.351  1.00  0.00    +0.000 H 
ATOM    128  H28 UNL A   1      43.334  17.182  44.119  1.00  0.00    +0.000 H 
BRANCH   26   25
ATOM     25  C20 UNL A   1      44.986  16.234  43.224  1.00  0.00    +0.000 C 
ATOM    125  H25 UNL A   1      45.055  15.405  43.898  1.00  0.00    +0.000 H 
ATOM    126  H26 UNL A   1      45.273  15.953  42.233  1.00  0.00    +0.000 H 
BRANCH   25   24
ATOM    124  H24 UNL A   1      46.302  17.797  42.947  1.00  0.00    +0.000 H 
ATOM     24  N2  UNL A   1      45.886  17.276  43.672  1.00  0.00    +0.000 N 
BRANCH   24   22
ATOM     22  C19 UNL A   1      46.254  17.654  44.926  1.00  0.00    +0.000 C 
ATOM     23  O3  UNL A   1      47.468  17.761  45.140  1.00  0.00    +0.000 O 
BRANCH   22   20
ATOM     20  C17 UNL A   1      45.249  17.934  46.053  1.00  0.00    +0.000 C 
ATOM    120  H20 UNL A   1      44.293  18.033  45.583  1.00  0.00    +0.000 H 
BRANCH   20   19
ATOM     97  C71 UNL A   1      45.920  16.607  48.077  1.00  0.00    +0.000 C 
ATOM     98  C72 UNL A   1      45.763  15.559  48.985  1.00  0.00    +0.000 C 
ATOM     99  F16 UNL A   1      46.668  15.463  49.972  1.00  0.00    +0.000 F 
ATOM     16  C13 UNL A   1      44.715  14.628  48.881  1.00  0.00    +0.000 C 
ATOM     17  C14 UNL A   1      43.859  14.773  47.777  1.00  0.00    +0.000 C 
ATOM     18  C15 UNL A   1      44.037  15.799  46.836  1.00  0.00    +0.000 C 
ATOM     19  C16 UNL A   1      45.053  16.751  46.985  1.00  0.00    +0.000 C 
ATOM    118  H18 UNL A   1      43.079  14.108  47.655  1.00  0.00    +0.000 H 
ATOM    119  H19 UNL A   1      43.409  15.853  46.019  1.00  0.00    +0.000 H 
ATOM    152  H52 UNL A   1      46.686  17.284  48.210  1.00  0.00    +0.000 H 
BRANCH   16   15
ATOM    100  C73 UNL A   1      45.525  13.247  50.822  1.00  0.00    +0.000 C 
ATOM     11  C8  UNL A   1      45.423  12.149  51.683  1.00  0.00    +0.000 C 
ATOM     12  C9  UNL A   1      44.280  11.351  51.639  1.00  0.00    +0.000 C 
ATOM     13  C10 UNL A   1      43.246  11.663  50.760  1.00  0.00    +0.000 C 
ATOM     14  C11 UNL A   1      43.375  12.738  49.877  1.00  0.00    +0.000 C 
ATOM     15  C12 UNL A   1      44.529  13.543  49.872  1.00  0.00    +0.000 C 
ATOM    115  H15 UNL A   1      44.201  10.530  52.259  1.00  0.00    +0.000 H 
ATOM    116  H16 UNL A   1      42.383  11.096  50.760  1.00  0.00    +0.000 H 
ATOM    117  H17 UNL A   1      42.610  12.948  49.218  1.00  0.00    +0.000 H 
ATOM    153  H53 UNL A   1      46.356  13.857  50.884  1.00  0.00    +0.000 H 
BRANCH   11   10
ATOM     10  N1  UNL A   1      46.479  11.737  52.510  1.00  0.00    +0.000 N 
ATOM    114  H14 UNL A   1      47.181  11.205  52.071  1.00  0.00    +0.000 H 
BRANCH   10    8
ATOM      9  O2  UNL A   1      46.867  11.062  54.628  1.00  0.00    +0.000 O 
ATOM      8  C7  UNL A   1      46.666  11.978  53.845  1.00  0.00    +0.000 C 
BRANCH    8    7
ATOM      7  O1  UNL A   1      46.475  13.278  54.192  1.00  0.00    +0.000 O 
BRANCH    7    6
ATOM    113  H13 UNL A   1      45.349  13.535  55.871  1.00  0.00    +0.000 H 
ATOM      6  C6  UNL A   1      45.227  13.625  54.813  1.00  0.00    +0.000 C 
ATOM    112  H12 UNL A   1      44.466  12.963  54.451  1.00  0.00    +0.000 H 
BRANCH    6    5
ATOM      5  C5  UNL A   1      44.810  15.068  54.506  1.00  0.00    +0.000 C 
ATOM    110  H10 UNL A   1      43.772  15.168  54.745  1.00  0.00    +0.000 H 
ATOM    111  H11 UNL A   1      45.455  15.686  55.096  1.00  0.00    +0.000 H 
BRANCH    5    4
ATOM    108  H8  UNL A   1      45.763  14.917  52.613  1.00  0.00    +0.000 H 
ATOM      4  C4  UNL A   1      45.005  15.528  53.055  1.00  0.00    +0.000 C 
ATOM    109  H9  UNL A   1      44.049  15.433  52.582  1.00  0.00    +0.000 H 
BRANCH    4    3
ATOM    106  H6  UNL A   1      45.126  17.527  53.770  1.00  0.00    +0.000 H 
ATOM      3  C3  UNL A   1      45.419  16.996  52.887  1.00  0.00    +0.000 C 
ATOM    107  H7  UNL A   1      46.476  16.993  52.726  1.00  0.00    +0.000 H 
BRANCH    3    2
ATOM    105  H5  UNL A   1      45.440  17.523  50.840  1.00  0.00    +0.000 H 
ATOM      2  C2  UNL A   1      44.803  17.706  51.680  1.00  0.00    +0.000 C 
ATOM    104  H4  UNL A   1      44.726  18.750  51.900  1.00  0.00    +0.000 H 
BRANCH    2    1
ATOM      1  C1  UNL A   1      43.420  17.180  51.329  1.00  0.00    +0.000 C 
ATOM    101  H1  UNL A   1      43.374  16.131  51.536  1.00  0.00    +0.000 H 
ATOM    102  H2  UNL A   1      43.227  17.348  50.290  1.00  0.00    +0.000 H 
ATOM    103  H3  UNL A   1      42.685  17.691  51.915  1.00  0.00    +0.000 H 
ENDBRANCH    2    1
ENDBRANCH    3    2
ENDBRANCH    4    3
ENDBRANCH    5    4
ENDBRANCH    6    5
ENDBRANCH    7    6
ENDBRANCH    8    7
ENDBRANCH   10    8
ENDBRANCH   11   10
ENDBRANCH   16   15
ENDBRANCH   20   19
BRANCH   20   21
ATOM    121  H21 UNL A   1      45.155  20.071  46.007  1.00  0.00    +0.000 H 
ATOM    122  H22 UNL A   1      46.427  19.433  47.024  1.00  0.00    +0.000 H 
ATOM    123  H23 UNL A   1      44.764  19.372  47.560  1.00  0.00    +0.000 H 
ATOM     21  C18 UNL A   1      45.411  19.305  46.710  1.00  0.00    +0.000 C 
ENDBRANCH   20   21
ENDBRANCH   22   20
ENDBRANCH   24   22
ENDBRANCH   25   24
ENDBRANCH   26   25
ENDBRANCH   27   26
ENDBRANCH   28   27
ENDBRANCH   29   28
ENDBRANCH   30   29
ENDBRANCH   31   30
ENDBRANCH   32   31
ENDBRANCH   34   32
ENDBRANCH   38   37
BRANCH   42   43
ATOM     43  C35 UNL A   1      46.106   6.960  51.862  1.00  0.00    +0.000 C 
ATOM     44  C36 UNL A   1      44.963   7.103  52.663  1.00  0.00    +0.000 C 
ATOM     45  F1  UNL A   1      44.571   8.321  53.067  1.00  0.00    +0.000 F 
ATOM     46  C37 UNL A   1      44.239   5.990  53.079  1.00  0.00    +0.000 C 
ATOM     47  F2  UNL A   1      43.172   6.146  53.875  1.00  0.00    +0.000 F 
ATOM     48  C38 UNL A   1      44.625   4.718  52.681  1.00  0.00    +0.000 C 
ATOM     49  F3  UNL A   1      43.923   3.648  53.078  1.00  0.00    +0.000 F 
ATOM     50  C39 UNL A   1      45.743   4.555  51.877  1.00  0.00    +0.000 C 
ATOM     51  F4  UNL A   1      46.113   3.328  51.485  1.00  0.00    +0.000 F 
ATOM     52  C40 UNL A   1      46.483   5.665  51.477  1.00  0.00    +0.000 C 
ATOM     53  F5  UNL A   1      47.566   5.476  50.707  1.00  0.00    +0.000 F 
ENDBRANCH   42   43
BRANCH   59   60
ATOM     65  C49 UNL A   1      53.961  10.610  55.761  1.00  0.00    +0.000 C 
ATOM     66  F8  UNL A   1      54.921  10.551  56.694  1.00  0.00    +0.000 F 
ATOM     67  C50 UNL A   1      52.807  11.342  55.997  1.00  0.00    +0.000 C 
ATOM     68  F9  UNL A   1      52.658  12.003  57.155  1.00  0.00    +0.000 F 
ATOM     69  C51 UNL A   1      51.800  11.387  55.038  1.00  0.00    +0.000 C 
ATOM     70  F10 UNL A   1      50.688  12.091  55.298  1.00  0.00    +0.000 F 
ATOM     60  C46 UNL A   1      51.938  10.710  53.817  1.00  0.00    +0.000 C 
ATOM     61  C47 UNL A   1      53.120   9.991  53.591  1.00  0.00    +0.000 C 
ATOM     62  F6  UNL A   1      53.289   9.316  52.443  1.00  0.00    +0.000 F 
ATOM     63  C48 UNL A   1      54.116   9.932  54.561  1.00  0.00    +0.000 C 
ATOM     64  F7  UNL A   1      55.221   9.205  54.341  1.00  0.00    +0.000 F 
ENDBRANCH   59   60
BRANCH   74   75
ATOM     75  C55 UNL A   1      50.722  15.170  48.619  1.00  0.00    +0.000 C 
ATOM     76  C56 UNL A   1      51.826  15.119  47.756  1.00  0.00    +0.000 C 
ATOM     77  F11 UNL A   1      52.297  13.934  47.342  1.00  0.00    +0.000 F 
ATOM     78  C57 UNL A   1      52.473  16.283  47.351  1.00  0.00    +0.000 C 
ATOM     79  F12 UNL A   1      53.551  16.206  46.558  1.00  0.00    +0.000 F 
ATOM     80  C58 UNL A   1      52.015  17.520  47.779  1.00  0.00    +0.000 C 
ATOM     81  F13 UNL A   1      52.639  18.641  47.389  1.00  0.00    +0.000 F 
ATOM     82  C59 UNL A   1      50.913  17.594  48.619  1.00  0.00    +0.000 C 
ATOM     83  F14 UNL A   1      50.462  18.788  49.028  1.00  0.00    +0.000 F 
ATOM     84  C60 UNL A   1      50.278  16.429  49.044  1.00  0.00    +0.000 C 
ATOM     85  F15 UNL A   1      49.223  16.527  49.865  1.00  0.00    +0.000 F 
ENDBRANCH   74   75
TORSDOF 27
ENDMDL
