MODEL 1
REMARK VINA RESULT:     -11.4      0.000      0.000
ROOT
ATOM     28  C23 UNL A   1      38.040  30.187  29.749  1.00  0.00    +0.000 C 
ATOM     29  C24 UNL A   1      39.078  29.251  29.199  1.00  0.00    +0.000 C 
ATOM     30  N4  UNL A   1      40.143  28.757  29.779  1.00  0.00    +0.000 N 
ATOM     31  C25 UNL A   1      40.718  27.903  28.848  1.00  0.00    +0.000 C 
ATOM     32  C26 UNL A   1      41.864  27.188  28.951  1.00  0.00    +0.000 C 
ATOM     44  C33 UNL A   1      42.730  27.206  30.100  1.00  0.00    +0.000 C 
ATOM     45  C34 UNL A   1      43.936  26.553  30.284  1.00  0.00    +0.000 C 
ATOM     46  C35 UNL A   1      44.402  26.845  31.570  1.00  0.00    +0.000 C 
ATOM     47  C36 UNL A   1      43.506  27.714  32.173  1.00  0.00    +0.000 C 
ATOM     48  N5  UNL A   1      42.481  27.920  31.263  1.00  0.00    +0.000 N 
ATOM     49  C37 UNL A   1      43.579  28.309  33.481  1.00  0.00    +0.000 C 
ATOM     61  C44 UNL A   1      42.652  29.147  34.008  1.00  0.00    +0.000 C 
ATOM     62  N6  UNL A   1      41.483  29.626  33.432  1.00  0.00    +0.000 N 
ATOM     63  C45 UNL A   1      40.931  30.403  34.330  1.00  0.00    +0.000 C 
ATOM     64  C46 UNL A   1      39.664  31.210  34.238  1.00  0.00    +0.000 C 
ATOM     76  C53 UNL A   1      38.958  31.203  33.090  1.00  0.00    +0.000 C 
ATOM     77  C54 UNL A   1      37.708  31.921  32.860  1.00  0.00    +0.000 C 
ATOM     78  C55 UNL A   1      37.247  31.616  31.637  1.00  0.00    +0.000 C 
ATOM     79  C56 UNL A   1      38.192  30.713  30.979  1.00  0.00    +0.000 C 
ATOM     80  N7  UNL A   1      39.193  30.547  31.906  1.00  0.00    +0.000 N 
ATOM     81  C57 UNL A   1      41.673  30.476  35.598  1.00  0.00    +0.000 C 
ATOM     82  C58 UNL A   1      42.730  29.721  35.335  1.00  0.00    +0.000 C 
ATOM     83  C59 UNL A   1      39.865  27.915  27.679  1.00  0.00    +0.000 C 
ATOM     84  C60 UNL A   1      38.873  28.782  27.820  1.00  0.00    +0.000 C 
ATOM    119  H27 UNL A   1      44.411  25.953  29.589  1.00  0.00    +0.000 H 
ATOM    120  H28 UNL A   1      45.265  26.476  31.997  1.00  0.00    +0.000 H 
ATOM    121  H29 UNL A   1      41.694  28.490  31.419  1.00  0.00    +0.000 H 
ATOM    122  H30 UNL A   1      37.252  32.559  33.531  1.00  0.00    +0.000 H 
ATOM    123  H31 UNL A   1      36.366  31.964  31.225  1.00  0.00    +0.000 H 
ATOM    124  H32 UNL A   1      40.000  30.009  31.737  1.00  0.00    +0.000 H 
ATOM    125  H33 UNL A   1      41.435  30.983  36.464  1.00  0.00    +0.000 H 
ATOM    126  H34 UNL A   1      43.510  29.561  35.993  1.00  0.00    +0.000 H 
ATOM    127  H35 UNL A   1      40.010  27.326  26.844  1.00  0.00    +0.000 H 
ATOM    128  H36 UNL A   1      38.147  29.058  27.140  1.00  0.00    +0.000 H 
ENDROOT
BRANCH   28   27
ATOM    129  H37 UNL A   1      36.142  28.452  29.025  1.00  0.00    +0.000 H 
ATOM    130  H38 UNL A   1      34.163  28.831  27.678  1.00  0.00    +0.000 H 
ATOM     27  C22 UNL A   1      36.805  30.460  28.970  1.00  0.00    +0.000 C 
ATOM    117  H25 UNL A   1      35.079  32.933  27.483  1.00  0.00    +0.000 H 
ATOM     86  C62 UNL A   1      34.767  29.625  27.945  1.00  0.00    +0.000 C 
ATOM     85  C61 UNL A   1      35.927  29.402  28.684  1.00  0.00    +0.000 C 
ATOM     24  C19 UNL A   1      34.423  30.925  27.565  1.00  0.00    +0.000 C 
ATOM     25  C20 UNL A   1      35.307  31.981  27.809  1.00  0.00    +0.000 C 
ATOM     26  C21 UNL A   1      36.502  31.746  28.496  1.00  0.00    +0.000 C 
ATOM    118  H26 UNL A   1      37.164  32.522  28.656  1.00  0.00    +0.000 H 
BRANCH   24   22
ATOM     22  C18 UNL A   1      33.136  31.218  26.892  1.00  0.00    +0.000 C 
ATOM     23  O2  UNL A   1      32.423  32.118  27.320  1.00  0.00    +0.000 O 
BRANCH   22   21
ATOM    116  H24 UNL A   1      33.359  30.422  25.067  1.00  0.00    +0.000 H 
ATOM     21  N3  UNL A   1      32.726  30.460  25.820  1.00  0.00    +0.000 N 
BRANCH   21   20
ATOM    114  H22 UNL A   1      31.751  28.679  25.489  1.00  0.00    +0.000 H 
ATOM    115  H23 UNL A   1      30.902  29.861  26.510  1.00  0.00    +0.000 H 
ATOM     20  C17 UNL A   1      31.498  29.709  25.634  1.00  0.00    +0.000 C 
BRANCH   20   19
ATOM    113  H21 UNL A   1      31.229  30.978  24.010  1.00  0.00    +0.000 H 
ATOM     19  C16 UNL A   1      30.670  30.175  24.443  1.00  0.00    +0.000 C 
ATOM    112  H20 UNL A   1      29.702  30.450  24.807  1.00  0.00    +0.000 H 
BRANCH   19   18
ATOM     18  C15 UNL A   1      30.472  29.167  23.311  1.00  0.00    +0.000 C 
ATOM    110  H18 UNL A   1      29.976  29.678  22.511  1.00  0.00    +0.000 H 
ATOM    111  H19 UNL A   1      31.454  28.811  23.085  1.00  0.00    +0.000 H 
BRANCH   18   17
ATOM     17  C14 UNL A   1      29.660  27.908  23.625  1.00  0.00    +0.000 C 
ATOM    108  H16 UNL A   1      29.086  28.110  24.505  1.00  0.00    +0.000 H 
ATOM    109  H17 UNL A   1      29.094  27.723  22.736  1.00  0.00    +0.000 H 
BRANCH   17   16
ATOM    106  H14 UNL A   1      30.432  26.056  22.951  1.00  0.00    +0.000 H 
ATOM    107  H15 UNL A   1      31.389  26.914  24.221  1.00  0.00    +0.000 H 
ATOM     16  C13 UNL A   1      30.427  26.604  23.870  1.00  0.00    +0.000 C 
BRANCH   16   15
ATOM    105  H13 UNL A   1      28.893  25.420  24.673  1.00  0.00    +0.000 H 
ATOM     15  C12 UNL A   1      29.895  25.670  24.957  1.00  0.00    +0.000 C 
ATOM    104  H12 UNL A   1      29.952  26.184  25.894  1.00  0.00    +0.000 H 
BRANCH   15   14
ATOM     14  N2  UNL A   1      30.607  24.421  25.084  1.00  0.00    +0.000 N 
ATOM    103  H11 UNL A   1      30.741  24.113  26.010  1.00  0.00    +0.000 H 
BRANCH   14   12
ATOM     12  C11 UNL A   1      31.128  23.589  24.117  1.00  0.00    +0.000 C 
ATOM     13  O1  UNL A   1      30.396  23.340  23.159  1.00  0.00    +0.000 O 
BRANCH   12   11
ATOM      3  C2  UNL A   1      34.813  23.106  24.180  1.00  0.00    +0.000 C 
ATOM      4  C3  UNL A   1      33.688  23.913  24.048  1.00  0.00    +0.000 C 
ATOM    131  H39 UNL A   1      31.402  20.390  23.851  1.00  0.00    +0.000 H 
ATOM    134  H42 UNL A   1      36.111  20.761  24.968  1.00  0.00    +0.000 H 
ATOM    133  H41 UNL A   1      35.010  18.655  25.179  1.00  0.00    +0.000 H 
ATOM    132  H40 UNL A   1      32.639  18.469  24.463  1.00  0.00    +0.000 H 
ATOM     11  C10 UNL A   1      32.508  23.093  24.181  1.00  0.00    +0.000 C 
ATOM     87  C63 UNL A   1      32.979  21.786  24.233  1.00  0.00    +0.000 C 
ATOM     88  C64 UNL A   1      32.384  20.487  24.157  1.00  0.00    +0.000 C 
ATOM     89  C65 UNL A   1      33.097  19.393  24.481  1.00  0.00    +0.000 C 
ATOM     90  C66 UNL A   1      34.494  19.488  24.854  1.00  0.00    +0.000 C 
ATOM     91  C67 UNL A   1      35.101  20.681  24.771  1.00  0.00    +0.000 C 
ATOM     92  N8  UNL A   1      34.364  21.820  24.417  1.00  0.00    +0.000 N 
BRANCH    3    2
ATOM     97  H5  UNL A   1      36.376  24.259  23.382  1.00  0.00    +0.000 H 
ATOM      2  C1  UNL A   1      36.265  23.442  24.063  1.00  0.00    +0.000 C 
ATOM     96  H4  UNL A   1      36.797  22.585  23.705  1.00  0.00    +0.000 H 
BRANCH    2    1
ATOM      1  N1  UNL A   1      36.804  23.832  25.357  1.00  0.00    +0.000 N 
ATOM     93  H1  UNL A   1      36.096  24.348  25.879  1.00  0.00    +0.000 H 
ATOM     94  H2  UNL A   1      37.624  24.423  25.219  1.00  0.00    +0.000 H 
ATOM     95  H3  UNL A   1      37.071  22.998  25.879  1.00  0.00    +0.000 H 
ENDBRANCH    2    1
ENDBRANCH    3    2
BRANCH    4    5
ATOM     98  H6  UNL A   1      33.545  25.193  21.702  1.00  0.00    +0.000 H 
ATOM     99  H7  UNL A   1      33.693  27.583  21.299  1.00  0.00    +0.000 H 
ATOM    100  H8  UNL A   1      34.008  29.113  23.155  1.00  0.00    +0.000 H 
ATOM      5  C4  UNL A   1      33.781  25.344  23.795  1.00  0.00    +0.000 C 
ATOM    102  H10 UNL A   1      34.063  25.869  25.822  1.00  0.00    +0.000 H 
ATOM      6  C5  UNL A   1      33.681  25.842  22.492  1.00  0.00    +0.000 C 
ATOM      7  C6  UNL A   1      33.766  27.218  22.261  1.00  0.00    +0.000 C 
ATOM      9  C8  UNL A   1      34.055  27.606  24.628  1.00  0.00    +0.000 C 
ATOM     10  C9  UNL A   1      33.977  26.232  24.861  1.00  0.00    +0.000 C 
ATOM    101  H9  UNL A   1      34.192  28.257  25.417  1.00  0.00    +0.000 H 
ATOM      8  C7  UNL A   1      33.950  28.099  23.328  1.00  0.00    +0.000 C 
ENDBRANCH    4    5
ENDBRANCH   12   11
ENDBRANCH   14   12
ENDBRANCH   15   14
ENDBRANCH   16   15
ENDBRANCH   17   16
ENDBRANCH   18   17
ENDBRANCH   19   18
ENDBRANCH   20   19
ENDBRANCH   21   20
ENDBRANCH   22   21
ENDBRANCH   24   22
ENDBRANCH   28   27
BRANCH   32   33
ATOM     33  C27 UNL A   1      42.245  26.321  27.788  1.00  0.00    +0.000 C 
ATOM     34  C28 UNL A   1      43.167  26.749  26.822  1.00  0.00    +0.000 C 
ATOM     35  F1  UNL A   1      43.707  27.974  26.901  1.00  0.00    +0.000 F 
ATOM     36  C29 UNL A   1      43.506  25.935  25.744  1.00  0.00    +0.000 C 
ATOM     37  F2  UNL A   1      44.349  26.386  24.806  1.00  0.00    +0.000 F 
ATOM     38  C30 UNL A   1      42.958  24.667  25.631  1.00  0.00    +0.000 C 
ATOM     39  F3  UNL A   1      43.288  23.883  24.595  1.00  0.00    +0.000 F 
ATOM     40  C31 UNL A   1      42.063  24.213  26.587  1.00  0.00    +0.000 C 
ATOM     41  F4  UNL A   1      41.541  22.982  26.486  1.00  0.00    +0.000 F 
ATOM     42  C32 UNL A   1      41.700  25.035  27.650  1.00  0.00    +0.000 C 
ATOM     43  F5  UNL A   1      40.817  24.575  28.551  1.00  0.00    +0.000 F 
ENDBRANCH   32   33
BRANCH   49   50
ATOM     50  C38 UNL A   1      44.785  28.000  34.317  1.00  0.00    +0.000 C 
ATOM     51  C39 UNL A   1      44.827  26.883  35.163  1.00  0.00    +0.000 C 
ATOM     52  F6  UNL A   1      43.748  26.098  35.298  1.00  0.00    +0.000 F 
ATOM     53  C40 UNL A   1      45.974  26.585  35.895  1.00  0.00    +0.000 C 
ATOM     54  F7  UNL A   1      45.983  25.531  36.723  1.00  0.00    +0.000 F 
ATOM     55  C41 UNL A   1      47.103  27.380  35.774  1.00  0.00    +0.000 C 
ATOM     56  F8  UNL A   1      48.210  27.084  36.470  1.00  0.00    +0.000 F 
ATOM     57  C42 UNL A   1      47.086  28.484  34.936  1.00  0.00    +0.000 C 
ATOM     58  F9  UNL A   1      48.181  29.248  34.809  1.00  0.00    +0.000 F 
ATOM     59  C43 UNL A   1      45.934  28.799  34.221  1.00  0.00    +0.000 C 
ATOM     60  F10 UNL A   1      45.943  29.876  33.421  1.00  0.00    +0.000 F 
ENDBRANCH   49   50
BRANCH   64   65
ATOM     65  C47 UNL A   1      39.202  32.033  35.384  1.00  0.00    +0.000 C 
ATOM     66  C48 UNL A   1      39.547  33.388  35.477  1.00  0.00    +0.000 C 
ATOM     67  F11 UNL A   1      40.325  33.946  34.538  1.00  0.00    +0.000 F 
ATOM     68  C49 UNL A   1      39.128  34.166  36.554  1.00  0.00    +0.000 C 
ATOM     69  F12 UNL A   1      39.504  35.448  36.638  1.00  0.00    +0.000 F 
ATOM     70  C50 UNL A   1      38.333  33.610  37.546  1.00  0.00    +0.000 C 
ATOM     71  F13 UNL A   1      37.925  34.359  38.579  1.00  0.00    +0.000 F 
ATOM     72  C51 UNL A   1      37.967  32.274  37.468  1.00  0.00    +0.000 C 
ATOM     73  F14 UNL A   1      37.189  31.736  38.417  1.00  0.00    +0.000 F 
ATOM     74  C52 UNL A   1      38.407  31.489  36.403  1.00  0.00    +0.000 C 
ATOM     75  F15 UNL A   1      38.046  30.198  36.359  1.00  0.00    +0.000 F 
ENDBRANCH   64   65
TORSDOF 18
ENDMDL
MODEL 2
REMARK VINA RESULT:     -11.2      0.593      2.017
ROOT
ATOM     28  C23 UNL A   1      38.203  30.240  29.855  1.00  0.00    +0.000 C 
ATOM     29  C24 UNL A   1      39.218  29.283  29.299  1.00  0.00    +0.000 C 
ATOM     30  N4  UNL A   1      40.275  28.767  29.872  1.00  0.00    +0.000 N 
ATOM     31  C25 UNL A   1      40.828  27.903  28.936  1.00  0.00    +0.000 C 
ATOM     32  C26 UNL A   1      41.960  27.164  29.033  1.00  0.00    +0.000 C 
ATOM     44  C33 UNL A   1      42.831  27.161  30.178  1.00  0.00    +0.000 C 
ATOM     45  C34 UNL A   1      44.024  26.483  30.355  1.00  0.00    +0.000 C 
ATOM     46  C35 UNL A   1      44.501  26.762  31.640  1.00  0.00    +0.000 C 
ATOM     47  C36 UNL A   1      43.626  27.648  32.249  1.00  0.00    +0.000 C 
ATOM     48  N5  UNL A   1      42.602  27.878  31.344  1.00  0.00    +0.000 N 
ATOM     49  C37 UNL A   1      43.717  28.239  33.558  1.00  0.00    +0.000 C 
ATOM     61  C44 UNL A   1      42.811  29.094  34.090  1.00  0.00    +0.000 C 
ATOM     62  N6  UNL A   1      41.650  29.598  33.521  1.00  0.00    +0.000 N 
ATOM     63  C45 UNL A   1      41.118  30.385  34.424  1.00  0.00    +0.000 C 
ATOM     64  C46 UNL A   1      39.867  31.218  34.339  1.00  0.00    +0.000 C 
ATOM     76  C53 UNL A   1      39.157  31.228  33.194  1.00  0.00    +0.000 C 
ATOM     77  C54 UNL A   1      37.921  31.973  32.971  1.00  0.00    +0.000 C 
ATOM     78  C55 UNL A   1      37.448  31.681  31.749  1.00  0.00    +0.000 C 
ATOM     79  C56 UNL A   1      38.371  30.760  31.086  1.00  0.00    +0.000 C 
ATOM     80  N7  UNL A   1      39.372  30.571  32.008  1.00  0.00    +0.000 N 
ATOM     81  C57 UNL A   1      41.866  30.440  35.688  1.00  0.00    +0.000 C 
ATOM     82  C58 UNL A   1      42.907  29.663  35.419  1.00  0.00    +0.000 C 
ATOM     83  C59 UNL A   1      39.970  27.936  27.771  1.00  0.00    +0.000 C 
ATOM     84  C60 UNL A   1      38.998  28.823  27.919  1.00  0.00    +0.000 C 
ATOM    119  H27 UNL A   1      44.483  25.875  29.657  1.00  0.00    +0.000 H 
ATOM    120  H28 UNL A   1      45.359  26.375  32.062  1.00  0.00    +0.000 H 
ATOM    121  H29 UNL A   1      41.828  28.464  31.504  1.00  0.00    +0.000 H 
ATOM    122  H30 UNL A   1      37.480  32.618  33.646  1.00  0.00    +0.000 H 
ATOM    123  H31 UNL A   1      36.572  32.047  31.343  1.00  0.00    +0.000 H 
ATOM    124  H32 UNL A   1      40.167  30.017  31.834  1.00  0.00    +0.000 H 
ATOM    125  H33 UNL A   1      41.643  30.950  36.557  1.00  0.00    +0.000 H 
ATOM    126  H34 UNL A   1      43.686  29.486  36.072  1.00  0.00    +0.000 H 
ATOM    127  H35 UNL A   1      40.099  27.345  26.935  1.00  0.00    +0.000 H 
ATOM    128  H36 UNL A   1      38.274  29.115  27.243  1.00  0.00    +0.000 H 
ENDROOT
BRANCH   28   27
ATOM    129  H37 UNL A   1      36.223  28.565  29.212  1.00  0.00    +0.000 H 
ATOM    130  H38 UNL A   1      34.244  28.986  27.876  1.00  0.00    +0.000 H 
ATOM     27  C22 UNL A   1      36.970  30.540  29.082  1.00  0.00    +0.000 C 
ATOM    117  H25 UNL A   1      35.331  33.035  27.535  1.00  0.00    +0.000 H 
ATOM     86  C62 UNL A   1      34.884  29.761  28.109  1.00  0.00    +0.000 C 
ATOM     85  C61 UNL A   1      36.044  29.513  28.841  1.00  0.00    +0.000 C 
ATOM     24  C19 UNL A   1      34.591  31.061  27.691  1.00  0.00    +0.000 C 
ATOM     25  C20 UNL A   1      35.523  32.086  27.889  1.00  0.00    +0.000 C 
ATOM     26  C21 UNL A   1      36.716  31.822  28.569  1.00  0.00    +0.000 C 
ATOM    118  H26 UNL A   1      37.412  32.573  28.696  1.00  0.00    +0.000 H 
BRANCH   24   22
ATOM     22  C18 UNL A   1      33.309  31.387  27.024  1.00  0.00    +0.000 C 
ATOM     23  O2  UNL A   1      32.701  32.401  27.348  1.00  0.00    +0.000 O 
BRANCH   22   21
ATOM    116  H24 UNL A   1      33.443  29.976  25.609  1.00  0.00    +0.000 H 
ATOM     21  N3  UNL A   1      32.785  30.539  26.076  1.00  0.00    +0.000 N 
BRANCH   21   20
ATOM    114  H22 UNL A   1      30.771  30.595  26.491  1.00  0.00    +0.000 H 
ATOM    115  H23 UNL A   1      31.240  30.994  24.824  1.00  0.00    +0.000 H 
ATOM     20  C17 UNL A   1      31.406  30.353  25.664  1.00  0.00    +0.000 C 
BRANCH   20   19
ATOM    113  H21 UNL A   1      30.287  28.610  25.844  1.00  0.00    +0.000 H 
ATOM     19  C16 UNL A   1      31.089  28.932  25.213  1.00  0.00    +0.000 C 
ATOM    112  H20 UNL A   1      31.986  28.356  25.301  1.00  0.00    +0.000 H 
BRANCH   19   18
ATOM     18  C15 UNL A   1      30.569  28.767  23.785  1.00  0.00    +0.000 C 
ATOM    110  H18 UNL A   1      29.942  29.608  23.573  1.00  0.00    +0.000 H 
ATOM    111  H19 UNL A   1      31.448  28.689  23.181  1.00  0.00    +0.000 H 
BRANCH   18   17
ATOM     17  C14 UNL A   1      29.764  27.503  23.473  1.00  0.00    +0.000 C 
ATOM    108  H16 UNL A   1      28.781  27.644  23.872  1.00  0.00    +0.000 H 
ATOM    109  H17 UNL A   1      29.821  27.403  22.410  1.00  0.00    +0.000 H 
BRANCH   17   16
ATOM    106  H14 UNL A   1      31.265  26.344  24.414  1.00  0.00    +0.000 H 
ATOM    107  H15 UNL A   1      29.554  25.853  24.726  1.00  0.00    +0.000 H 
ATOM     16  C13 UNL A   1      30.289  26.168  24.014  1.00  0.00    +0.000 C 
BRANCH   16   15
ATOM    105  H13 UNL A   1      31.322  25.151  22.498  1.00  0.00    +0.000 H 
ATOM     15  C12 UNL A   1      30.402  25.007  23.027  1.00  0.00    +0.000 C 
ATOM    104  H12 UNL A   1      29.542  25.027  22.391  1.00  0.00    +0.000 H 
BRANCH   15   14
ATOM     14  N2  UNL A   1      30.482  23.700  23.635  1.00  0.00    +0.000 N 
ATOM    103  H11 UNL A   1      29.970  22.997  23.175  1.00  0.00    +0.000 H 
BRANCH   14   12
ATOM     12  C11 UNL A   1      31.163  23.279  24.757  1.00  0.00    +0.000 C 
ATOM     13  O1  UNL A   1      30.538  23.305  25.817  1.00  0.00    +0.000 O 
BRANCH   12   11
ATOM      3  C2  UNL A   1      34.833  22.718  24.568  1.00  0.00    +0.000 C 
ATOM      4  C3  UNL A   1      33.724  23.559  24.605  1.00  0.00    +0.000 C 
ATOM    131  H39 UNL A   1      31.339  20.142  24.045  1.00  0.00    +0.000 H 
ATOM    134  H42 UNL A   1      36.103  20.263  24.962  1.00  0.00    +0.000 H 
ATOM    133  H41 UNL A   1      34.958  18.170  24.939  1.00  0.00    +0.000 H 
ATOM    132  H40 UNL A   1      32.552  18.131  24.326  1.00  0.00    +0.000 H 
ATOM     11  C10 UNL A   1      32.530  22.752  24.683  1.00  0.00    +0.000 C 
ATOM     87  C63 UNL A   1      32.969  21.441  24.533  1.00  0.00    +0.000 C 
ATOM     88  C64 UNL A   1      32.336  20.177  24.311  1.00  0.00    +0.000 C 
ATOM     89  C65 UNL A   1      33.034  19.035  24.446  1.00  0.00    +0.000 C 
ATOM     90  C66 UNL A   1      34.449  19.050  24.758  1.00  0.00    +0.000 C 
ATOM     91  C67 UNL A   1      35.084  20.231  24.808  1.00  0.00    +0.000 C 
ATOM     92  N8  UNL A   1      34.361  21.422  24.650  1.00  0.00    +0.000 N 
BRANCH    3    2
ATOM     97  H5  UNL A   1      36.849  22.368  25.039  1.00  0.00    +0.000 H 
ATOM      2  C1  UNL A   1      36.286  23.038  24.425  1.00  0.00    +0.000 C 
ATOM     96  H4  UNL A   1      36.455  24.051  24.728  1.00  0.00    +0.000 H 
BRANCH    2    1
ATOM      1  N1  UNL A   1      36.710  22.878  23.043  1.00  0.00    +0.000 N 
ATOM     93  H1  UNL A   1      37.714  22.700  23.014  1.00  0.00    +0.000 H 
ATOM     94  H2  UNL A   1      36.501  23.728  22.522  1.00  0.00    +0.000 H 
ATOM     95  H3  UNL A   1      36.214  22.091  22.624  1.00  0.00    +0.000 H 
ENDBRANCH    2    1
ENDBRANCH    3    2
BRANCH    4    5
ATOM     98  H6  UNL A   1      33.757  25.130  22.437  1.00  0.00    +0.000 H 
ATOM     99  H7  UNL A   1      33.946  27.549  22.357  1.00  0.00    +0.000 H 
ATOM    100  H8  UNL A   1      34.136  28.825  24.411  1.00  0.00    +0.000 H 
ATOM      5  C4  UNL A   1      33.844  25.008  24.544  1.00  0.00    +0.000 C 
ATOM    102  H10 UNL A   1      33.983  25.266  26.637  1.00  0.00    +0.000 H 
ATOM      6  C5  UNL A   1      33.840  25.670  23.312  1.00  0.00    +0.000 C 
ATOM      7  C6  UNL A   1      33.949  27.063  23.266  1.00  0.00    +0.000 C 
ATOM      9  C8  UNL A   1      34.070  27.142  25.678  1.00  0.00    +0.000 C 
ATOM     10  C9  UNL A   1      33.968  25.751  25.726  1.00  0.00    +0.000 C 
ATOM    101  H9  UNL A   1      34.154  27.684  26.552  1.00  0.00    +0.000 H 
ATOM      8  C7  UNL A   1      34.061  27.797  24.448  1.00  0.00    +0.000 C 
ENDBRANCH    4    5
ENDBRANCH   12   11
ENDBRANCH   14   12
ENDBRANCH   15   14
ENDBRANCH   16   15
ENDBRANCH   17   16
ENDBRANCH   18   17
ENDBRANCH   19   18
ENDBRANCH   20   19
ENDBRANCH   21   20
ENDBRANCH   22   21
ENDBRANCH   24   22
ENDBRANCH   28   27
BRANCH   32   33
ATOM     33  C27 UNL A   1      42.317  26.292  27.866  1.00  0.00    +0.000 C 
ATOM     34  C28 UNL A   1      41.747  25.022  27.696  1.00  0.00    +0.000 C 
ATOM     35  F1  UNL A   1      40.887  24.541  28.605  1.00  0.00    +0.000 F 
ATOM     36  C29 UNL A   1      42.093  24.221  26.610  1.00  0.00    +0.000 C 
ATOM     37  F2  UNL A   1      41.576  22.991  26.496  1.00  0.00    +0.000 F 
ATOM     38  C30 UNL A   1      42.985  24.688  25.657  1.00  0.00    +0.000 C 
ATOM     39  F3  UNL A   1      43.314  23.918  24.611  1.00  0.00    +0.000 F 
ATOM     40  C31 UNL A   1      43.543  25.950  25.792  1.00  0.00    +0.000 C 
ATOM     41  F4  UNL A   1      44.396  26.408  24.865  1.00  0.00    +0.000 F 
ATOM     42  C32 UNL A   1      43.221  26.742  26.891  1.00  0.00    +0.000 C 
ATOM     43  F5  UNL A   1      43.790  27.952  27.004  1.00  0.00    +0.000 F 
ENDBRANCH   32   33
BRANCH   49   50
ATOM     50  C38 UNL A   1      44.921  27.902  34.387  1.00  0.00    +0.000 C 
ATOM     51  C39 UNL A   1      46.077  28.695  34.362  1.00  0.00    +0.000 C 
ATOM     52  F6  UNL A   1      46.157  29.745  33.531  1.00  0.00    +0.000 F 
ATOM     53  C40 UNL A   1      47.167  28.393  35.175  1.00  0.00    +0.000 C 
ATOM     54  F7  UNL A   1      48.275  29.144  35.112  1.00  0.00    +0.000 F 
ATOM     55  C41 UNL A   1      47.110  27.313  36.043  1.00  0.00    +0.000 C 
ATOM     56  F8  UNL A   1      48.156  27.032  36.833  1.00  0.00    +0.000 F 
ATOM     57  C42 UNL A   1      45.973  26.522  36.090  1.00  0.00    +0.000 C 
ATOM     58  F9  UNL A   1      45.912  25.484  36.937  1.00  0.00    +0.000 F 
ATOM     59  C43 UNL A   1      44.891  26.805  35.262  1.00  0.00    +0.000 C 
ATOM     60  F10 UNL A   1      43.805  26.020  35.324  1.00  0.00    +0.000 F 
ENDBRANCH   49   50
BRANCH   64   65
ATOM     65  C47 UNL A   1      39.428  32.048  35.489  1.00  0.00    +0.000 C 
ATOM     66  C48 UNL A   1      38.524  31.541  36.433  1.00  0.00    +0.000 C 
ATOM     67  F11 UNL A   1      38.027  30.304  36.286  1.00  0.00    +0.000 F 
ATOM     68  C49 UNL A   1      38.099  32.315  37.511  1.00  0.00    +0.000 C 
ATOM     69  F12 UNL A   1      37.205  31.820  38.377  1.00  0.00    +0.000 F 
ATOM     70  C50 UNL A   1      38.588  33.602  37.678  1.00  0.00    +0.000 C 
ATOM     71  F13 UNL A   1      38.183  34.345  38.718  1.00  0.00    +0.000 F 
ATOM     72  C51 UNL A   1      39.494  34.120  36.765  1.00  0.00    +0.000 C 
ATOM     73  F14 UNL A   1      39.979  35.358  36.930  1.00  0.00    +0.000 F 
ATOM     74  C52 UNL A   1      39.902  33.354  35.673  1.00  0.00    +0.000 C 
ATOM     75  F15 UNL A   1      40.771  33.884  34.800  1.00  0.00    +0.000 F 
ENDBRANCH   64   65
TORSDOF 18
ENDMDL
MODEL 3
REMARK VINA RESULT:     -10.9     37.824     42.822
ROOT
ATOM     28  C23 UNL A   1      13.946  53.639   5.494  1.00  0.00    +0.000 C 
ATOM     29  C24 UNL A   1      14.899  54.118   4.437  1.00  0.00    +0.000 C 
ATOM     30  N4  UNL A   1      15.370  53.484   3.393  1.00  0.00    +0.000 N 
ATOM     31  C25 UNL A   1      16.160  54.404   2.717  1.00  0.00    +0.000 C 
ATOM     32  C26 UNL A   1      16.904  54.220   1.600  1.00  0.00    +0.000 C 
ATOM     44  C33 UNL A   1      17.015  52.969   0.897  1.00  0.00    +0.000 C 
ATOM     45  C34 UNL A   1      17.779  52.669  -0.218  1.00  0.00    +0.000 C 
ATOM     46  C35 UNL A   1      17.545  51.334  -0.563  1.00  0.00    +0.000 C 
ATOM     47  C36 UNL A   1      16.666  50.790   0.361  1.00  0.00    +0.000 C 
ATOM     48  N5  UNL A   1      16.344  51.807   1.246  1.00  0.00    +0.000 N 
ATOM     49  C37 UNL A   1      16.158  49.445   0.429  1.00  0.00    +0.000 C 
ATOM     61  C44 UNL A   1      15.289  48.989   1.364  1.00  0.00    +0.000 C 
ATOM     62  N6  UNL A   1      14.727  49.667   2.436  1.00  0.00    +0.000 N 
ATOM     63  C45 UNL A   1      13.958  48.801   3.048  1.00  0.00    +0.000 C 
ATOM     64  C46 UNL A   1      13.127  48.980   4.290  1.00  0.00    +0.000 C 
ATOM     76  C53 UNL A   1      13.150  50.162   4.936  1.00  0.00    +0.000 C 
ATOM     77  C54 UNL A   1      12.387  50.485   6.138  1.00  0.00    +0.000 C 
ATOM     78  C55 UNL A   1      12.590  51.774   6.452  1.00  0.00    +0.000 C 
ATOM     79  C56 UNL A   1      13.530  52.358   5.495  1.00  0.00    +0.000 C 
ATOM     80  N7  UNL A   1      13.832  51.319   4.649  1.00  0.00    +0.000 N 
ATOM     81  C57 UNL A   1      13.916  47.478   2.407  1.00  0.00    +0.000 C 
ATOM     82  C58 UNL A   1      14.771  47.637   1.406  1.00  0.00    +0.000 C 
ATOM     83  C59 UNL A   1      16.076  55.651   3.446  1.00  0.00    +0.000 C 
ATOM     84  C60 UNL A   1      15.362  55.510   4.553  1.00  0.00    +0.000 C 
ATOM    119  H27 UNL A   1      18.414  53.319  -0.709  1.00  0.00    +0.000 H 
ATOM    120  H28 UNL A   1      17.956  50.839  -1.369  1.00  0.00    +0.000 H 
ATOM    121  H29 UNL A   1      15.730  51.717   2.010  1.00  0.00    +0.000 H 
ATOM    122  H30 UNL A   1      11.788  49.828   6.662  1.00  0.00    +0.000 H 
ATOM    123  H31 UNL A   1      12.152  52.274   7.242  1.00  0.00    +0.000 H 
ATOM    124  H32 UNL A   1      14.477  51.397   3.909  1.00  0.00    +0.000 H 
ATOM    125  H33 UNL A   1      13.366  46.645   2.667  1.00  0.00    +0.000 H 
ATOM    126  H34 UNL A   1      15.034  46.892   0.741  1.00  0.00    +0.000 H 
ATOM    127  H35 UNL A   1      16.515  56.535   3.144  1.00  0.00    +0.000 H 
ATOM    128  H36 UNL A   1      15.178  56.196   5.302  1.00  0.00    +0.000 H 
ENDROOT
BRANCH   28   27
ATOM    129  H37 UNL A   1      11.735  55.124   5.278  1.00  0.00    +0.000 H 
ATOM    130  H38 UNL A   1      10.850  56.773   6.818  1.00  0.00    +0.000 H 
ATOM     27  C22 UNL A   1      13.394  54.602   6.482  1.00  0.00    +0.000 C 
ATOM    117  H25 UNL A   1      13.928  55.884   9.544  1.00  0.00    +0.000 H 
ATOM     86  C62 UNL A   1      11.678  56.215   7.078  1.00  0.00    +0.000 C 
ATOM     85  C61 UNL A   1      12.213  55.297   6.177  1.00  0.00    +0.000 C 
ATOM     24  C19 UNL A   1      12.267  56.379   8.335  1.00  0.00    +0.000 C 
ATOM     25  C20 UNL A   1      13.465  55.723   8.636  1.00  0.00    +0.000 C 
ATOM     26  C21 UNL A   1      14.035  54.849   7.706  1.00  0.00    +0.000 C 
ATOM    118  H26 UNL A   1      14.931  54.384   7.920  1.00  0.00    +0.000 H 
BRANCH   24   22
ATOM     22  C18 UNL A   1      11.654  57.248   9.367  1.00  0.00    +0.000 C 
ATOM     23  O2  UNL A   1      11.624  58.461   9.195  1.00  0.00    +0.000 O 
BRANCH   22   21
ATOM    116  H24 UNL A   1      11.732  56.800  11.318  1.00  0.00    +0.000 H 
ATOM     21  N3  UNL A   1      11.155  56.701  10.526  1.00  0.00    +0.000 N 
BRANCH   21   20
ATOM    114  H22 UNL A   1       9.561  56.235  11.740  1.00  0.00    +0.000 H 
ATOM    115  H23 UNL A   1       9.221  56.323   9.998  1.00  0.00    +0.000 H 
ATOM     20  C17 UNL A   1       9.905  56.000  10.754  1.00  0.00    +0.000 C 
BRANCH   20   19
ATOM    113  H21 UNL A   1       9.916  54.278   9.589  1.00  0.00    +0.000 H 
ATOM     19  C16 UNL A   1      10.023  54.486  10.634  1.00  0.00    +0.000 C 
ATOM    112  H20 UNL A   1       9.268  54.050  11.255  1.00  0.00    +0.000 H 
BRANCH   19   18
ATOM     18  C15 UNL A   1      11.364  53.869  11.032  1.00  0.00    +0.000 C 
ATOM    110  H18 UNL A   1      12.102  54.643  10.975  1.00  0.00    +0.000 H 
ATOM    111  H19 UNL A   1      11.201  53.465  12.008  1.00  0.00    +0.000 H 
BRANCH   18   17
ATOM     17  C14 UNL A   1      11.870  52.690  10.197  1.00  0.00    +0.000 C 
ATOM    108  H16 UNL A   1      12.582  53.076   9.497  1.00  0.00    +0.000 H 
ATOM    109  H17 UNL A   1      12.257  51.998  10.916  1.00  0.00    +0.000 H 
BRANCH   17   16
ATOM    106  H14 UNL A   1       9.919  52.426   9.421  1.00  0.00    +0.000 H 
ATOM    107  H15 UNL A   1      11.276  51.760   8.431  1.00  0.00    +0.000 H 
ATOM     16  C13 UNL A   1      10.840  51.882   9.401  1.00  0.00    +0.000 C 
BRANCH   16   15
ATOM    105  H13 UNL A   1       9.555  50.229   9.533  1.00  0.00    +0.000 H 
ATOM     15  C12 UNL A   1      10.542  50.461   9.878  1.00  0.00    +0.000 C 
ATOM    104  H12 UNL A   1      10.632  50.442  10.944  1.00  0.00    +0.000 H 
BRANCH   15   14
ATOM     14  N2  UNL A   1      11.411  49.444   9.334  1.00  0.00    +0.000 N 
ATOM    103  H11 UNL A   1      11.164  49.125   8.437  1.00  0.00    +0.000 H 
BRANCH   14   12
ATOM     12  C11 UNL A   1      12.533  48.849   9.872  1.00  0.00    +0.000 C 
ATOM     13  O1  UNL A   1      12.780  47.706   9.490  1.00  0.00    +0.000 O 
BRANCH   12   11
ATOM      3  C2  UNL A   1      15.265  50.743  11.534  1.00  0.00    +0.000 C 
ATOM      4  C3  UNL A   1      14.710  50.123  10.419  1.00  0.00    +0.000 C 
ATOM    131  H39 UNL A   1      11.806  48.501  12.991  1.00  0.00    +0.000 H 
ATOM    134  H42 UNL A   1      15.108  51.888  14.076  1.00  0.00    +0.000 H 
ATOM    133  H41 UNL A   1      13.417  51.336  15.666  1.00  0.00    +0.000 H 
ATOM    132  H40 UNL A   1      11.832  49.499  15.135  1.00  0.00    +0.000 H 
ATOM     11  C10 UNL A   1      13.429  49.567  10.785  1.00  0.00    +0.000 C 
ATOM     87  C63 UNL A   1      13.336  49.746  12.161  1.00  0.00    +0.000 C 
ATOM     88  C64 UNL A   1      12.464  49.271  13.191  1.00  0.00    +0.000 C 
ATOM     89  C65 UNL A   1      12.497  49.823  14.417  1.00  0.00    +0.000 C 
ATOM     90  C66 UNL A   1      13.451  50.863  14.749  1.00  0.00    +0.000 C 
ATOM     91  C67 UNL A   1      14.378  51.199  13.839  1.00  0.00    +0.000 C 
ATOM     92  N8  UNL A   1      14.355  50.612  12.566  1.00  0.00    +0.000 N 
BRANCH    3    2
ATOM     97  H5  UNL A   1      16.609  51.895  12.664  1.00  0.00    +0.000 H 
ATOM      2  C1  UNL A   1      16.591  51.411  11.710  1.00  0.00    +0.000 C 
ATOM     96  H4  UNL A   1      16.731  52.127  10.928  1.00  0.00    +0.000 H 
BRANCH    2    1
ATOM      1  N1  UNL A   1      17.666  50.432  11.659  1.00  0.00    +0.000 N 
ATOM     93  H1  UNL A   1      17.513  49.799  10.875  1.00  0.00    +0.000 H 
ATOM     94  H2  UNL A   1      17.682  49.899  12.528  1.00  0.00    +0.000 H 
ATOM     95  H3  UNL A   1      18.557  50.913  11.539  1.00  0.00    +0.000 H 
ENDBRANCH    2    1
ENDBRANCH    3    2
BRANCH    4    5
ATOM     98  H6  UNL A   1      15.801  47.998   9.209  1.00  0.00    +0.000 H 
ATOM     99  H7  UNL A   1      16.931  47.928   7.062  1.00  0.00    +0.000 H 
ATOM    100  H8  UNL A   1      17.173  49.951   5.745  1.00  0.00    +0.000 H 
ATOM      5  C4  UNL A   1      15.395  50.069   9.136  1.00  0.00    +0.000 C 
ATOM    102  H10 UNL A   1      15.186  52.134   8.734  1.00  0.00    +0.000 H 
ATOM      6  C5  UNL A   1      15.904  48.861   8.653  1.00  0.00    +0.000 C 
ATOM      7  C6  UNL A   1      16.555  48.820   7.416  1.00  0.00    +0.000 C 
ATOM      9  C8  UNL A   1      16.195  51.193   7.139  1.00  0.00    +0.000 C 
ATOM     10  C9  UNL A   1      15.550  51.237   8.377  1.00  0.00    +0.000 C 
ATOM    101  H9  UNL A   1      16.300  52.054   6.581  1.00  0.00    +0.000 H 
ATOM      8  C7  UNL A   1      16.697  49.985   6.660  1.00  0.00    +0.000 C 
ENDBRANCH    4    5
ENDBRANCH   12   11
ENDBRANCH   14   12
ENDBRANCH   15   14
ENDBRANCH   16   15
ENDBRANCH   17   16
ENDBRANCH   18   17
ENDBRANCH   19   18
ENDBRANCH   20   19
ENDBRANCH   21   20
ENDBRANCH   22   21
ENDBRANCH   24   22
ENDBRANCH   28   27
BRANCH   32   33
ATOM     33  C27 UNL A   1      17.653  55.405   1.065  1.00  0.00    +0.000 C 
ATOM     34  C28 UNL A   1      17.090  56.259   0.107  1.00  0.00    +0.000 C 
ATOM     35  F1  UNL A   1      15.868  56.010  -0.385  1.00  0.00    +0.000 F 
ATOM     36  C29 UNL A   1      17.800  57.352  -0.384  1.00  0.00    +0.000 C 
ATOM     37  F2  UNL A   1      17.263  58.125  -1.337  1.00  0.00    +0.000 F 
ATOM     38  C30 UNL A   1      19.069  57.632   0.100  1.00  0.00    +0.000 C 
ATOM     39  F3  UNL A   1      19.750  58.686  -0.371  1.00  0.00    +0.000 F 
ATOM     40  C31 UNL A   1      19.637  56.814   1.065  1.00  0.00    +0.000 C 
ATOM     41  F4  UNL A   1      20.859  57.090   1.542  1.00  0.00    +0.000 F 
ATOM     42  C32 UNL A   1      18.941  55.704   1.537  1.00  0.00    +0.000 C 
ATOM     43  F5  UNL A   1      19.523  54.921   2.459  1.00  0.00    +0.000 F 
ENDBRANCH   32   33
BRANCH   49   50
ATOM     50  C38 UNL A   1      16.649  48.467  -0.596  1.00  0.00    +0.000 C 
ATOM     51  C39 UNL A   1      17.894  47.835  -0.473  1.00  0.00    +0.000 C 
ATOM     52  F6  UNL A   1      18.713  48.150   0.542  1.00  0.00    +0.000 F 
ATOM     53  C40 UNL A   1      18.312  46.893  -1.410  1.00  0.00    +0.000 C 
ATOM     54  F7  UNL A   1      19.519  46.323  -1.292  1.00  0.00    +0.000 F 
ATOM     55  C41 UNL A   1      17.484  46.550  -2.468  1.00  0.00    +0.000 C 
ATOM     56  F8  UNL A   1      17.884  45.634  -3.363  1.00  0.00    +0.000 F 
ATOM     57  C42 UNL A   1      16.245  47.156  -2.604  1.00  0.00    +0.000 C 
ATOM     58  F9  UNL A   1      15.439  46.817  -3.620  1.00  0.00    +0.000 F 
ATOM     59  C43 UNL A   1      15.834  48.115  -1.683  1.00  0.00    +0.000 C 
ATOM     60  F10 UNL A   1      14.633  48.690  -1.840  1.00  0.00    +0.000 F 
ENDBRANCH   49   50
BRANCH   64   65
ATOM     65  C47 UNL A   1      12.311  47.861   4.825  1.00  0.00    +0.000 C 
ATOM     66  C48 UNL A   1      12.767  47.096   5.908  1.00  0.00    +0.000 C 
ATOM     67  F11 UNL A   1      13.965  47.356   6.452  1.00  0.00    +0.000 F 
ATOM     68  C49 UNL A   1      12.013  46.038   6.410  1.00  0.00    +0.000 C 
ATOM     69  F12 UNL A   1      12.489  45.299   7.420  1.00  0.00    +0.000 F 
ATOM     70  C50 UNL A   1      10.777  45.740   5.856  1.00  0.00    +0.000 C 
ATOM     71  F13 UNL A   1      10.049  44.726   6.344  1.00  0.00    +0.000 F 
ATOM     72  C51 UNL A   1      10.298  46.492   4.794  1.00  0.00    +0.000 C 
ATOM     73  F14 UNL A   1       9.099  46.216   4.264  1.00  0.00    +0.000 F 
ATOM     74  C52 UNL A   1      11.063  47.536   4.274  1.00  0.00    +0.000 C 
ATOM     75  F15 UNL A   1      10.580  48.240   3.240  1.00  0.00    +0.000 F 
ENDBRANCH   64   65
TORSDOF 18
ENDMDL
MODEL 4
REMARK VINA RESULT:     -10.9     18.211     24.672
ROOT
ATOM     28  C23 UNL A   1      25.796  35.322  45.320  1.00  0.00    +0.000 C 
ATOM     29  C24 UNL A   1      27.146  35.306  44.662  1.00  0.00    +0.000 C 
ATOM     30  N4  UNL A   1      28.173  36.095  44.852  1.00  0.00    +0.000 N 
ATOM     31  C25 UNL A   1      29.182  35.606  44.033  1.00  0.00    +0.000 C 
ATOM     32  C26 UNL A   1      30.427  36.104  43.836  1.00  0.00    +0.000 C 
ATOM     44  C33 UNL A   1      30.933  37.293  44.467  1.00  0.00    +0.000 C 
ATOM     45  C34 UNL A   1      32.163  37.904  44.298  1.00  0.00    +0.000 C 
ATOM     46  C35 UNL A   1      32.219  39.019  45.141  1.00  0.00    +0.000 C 
ATOM     47  C36 UNL A   1      31.007  39.127  45.805  1.00  0.00    +0.000 C 
ATOM     48  N5  UNL A   1      30.231  38.057  45.388  1.00  0.00    +0.000 N 
ATOM     49  C37 UNL A   1      30.590  40.129  46.750  1.00  0.00    +0.000 C 
ATOM     61  C44 UNL A   1      29.385  40.161  47.368  1.00  0.00    +0.000 C 
ATOM     62  N6  UNL A   1      28.310  39.294  47.229  1.00  0.00    +0.000 N 
ATOM     63  C45 UNL A   1      27.376  39.744  48.030  1.00  0.00    +0.000 C 
ATOM     64  C46 UNL A   1      25.987  39.213  48.262  1.00  0.00    +0.000 C 
ATOM     76  C53 UNL A   1      25.564  38.142  47.563  1.00  0.00    +0.000 C 
ATOM     77  C54 UNL A   1      24.254  37.510  47.693  1.00  0.00    +0.000 C 
ATOM     78  C55 UNL A   1      24.212  36.424  46.906  1.00  0.00    +0.000 C 
ATOM     79  C56 UNL A   1      25.479  36.306  46.183  1.00  0.00    +0.000 C 
ATOM     80  N7  UNL A   1      26.209  37.388  46.614  1.00  0.00    +0.000 N 
ATOM     81  C57 UNL A   1      27.769  40.933  48.800  1.00  0.00    +0.000 C 
ATOM     82  C58 UNL A   1      28.988  41.166  48.334  1.00  0.00    +0.000 C 
ATOM     83  C59 UNL A   1      28.657  34.430  43.372  1.00  0.00    +0.000 C 
ATOM     84  C60 UNL A   1      27.382  34.240  43.676  1.00  0.00    +0.000 C 
ATOM    119  H27 UNL A   1      32.911  37.591  43.658  1.00  0.00    +0.000 H 
ATOM    120  H28 UNL A   1      33.025  39.653  45.250  1.00  0.00    +0.000 H 
ATOM    121  H29 UNL A   1      29.317  37.868  45.698  1.00  0.00    +0.000 H 
ATOM    122  H30 UNL A   1      23.484  37.844  48.294  1.00  0.00    +0.000 H 
ATOM    123  H31 UNL A   1      23.414  35.774  46.823  1.00  0.00    +0.000 H 
ATOM    124  H32 UNL A   1      27.108  37.601  46.274  1.00  0.00    +0.000 H 
ATOM    125  H33 UNL A   1      27.236  41.452  49.515  1.00  0.00    +0.000 H 
ATOM    126  H34 UNL A   1      29.580  41.961  48.621  1.00  0.00    +0.000 H 
ATOM    127  H35 UNL A   1      29.205  33.820  42.746  1.00  0.00    +0.000 H 
ATOM    128  H36 UNL A   1      26.725  33.531  43.315  1.00  0.00    +0.000 H 
ENDROOT
BRANCH   28   27
ATOM    129  H37 UNL A   1      25.252  33.269  46.942  1.00  0.00    +0.000 H 
ATOM    130  H38 UNL A   1      23.788  31.375  46.565  1.00  0.00    +0.000 H 
ATOM     27  C22 UNL A   1      24.848  34.202  45.087  1.00  0.00    +0.000 C 
ATOM    117  H25 UNL A   1      22.619  33.011  42.870  1.00  0.00    +0.000 H 
ATOM     86  C62 UNL A   1      23.834  32.139  45.872  1.00  0.00    +0.000 C 
ATOM     85  C61 UNL A   1      24.706  33.208  46.067  1.00  0.00    +0.000 C 
ATOM     24  C19 UNL A   1      23.022  32.103  44.735  1.00  0.00    +0.000 C 
ATOM     25  C20 UNL A   1      23.181  33.066  43.733  1.00  0.00    +0.000 C 
ATOM     26  C21 UNL A   1      24.102  34.104  43.902  1.00  0.00    +0.000 C 
ATOM    118  H26 UNL A   1      24.234  34.801  43.152  1.00  0.00    +0.000 H 
BRANCH   24   22
ATOM     22  C18 UNL A   1      21.992  31.054  44.555  1.00  0.00    +0.000 C 
ATOM     23  O2  UNL A   1      22.305  29.875  44.668  1.00  0.00    +0.000 O 
BRANCH   22   21
ATOM    116  H24 UNL A   1      20.402  31.105  43.336  1.00  0.00    +0.000 H 
ATOM     21  N3  UNL A   1      20.701  31.399  44.227  1.00  0.00    +0.000 N 
BRANCH   21   20
ATOM    114  H22 UNL A   1      18.846  31.520  45.108  1.00  0.00    +0.000 H 
ATOM    115  H23 UNL A   1      20.167  32.368  45.941  1.00  0.00    +0.000 H 
ATOM     20  C17 UNL A   1      19.716  32.133  44.999  1.00  0.00    +0.000 C 
BRANCH   20   19
ATOM    113  H21 UNL A   1      18.458  33.787  44.933  1.00  0.00    +0.000 H 
ATOM     19  C16 UNL A   1      19.299  33.452  44.361  1.00  0.00    +0.000 C 
ATOM    112  H20 UNL A   1      19.089  33.262  43.329  1.00  0.00    +0.000 H 
BRANCH   19   18
ATOM     18  C15 UNL A   1      20.311  34.596  44.427  1.00  0.00    +0.000 C 
ATOM    110  H18 UNL A   1      21.180  34.287  43.882  1.00  0.00    +0.000 H 
ATOM    111  H19 UNL A   1      19.796  35.441  44.022  1.00  0.00    +0.000 H 
BRANCH   18   17
ATOM     17  C14 UNL A   1      20.774  35.045  45.815  1.00  0.00    +0.000 C 
ATOM    108  H16 UNL A   1      20.273  34.431  46.533  1.00  0.00    +0.000 H 
ATOM    109  H17 UNL A   1      21.840  34.949  45.787  1.00  0.00    +0.000 H 
BRANCH   17   16
ATOM    106  H14 UNL A   1      20.213  36.511  47.235  1.00  0.00    +0.000 H 
ATOM    107  H15 UNL A   1      21.460  37.000  46.022  1.00  0.00    +0.000 H 
ATOM     16  C13 UNL A   1      20.531  36.505  46.213  1.00  0.00    +0.000 C 
BRANCH   16   15
ATOM    105  H13 UNL A   1      19.284  36.701  44.538  1.00  0.00    +0.000 H 
ATOM     15  C12 UNL A   1      19.495  37.289  45.408  1.00  0.00    +0.000 C 
ATOM    104  H12 UNL A   1      19.910  38.249  45.179  1.00  0.00    +0.000 H 
BRANCH   15   14
ATOM     14  N2  UNL A   1      18.233  37.492  46.079  1.00  0.00    +0.000 N 
ATOM    103  H11 UNL A   1      17.890  38.414  46.046  1.00  0.00    +0.000 H 
BRANCH   14   12
ATOM     12  C11 UNL A   1      17.431  36.600  46.758  1.00  0.00    +0.000 C 
ATOM     13  O1  UNL A   1      17.321  35.478  46.264  1.00  0.00    +0.000 O 
BRANCH   12   11
ATOM      3  C2  UNL A   1      16.605  37.602  50.241  1.00  0.00    +0.000 C 
ATOM      4  C3  UNL A   1      17.523  37.344  49.228  1.00  0.00    +0.000 C 
ATOM    131  H39 UNL A   1      14.351  35.691  47.018  1.00  0.00    +0.000 H 
ATOM    134  H42 UNL A   1      14.037  38.163  51.183  1.00  0.00    +0.000 H 
ATOM    133  H41 UNL A   1      12.045  37.556  50.017  1.00  0.00    +0.000 H 
ATOM    132  H40 UNL A   1      12.237  36.170  47.966  1.00  0.00    +0.000 H 
ATOM     11  C10 UNL A   1      16.807  36.940  48.042  1.00  0.00    +0.000 C 
ATOM     87  C63 UNL A   1      15.480  36.821  48.443  1.00  0.00    +0.000 C 
ATOM     88  C64 UNL A   1      14.289  36.279  47.865  1.00  0.00    +0.000 C 
ATOM     89  C65 UNL A   1      13.090  36.531  48.420  1.00  0.00    +0.000 C 
ATOM     90  C66 UNL A   1      12.973  37.300  49.643  1.00  0.00    +0.000 C 
ATOM     91  C67 UNL A   1      14.094  37.673  50.277  1.00  0.00    +0.000 C 
ATOM     92  N8  UNL A   1      15.346  37.396  49.709  1.00  0.00    +0.000 N 
BRANCH    3    2
ATOM     97  H5  UNL A   1      17.725  37.530  52.016  1.00  0.00    +0.000 H 
ATOM      2  C1  UNL A   1      16.822  37.986  51.669  1.00  0.00    +0.000 C 
ATOM     96  H4  UNL A   1      15.990  37.654  52.254  1.00  0.00    +0.000 H 
BRANCH    2    1
ATOM      1  N1  UNL A   1      16.948  39.430  51.796  1.00  0.00    +0.000 N 
ATOM     93  H1  UNL A   1      16.553  39.879  50.969  1.00  0.00    +0.000 H 
ATOM     94  H2  UNL A   1      17.932  39.680  51.881  1.00  0.00    +0.000 H 
ATOM     95  H3  UNL A   1      16.445  39.743  52.626  1.00  0.00    +0.000 H 
ENDBRANCH    2    1
ENDBRANCH    3    2
BRANCH    4    5
ATOM     98  H6  UNL A   1      19.252  35.460  50.020  1.00  0.00    +0.000 H 
ATOM     99  H7  UNL A   1      21.648  35.680  50.341  1.00  0.00    +0.000 H 
ATOM    100  H8  UNL A   1      22.742  37.806  49.930  1.00  0.00    +0.000 H 
ATOM      5  C4  UNL A   1      18.959  37.466  49.429  1.00  0.00    +0.000 C 
ATOM    102  H10 UNL A   1      19.042  39.513  48.908  1.00  0.00    +0.000 H 
ATOM      6  C5  UNL A   1      19.714  36.366  49.847  1.00  0.00    +0.000 C 
ATOM      7  C6  UNL A   1      21.093  36.493  50.031  1.00  0.00    +0.000 C 
ATOM      9  C8  UNL A   1      20.975  38.817  49.385  1.00  0.00    +0.000 C 
ATOM     10  C9  UNL A   1      19.596  38.695  49.206  1.00  0.00    +0.000 C 
ATOM    101  H9  UNL A   1      21.439  39.723  49.212  1.00  0.00    +0.000 H 
ATOM      8  C7  UNL A   1      21.723  37.717  49.798  1.00  0.00    +0.000 C 
ENDBRANCH    4    5
ENDBRANCH   12   11
ENDBRANCH   14   12
ENDBRANCH   15   14
ENDBRANCH   16   15
ENDBRANCH   17   16
ENDBRANCH   18   17
ENDBRANCH   19   18
ENDBRANCH   20   19
ENDBRANCH   21   20
ENDBRANCH   22   21
ENDBRANCH   24   22
ENDBRANCH   28   27
BRANCH   32   33
ATOM     33  C27 UNL A   1      31.329  35.355  42.901  1.00  0.00    +0.000 C 
ATOM     34  C28 UNL A   1      31.474  35.733  41.558  1.00  0.00    +0.000 C 
ATOM     35  F1  UNL A   1      30.769  36.764  41.068  1.00  0.00    +0.000 F 
ATOM     36  C29 UNL A   1      32.311  35.025  40.700  1.00  0.00    +0.000 C 
ATOM     37  F2  UNL A   1      32.393  35.372  39.409  1.00  0.00    +0.000 F 
ATOM     38  C30 UNL A   1      33.046  33.950  41.176  1.00  0.00    +0.000 C 
ATOM     39  F3  UNL A   1      33.855  33.271  40.350  1.00  0.00    +0.000 F 
ATOM     40  C31 UNL A   1      32.938  33.573  42.506  1.00  0.00    +0.000 C 
ATOM     41  F4  UNL A   1      33.658  32.542  42.970  1.00  0.00    +0.000 F 
ATOM     42  C32 UNL A   1      32.080  34.261  43.359  1.00  0.00    +0.000 C 
ATOM     43  F5  UNL A   1      31.983  33.863  44.637  1.00  0.00    +0.000 F 
ENDBRANCH   32   33
BRANCH   49   50
ATOM     50  C38 UNL A   1      31.553  41.237  47.054  1.00  0.00    +0.000 C 
ATOM     51  C39 UNL A   1      32.697  41.024  47.836  1.00  0.00    +0.000 C 
ATOM     52  F6  UNL A   1      32.918  39.825  48.395  1.00  0.00    +0.000 F 
ATOM     53  C40 UNL A   1      33.605  42.054  48.068  1.00  0.00    +0.000 C 
ATOM     54  F7  UNL A   1      34.675  41.839  48.845  1.00  0.00    +0.000 F 
ATOM     55  C41 UNL A   1      33.399  43.304  47.503  1.00  0.00    +0.000 C 
ATOM     56  F8  UNL A   1      34.282  44.291  47.717  1.00  0.00    +0.000 F 
ATOM     57  C42 UNL A   1      32.279  43.534  46.718  1.00  0.00    +0.000 C 
ATOM     58  F9  UNL A   1      32.085  44.738  46.162  1.00  0.00    +0.000 F 
ATOM     59  C43 UNL A   1      31.358  42.514  46.504  1.00  0.00    +0.000 C 
ATOM     60  F10 UNL A   1      30.280  42.764  45.746  1.00  0.00    +0.000 F 
ENDBRANCH   49   50
BRANCH   64   65
ATOM     65  C47 UNL A   1      25.074  39.874  49.229  1.00  0.00    +0.000 C 
ATOM     66  C48 UNL A   1      24.253  40.936  48.826  1.00  0.00    +0.000 C 
ATOM     67  F11 UNL A   1      24.309  41.383  47.563  1.00  0.00    +0.000 F 
ATOM     68  C49 UNL A   1      23.400  41.568  49.728  1.00  0.00    +0.000 C 
ATOM     69  F12 UNL A   1      22.655  42.606  49.327  1.00  0.00    +0.000 F 
ATOM     70  C50 UNL A   1      23.333  41.134  51.043  1.00  0.00    +0.000 C 
ATOM     71  F13 UNL A   1      22.508  41.739  51.910  1.00  0.00    +0.000 F 
ATOM     72  C51 UNL A   1      24.125  40.076  51.461  1.00  0.00    +0.000 C 
ATOM     73  F14 UNL A   1      24.054  39.644  52.728  1.00  0.00    +0.000 F 
ATOM     74  C52 UNL A   1      24.997  39.458  50.565  1.00  0.00    +0.000 C 
ATOM     75  F15 UNL A   1      25.759  38.443  51.000  1.00  0.00    +0.000 F 
ENDBRANCH   64   65
TORSDOF 18
ENDMDL
MODEL 5
REMARK VINA RESULT:     -10.8     38.109     42.895
ROOT
ATOM     28  C23 UNL A   1      13.973  53.800   5.214  1.00  0.00    +0.000 C 
ATOM     29  C24 UNL A   1      14.936  54.224   4.142  1.00  0.00    +0.000 C 
ATOM     30  N4  UNL A   1      15.400  53.543   3.125  1.00  0.00    +0.000 N 
ATOM     31  C25 UNL A   1      16.206  54.424   2.416  1.00  0.00    +0.000 C 
ATOM     32  C26 UNL A   1      16.950  54.186   1.309  1.00  0.00    +0.000 C 
ATOM     44  C33 UNL A   1      17.044  52.908   0.655  1.00  0.00    +0.000 C 
ATOM     45  C34 UNL A   1      17.807  52.554  -0.444  1.00  0.00    +0.000 C 
ATOM     46  C35 UNL A   1      17.554  51.210  -0.738  1.00  0.00    +0.000 C 
ATOM     47  C36 UNL A   1      16.665  50.715   0.203  1.00  0.00    +0.000 C 
ATOM     48  N5  UNL A   1      16.355  51.770   1.047  1.00  0.00    +0.000 N 
ATOM     49  C37 UNL A   1      16.138  49.382   0.322  1.00  0.00    +0.000 C 
ATOM     61  C44 UNL A   1      15.259  48.974   1.271  1.00  0.00    +0.000 C 
ATOM     62  N6  UNL A   1      14.704  49.702   2.315  1.00  0.00    +0.000 N 
ATOM     63  C45 UNL A   1      13.921  48.871   2.957  1.00  0.00    +0.000 C 
ATOM     64  C46 UNL A   1      13.090  49.110   4.189  1.00  0.00    +0.000 C 
ATOM     76  C53 UNL A   1      13.128  50.316   4.788  1.00  0.00    +0.000 C 
ATOM     77  C54 UNL A   1      12.367  50.696   5.975  1.00  0.00    +0.000 C 
ATOM     78  C55 UNL A   1      12.588  51.994   6.239  1.00  0.00    +0.000 C 
ATOM     79  C56 UNL A   1      13.539  52.526   5.263  1.00  0.00    +0.000 C 
ATOM     80  N7  UNL A   1      13.828  51.450   4.459  1.00  0.00    +0.000 N 
ATOM     81  C57 UNL A   1      13.861  47.525   2.367  1.00  0.00    +0.000 C 
ATOM     82  C58 UNL A   1      14.721  47.632   1.364  1.00  0.00    +0.000 C 
ATOM     83  C59 UNL A   1      16.137  55.700   3.096  1.00  0.00    +0.000 C 
ATOM     84  C60 UNL A   1      15.419  55.612   4.206  1.00  0.00    +0.000 C 
ATOM    119  H27 UNL A   1      18.452  53.175  -0.958  1.00  0.00    +0.000 H 
ATOM    120  H28 UNL A   1      17.959  50.678  -1.523  1.00  0.00    +0.000 H 
ATOM    121  H29 UNL A   1      15.738  51.718   1.812  1.00  0.00    +0.000 H 
ATOM    122  H30 UNL A   1      11.757  50.068   6.522  1.00  0.00    +0.000 H 
ATOM    123  H31 UNL A   1      12.155  52.530   7.008  1.00  0.00    +0.000 H 
ATOM    124  H32 UNL A   1      14.475  51.490   3.719  1.00  0.00    +0.000 H 
ATOM    125  H33 UNL A   1      13.299  46.710   2.658  1.00  0.00    +0.000 H 
ATOM    126  H34 UNL A   1      14.975  46.859   0.730  1.00  0.00    +0.000 H 
ATOM    127  H35 UNL A   1      16.589  56.565   2.761  1.00  0.00    +0.000 H 
ATOM    128  H36 UNL A   1      15.243  56.330   4.927  1.00  0.00    +0.000 H 
ENDROOT
BRANCH   28   27
ATOM    129  H37 UNL A   1      14.989  54.543   7.570  1.00  0.00    +0.000 H 
ATOM    130  H38 UNL A   1      14.095  56.110   9.190  1.00  0.00    +0.000 H 
ATOM     27  C22 UNL A   1      13.433  54.809   6.162  1.00  0.00    +0.000 C 
ATOM    117  H25 UNL A   1      10.929  57.015   6.572  1.00  0.00    +0.000 H 
ATOM     86  C62 UNL A   1      13.627  55.986   8.278  1.00  0.00    +0.000 C 
ATOM     85  C61 UNL A   1      14.116  55.055   7.363  1.00  0.00    +0.000 C 
ATOM     24  C19 UNL A   1      12.502  56.749   7.959  1.00  0.00    +0.000 C 
ATOM     25  C20 UNL A   1      11.790  56.487   6.783  1.00  0.00    +0.000 C 
ATOM     26  C21 UNL A   1      12.246  55.508   5.895  1.00  0.00    +0.000 C 
ATOM    118  H26 UNL A   1      11.708  55.300   5.040  1.00  0.00    +0.000 H 
BRANCH   24   22
ATOM     22  C18 UNL A   1      12.030  57.837   8.847  1.00  0.00    +0.000 C 
ATOM     23  O2  UNL A   1      12.514  58.957   8.739  1.00  0.00    +0.000 O 
BRANCH   22   21
ATOM    116  H24 UNL A   1      10.727  58.377  10.271  1.00  0.00    +0.000 H 
ATOM     21  N3  UNL A   1      11.082  57.582   9.811  1.00  0.00    +0.000 N 
BRANCH   21   20
ATOM    114  H22 UNL A   1       9.560  56.496  10.668  1.00  0.00    +0.000 H 
ATOM    115  H23 UNL A   1      10.487  55.676   9.393  1.00  0.00    +0.000 H 
ATOM     20  C17 UNL A   1      10.528  56.315  10.250  1.00  0.00    +0.000 C 
BRANCH   20   19
ATOM    113  H21 UNL A   1      10.968  55.900  12.239  1.00  0.00    +0.000 H 
ATOM     19  C16 UNL A   1      11.379  55.605  11.296  1.00  0.00    +0.000 C 
ATOM    112  H20 UNL A   1      12.396  55.898  11.141  1.00  0.00    +0.000 H 
BRANCH   19   18
ATOM     18  C15 UNL A   1      11.331  54.077  11.297  1.00  0.00    +0.000 C 
ATOM    110  H18 UNL A   1      11.220  53.761  12.314  1.00  0.00    +0.000 H 
ATOM    111  H19 UNL A   1      10.516  53.828  10.651  1.00  0.00    +0.000 H 
BRANCH   18   17
ATOM     17  C14 UNL A   1      12.536  53.336  10.713  1.00  0.00    +0.000 C 
ATOM    108  H16 UNL A   1      12.444  52.307  10.992  1.00  0.00    +0.000 H 
ATOM    109  H17 UNL A   1      12.492  53.536   9.663  1.00  0.00    +0.000 H 
BRANCH   17   16
ATOM    106  H14 UNL A   1      14.645  53.240  10.563  1.00  0.00    +0.000 H 
ATOM    107  H15 UNL A   1      13.938  54.856  10.958  1.00  0.00    +0.000 H 
ATOM     16  C13 UNL A   1      13.935  53.800  11.134  1.00  0.00    +0.000 C 
BRANCH   16   15
ATOM    105  H13 UNL A   1      13.425  53.317  13.110  1.00  0.00    +0.000 H 
ATOM     15  C12 UNL A   1      14.310  53.648  12.608  1.00  0.00    +0.000 C 
ATOM    104  H12 UNL A   1      14.666  54.594  12.959  1.00  0.00    +0.000 H 
BRANCH   15   14
ATOM     14  N2  UNL A   1      15.326  52.657  12.875  1.00  0.00    +0.000 N 
ATOM    103  H11 UNL A   1      15.890  52.844  13.659  1.00  0.00    +0.000 H 
BRANCH   14   12
ATOM     12  C11 UNL A   1      15.630  51.490  12.208  1.00  0.00    +0.000 C 
ATOM     13  O1  UNL A   1      16.815  51.315  11.926  1.00  0.00    +0.000 O 
BRANCH   12   11
ATOM      3  C2  UNL A   1      13.388  48.907  10.752  1.00  0.00    +0.000 C 
ATOM      4  C3  UNL A   1      14.431  49.821  10.645  1.00  0.00    +0.000 C 
ATOM    131  H39 UNL A   1      13.297  51.284  14.421  1.00  0.00    +0.000 H 
ATOM    134  H42 UNL A   1      11.638  47.294  12.213  1.00  0.00    +0.000 H 
ATOM    133  H41 UNL A   1      11.000  47.747  14.467  1.00  0.00    +0.000 H 
ATOM    132  H40 UNL A   1      11.751  49.868  15.517  1.00  0.00    +0.000 H 
ATOM     11  C10 UNL A   1      14.612  50.472  11.921  1.00  0.00    +0.000 C 
ATOM     87  C63 UNL A   1      13.556  50.026  12.708  1.00  0.00    +0.000 C 
ATOM     88  C64 UNL A   1      13.004  50.400  13.974  1.00  0.00    +0.000 C 
ATOM     89  C65 UNL A   1      12.106  49.606  14.585  1.00  0.00    +0.000 C 
ATOM     90  C66 UNL A   1      11.627  48.390  13.958  1.00  0.00    +0.000 C 
ATOM     91  C67 UNL A   1      12.017  48.118  12.704  1.00  0.00    +0.000 C 
ATOM     92  N8  UNL A   1      12.940  48.954  12.059  1.00  0.00    +0.000 N 
BRANCH    3    2
ATOM     97  H5  UNL A   1      12.957  48.440   8.751  1.00  0.00    +0.000 H 
ATOM      2  C1  UNL A   1      12.762  48.028   9.718  1.00  0.00    +0.000 C 
ATOM     96  H4  UNL A   1      11.707  47.974   9.893  1.00  0.00    +0.000 H 
BRANCH    2    1
ATOM      1  N1  UNL A   1      13.324  46.687   9.779  1.00  0.00    +0.000 N 
ATOM     93  H1  UNL A   1      12.647  46.018   9.412  1.00  0.00    +0.000 H 
ATOM     94  H2  UNL A   1      13.542  46.453  10.747  1.00  0.00    +0.000 H 
ATOM     95  H3  UNL A   1      14.176  46.650   9.220  1.00  0.00    +0.000 H 
ENDBRANCH    2    1
ENDBRANCH    3    2
BRANCH    4    5
ATOM     98  H6  UNL A   1      15.897  48.069   9.251  1.00  0.00    +0.000 H 
ATOM     99  H7  UNL A   1      17.085  48.448   7.168  1.00  0.00    +0.000 H 
ATOM    100  H8  UNL A   1      17.023  50.630   6.110  1.00  0.00    +0.000 H 
ATOM      5  C4  UNL A   1      15.152  50.039   9.400  1.00  0.00    +0.000 C 
ATOM    102  H10 UNL A   1      14.612  52.075   9.232  1.00  0.00    +0.000 H 
ATOM      6  C5  UNL A   1      15.871  48.998   8.804  1.00  0.00    +0.000 C 
ATOM      7  C6  UNL A   1      16.554  49.217   7.605  1.00  0.00    +0.000 C 
ATOM      9  C8  UNL A   1      15.810  51.515   7.590  1.00  0.00    +0.000 C 
ATOM     10  C9  UNL A   1      15.132  51.301   8.790  1.00  0.00    +0.000 C 
ATOM    101  H9  UNL A   1      15.786  52.444   7.141  1.00  0.00    +0.000 H 
ATOM      8  C7  UNL A   1      16.521  50.473   6.997  1.00  0.00    +0.000 C 
ENDBRANCH    4    5
ENDBRANCH   12   11
ENDBRANCH   14   12
ENDBRANCH   15   14
ENDBRANCH   16   15
ENDBRANCH   17   16
ENDBRANCH   18   17
ENDBRANCH   19   18
ENDBRANCH   20   19
ENDBRANCH   21   20
ENDBRANCH   22   21
ENDBRANCH   24   22
ENDBRANCH   28   27
BRANCH   32   33
ATOM     33  C27 UNL A   1      17.717  55.339   0.732  1.00  0.00    +0.000 C 
ATOM     34  C28 UNL A   1      18.984  55.695   1.217  1.00  0.00    +0.000 C 
ATOM     35  F1  UNL A   1      19.526  55.026   2.245  1.00  0.00    +0.000 F 
ATOM     36  C29 UNL A   1      19.682  56.771   0.674  1.00  0.00    +0.000 C 
ATOM     37  F2  UNL A   1      20.868  57.126   1.189  1.00  0.00    +0.000 F 
ATOM     38  C30 UNL A   1      19.145  57.487  -0.384  1.00  0.00    +0.000 C 
ATOM     39  F3  UNL A   1      19.819  58.520  -0.907  1.00  0.00    +0.000 F 
ATOM     40  C31 UNL A   1      17.904  57.138  -0.896  1.00  0.00    +0.000 C 
ATOM     41  F4  UNL A   1      17.389  57.821  -1.927  1.00  0.00    +0.000 F 
ATOM     42  C32 UNL A   1      17.191  56.081  -0.337  1.00  0.00    +0.000 C 
ATOM     43  F5  UNL A   1      15.986  55.777  -0.842  1.00  0.00    +0.000 F 
ENDBRANCH   32   33
BRANCH   49   50
ATOM     50  C38 UNL A   1      16.616  48.357  -0.662  1.00  0.00    +0.000 C 
ATOM     51  C39 UNL A   1      15.831  47.963  -1.754  1.00  0.00    +0.000 C 
ATOM     52  F6  UNL A   1      14.589  48.448  -1.903  1.00  0.00    +0.000 F 
ATOM     53  C40 UNL A   1      16.312  47.045  -2.685  1.00  0.00    +0.000 C 
ATOM     54  F7  UNL A   1      15.533  46.657  -3.705  1.00  0.00    +0.000 F 
ATOM     55  C41 UNL A   1      17.592  46.528  -2.555  1.00  0.00    +0.000 C 
ATOM     56  F8  UNL A   1      18.057  45.654  -3.459  1.00  0.00    +0.000 F 
ATOM     57  C42 UNL A   1      18.389  46.911  -1.487  1.00  0.00    +0.000 C 
ATOM     58  F9  UNL A   1      19.630  46.420  -1.367  1.00  0.00    +0.000 F 
ATOM     59  C43 UNL A   1      17.903  47.809  -0.542  1.00  0.00    +0.000 C 
ATOM     60  F10 UNL A   1      18.693  48.159   0.484  1.00  0.00    +0.000 F 
ENDBRANCH   49   50
BRANCH   64   65
ATOM     65  C47 UNL A   1      12.256  48.024   4.764  1.00  0.00    +0.000 C 
ATOM     66  C48 UNL A   1      12.765  47.184   5.764  1.00  0.00    +0.000 C 
ATOM     67  F11 UNL A   1      14.027  47.341   6.190  1.00  0.00    +0.000 F 
ATOM     68  C49 UNL A   1      11.994  46.157   6.303  1.00  0.00    +0.000 C 
ATOM     69  F12 UNL A   1      12.518  45.344   7.230  1.00  0.00    +0.000 F 
ATOM     70  C50 UNL A   1      10.690  45.966   5.870  1.00  0.00    +0.000 C 
ATOM     71  F13 UNL A   1       9.947  44.980   6.393  1.00  0.00    +0.000 F 
ATOM     72  C51 UNL A   1      10.160  46.793   4.892  1.00  0.00    +0.000 C 
ATOM     73  F14 UNL A   1       8.897  46.620   4.480  1.00  0.00    +0.000 F 
ATOM     74  C52 UNL A   1      10.939  47.806   4.335  1.00  0.00    +0.000 C 
ATOM     75  F15 UNL A   1      10.404  48.585   3.383  1.00  0.00    +0.000 F 
ENDBRANCH   64   65
TORSDOF 18
ENDMDL
MODEL 6
REMARK VINA RESULT:     -10.8     37.631     42.890
ROOT
ATOM     28  C23 UNL A   1      29.187 -13.894  30.999  1.00  0.00    +0.000 C 
ATOM     29  C24 UNL A   1      28.898 -14.007  32.469  1.00  0.00    +0.000 C 
ATOM     30  N4  UNL A   1      27.852 -13.602  33.144  1.00  0.00    +0.000 N 
ATOM     31  C25 UNL A   1      28.069 -14.008  34.454  1.00  0.00    +0.000 C 
ATOM     32  C26 UNL A   1      27.297 -13.787  35.546  1.00  0.00    +0.000 C 
ATOM     44  C33 UNL A   1      26.065 -13.044  35.531  1.00  0.00    +0.000 C 
ATOM     45  C34 UNL A   1      25.235 -12.726  36.592  1.00  0.00    +0.000 C 
ATOM     46  C35 UNL A   1      24.138 -12.015  36.092  1.00  0.00    +0.000 C 
ATOM     47  C36 UNL A   1      24.307 -11.854  34.726  1.00  0.00    +0.000 C 
ATOM     48  N5  UNL A   1      25.488 -12.497  34.394  1.00  0.00    +0.000 N 
ATOM     49  C37 UNL A   1      23.452 -11.167  33.794  1.00  0.00    +0.000 C 
ATOM     61  C44 UNL A   1      23.681 -11.060  32.462  1.00  0.00    +0.000 C 
ATOM     62  N6  UNL A   1      24.750 -11.542  31.720  1.00  0.00    +0.000 N 
ATOM     63  C45 UNL A   1      24.520 -11.183  30.481  1.00  0.00    +0.000 C 
ATOM     64  C46 UNL A   1      25.362 -11.412  29.255  1.00  0.00    +0.000 C 
ATOM     76  C53 UNL A   1      26.546 -12.044  29.374  1.00  0.00    +0.000 C 
ATOM     77  C54 UNL A   1      27.458 -12.348  28.276  1.00  0.00    +0.000 C 
ATOM     78  C55 UNL A   1      28.495 -13.056  28.751  1.00  0.00    +0.000 C 
ATOM     79  C56 UNL A   1      28.341 -13.220  30.197  1.00  0.00    +0.000 C 
ATOM     80  N7  UNL A   1      27.171 -12.560  30.483  1.00  0.00    +0.000 N 
ATOM     81  C57 UNL A   1      23.254 -10.461  30.291  1.00  0.00    +0.000 C 
ATOM     82  C58 UNL A   1      22.799 -10.382  31.534  1.00  0.00    +0.000 C 
ATOM     83  C59 UNL A   1      29.326 -14.724  34.473  1.00  0.00    +0.000 C 
ATOM     84  C60 UNL A   1      29.911 -14.695  33.285  1.00  0.00    +0.000 C 
ATOM    119  H27 UNL A   1      25.398 -12.971  37.582  1.00  0.00    +0.000 H 
ATOM    120  H28 UNL A   1      23.340 -11.670  36.647  1.00  0.00    +0.000 H 
ATOM    121  H29 UNL A   1      25.864 -12.555  33.486  1.00  0.00    +0.000 H 
ATOM    122  H30 UNL A   1      27.326 -12.066  27.292  1.00  0.00    +0.000 H 
ATOM    123  H31 UNL A   1      29.276 -13.426  28.186  1.00  0.00    +0.000 H 
ATOM    124  H32 UNL A   1      26.815 -12.466  31.396  1.00  0.00    +0.000 H 
ATOM    125  H33 UNL A   1      22.830 -10.107  29.419  1.00  0.00    +0.000 H 
ATOM    126  H34 UNL A   1      21.928  -9.901  31.806  1.00  0.00    +0.000 H 
ATOM    127  H35 UNL A   1      29.717 -15.196  35.303  1.00  0.00    +0.000 H 
ATOM    128  H36 UNL A   1      30.835 -15.059  33.004  1.00  0.00    +0.000 H 
ENDROOT
BRANCH   28   27
ATOM    129  H37 UNL A   1      31.682 -12.983  30.718  1.00  0.00    +0.000 H 
ATOM    130  H38 UNL A   1      33.595 -14.067  29.696  1.00  0.00    +0.000 H 
ATOM     27  C22 UNL A   1      30.356 -14.604  30.419  1.00  0.00    +0.000 C 
ATOM    117  H25 UNL A   1      31.302 -17.539  29.079  1.00  0.00    +0.000 H 
ATOM     86  C62 UNL A   1      32.706 -14.581  29.805  1.00  0.00    +0.000 C 
ATOM     85  C61 UNL A   1      31.595 -13.946  30.354  1.00  0.00    +0.000 C 
ATOM     24  C19 UNL A   1      32.616 -15.916  29.402  1.00  0.00    +0.000 C 
ATOM     25  C20 UNL A   1      31.380 -16.570  29.425  1.00  0.00    +0.000 C 
ATOM     26  C21 UNL A   1      30.250 -15.910  29.918  1.00  0.00    +0.000 C 
ATOM    118  H26 UNL A   1      29.334 -16.387  29.914  1.00  0.00    +0.000 H 
BRANCH   24   22
ATOM     22  C18 UNL A   1      33.807 -16.663  28.935  1.00  0.00    +0.000 C 
ATOM     23  O2  UNL A   1      34.403 -17.397  29.714  1.00  0.00    +0.000 O 
BRANCH   22   21
ATOM    116  H24 UNL A   1      35.224 -16.314  27.562  1.00  0.00    +0.000 H 
ATOM     21  N3  UNL A   1      34.262 -16.506  27.646  1.00  0.00    +0.000 N 
BRANCH   21   20
ATOM    114  H22 UNL A   1      33.986 -17.337  25.784  1.00  0.00    +0.000 H 
ATOM    115  H23 UNL A   1      32.517 -16.811  26.634  1.00  0.00    +0.000 H 
ATOM     20  C17 UNL A   1      33.534 -16.582  26.393  1.00  0.00    +0.000 C 
BRANCH   20   19
ATOM    113  H21 UNL A   1      32.500 -15.110  25.351  1.00  0.00    +0.000 H 
ATOM     19  C16 UNL A   1      33.525 -15.274  25.612  1.00  0.00    +0.000 C 
ATOM    112  H20 UNL A   1      34.185 -15.389  24.777  1.00  0.00    +0.000 H 
BRANCH   19   18
ATOM     18  C15 UNL A   1      33.952 -14.018  26.372  1.00  0.00    +0.000 C 
ATOM    110  H18 UNL A   1      34.265 -14.326  27.349  1.00  0.00    +0.000 H 
ATOM    111  H19 UNL A   1      34.716 -13.578  25.767  1.00  0.00    +0.000 H 
BRANCH   18   17
ATOM     17  C14 UNL A   1      32.906 -12.915  26.551  1.00  0.00    +0.000 C 
ATOM    108  H16 UNL A   1      33.069 -12.474  27.512  1.00  0.00    +0.000 H 
ATOM    109  H17 UNL A   1      33.053 -12.266  25.713  1.00  0.00    +0.000 H 
BRANCH   17   16
ATOM    106  H14 UNL A   1      31.380 -14.380  26.479  1.00  0.00    +0.000 H 
ATOM    107  H15 UNL A   1      30.971 -12.832  27.315  1.00  0.00    +0.000 H 
ATOM     16  C13 UNL A   1      31.427 -13.312  26.475  1.00  0.00    +0.000 C 
BRANCH   16   15
ATOM    105  H13 UNL A   1      30.095 -13.673  24.896  1.00  0.00    +0.000 H 
ATOM     15  C12 UNL A   1      30.631 -12.823  25.265  1.00  0.00    +0.000 C 
ATOM    104  H12 UNL A   1      31.322 -12.419  24.554  1.00  0.00    +0.000 H 
BRANCH   15   14
ATOM     14  N2  UNL A   1      29.642 -11.813  25.558  1.00  0.00    +0.000 N 
ATOM    103  H11 UNL A   1      28.728 -12.154  25.686  1.00  0.00    +0.000 H 
BRANCH   14   12
ATOM     12  C11 UNL A   1      29.774 -10.447  25.686  1.00  0.00    +0.000 C 
ATOM     13  O1  UNL A   1      28.750  -9.782  25.532  1.00  0.00    +0.000 O 
BRANCH   12   11
ATOM      3  C2  UNL A   1      32.661  -8.825  27.377  1.00  0.00    +0.000 C 
ATOM      4  C3  UNL A   1      31.364  -9.331  27.386  1.00  0.00    +0.000 C 
ATOM    131  H39 UNL A   1      31.615  -9.560  23.195  1.00  0.00    +0.000 H 
ATOM    134  H42 UNL A   1      35.220  -8.569  26.289  1.00  0.00    +0.000 H 
ATOM    133  H41 UNL A   1      35.704  -8.882  23.974  1.00  0.00    +0.000 H 
ATOM    132  H40 UNL A   1      33.819  -9.245  22.398  1.00  0.00    +0.000 H 
ATOM     11  C10 UNL A   1      31.047  -9.823  26.067  1.00  0.00    +0.000 C 
ATOM     87  C63 UNL A   1      32.124  -9.447  25.271  1.00  0.00    +0.000 C 
ATOM     88  C64 UNL A   1      32.388  -9.421  23.866  1.00  0.00    +0.000 C 
ATOM     89  C65 UNL A   1      33.639  -9.217  23.413  1.00  0.00    +0.000 C 
ATOM     90  C66 UNL A   1      34.735  -8.957  24.324  1.00  0.00    +0.000 C 
ATOM     91  C67 UNL A   1      34.466  -8.819  25.631  1.00  0.00    +0.000 C 
ATOM     92  N8  UNL A   1      33.160  -9.015  26.102  1.00  0.00    +0.000 N 
BRANCH    3    2
ATOM     97  H5  UNL A   1      34.431  -7.953  28.094  1.00  0.00    +0.000 H 
ATOM      2  C1  UNL A   1      33.443  -8.149  28.455  1.00  0.00    +0.000 C 
ATOM     96  H4  UNL A   1      33.482  -8.785  29.315  1.00  0.00    +0.000 H 
BRANCH    2    1
ATOM      1  N1  UNL A   1      32.820  -6.887  28.824  1.00  0.00    +0.000 N 
ATOM     93  H1  UNL A   1      32.018  -7.068  29.428  1.00  0.00    +0.000 H 
ATOM     94  H2  UNL A   1      32.509  -6.402  27.982  1.00  0.00    +0.000 H 
ATOM     95  H3  UNL A   1      33.495  -6.306  29.320  1.00  0.00    +0.000 H 
ENDBRANCH    2    1
ENDBRANCH    3    2
BRANCH    4    5
ATOM     98  H6  UNL A   1      31.438 -10.968  29.503  1.00  0.00    +0.000 H 
ATOM     99  H7  UNL A   1      30.038 -10.902  31.484  1.00  0.00    +0.000 H 
ATOM    100  H8  UNL A   1      28.323  -9.200  31.707  1.00  0.00    +0.000 H 
ATOM      5  C4  UNL A   1      30.526  -9.304  28.576  1.00  0.00    +0.000 C 
ATOM    102  H10 UNL A   1      29.379  -7.643  27.951  1.00  0.00    +0.000 H 
ATOM      6  C5  UNL A   1      30.709 -10.245  29.594  1.00  0.00    +0.000 C 
ATOM      7  C6  UNL A   1      29.902 -10.206  30.735  1.00  0.00    +0.000 C 
ATOM      9  C8  UNL A   1      28.724  -8.292  29.848  1.00  0.00    +0.000 C 
ATOM     10  C9  UNL A   1      29.525  -8.333  28.705  1.00  0.00    +0.000 C 
ATOM    101  H9  UNL A   1      27.994  -7.570  29.941  1.00  0.00    +0.000 H 
ATOM      8  C7  UNL A   1      28.913  -9.229  30.862  1.00  0.00    +0.000 C 
ENDBRANCH    4    5
ENDBRANCH   12   11
ENDBRANCH   14   12
ENDBRANCH   15   14
ENDBRANCH   16   15
ENDBRANCH   17   16
ENDBRANCH   18   17
ENDBRANCH   19   18
ENDBRANCH   20   19
ENDBRANCH   21   20
ENDBRANCH   22   21
ENDBRANCH   24   22
ENDBRANCH   28   27
BRANCH   32   33
ATOM     33  C27 UNL A   1      27.764 -14.364  36.849  1.00  0.00    +0.000 C 
ATOM     34  C28 UNL A   1      28.747 -13.731  37.623  1.00  0.00    +0.000 C 
ATOM     35  F1  UNL A   1      29.323 -12.600  37.189  1.00  0.00    +0.000 F 
ATOM     36  C29 UNL A   1      29.175 -14.281  38.829  1.00  0.00    +0.000 C 
ATOM     37  F2  UNL A   1      30.153 -13.686  39.525  1.00  0.00    +0.000 F 
ATOM     38  C30 UNL A   1      28.604 -15.453  39.300  1.00  0.00    +0.000 C 
ATOM     39  F3  UNL A   1      29.014 -15.980  40.462  1.00  0.00    +0.000 F 
ATOM     40  C31 UNL A   1      27.613 -16.084  38.564  1.00  0.00    +0.000 C 
ATOM     41  F4  UNL A   1      27.051 -17.211  39.024  1.00  0.00    +0.000 F 
ATOM     42  C32 UNL A   1      27.203 -15.551  37.344  1.00  0.00    +0.000 C 
ATOM     43  F5  UNL A   1      26.254 -16.194  36.646  1.00  0.00    +0.000 F 
ENDBRANCH   32   33
BRANCH   49   50
ATOM     50  C38 UNL A   1      22.229 -10.495  34.342  1.00  0.00    +0.000 C 
ATOM     51  C39 UNL A   1      20.967 -11.103  34.282  1.00  0.00    +0.000 C 
ATOM     52  F6  UNL A   1      20.814 -12.282  33.662  1.00  0.00    +0.000 F 
ATOM     53  C40 UNL A   1      19.850 -10.484  34.839  1.00  0.00    +0.000 C 
ATOM     54  F7  UNL A   1      18.647 -11.066  34.743  1.00  0.00    +0.000 F 
ATOM     55  C41 UNL A   1      19.980  -9.264  35.486  1.00  0.00    +0.000 C 
ATOM     56  F8  UNL A   1      18.905  -8.677  36.032  1.00  0.00    +0.000 F 
ATOM     57  C42 UNL A   1      21.220  -8.651  35.564  1.00  0.00    +0.000 C 
ATOM     58  F9  UNL A   1      21.349  -7.477  36.199  1.00  0.00    +0.000 F 
ATOM     59  C43 UNL A   1      22.334  -9.254  34.988  1.00  0.00    +0.000 C 
ATOM     60  F10 UNL A   1      23.521  -8.636  35.073  1.00  0.00    +0.000 F 
ENDBRANCH   49   50
BRANCH   64   65
ATOM     65  C47 UNL A   1      24.915 -10.924  27.926  1.00  0.00    +0.000 C 
ATOM     66  C48 UNL A   1      23.944 -11.622  27.196  1.00  0.00    +0.000 C 
ATOM     67  F11 UNL A   1      23.428 -12.759  27.686  1.00  0.00    +0.000 F 
ATOM     68  C49 UNL A   1      23.526 -11.177  25.943  1.00  0.00    +0.000 C 
ATOM     69  F12 UNL A   1      22.624 -11.885  25.250  1.00  0.00    +0.000 F 
ATOM     70  C50 UNL A   1      24.053 -10.011  25.408  1.00  0.00    +0.000 C 
ATOM     71  F13 UNL A   1      23.646  -9.581  24.206  1.00  0.00    +0.000 F 
ATOM     72  C51 UNL A   1      25.005  -9.296  26.118  1.00  0.00    +0.000 C 
ATOM     73  F14 UNL A   1      25.507  -8.162  25.610  1.00  0.00    +0.000 F 
ATOM     74  C52 UNL A   1      25.442  -9.753  27.361  1.00  0.00    +0.000 C 
ATOM     75  F15 UNL A   1      26.371  -9.046  28.020  1.00  0.00    +0.000 F 
ENDBRANCH   64   65
TORSDOF 18
ENDMDL
MODEL 7
REMARK VINA RESULT:     -10.8     37.806     43.046
ROOT
ATOM     28  C23 UNL A   1      13.587  53.756   5.026  1.00  0.00    +0.000 C 
ATOM     29  C24 UNL A   1      13.161  52.316   5.008  1.00  0.00    +0.000 C 
ATOM     30  N4  UNL A   1      13.563  51.340   4.235  1.00  0.00    +0.000 N 
ATOM     31  C25 UNL A   1      12.896  50.206   4.680  1.00  0.00    +0.000 C 
ATOM     32  C26 UNL A   1      12.936  48.949   4.176  1.00  0.00    +0.000 C 
ATOM     44  C33 UNL A   1      13.707  48.562   3.024  1.00  0.00    +0.000 C 
ATOM     45  C34 UNL A   1      13.778  47.324   2.409  1.00  0.00    +0.000 C 
ATOM     46  C35 UNL A   1      14.679  47.416   1.343  1.00  0.00    +0.000 C 
ATOM     47  C36 UNL A   1      15.138  48.722   1.269  1.00  0.00    +0.000 C 
ATOM     48  N5  UNL A   1      14.540  49.411   2.311  1.00  0.00    +0.000 N 
ATOM     49  C37 UNL A   1      16.055  49.296   0.320  1.00  0.00    +0.000 C 
ATOM     61  C44 UNL A   1      16.466  50.588   0.318  1.00  0.00    +0.000 C 
ATOM     62  N6  UNL A   1      16.102  51.619   1.174  1.00  0.00    +0.000 N 
ATOM     63  C45 UNL A   1      16.761  52.675   0.766  1.00  0.00    +0.000 C 
ATOM     64  C46 UNL A   1      16.731  54.080   1.305  1.00  0.00    +0.000 C 
ATOM     76  C53 UNL A   1      15.912  54.375   2.334  1.00  0.00    +0.000 C 
ATOM     77  C54 UNL A   1      15.788  55.684   2.969  1.00  0.00    +0.000 C 
ATOM     78  C55 UNL A   1      14.946  55.588   4.010  1.00  0.00    +0.000 C 
ATOM     79  C56 UNL A   1      14.438  54.218   4.090  1.00  0.00    +0.000 C 
ATOM     80  N7  UNL A   1      15.044  53.577   3.037  1.00  0.00    +0.000 N 
ATOM     81  C57 UNL A   1      17.651  52.423  -0.377  1.00  0.00    +0.000 C 
ATOM     82  C58 UNL A   1      17.407  51.145  -0.632  1.00  0.00    +0.000 C 
ATOM     83  C59 UNL A   1      12.093  50.606   5.816  1.00  0.00    +0.000 C 
ATOM     84  C60 UNL A   1      12.170  51.913   6.019  1.00  0.00    +0.000 C 
ATOM    119  H27 UNL A   1      13.255  46.479   2.688  1.00  0.00    +0.000 H 
ATOM    120  H28 UNL A   1      14.955  46.643   0.718  1.00  0.00    +0.000 H 
ATOM    121  H29 UNL A   1      14.683  50.364   2.515  1.00  0.00    +0.000 H 
ATOM    122  H30 UNL A   1      16.271  56.545   2.667  1.00  0.00    +0.000 H 
ATOM    123  H31 UNL A   1      14.697  56.357   4.651  1.00  0.00    +0.000 H 
ATOM    124  H32 UNL A   1      14.870  52.635   2.808  1.00  0.00    +0.000 H 
ATOM    125  H33 UNL A   1      18.296  53.070  -0.857  1.00  0.00    +0.000 H 
ATOM    126  H34 UNL A   1      17.832  50.614  -1.408  1.00  0.00    +0.000 H 
ATOM    127  H35 UNL A   1      11.533  49.959   6.392  1.00  0.00    +0.000 H 
ATOM    128  H36 UNL A   1      11.667  52.497   6.705  1.00  0.00    +0.000 H 
ENDROOT
BRANCH   28   27
ATOM    129  H37 UNL A   1      11.520  55.450   5.027  1.00  0.00    +0.000 H 
ATOM    130  H38 UNL A   1      10.809  56.985   6.762  1.00  0.00    +0.000 H 
ATOM     27  C22 UNL A   1      13.138  54.646   6.128  1.00  0.00    +0.000 C 
ATOM    117  H25 UNL A   1      13.822  55.515   9.303  1.00  0.00    +0.000 H 
ATOM     86  C62 UNL A   1      11.585  56.329   6.940  1.00  0.00    +0.000 C 
ATOM     85  C61 UNL A   1      12.022  55.475   5.929  1.00  0.00    +0.000 C 
ATOM     24  C19 UNL A   1      12.200  56.294   8.194  1.00  0.00    +0.000 C 
ATOM     25  C20 UNL A   1      13.336  55.502   8.393  1.00  0.00    +0.000 C 
ATOM     26  C21 UNL A   1      13.812  54.692   7.358  1.00  0.00    +0.000 C 
ATOM    118  H26 UNL A   1      14.664  54.126   7.499  1.00  0.00    +0.000 H 
BRANCH   24   22
ATOM     22  C18 UNL A   1      11.682  57.091   9.330  1.00  0.00    +0.000 C 
ATOM     23  O2  UNL A   1      11.803  58.311   9.317  1.00  0.00    +0.000 O 
BRANCH   22   21
ATOM    116  H24 UNL A   1      11.735  56.070  11.053  1.00  0.00    +0.000 H 
ATOM     21  N3  UNL A   1      11.104  56.465  10.409  1.00  0.00    +0.000 N 
BRANCH   21   20
ATOM    114  H22 UNL A   1       9.631  55.810  11.688  1.00  0.00    +0.000 H 
ATOM    115  H23 UNL A   1       9.263  57.275  10.752  1.00  0.00    +0.000 H 
ATOM     20  C17 UNL A   1       9.700  56.298  10.738  1.00  0.00    +0.000 C 
BRANCH   20   19
ATOM    113  H21 UNL A   1       9.296  55.792   8.763  1.00  0.00    +0.000 H 
ATOM     19  C16 UNL A   1       8.926  55.476   9.716  1.00  0.00    +0.000 C 
ATOM    112  H20 UNL A   1       7.883  55.659   9.873  1.00  0.00    +0.000 H 
BRANCH   19   18
ATOM     18  C15 UNL A   1       9.142  53.962   9.749  1.00  0.00    +0.000 C 
ATOM    110  H18 UNL A   1       9.416  53.700  10.751  1.00  0.00    +0.000 H 
ATOM    111  H19 UNL A   1       8.218  53.546   9.406  1.00  0.00    +0.000 H 
BRANCH   18   17
ATOM     17  C14 UNL A   1      10.206  53.384   8.814  1.00  0.00    +0.000 C 
ATOM    108  H16 UNL A   1       9.694  52.924   7.994  1.00  0.00    +0.000 H 
ATOM    109  H17 UNL A   1      10.825  54.219   8.562  1.00  0.00    +0.000 H 
BRANCH   17   16
ATOM    106  H14 UNL A   1      11.955  52.201   8.669  1.00  0.00    +0.000 H 
ATOM    107  H15 UNL A   1      11.490  52.752  10.326  1.00  0.00    +0.000 H 
ATOM     16  C13 UNL A   1      11.175  52.345   9.387  1.00  0.00    +0.000 C 
BRANCH   16   15
ATOM    105  H13 UNL A   1       9.640  50.921   9.272  1.00  0.00    +0.000 H 
ATOM     15  C12 UNL A   1      10.608  50.968   9.728  1.00  0.00    +0.000 C 
ATOM    104  H12 UNL A   1      10.578  50.875  10.794  1.00  0.00    +0.000 H 
BRANCH   15   14
ATOM     14  N2  UNL A   1      11.361  49.854   9.200  1.00  0.00    +0.000 N 
ATOM    103  H11 UNL A   1      11.108  49.578   8.290  1.00  0.00    +0.000 H 
BRANCH   14   12
ATOM     12  C11 UNL A   1      12.377  49.117   9.768  1.00  0.00    +0.000 C 
ATOM     13  O1  UNL A   1      12.448  47.935   9.431  1.00  0.00    +0.000 O 
BRANCH   12   11
ATOM      3  C2  UNL A   1      15.331  50.717  11.359  1.00  0.00    +0.000 C 
ATOM      4  C3  UNL A   1      14.676  50.187  10.252  1.00  0.00    +0.000 C 
ATOM    131  H39 UNL A   1      11.768  48.708  12.905  1.00  0.00    +0.000 H 
ATOM    134  H42 UNL A   1      15.386  51.771  13.944  1.00  0.00    +0.000 H 
ATOM    133  H41 UNL A   1      13.730  51.297  15.595  1.00  0.00    +0.000 H 
ATOM    132  H40 UNL A   1      11.975  49.617  15.079  1.00  0.00    +0.000 H 
ATOM     11  C10 UNL A   1      13.371  49.723  10.661  1.00  0.00    +0.000 C 
ATOM     87  C63 UNL A   1      13.357  49.856  12.045  1.00  0.00    +0.000 C 
ATOM     88  C64 UNL A   1      12.497  49.414  13.099  1.00  0.00    +0.000 C 
ATOM     89  C65 UNL A   1      12.632  49.914  14.341  1.00  0.00    +0.000 C 
ATOM     90  C66 UNL A   1      13.683  50.859  14.662  1.00  0.00    +0.000 C 
ATOM     91  C67 UNL A   1      14.591  51.153  13.720  1.00  0.00    +0.000 C 
ATOM     92  N8  UNL A   1      14.461  50.620  12.430  1.00  0.00    +0.000 N 
BRANCH    3    2
ATOM     97  H5  UNL A   1      16.758  51.880  12.369  1.00  0.00    +0.000 H 
ATOM      2  C1  UNL A   1      16.714  51.267  11.493  1.00  0.00    +0.000 C 
ATOM     96  H4  UNL A   1      16.949  51.845  10.624  1.00  0.00    +0.000 H 
BRANCH    2    1
ATOM      1  N1  UNL A   1      17.682  50.189  11.625  1.00  0.00    +0.000 N 
ATOM     93  H1  UNL A   1      17.755  49.916  12.605  1.00  0.00    +0.000 H 
ATOM     94  H2  UNL A   1      18.592  50.507  11.293  1.00  0.00    +0.000 H 
ATOM     95  H3  UNL A   1      17.378  49.389  11.071  1.00  0.00    +0.000 H 
ENDBRANCH    2    1
ENDBRANCH    3    2
BRANCH    4    5
ATOM     98  H6  UNL A   1      14.745  52.086   8.367  1.00  0.00    +0.000 H 
ATOM     99  H7  UNL A   1      15.790  51.972   6.179  1.00  0.00    +0.000 H 
ATOM    100  H8  UNL A   1      16.946  49.955   5.484  1.00  0.00    +0.000 H 
ATOM      5  C4  UNL A   1      15.293  50.127   8.936  1.00  0.00    +0.000 C 
ATOM    102  H10 UNL A   1      15.988  48.143   9.151  1.00  0.00    +0.000 H 
ATOM      6  C5  UNL A   1      15.234  51.226   8.073  1.00  0.00    +0.000 C 
ATOM      7  C6  UNL A   1      15.836  51.160   6.814  1.00  0.00    +0.000 C 
ATOM      9  C8  UNL A   1      16.557  48.899   7.267  1.00  0.00    +0.000 C 
ATOM     10  C9  UNL A   1      15.951  48.961   8.523  1.00  0.00    +0.000 C 
ATOM    101  H9  UNL A   1      17.046  48.041   6.971  1.00  0.00    +0.000 H 
ATOM      8  C7  UNL A   1      16.499  49.999   6.413  1.00  0.00    +0.000 C 
ENDBRANCH    4    5
ENDBRANCH   12   11
ENDBRANCH   14   12
ENDBRANCH   15   14
ENDBRANCH   16   15
ENDBRANCH   17   16
ENDBRANCH   18   17
ENDBRANCH   19   18
ENDBRANCH   20   19
ENDBRANCH   21   20
ENDBRANCH   22   21
ENDBRANCH   24   22
ENDBRANCH   28   27
BRANCH   32   33
ATOM     33  C27 UNL A   1      12.123  47.899   4.874  1.00  0.00    +0.000 C 
ATOM     34  C28 UNL A   1      12.657  47.130   5.917  1.00  0.00    +0.000 C 
ATOM     35  F1  UNL A   1      13.933  47.294   6.293  1.00  0.00    +0.000 F 
ATOM     36  C29 UNL A   1      11.891  46.154   6.552  1.00  0.00    +0.000 C 
ATOM     37  F2  UNL A   1      12.439  45.395   7.511  1.00  0.00    +0.000 F 
ATOM     38  C30 UNL A   1      10.571  45.955   6.181  1.00  0.00    +0.000 C 
ATOM     39  F3  UNL A   1       9.835  45.018   6.794  1.00  0.00    +0.000 F 
ATOM     40  C31 UNL A   1      10.015  46.721   5.168  1.00  0.00    +0.000 C 
ATOM     41  F4  UNL A   1       8.734  46.538   4.816  1.00  0.00    +0.000 F 
ATOM     42  C32 UNL A   1      10.786  47.677   4.512  1.00  0.00    +0.000 C 
ATOM     43  F5  UNL A   1      10.225  48.391   3.523  1.00  0.00    +0.000 F 
ENDBRANCH   32   33
BRANCH   49   50
ATOM     50  C38 UNL A   1      16.575  48.404  -0.767  1.00  0.00    +0.000 C 
ATOM     51  C39 UNL A   1      17.836  47.797  -0.680  1.00  0.00    +0.000 C 
ATOM     52  F6  UNL A   1      18.642  48.062   0.358  1.00  0.00    +0.000 F 
ATOM     53  C40 UNL A   1      18.282  46.933  -1.678  1.00  0.00    +0.000 C 
ATOM     54  F7  UNL A   1      19.503  46.388  -1.592  1.00  0.00    +0.000 F 
ATOM     55  C41 UNL A   1      17.469  46.642  -2.762  1.00  0.00    +0.000 C 
ATOM     56  F8  UNL A   1      17.896  45.801  -3.715  1.00  0.00    +0.000 F 
ATOM     57  C42 UNL A   1      16.214  47.225  -2.863  1.00  0.00    +0.000 C 
ATOM     58  F9  UNL A   1      15.422  46.936  -3.905  1.00  0.00    +0.000 F 
ATOM     59  C43 UNL A   1      15.774  48.107  -1.881  1.00  0.00    +0.000 C 
ATOM     60  F10 UNL A   1      14.560  48.661  -2.006  1.00  0.00    +0.000 F 
ENDBRANCH   49   50
BRANCH   64   65
ATOM     65  C47 UNL A   1      17.567  55.145   0.697  1.00  0.00    +0.000 C 
ATOM     66  C48 UNL A   1      18.796  55.504   1.269  1.00  0.00    +0.000 C 
ATOM     67  F11 UNL A   1      19.212  54.902   2.393  1.00  0.00    +0.000 F 
ATOM     68  C49 UNL A   1      19.583  56.509   0.711  1.00  0.00    +0.000 C 
ATOM     69  F12 UNL A   1      20.734  56.859   1.300  1.00  0.00    +0.000 F 
ATOM     70  C50 UNL A   1      19.170  57.156  -0.443  1.00  0.00    +0.000 C 
ATOM     71  F13 UNL A   1      19.930  58.119  -0.983  1.00  0.00    +0.000 F 
ATOM     72  C51 UNL A   1      17.965  56.808  -1.035  1.00  0.00    +0.000 C 
ATOM     73  F14 UNL A   1      17.568  57.422  -2.158  1.00  0.00    +0.000 F 
ATOM     74  C52 UNL A   1      17.165  55.820  -0.464  1.00  0.00    +0.000 C 
ATOM     75  F15 UNL A   1      16.000  55.510  -1.052  1.00  0.00    +0.000 F 
ENDBRANCH   64   65
TORSDOF 18
ENDMDL
MODEL 8
REMARK VINA RESULT:     -10.7     18.209     25.060
ROOT
ATOM     28  C23 UNL A   1      25.315  38.237  48.711  1.00  0.00    +0.000 C 
ATOM     29  C24 UNL A   1      26.604  38.969  48.477  1.00  0.00    +0.000 C 
ATOM     30  N4  UNL A   1      27.587  38.682  47.661  1.00  0.00    +0.000 N 
ATOM     31  C25 UNL A   1      28.504  39.716  47.796  1.00  0.00    +0.000 C 
ATOM     32  C26 UNL A   1      29.712  39.857  47.199  1.00  0.00    +0.000 C 
ATOM     44  C33 UNL A   1      30.282  38.902  46.286  1.00  0.00    +0.000 C 
ATOM     45  C34 UNL A   1      31.518  38.933  45.664  1.00  0.00    +0.000 C 
ATOM     46  C35 UNL A   1      31.624  37.805  44.843  1.00  0.00    +0.000 C 
ATOM     47  C36 UNL A   1      30.470  37.050  44.986  1.00  0.00    +0.000 C 
ATOM     48  N5  UNL A   1      29.653  37.739  45.868  1.00  0.00    +0.000 N 
ATOM     49  C37 UNL A   1      30.138  35.796  44.363  1.00  0.00    +0.000 C 
ATOM     61  C44 UNL A   1      28.978  35.119  44.547  1.00  0.00    +0.000 C 
ATOM     62  N6  UNL A   1      27.898  35.445  45.355  1.00  0.00    +0.000 N 
ATOM     63  C45 UNL A   1      27.025  34.481  45.196  1.00  0.00    +0.000 C 
ATOM     64  C46 UNL A   1      25.682  34.299  45.850  1.00  0.00    +0.000 C 
ATOM     76  C53 UNL A   1      25.262  35.200  46.760  1.00  0.00    +0.000 C 
ATOM     77  C54 UNL A   1      23.983  35.162  47.461  1.00  0.00    +0.000 C 
ATOM     78  C55 UNL A   1      23.869  36.259  48.226  1.00  0.00    +0.000 C 
ATOM     79  C56 UNL A   1      25.088  37.059  48.100  1.00  0.00    +0.000 C 
ATOM     80  N7  UNL A   1      25.872  36.336  47.232  1.00  0.00    +0.000 N 
ATOM     81  C57 UNL A   1      27.439  33.449  44.234  1.00  0.00    +0.000 C 
ATOM     82  C58 UNL A   1      28.651  33.867  43.895  1.00  0.00    +0.000 C 
ATOM     83  C59 UNL A   1      27.945  40.657  48.743  1.00  0.00    +0.000 C 
ATOM     84  C60 UNL A   1      26.802  40.210  49.242  1.00  0.00    +0.000 C 
ATOM    119  H27 UNL A   1      32.239  39.663  45.786  1.00  0.00    +0.000 H 
ATOM    120  H28 UNL A   1      32.424  37.574  44.235  1.00  0.00    +0.000 H 
ATOM    121  H29 UNL A   1      28.758  37.446  46.156  1.00  0.00    +0.000 H 
ATOM    122  H30 UNL A   1      23.277  34.412  47.381  1.00  0.00    +0.000 H 
ATOM    123  H31 UNL A   1      23.052  36.501  48.809  1.00  0.00    +0.000 H 
ATOM    124  H32 UNL A   1      26.782  36.608  46.975  1.00  0.00    +0.000 H 
ATOM    125  H33 UNL A   1      26.924  32.616  43.909  1.00  0.00    +0.000 H 
ATOM    126  H34 UNL A   1      29.281  33.366  43.250  1.00  0.00    +0.000 H 
ATOM    127  H35 UNL A   1      28.379  41.559  48.995  1.00  0.00    +0.000 H 
ATOM    128  H36 UNL A   1      26.207  40.623  49.977  1.00  0.00    +0.000 H 
ENDROOT
BRANCH   28   27
ATOM    129  H37 UNL A   1      23.599  40.164  48.017  1.00  0.00    +0.000 H 
ATOM    130  H38 UNL A   1      21.920  41.270  49.370  1.00  0.00    +0.000 H 
ATOM     27  C22 UNL A   1      24.254  38.858  49.547  1.00  0.00    +0.000 C 
ATOM    117  H25 UNL A   1      22.844  38.734  52.596  1.00  0.00    +0.000 H 
ATOM     86  C62 UNL A   1      22.458  40.480  49.759  1.00  0.00    +0.000 C 
ATOM     85  C61 UNL A   1      23.452  39.870  48.996  1.00  0.00    +0.000 C 
ATOM     24  C19 UNL A   1      22.191  40.018  51.050  1.00  0.00    +0.000 C 
ATOM     25  C20 UNL A   1      23.007  39.038  51.624  1.00  0.00    +0.000 C 
ATOM     26  C21 UNL A   1      24.046  38.471  50.879  1.00  0.00    +0.000 C 
ATOM    118  H26 UNL A   1      24.662  37.764  51.312  1.00  0.00    +0.000 H 
BRANCH   24   22
ATOM     22  C18 UNL A   1      21.058  40.553  51.842  1.00  0.00    +0.000 C 
ATOM     23  O2  UNL A   1      21.280  41.332  52.761  1.00  0.00    +0.000 O 
BRANCH   22   21
ATOM    116  H24 UNL A   1      19.695  39.307  51.064  1.00  0.00    +0.000 H 
ATOM     21  N3  UNL A   1      19.772  40.147  51.572  1.00  0.00    +0.000 N 
BRANCH   21   20
ATOM    114  H22 UNL A   1      18.305  40.560  52.954  1.00  0.00    +0.000 H 
ATOM    115  H23 UNL A   1      18.621  41.823  51.744  1.00  0.00    +0.000 H 
ATOM     20  C17 UNL A   1      18.512  40.775  51.926  1.00  0.00    +0.000 C 
BRANCH   20   19
ATOM    113  H21 UNL A   1      17.097  41.115  50.441  1.00  0.00    +0.000 H 
ATOM     19  C16 UNL A   1      17.334  40.295  51.088  1.00  0.00    +0.000 C 
ATOM    112  H20 UNL A   1      16.549  40.016  51.759  1.00  0.00    +0.000 H 
BRANCH   19   18
ATOM     18  C15 UNL A   1      17.592  39.111  50.156  1.00  0.00    +0.000 C 
ATOM    110  H18 UNL A   1      17.505  39.468  49.151  1.00  0.00    +0.000 H 
ATOM    111  H19 UNL A   1      18.563  38.753  50.430  1.00  0.00    +0.000 H 
BRANCH   18   17
ATOM     17  C14 UNL A   1      16.673  37.895  50.294  1.00  0.00    +0.000 C 
ATOM    108  H16 UNL A   1      17.296  37.026  50.333  1.00  0.00    +0.000 H 
ATOM    109  H17 UNL A   1      16.097  38.091  51.175  1.00  0.00    +0.000 H 
BRANCH   17   16
ATOM    106  H14 UNL A   1      14.675  37.938  49.595  1.00  0.00    +0.000 H 
ATOM    107  H15 UNL A   1      15.965  38.246  48.368  1.00  0.00    +0.000 H 
ATOM     16  C13 UNL A   1      15.628  37.659  49.197  1.00  0.00    +0.000 C 
BRANCH   16   15
ATOM    105  H13 UNL A   1      14.589  35.844  49.053  1.00  0.00    +0.000 H 
ATOM     15  C12 UNL A   1      15.496  36.240  48.647  1.00  0.00    +0.000 C 
ATOM    104  H12 UNL A   1      16.366  35.689  48.939  1.00  0.00    +0.000 H 
BRANCH   15   14
ATOM     14  N2  UNL A   1      15.371  36.156  47.211  1.00  0.00    +0.000 N 
ATOM    103  H11 UNL A   1      14.486  35.871  46.889  1.00  0.00    +0.000 H 
BRANCH   14   12
ATOM     12  C11 UNL A   1      16.293  36.412  46.219  1.00  0.00    +0.000 C 
ATOM     13  O1  UNL A   1      16.325  37.565  45.788  1.00  0.00    +0.000 O 
BRANCH   12   11
ATOM      3  C2  UNL A   1      19.149  34.104  45.649  1.00  0.00    +0.000 C 
ATOM      4  C3  UNL A   1      18.545  35.157  46.328  1.00  0.00    +0.000 C 
ATOM    131  H39 UNL A   1      15.590  35.155  43.337  1.00  0.00    +0.000 H 
ATOM    134  H42 UNL A   1      19.091  31.858  43.990  1.00  0.00    +0.000 H 
ATOM    133  H41 UNL A   1      17.394  31.470  42.358  1.00  0.00    +0.000 H 
ATOM    132  H40 UNL A   1      15.702  33.241  41.951  1.00  0.00    +0.000 H 
ATOM     11  C10 UNL A   1      17.240  35.392  45.758  1.00  0.00    +0.000 C 
ATOM     87  C63 UNL A   1      17.177  34.560  44.645  1.00  0.00    +0.000 C 
ATOM     88  C64 UNL A   1      16.294  34.423  43.528  1.00  0.00    +0.000 C 
ATOM     89  C65 UNL A   1      16.375  33.346  42.725  1.00  0.00    +0.000 C 
ATOM     90  C66 UNL A   1      17.389  32.331  42.928  1.00  0.00    +0.000 C 
ATOM     91  C67 UNL A   1      18.321  32.534  43.872  1.00  0.00    +0.000 C 
ATOM     92  N8  UNL A   1      18.248  33.664  44.698  1.00  0.00    +0.000 N 
BRANCH    3    2
ATOM     97  H5  UNL A   1      21.197  34.283  46.077  1.00  0.00    +0.000 H 
ATOM      2  C1  UNL A   1      20.512  33.510  45.800  1.00  0.00    +0.000 C 
ATOM     96  H4  UNL A   1      20.809  33.067  44.872  1.00  0.00    +0.000 H 
BRANCH    2    1
ATOM      1  N1  UNL A   1      20.513  32.489  46.836  1.00  0.00    +0.000 N 
ATOM     93  H1  UNL A   1      21.444  32.419  47.245  1.00  0.00    +0.000 H 
ATOM     94  H2  UNL A   1      20.252  31.591  46.429  1.00  0.00    +0.000 H 
ATOM     95  H3  UNL A   1      19.842  32.740  47.561  1.00  0.00    +0.000 H 
ENDBRANCH    2    1
ENDBRANCH    3    2
BRANCH    4    5
ATOM     98  H6  UNL A   1      18.674  34.484  48.916  1.00  0.00    +0.000 H 
ATOM     99  H7  UNL A   1      19.794  35.677  50.709  1.00  0.00    +0.000 H 
ATOM    100  H8  UNL A   1      20.978  37.743  50.244  1.00  0.00    +0.000 H 
ATOM      5  C4  UNL A   1      19.208  35.867  47.412  1.00  0.00    +0.000 C 
ATOM    102  H10 UNL A   1      19.900  37.451  46.194  1.00  0.00    +0.000 H 
ATOM      6  C5  UNL A   1      19.175  35.363  48.716  1.00  0.00    +0.000 C 
ATOM      7  C6  UNL A   1      19.820  36.051  49.748  1.00  0.00    +0.000 C 
ATOM      9  C8  UNL A   1      20.530  37.750  48.184  1.00  0.00    +0.000 C 
ATOM     10  C9  UNL A   1      19.882  37.068  47.153  1.00  0.00    +0.000 C 
ATOM    101  H9  UNL A   1      21.032  38.629  47.986  1.00  0.00    +0.000 H 
ATOM      8  C7  UNL A   1      20.499  37.241  49.481  1.00  0.00    +0.000 C 
ENDBRANCH    4    5
ENDBRANCH   12   11
ENDBRANCH   14   12
ENDBRANCH   15   14
ENDBRANCH   16   15
ENDBRANCH   17   16
ENDBRANCH   18   17
ENDBRANCH   19   18
ENDBRANCH   20   19
ENDBRANCH   21   20
ENDBRANCH   22   21
ENDBRANCH   24   22
ENDBRANCH   28   27
BRANCH   32   33
ATOM     33  C27 UNL A   1      30.496  41.097  47.512  1.00  0.00    +0.000 C 
ATOM     34  C28 UNL A   1      30.220  42.321  46.885  1.00  0.00    +0.000 C 
ATOM     35  F1  UNL A   1      29.259  42.399  45.952  1.00  0.00    +0.000 F 
ATOM     36  C29 UNL A   1      30.961  43.462  47.182  1.00  0.00    +0.000 C 
ATOM     37  F2  UNL A   1      30.713  44.607  46.532  1.00  0.00    +0.000 F 
ATOM     38  C30 UNL A   1      31.965  43.411  48.136  1.00  0.00    +0.000 C 
ATOM     39  F3  UNL A   1      32.675  44.511  48.424  1.00  0.00    +0.000 F 
ATOM     40  C31 UNL A   1      32.240  42.218  48.787  1.00  0.00    +0.000 C 
ATOM     41  F4  UNL A   1      33.203  42.169  49.718  1.00  0.00    +0.000 F 
ATOM     42  C32 UNL A   1      31.521  41.068  48.471  1.00  0.00    +0.000 C 
ATOM     43  F5  UNL A   1      31.821  39.924  49.105  1.00  0.00    +0.000 F 
ENDBRANCH   32   33
BRANCH   49   50
ATOM     50  C38 UNL A   1      31.165  35.176  43.463  1.00  0.00    +0.000 C 
ATOM     51  C39 UNL A   1      31.994  34.134  43.900  1.00  0.00    +0.000 C 
ATOM     52  F6  UNL A   1      31.932  33.711  45.172  1.00  0.00    +0.000 F 
ATOM     53  C40 UNL A   1      32.909  33.539  43.035  1.00  0.00    +0.000 C 
ATOM     54  F7  UNL A   1      33.715  32.565  43.481  1.00  0.00    +0.000 F 
ATOM     55  C41 UNL A   1      32.993  33.958  41.716  1.00  0.00    +0.000 C 
ATOM     56  F8  UNL A   1      33.867  33.375  40.881  1.00  0.00    +0.000 F 
ATOM     57  C42 UNL A   1      32.177  34.981  41.261  1.00  0.00    +0.000 C 
ATOM     58  F9  UNL A   1      32.249  35.379  39.983  1.00  0.00    +0.000 F 
ATOM     59  C43 UNL A   1      31.278  35.594  42.128  1.00  0.00    +0.000 C 
ATOM     60  F10 UNL A   1      30.504  36.586  41.663  1.00  0.00    +0.000 F 
ENDBRANCH   49   50
BRANCH   64   65
ATOM     65  C47 UNL A   1      24.832  33.126  45.525  1.00  0.00    +0.000 C 
ATOM     66  C48 UNL A   1      23.902  33.183  44.477  1.00  0.00    +0.000 C 
ATOM     67  F11 UNL A   1      23.755  34.317  43.776  1.00  0.00    +0.000 F 
ATOM     68  C49 UNL A   1      23.093  32.091  44.171  1.00  0.00    +0.000 C 
ATOM     69  F12 UNL A   1      22.186  32.186  43.191  1.00  0.00    +0.000 F 
ATOM     70  C50 UNL A   1      23.216  30.912  44.890  1.00  0.00    +0.000 C 
ATOM     71  F13 UNL A   1      22.442  29.859  44.592  1.00  0.00    +0.000 F 
ATOM     72  C51 UNL A   1      24.139  30.826  45.922  1.00  0.00    +0.000 C 
ATOM     73  F14 UNL A   1      24.270  29.684  46.611  1.00  0.00    +0.000 F 
ATOM     74  C52 UNL A   1      24.932  31.927  46.245  1.00  0.00    +0.000 C 
ATOM     75  F15 UNL A   1      25.809  31.819  47.254  1.00  0.00    +0.000 F 
ENDBRANCH   64   65
TORSDOF 18
ENDMDL
MODEL 9
REMARK VINA RESULT:     -10.6     38.007     42.933
ROOT
ATOM     28  C23 UNL A   1      14.068  53.903   5.194  1.00  0.00    +0.000 C 
ATOM     29  C24 UNL A   1      14.997  54.362   4.106  1.00  0.00    +0.000 C 
ATOM     30  N4  UNL A   1      15.470  53.698   3.082  1.00  0.00    +0.000 N 
ATOM     31  C25 UNL A   1      16.230  54.609   2.361  1.00  0.00    +0.000 C 
ATOM     32  C26 UNL A   1      16.965  54.398   1.242  1.00  0.00    +0.000 C 
ATOM     44  C33 UNL A   1      17.096  53.124   0.586  1.00  0.00    +0.000 C 
ATOM     45  C34 UNL A   1      17.853  52.799  -0.526  1.00  0.00    +0.000 C 
ATOM     46  C35 UNL A   1      17.645  51.446  -0.817  1.00  0.00    +0.000 C 
ATOM     47  C36 UNL A   1      16.791  50.919   0.139  1.00  0.00    +0.000 C 
ATOM     48  N5  UNL A   1      16.456  51.961   0.988  1.00  0.00    +0.000 N 
ATOM     49  C37 UNL A   1      16.315  49.567   0.266  1.00  0.00    +0.000 C 
ATOM     61  C44 UNL A   1      15.468  49.127   1.228  1.00  0.00    +0.000 C 
ATOM     62  N6  UNL A   1      14.904  49.834   2.282  1.00  0.00    +0.000 N 
ATOM     63  C45 UNL A   1      14.162  48.975   2.936  1.00  0.00    +0.000 C 
ATOM     64  C46 UNL A   1      13.343  49.183   4.181  1.00  0.00    +0.000 C 
ATOM     76  C53 UNL A   1      13.345  50.390   4.780  1.00  0.00    +0.000 C 
ATOM     77  C54 UNL A   1      12.591  50.741   5.979  1.00  0.00    +0.000 C 
ATOM     78  C55 UNL A   1      12.767  52.046   6.240  1.00  0.00    +0.000 C 
ATOM     79  C56 UNL A   1      13.682  52.614   5.250  1.00  0.00    +0.000 C 
ATOM     80  N7  UNL A   1      13.998  51.549   4.440  1.00  0.00    +0.000 N 
ATOM     81  C57 UNL A   1      14.143  47.627   2.347  1.00  0.00    +0.000 C 
ATOM     82  C58 UNL A   1      14.982  47.766   1.329  1.00  0.00    +0.000 C 
ATOM     83  C59 UNL A   1      16.126  55.881   3.043  1.00  0.00    +0.000 C 
ATOM     84  C60 UNL A   1      15.429  55.767   4.163  1.00  0.00    +0.000 C 
ATOM    119  H27 UNL A   1      18.466  53.443  -1.050  1.00  0.00    +0.000 H 
ATOM    120  H28 UNL A   1      18.058  50.929  -1.608  1.00  0.00    +0.000 H 
ATOM    121  H29 UNL A   1      15.853  51.887   1.763  1.00  0.00    +0.000 H 
ATOM    122  H30 UNL A   1      12.013  50.092   6.536  1.00  0.00    +0.000 H 
ATOM    123  H31 UNL A   1      12.327  52.566   7.016  1.00  0.00    +0.000 H 
ATOM    124  H32 UNL A   1      14.631  51.613   3.690  1.00  0.00    +0.000 H 
ATOM    125  H33 UNL A   1      13.616  46.792   2.646  1.00  0.00    +0.000 H 
ATOM    126  H34 UNL A   1      15.254  47.003   0.691  1.00  0.00    +0.000 H 
ATOM    127  H35 UNL A   1      16.540  56.762   2.701  1.00  0.00    +0.000 H 
ATOM    128  H36 UNL A   1      15.238  56.477   4.887  1.00  0.00    +0.000 H 
ENDROOT
BRANCH   28   27
ATOM    129  H37 UNL A   1      15.043  54.612   7.578  1.00  0.00    +0.000 H 
ATOM    130  H38 UNL A   1      14.114  56.144   9.210  1.00  0.00    +0.000 H 
ATOM     27  C22 UNL A   1      13.506  54.891   6.151  1.00  0.00    +0.000 C 
ATOM    117  H25 UNL A   1      10.981  57.072   6.561  1.00  0.00    +0.000 H 
ATOM     86  C62 UNL A   1      13.660  56.032   8.290  1.00  0.00    +0.000 C 
ATOM     85  C61 UNL A   1      14.169  55.121   7.367  1.00  0.00    +0.000 C 
ATOM     24  C19 UNL A   1      12.534  56.793   7.967  1.00  0.00    +0.000 C 
ATOM     25  C20 UNL A   1      11.842  56.546   6.777  1.00  0.00    +0.000 C 
ATOM     26  C21 UNL A   1      12.318  55.586   5.879  1.00  0.00    +0.000 C 
ATOM    118  H26 UNL A   1      11.794  55.389   5.011  1.00  0.00    +0.000 H 
BRANCH   24   22
ATOM     22  C18 UNL A   1      12.040  57.862   8.867  1.00  0.00    +0.000 C 
ATOM     23  O2  UNL A   1      12.565  58.969   8.834  1.00  0.00    +0.000 O 
BRANCH   22   21
ATOM    116  H24 UNL A   1      10.621  58.398  10.176  1.00  0.00    +0.000 H 
ATOM     21  N3  UNL A   1      11.026  57.603   9.759  1.00  0.00    +0.000 N 
BRANCH   21   20
ATOM    114  H22 UNL A   1       9.500  56.511  10.602  1.00  0.00    +0.000 H 
ATOM    115  H23 UNL A   1      10.415  55.709   9.307  1.00  0.00    +0.000 H 
ATOM     20  C17 UNL A   1      10.465  56.331  10.176  1.00  0.00    +0.000 C 
BRANCH   20   19
ATOM    113  H21 UNL A   1      10.882  55.839  12.153  1.00  0.00    +0.000 H 
ATOM     19  C16 UNL A   1      11.315  55.596  11.205  1.00  0.00    +0.000 C 
ATOM    112  H20 UNL A   1      12.328  55.919  11.081  1.00  0.00    +0.000 H 
BRANCH   19   18
ATOM     18  C15 UNL A   1      11.304  54.068  11.137  1.00  0.00    +0.000 C 
ATOM    110  H18 UNL A   1      11.060  53.706  12.114  1.00  0.00    +0.000 H 
ATOM    111  H19 UNL A   1      10.594  53.833  10.373  1.00  0.00    +0.000 H 
BRANCH   18   17
ATOM     17  C14 UNL A   1      12.597  53.375  10.700  1.00  0.00    +0.000 C 
ATOM    108  H16 UNL A   1      12.550  52.364  11.047  1.00  0.00    +0.000 H 
ATOM    109  H17 UNL A   1      12.622  53.499   9.637  1.00  0.00    +0.000 H 
BRANCH   17   16
ATOM    106  H14 UNL A   1      14.713  53.417  10.713  1.00  0.00    +0.000 H 
ATOM    107  H15 UNL A   1      13.875  55.003  10.932  1.00  0.00    +0.000 H 
ATOM     16  C13 UNL A   1      13.925  53.964  11.187  1.00  0.00    +0.000 C 
BRANCH   16   15
ATOM    105  H13 UNL A   1      13.234  53.930  13.167  1.00  0.00    +0.000 H 
ATOM     15  C12 UNL A   1      14.193  53.942  12.691  1.00  0.00    +0.000 C 
ATOM    104  H12 UNL A   1      14.775  54.805  12.938  1.00  0.00    +0.000 H 
BRANCH   15   14
ATOM     14  N2  UNL A   1      14.897  52.774  13.164  1.00  0.00    +0.000 N 
ATOM    103  H11 UNL A   1      15.112  52.781  14.125  1.00  0.00    +0.000 H 
BRANCH   14   12
ATOM     12  C11 UNL A   1      15.317  51.650  12.485  1.00  0.00    +0.000 C 
ATOM     13  O1  UNL A   1      16.518  51.587  12.222  1.00  0.00    +0.000 O 
BRANCH   12   11
ATOM      3  C2  UNL A   1      13.394  48.848  10.979  1.00  0.00    +0.000 C 
ATOM      4  C3  UNL A   1      14.378  49.829  10.915  1.00  0.00    +0.000 C 
ATOM    131  H39 UNL A   1      12.815  51.378  14.497  1.00  0.00    +0.000 H 
ATOM    134  H42 UNL A   1      11.634  47.181  12.366  1.00  0.00    +0.000 H 
ATOM    133  H41 UNL A   1      10.769  47.691  14.531  1.00  0.00    +0.000 H 
ATOM    132  H40 UNL A   1      11.277  49.907  15.529  1.00  0.00    +0.000 H 
ATOM     11  C10 UNL A   1      14.400  50.550  12.165  1.00  0.00    +0.000 C 
ATOM     87  C63 UNL A   1      13.311  50.065  12.881  1.00  0.00    +0.000 C 
ATOM     88  C64 UNL A   1      12.624  50.456  14.074  1.00  0.00    +0.000 C 
ATOM     89  C65 UNL A   1      11.731  49.628  14.646  1.00  0.00    +0.000 C 
ATOM     90  C66 UNL A   1      11.394  48.354  14.045  1.00  0.00    +0.000 C 
ATOM     91  C67 UNL A   1      11.912  48.052  12.844  1.00  0.00    +0.000 C 
ATOM     92  N8  UNL A   1      12.830  48.922  12.239  1.00  0.00    +0.000 N 
BRANCH    3    2
ATOM     97  H5  UNL A   1      12.572  46.995  10.431  1.00  0.00    +0.000 H 
ATOM      2  C1  UNL A   1      12.924  47.879   9.943  1.00  0.00    +0.000 C 
ATOM     96  H4  UNL A   1      13.736  47.643   9.287  1.00  0.00    +0.000 H 
BRANCH    2    1
ATOM      1  N1  UNL A   1      11.836  48.452   9.165  1.00  0.00    +0.000 N 
ATOM     93  H1  UNL A   1      11.718  47.920   8.303  1.00  0.00    +0.000 H 
ATOM     94  H2  UNL A   1      12.053  49.422   8.940  1.00  0.00    +0.000 H 
ATOM     95  H3  UNL A   1      10.974  48.414   9.708  1.00  0.00    +0.000 H 
ENDBRANCH    2    1
ENDBRANCH    3    2
BRANCH    4    5
ATOM     98  H6  UNL A   1      14.326  51.899   9.218  1.00  0.00    +0.000 H 
ATOM     99  H7  UNL A   1      15.698  52.239   7.244  1.00  0.00    +0.000 H 
ATOM    100  H8  UNL A   1      17.357  50.585   6.614  1.00  0.00    +0.000 H 
ATOM      5  C4  UNL A   1      15.191  50.041   9.726  1.00  0.00    +0.000 C 
ATOM    102  H10 UNL A   1      16.257  48.225   9.911  1.00  0.00    +0.000 H 
ATOM      6  C5  UNL A   1      15.029  51.193   8.951  1.00  0.00    +0.000 C 
ATOM      7  C6  UNL A   1      15.820  51.388   7.815  1.00  0.00    +0.000 C 
ATOM      9  C8  UNL A   1      16.933  49.283   8.217  1.00  0.00    +0.000 C 
ATOM     10  C9  UNL A   1      16.142  49.083   9.348  1.00  0.00    +0.000 C 
ATOM    101  H9  UNL A   1      17.637  48.578   7.948  1.00  0.00    +0.000 H 
ATOM      8  C7  UNL A   1      16.772  50.435   7.450  1.00  0.00    +0.000 C 
ENDBRANCH    4    5
ENDBRANCH   12   11
ENDBRANCH   14   12
ENDBRANCH   15   14
ENDBRANCH   16   15
ENDBRANCH   17   16
ENDBRANCH   18   17
ENDBRANCH   19   18
ENDBRANCH   20   19
ENDBRANCH   21   20
ENDBRANCH   22   21
ENDBRANCH   24   22
ENDBRANCH   28   27
BRANCH   32   33
ATOM     33  C27 UNL A   1      17.680  55.578   0.653  1.00  0.00    +0.000 C 
ATOM     34  C28 UNL A   1      17.093  56.371  -0.345  1.00  0.00    +0.000 C 
ATOM     35  F1  UNL A   1      15.879  56.063  -0.824  1.00  0.00    +0.000 F 
ATOM     36  C29 UNL A   1      17.772  57.460  -0.886  1.00  0.00    +0.000 C 
ATOM     37  F2  UNL A   1      17.212  58.171  -1.875  1.00  0.00    +0.000 F 
ATOM     38  C30 UNL A   1      19.031  57.798  -0.417  1.00  0.00    +0.000 C 
ATOM     39  F3  UNL A   1      19.682  58.848  -0.936  1.00  0.00    +0.000 F 
ATOM     40  C31 UNL A   1      19.621  57.043   0.586  1.00  0.00    +0.000 C 
ATOM     41  F4  UNL A   1      20.834  57.376   1.049  1.00  0.00    +0.000 F 
ATOM     42  C32 UNL A   1      18.957  55.937   1.109  1.00  0.00    +0.000 C 
ATOM     43  F5  UNL A   1      19.561  55.215   2.066  1.00  0.00    +0.000 F 
ENDBRANCH   32   33
BRANCH   49   50
ATOM     50  C38 UNL A   1      16.816  48.560  -0.727  1.00  0.00    +0.000 C 
ATOM     51  C39 UNL A   1      18.026  47.880  -0.538  1.00  0.00    +0.000 C 
ATOM     52  F6  UNL A   1      18.807  48.171   0.514  1.00  0.00    +0.000 F 
ATOM     53  C40 UNL A   1      18.452  46.914  -1.447  1.00  0.00    +0.000 C 
ATOM     54  F7  UNL A   1      19.628  46.298  -1.266  1.00  0.00    +0.000 F 
ATOM     55  C41 UNL A   1      17.664  46.595  -2.543  1.00  0.00    +0.000 C 
ATOM     56  F8  UNL A   1      18.070  45.656  -3.410  1.00  0.00    +0.000 F 
ATOM     57  C42 UNL A   1      16.459  47.250  -2.743  1.00  0.00    +0.000 C 
ATOM     58  F9  UNL A   1      15.691  46.934  -3.796  1.00  0.00    +0.000 F 
ATOM     59  C43 UNL A   1      16.042  48.232  -1.850  1.00  0.00    +0.000 C 
ATOM     60  F10 UNL A   1      14.874  48.853  -2.071  1.00  0.00    +0.000 F 
ENDBRANCH   49   50
BRANCH   64   65
ATOM     65  C47 UNL A   1      12.559  48.067   4.769  1.00  0.00    +0.000 C 
ATOM     66  C48 UNL A   1      11.308  47.716   4.244  1.00  0.00    +0.000 C 
ATOM     67  F11 UNL A   1      10.796  48.410   3.217  1.00  0.00    +0.000 F 
ATOM     68  C49 UNL A   1      10.561  46.678   4.796  1.00  0.00    +0.000 C 
ATOM     69  F12 UNL A   1       9.351  46.388   4.299  1.00  0.00    +0.000 F 
ATOM     70  C50 UNL A   1      11.062  45.953   5.867  1.00  0.00    +0.000 C 
ATOM     71  F13 UNL A   1      10.345  44.950   6.394  1.00  0.00    +0.000 F 
ATOM     72  C51 UNL A   1      12.304  46.272   6.394  1.00  0.00    +0.000 C 
ATOM     73  F14 UNL A   1      12.797  45.567   7.421  1.00  0.00    +0.000 F 
ATOM     74  C52 UNL A   1      13.041  47.328   5.859  1.00  0.00    +0.000 C 
ATOM     75  F15 UNL A   1      14.235  47.621   6.395  1.00  0.00    +0.000 F 
ENDBRANCH   64   65
TORSDOF 18
ENDMDL
MODEL 10
REMARK VINA RESULT:     -10.6     37.433     42.932
ROOT
ATOM     28  C23 UNL A   1      14.007  53.843   5.217  1.00  0.00    +0.000 C 
ATOM     29  C24 UNL A   1      14.961  54.288   4.146  1.00  0.00    +0.000 C 
ATOM     30  N4  UNL A   1      15.434  53.621   3.124  1.00  0.00    +0.000 N 
ATOM     31  C25 UNL A   1      16.225  54.519   2.420  1.00  0.00    +0.000 C 
ATOM     32  C26 UNL A   1      16.971  54.299   1.310  1.00  0.00    +0.000 C 
ATOM     44  C33 UNL A   1      17.084  53.026   0.648  1.00  0.00    +0.000 C 
ATOM     45  C34 UNL A   1      17.849  52.691  -0.455  1.00  0.00    +0.000 C 
ATOM     46  C35 UNL A   1      17.616  51.346  -0.758  1.00  0.00    +0.000 C 
ATOM     47  C36 UNL A   1      16.737  50.832   0.182  1.00  0.00    +0.000 C 
ATOM     48  N5  UNL A   1      16.412  51.876   1.033  1.00  0.00    +0.000 N 
ATOM     49  C37 UNL A   1      16.229  49.489   0.293  1.00  0.00    +0.000 C 
ATOM     61  C44 UNL A   1      15.359  49.062   1.240  1.00  0.00    +0.000 C 
ATOM     62  N6  UNL A   1      14.795  49.775   2.290  1.00  0.00    +0.000 N 
ATOM     63  C45 UNL A   1      14.025  48.928   2.927  1.00  0.00    +0.000 C 
ATOM     64  C46 UNL A   1      13.192  49.146   4.162  1.00  0.00    +0.000 C 
ATOM     76  C53 UNL A   1      13.213  50.349   4.769  1.00  0.00    +0.000 C 
ATOM     77  C54 UNL A   1      12.449  50.710   5.959  1.00  0.00    +0.000 C 
ATOM     78  C55 UNL A   1      12.650  52.009   6.232  1.00  0.00    +0.000 C 
ATOM     79  C56 UNL A   1      13.591  52.562   5.259  1.00  0.00    +0.000 C 
ATOM     80  N7  UNL A   1      13.895  51.496   4.447  1.00  0.00    +0.000 N 
ATOM     81  C57 UNL A   1      13.984  47.586   2.329  1.00  0.00    +0.000 C 
ATOM     82  C58 UNL A   1      14.841  47.712   1.325  1.00  0.00    +0.000 C 
ATOM     83  C59 UNL A   1      16.139  55.789   3.109  1.00  0.00    +0.000 C 
ATOM     84  C60 UNL A   1      15.423  55.683   4.219  1.00  0.00    +0.000 C 
ATOM    119  H27 UNL A   1      18.485  53.326  -0.965  1.00  0.00    +0.000 H 
ATOM    120  H28 UNL A   1      18.029  50.825  -1.547  1.00  0.00    +0.000 H 
ATOM    121  H29 UNL A   1      15.797  51.810   1.799  1.00  0.00    +0.000 H 
ATOM    122  H30 UNL A   1      11.849  50.069   6.503  1.00  0.00    +0.000 H 
ATOM    123  H31 UNL A   1      12.210  52.533   7.005  1.00  0.00    +0.000 H 
ATOM    124  H32 UNL A   1      14.541  51.550   3.706  1.00  0.00    +0.000 H 
ATOM    125  H33 UNL A   1      13.435  46.760   2.615  1.00  0.00    +0.000 H 
ATOM    126  H34 UNL A   1      15.106  46.947   0.685  1.00  0.00    +0.000 H 
ATOM    127  H35 UNL A   1      16.578  56.662   2.779  1.00  0.00    +0.000 H 
ATOM    128  H36 UNL A   1      15.238  56.392   4.945  1.00  0.00    +0.000 H 
ENDROOT
BRANCH   28   27
ATOM    129  H37 UNL A   1      15.037  54.616   7.558  1.00  0.00    +0.000 H 
ATOM    130  H38 UNL A   1      14.124  56.159   9.189  1.00  0.00    +0.000 H 
ATOM     27  C22 UNL A   1      13.453  54.836   6.173  1.00  0.00    +0.000 C 
ATOM    117  H25 UNL A   1      10.895  56.973   6.619  1.00  0.00    +0.000 H 
ATOM     86  C62 UNL A   1      13.646  56.021   8.285  1.00  0.00    +0.000 C 
ATOM     85  C61 UNL A   1      14.147  55.103   7.364  1.00  0.00    +0.000 C 
ATOM     24  C19 UNL A   1      12.495  56.752   7.982  1.00  0.00    +0.000 C 
ATOM     25  C20 UNL A   1      11.773  56.469   6.818  1.00  0.00    +0.000 C 
ATOM     26  C21 UNL A   1      12.243  55.502   5.923  1.00  0.00    +0.000 C 
ATOM    118  H26 UNL A   1      11.698  55.278   5.076  1.00  0.00    +0.000 H 
BRANCH   24   22
ATOM     22  C18 UNL A   1      12.006  57.828   8.877  1.00  0.00    +0.000 C 
ATOM     23  O2  UNL A   1      12.592  58.903   8.903  1.00  0.00    +0.000 O 
BRANCH   22   21
ATOM    116  H24 UNL A   1      10.447  58.417   9.989  1.00  0.00    +0.000 H 
ATOM     21  N3  UNL A   1      10.926  57.607   9.699  1.00  0.00    +0.000 N 
BRANCH   21   20
ATOM    114  H22 UNL A   1       9.451  56.559  10.678  1.00  0.00    +0.000 H 
ATOM    115  H23 UNL A   1      10.284  55.699   9.365  1.00  0.00    +0.000 H 
ATOM     20  C17 UNL A   1      10.388  56.356  10.202  1.00  0.00    +0.000 C 
BRANCH   20   19
ATOM    113  H21 UNL A   1      10.821  55.792  12.156  1.00  0.00    +0.000 H 
ATOM     19  C16 UNL A   1      11.298  55.660  11.207  1.00  0.00    +0.000 C 
ATOM    112  H20 UNL A   1      12.268  56.104  11.130  1.00  0.00    +0.000 H 
BRANCH   19   18
ATOM     18  C15 UNL A   1      11.465  54.148  11.047  1.00  0.00    +0.000 C 
ATOM    110  H18 UNL A   1      11.119  53.691  11.951  1.00  0.00    +0.000 H 
ATOM    111  H19 UNL A   1      10.906  53.902  10.169  1.00  0.00    +0.000 H 
BRANCH   18   17
ATOM     17  C14 UNL A   1      12.876  53.623  10.776  1.00  0.00    +0.000 C 
ATOM    108  H16 UNL A   1      12.844  52.557  10.871  1.00  0.00    +0.000 H 
ATOM    109  H17 UNL A   1      13.119  53.993   9.802  1.00  0.00    +0.000 H 
BRANCH   17   16
ATOM    106  H14 UNL A   1      14.926  53.715  11.297  1.00  0.00    +0.000 H 
ATOM    107  H15 UNL A   1      13.942  55.193  11.631  1.00  0.00    +0.000 H 
ATOM     16  C13 UNL A   1      14.013  54.126  11.673  1.00  0.00    +0.000 C 
BRANCH   16   15
ATOM    105  H13 UNL A   1      13.160  54.400  13.569  1.00  0.00    +0.000 H 
ATOM     15  C12 UNL A   1      13.936  53.786  13.160  1.00  0.00    +0.000 C 
ATOM    104  H12 UNL A   1      14.896  53.973  13.594  1.00  0.00    +0.000 H 
BRANCH   15   14
ATOM     14  N2  UNL A   1      13.570  52.420  13.452  1.00  0.00    +0.000 N 
ATOM    103  H11 UNL A   1      12.641  52.296  13.754  1.00  0.00    +0.000 H 
BRANCH   14   12
ATOM     12  C11 UNL A   1      14.313  51.261  13.373  1.00  0.00    +0.000 C 
ATOM     13  O1  UNL A   1      14.695  50.784  14.441  1.00  0.00    +0.000 O 
BRANCH   12   11
ATOM      3  C2  UNL A   1      14.185  49.336  10.196  1.00  0.00    +0.000 C 
ATOM      4  C3  UNL A   1      13.597  49.803  11.367  1.00  0.00    +0.000 C 
ATOM    131  H39 UNL A   1      17.430  51.018  12.596  1.00  0.00    +0.000 H 
ATOM    134  H42 UNL A   1      16.146  49.388   8.209  1.00  0.00    +0.000 H 
ATOM    133  H41 UNL A   1      18.346  50.245   8.552  1.00  0.00    +0.000 H 
ATOM    132  H40 UNL A   1      19.014  50.938  10.842  1.00  0.00    +0.000 H 
ATOM     11  C10 UNL A   1      14.566  50.587  12.095  1.00  0.00    +0.000 C 
ATOM     87  C63 UNL A   1      15.758  50.428  11.396  1.00  0.00    +0.000 C 
ATOM     88  C64 UNL A   1      17.132  50.738  11.648  1.00  0.00    +0.000 C 
ATOM     89  C65 UNL A   1      18.037  50.668  10.654  1.00  0.00    +0.000 C 
ATOM     90  C66 UNL A   1      17.665  50.220   9.327  1.00  0.00    +0.000 C 
ATOM     91  C67 UNL A   1      16.416  49.773   9.127  1.00  0.00    +0.000 C 
ATOM     92  N8  UNL A   1      15.476  49.830  10.166  1.00  0.00    +0.000 N 
BRANCH    3    2
ATOM     97  H5  UNL A   1      14.097  48.694   8.198  1.00  0.00    +0.000 H 
ATOM      2  C1  UNL A   1      13.642  48.438   9.132  1.00  0.00    +0.000 C 
ATOM     96  H4  UNL A   1      12.581  48.562   9.074  1.00  0.00    +0.000 H 
BRANCH    2    1
ATOM      1  N1  UNL A   1      13.944  47.047   9.435  1.00  0.00    +0.000 N 
ATOM     93  H1  UNL A   1      14.183  46.959  10.422  1.00  0.00    +0.000 H 
ATOM     94  H2  UNL A   1      14.731  46.738   8.865  1.00  0.00    +0.000 H 
ATOM     95  H3  UNL A   1      13.128  46.470   9.229  1.00  0.00    +0.000 H 
ENDBRANCH    2    1
ENDBRANCH    3    2
BRANCH    4    5
ATOM     98  H6  UNL A   1      12.708  47.751  12.839  1.00  0.00    +0.000 H 
ATOM     99  H7  UNL A   1      10.414  47.238  13.444  1.00  0.00    +0.000 H 
ATOM    100  H8  UNL A   1       8.607  48.672  12.694  1.00  0.00    +0.000 H 
ATOM      5  C4  UNL A   1      12.224  49.483  11.731  1.00  0.00    +0.000 C 
ATOM    102  H10 UNL A   1      11.376  51.122  10.701  1.00  0.00    +0.000 H 
ATOM      6  C5  UNL A   1      11.942  48.361  12.516  1.00  0.00    +0.000 C 
ATOM      7  C6  UNL A   1      10.620  48.067  12.865  1.00  0.00    +0.000 C 
ATOM      9  C8  UNL A   1       9.856  50.006  11.644  1.00  0.00    +0.000 C 
ATOM     10  C9  UNL A   1      11.174  50.299  11.290  1.00  0.00    +0.000 C 
ATOM    101  H9  UNL A   1       9.088  50.615  11.323  1.00  0.00    +0.000 H 
ATOM      8  C7  UNL A   1       9.580  48.890  12.431  1.00  0.00    +0.000 C 
ENDBRANCH    4    5
ENDBRANCH   12   11
ENDBRANCH   14   12
ENDBRANCH   15   14
ENDBRANCH   16   15
ENDBRANCH   17   16
ENDBRANCH   18   17
ENDBRANCH   19   18
ENDBRANCH   20   19
ENDBRANCH   21   20
ENDBRANCH   22   21
ENDBRANCH   24   22
ENDBRANCH   28   27
BRANCH   32   33
ATOM     33  C27 UNL A   1      17.720  55.467   0.740  1.00  0.00    +0.000 C 
ATOM     34  C28 UNL A   1      18.996  55.819   1.204  1.00  0.00    +0.000 C 
ATOM     35  F1  UNL A   1      19.563  55.133   2.206  1.00  0.00    +0.000 F 
ATOM     36  C29 UNL A   1      19.677  56.910   0.668  1.00  0.00    +0.000 C 
ATOM     37  F2  UNL A   1      20.871  57.260   1.164  1.00  0.00    +0.000 F 
ATOM     38  C30 UNL A   1      19.113  57.644  -0.364  1.00  0.00    +0.000 C 
ATOM     39  F3  UNL A   1      19.771  58.691  -0.880  1.00  0.00    +0.000 F 
ATOM     40  C31 UNL A   1      17.863  57.298  -0.855  1.00  0.00    +0.000 C 
ATOM     41  F4  UNL A   1      17.322  58.000  -1.861  1.00  0.00    +0.000 F 
ATOM     42  C32 UNL A   1      17.167  56.227  -0.302  1.00  0.00    +0.000 C 
ATOM     43  F5  UNL A   1      15.953  55.927  -0.787  1.00  0.00    +0.000 F 
ENDBRANCH   32   33
BRANCH   49   50
ATOM     50  C38 UNL A   1      16.722  48.479  -0.699  1.00  0.00    +0.000 C 
ATOM     51  C39 UNL A   1      17.953  47.828  -0.537  1.00  0.00    +0.000 C 
ATOM     52  F6  UNL A   1      18.758  48.153   0.485  1.00  0.00    +0.000 F 
ATOM     53  C40 UNL A   1      18.372  46.857  -1.444  1.00  0.00    +0.000 C 
ATOM     54  F7  UNL A   1      19.566  46.270  -1.290  1.00  0.00    +0.000 F 
ATOM     55  C41 UNL A   1      17.559  46.503  -2.510  1.00  0.00    +0.000 C 
ATOM     56  F8  UNL A   1      17.959  45.560  -3.375  1.00  0.00    +0.000 F 
ATOM     57  C42 UNL A   1      16.333  47.128  -2.684  1.00  0.00    +0.000 C 
ATOM     58  F9  UNL A   1      15.541  46.779  -3.707  1.00  0.00    +0.000 F 
ATOM     59  C43 UNL A   1      15.922  48.115  -1.793  1.00  0.00    +0.000 C 
ATOM     60  F10 UNL A   1      14.734  48.707  -1.988  1.00  0.00    +0.000 F 
ENDBRANCH   49   50
BRANCH   64   65
ATOM     65  C47 UNL A   1      12.375  48.045   4.731  1.00  0.00    +0.000 C 
ATOM     66  C48 UNL A   1      12.914  47.176   5.691  1.00  0.00    +0.000 C 
ATOM     67  F11 UNL A   1      14.189  47.320   6.082  1.00  0.00    +0.000 F 
ATOM     68  C49 UNL A   1      12.159  46.134   6.223  1.00  0.00    +0.000 C 
ATOM     69  F12 UNL A   1      12.711  45.295   7.110  1.00  0.00    +0.000 F 
ATOM     70  C50 UNL A   1      10.843  45.955   5.826  1.00  0.00    +0.000 C 
ATOM     71  F13 UNL A   1      10.115  44.955   6.342  1.00  0.00    +0.000 F 
ATOM     72  C51 UNL A   1      10.283  46.810   4.889  1.00  0.00    +0.000 C 
ATOM     73  F14 UNL A   1       9.008  46.649   4.511  1.00  0.00    +0.000 F 
ATOM     74  C52 UNL A   1      11.046  47.839   4.337  1.00  0.00    +0.000 C 
ATOM     75  F15 UNL A   1      10.482  48.645   3.425  1.00  0.00    +0.000 F 
ENDBRANCH   64   65
TORSDOF 18
ENDMDL
