MODEL 1
REMARK VINA RESULT:     -11.4      0.000      0.000
ROOT
ATOM     30  C24 UNL A   1      40.803  27.744  29.065  1.00  0.00    +0.000 C 
ATOM     31  C25 UNL A   1      40.979  26.327  28.508  1.00  0.00    +0.000 C 
ATOM     32  N4  UNL A   1      41.741  25.355  28.913  1.00  0.00    +0.000 N 
ATOM     33  C26 UNL A   1      41.603  24.302  27.985  1.00  0.00    +0.000 C 
ATOM     34  C27 UNL A   1      42.462  23.246  27.899  1.00  0.00    +0.000 C 
ATOM     46  C34 UNL A   1      43.465  23.311  28.906  1.00  0.00    +0.000 C 
ATOM     47  C35 UNL A   1      43.489  23.011  30.241  1.00  0.00    +0.000 C 
ATOM     48  C36 UNL A   1      44.519  23.819  30.775  1.00  0.00    +0.000 C 
ATOM     49  C37 UNL A   1      45.104  24.552  29.739  1.00  0.00    +0.000 C 
ATOM     50  N5  UNL A   1      44.625  23.972  28.589  1.00  0.00    +0.000 N 
ATOM     51  C38 UNL A   1      45.845  25.788  29.606  1.00  0.00    +0.000 C 
ATOM     63  C45 UNL A   1      46.056  26.516  30.730  1.00  0.00    +0.000 C 
ATOM     64  N6  UNL A   1      45.890  27.884  30.701  1.00  0.00    +0.000 N 
ATOM     65  C46 UNL A   1      45.207  28.114  31.784  1.00  0.00    +0.000 C 
ATOM     66  C47 UNL A   1      44.452  29.353  32.060  1.00  0.00    +0.000 C 
ATOM     78  C54 UNL A   1      43.346  29.309  31.253  1.00  0.00    +0.000 C 
ATOM     79  C55 UNL A   1      42.307  30.310  31.105  1.00  0.00    +0.000 C 
ATOM     80  C56 UNL A   1      41.339  29.852  30.291  1.00  0.00    +0.000 C 
ATOM     81  C57 UNL A   1      41.646  28.488  29.835  1.00  0.00    +0.000 C 
ATOM     82  N7  UNL A   1      42.892  28.274  30.395  1.00  0.00    +0.000 N 
ATOM     83  C58 UNL A   1      45.139  27.011  32.751  1.00  0.00    +0.000 C 
ATOM     84  C59 UNL A   1      45.859  26.104  32.098  1.00  0.00    +0.000 C 
ATOM     85  C60 UNL A   1      40.522  24.662  27.115  1.00  0.00    +0.000 C 
ATOM     86  C61 UNL A   1      40.134  25.915  27.356  1.00  0.00    +0.000 C 
ATOM    114  H26 UNL A   1      42.887  22.343  30.748  1.00  0.00    +0.000 H 
ATOM    115  H27 UNL A   1      44.795  23.861  31.769  1.00  0.00    +0.000 H 
ATOM    116  H28 UNL A   1      45.039  24.022  27.697  1.00  0.00    +0.000 H 
ATOM    117  H29 UNL A   1      42.311  31.237  31.558  1.00  0.00    +0.000 H 
ATOM    118  H30 UNL A   1      40.496  30.385  30.023  1.00  0.00    +0.000 H 
ATOM    119  H31 UNL A   1      43.423  27.465  30.214  1.00  0.00    +0.000 H 
ATOM    120  H32 UNL A   1      44.670  26.956  33.669  1.00  0.00    +0.000 H 
ATOM    121  H33 UNL A   1      46.224  25.231  32.510  1.00  0.00    +0.000 H 
ATOM    122  H34 UNL A   1      40.105  24.041  26.405  1.00  0.00    +0.000 H 
ATOM    123  H35 UNL A   1      39.418  26.467  26.860  1.00  0.00    +0.000 H 
ENDROOT
BRANCH   30   29
ATOM    124  H36 UNL A   1      38.476  27.756  30.464  1.00  0.00    +0.000 H 
ATOM     29  C23 UNL A   1      39.498  28.354  28.708  1.00  0.00    +0.000 C 
ATOM    112  H24 UNL A   1      38.173  30.328  26.351  1.00  0.00    +0.000 H 
ATOM    113  H25 UNL A   1      40.182  29.060  26.835  1.00  0.00    +0.000 H 
ATOM     87  C62 UNL A   1      38.414  28.313  29.598  1.00  0.00    +0.000 C 
ATOM     88  C63 UNL A   1      37.253  29.028  29.307  1.00  0.00    +0.000 C 
ATOM     26  C20 UNL A   1      37.187  29.806  28.147  1.00  0.00    +0.000 C 
ATOM     27  C21 UNL A   1      38.247  29.796  27.232  1.00  0.00    +0.000 C 
ATOM     28  C22 UNL A   1      39.401  29.070  27.509  1.00  0.00    +0.000 C 
ATOM    125  H37 UNL A   1      36.444  28.983  29.946  1.00  0.00    +0.000 H 
BRANCH   26   24
ATOM     25  O2  UNL A   1      36.043  31.822  27.832  1.00  0.00    +0.000 O 
ATOM     24  C19 UNL A   1      35.990  30.602  27.793  1.00  0.00    +0.000 C 
BRANCH   24   23
ATOM    111  H23 UNL A   1      34.859  29.032  27.239  1.00  0.00    +0.000 H 
ATOM     23  N3  UNL A   1      34.806  29.992  27.446  1.00  0.00    +0.000 N 
BRANCH   23   22
ATOM    110  H22 UNL A   1      33.490  31.294  26.541  1.00  0.00    +0.000 H 
ATOM    109  H21 UNL A   1      33.257  31.085  28.272  1.00  0.00    +0.000 H 
ATOM     22  C18 UNL A   1      33.485  30.594  27.349  1.00  0.00    +0.000 C 
BRANCH   22   21
ATOM    107  H19 UNL A   1      31.667  29.608  27.829  1.00  0.00    +0.000 H 
ATOM    108  H20 UNL A   1      32.037  29.735  26.089  1.00  0.00    +0.000 H 
ATOM     21  C17 UNL A   1      32.418  29.536  27.070  1.00  0.00    +0.000 C 
BRANCH   21   20
ATOM    105  H17 UNL A   1      33.955  28.116  26.700  1.00  0.00    +0.000 H 
ATOM    106  H18 UNL A   1      32.849  27.731  28.054  1.00  0.00    +0.000 H 
ATOM     20  C16 UNL A   1      32.945  28.094  27.052  1.00  0.00    +0.000 C 
BRANCH   20   19
ATOM     19  C15 UNL A   1      32.155  27.123  26.169  1.00  0.00    +0.000 C 
ATOM    103  H15 UNL A   1      31.146  27.104  26.521  1.00  0.00    +0.000 H 
ATOM    104  H16 UNL A   1      32.253  27.487  25.168  1.00  0.00    +0.000 H 
BRANCH   19   18
ATOM     18  C14 UNL A   1      32.679  25.681  26.150  1.00  0.00    +0.000 C 
ATOM    101  H13 UNL A   1      32.753  25.341  27.161  1.00  0.00    +0.000 H 
ATOM    102  H14 UNL A   1      31.985  25.118  25.561  1.00  0.00    +0.000 H 
BRANCH   18   17
ATOM     17  C13 UNL A   1      34.045  25.499  25.488  1.00  0.00    +0.000 C 
ATOM     99  H11 UNL A   1      34.721  26.232  25.876  1.00  0.00    +0.000 H 
ATOM    100  H12 UNL A   1      34.395  24.510  25.703  1.00  0.00    +0.000 H 
BRANCH   17   16
ATOM     98  H10 UNL A   1      34.127  26.534  23.656  1.00  0.00    +0.000 H 
ATOM     16  N2  UNL A   1      33.959  25.649  24.052  1.00  0.00    +0.000 N 
BRANCH   16    2
ATOM      1  O1  UNL A   1      34.160  23.481  23.316  1.00  0.00    +0.000 O 
ATOM      2  C1  UNL A   1      33.650  24.593  23.218  1.00  0.00    +0.000 C 
BRANCH    2    3
ATOM     89  H1  UNL A   1      32.367  24.058  21.620  1.00  0.00    +0.000 H 
ATOM     90  H2  UNL A   1      33.151  25.643  21.467  1.00  0.00    +0.000 H 
ATOM      3  C2  UNL A   1      32.661  24.955  22.123  1.00  0.00    +0.000 C 
BRANCH    3    4
ATOM     97  H9  UNL A   1      31.598  27.616  21.823  1.00  0.00    +0.000 H 
ATOM      4  C3  UNL A   1      31.431  25.635  22.639  1.00  0.00    +0.000 C 
ATOM      5  C4  UNL A   1      30.424  25.097  23.483  1.00  0.00    +0.000 C 
ATOM      6  C5  UNL A   1      29.535  26.106  23.772  1.00  0.00    +0.000 C 
ATOM      7  N1  UNL A   1      29.936  27.262  23.133  1.00  0.00    +0.000 N 
ATOM     15  C12 UNL A   1      31.080  26.957  22.424  1.00  0.00    +0.000 C 
ATOM     91  H3  UNL A   1      30.368  24.123  23.819  1.00  0.00    +0.000 H 
ATOM     92  H4  UNL A   1      28.700  26.015  24.374  1.00  0.00    +0.000 H 
BRANCH    7    8
ATOM      8  C6  UNL A   1      29.306  28.530  23.230  1.00  0.00    +0.000 C 
ATOM      9  C7  UNL A   1      27.948  28.663  22.899  1.00  0.00    +0.000 C 
ATOM     10  C8  UNL A   1      27.313  29.903  23.016  1.00  0.00    +0.000 C 
ATOM     11  C9  UNL A   1      28.030  31.021  23.438  1.00  0.00    +0.000 C 
ATOM     12  C10 UNL A   1      29.381  30.897  23.757  1.00  0.00    +0.000 C 
ATOM     13  C11 UNL A   1      30.010  29.657  23.665  1.00  0.00    +0.000 C 
ATOM     14  F1  UNL A   1      31.320  29.607  23.944  1.00  0.00    +0.000 F 
ATOM     93  H5  UNL A   1      27.416  27.842  22.568  1.00  0.00    +0.000 H 
ATOM     94  H6  UNL A   1      26.310  29.991  22.788  1.00  0.00    +0.000 H 
ATOM     95  H7  UNL A   1      27.562  31.938  23.514  1.00  0.00    +0.000 H 
ATOM     96  H8  UNL A   1      29.916  31.726  24.062  1.00  0.00    +0.000 H 
ENDBRANCH    7    8
ENDBRANCH    3    4
ENDBRANCH    2    3
ENDBRANCH   16    2
ENDBRANCH   17   16
ENDBRANCH   18   17
ENDBRANCH   19   18
ENDBRANCH   20   19
ENDBRANCH   21   20
ENDBRANCH   22   21
ENDBRANCH   23   22
ENDBRANCH   24   23
ENDBRANCH   26   24
ENDBRANCH   30   29
BRANCH   34   35
ATOM     35  C28 UNL A   1      42.626  22.201  26.829  1.00  0.00    +0.000 C 
ATOM     36  C29 UNL A   1      43.552  22.309  25.782  1.00  0.00    +0.000 C 
ATOM     37  F2  UNL A   1      44.171  23.468  25.523  1.00  0.00    +0.000 F 
ATOM     38  C30 UNL A   1      43.941  21.192  25.033  1.00  0.00    +0.000 C 
ATOM     39  F3  UNL A   1      44.857  21.330  24.065  1.00  0.00    +0.000 F 
ATOM     40  C31 UNL A   1      43.441  19.934  25.328  1.00  0.00    +0.000 C 
ATOM     41  F4  UNL A   1      43.894  18.856  24.675  1.00  0.00    +0.000 F 
ATOM     42  C32 UNL A   1      42.498  19.797  26.326  1.00  0.00    +0.000 C 
ATOM     43  F5  UNL A   1      42.032  18.581  26.646  1.00  0.00    +0.000 F 
ATOM     44  C33 UNL A   1      42.074  20.914  27.044  1.00  0.00    +0.000 C 
ATOM     45  F6  UNL A   1      41.158  20.714  28.004  1.00  0.00    +0.000 F 
ENDBRANCH   34   35
BRANCH   51   52
ATOM     52  C39 UNL A   1      45.992  26.598  28.337  1.00  0.00    +0.000 C 
ATOM     53  C40 UNL A   1      44.901  27.150  27.647  1.00  0.00    +0.000 C 
ATOM     54  F7  UNL A   1      43.655  26.873  28.024  1.00  0.00    +0.000 F 
ATOM     55  C41 UNL A   1      45.057  27.997  26.551  1.00  0.00    +0.000 C 
ATOM     56  F8  UNL A   1      43.977  28.479  25.917  1.00  0.00    +0.000 F 
ATOM     57  C42 UNL A   1      46.324  28.335  26.121  1.00  0.00    +0.000 C 
ATOM     58  F9  UNL A   1      46.480  29.150  25.069  1.00  0.00    +0.000 F 
ATOM     59  C43 UNL A   1      47.427  27.813  26.778  1.00  0.00    +0.000 C 
ATOM     60  F10 UNL A   1      48.659  28.135  26.361  1.00  0.00    +0.000 F 
ATOM     61  C44 UNL A   1      47.264  26.952  27.868  1.00  0.00    +0.000 C 
ATOM     62  F11 UNL A   1      48.359  26.466  28.473  1.00  0.00    +0.000 F 
ENDBRANCH   51   52
BRANCH   66   67
ATOM     67  C48 UNL A   1      44.982  30.261  33.156  1.00  0.00    +0.000 C 
ATOM     68  C49 UNL A   1      46.270  30.858  33.034  1.00  0.00    +0.000 C 
ATOM     69  F12 UNL A   1      46.957  30.821  31.885  1.00  0.00    +0.000 F 
ATOM     70  C50 UNL A   1      46.918  31.523  34.078  1.00  0.00    +0.000 C 
ATOM     71  F13 UNL A   1      48.169  31.975  33.905  1.00  0.00    +0.000 F 
ATOM     72  C51 UNL A   1      46.282  31.697  35.283  1.00  0.00    +0.000 C 
ATOM     73  F14 UNL A   1      46.905  32.309  36.297  1.00  0.00    +0.000 F 
ATOM     74  C52 UNL A   1      44.983  31.247  35.414  1.00  0.00    +0.000 C 
ATOM     75  F15 UNL A   1      44.325  31.467  36.561  1.00  0.00    +0.000 F 
ATOM     76  C53 UNL A   1      44.343  30.556  34.369  1.00  0.00    +0.000 C 
ATOM     77  F16 UNL A   1      43.068  30.228  34.585  1.00  0.00    +0.000 F 
ENDBRANCH   66   67
TORSDOF 17
ENDMDL
MODEL 2
REMARK VINA RESULT:     -11.3      1.872      4.106
ROOT
ATOM     30  C24 UNL A   1      40.793  27.781  29.117  1.00  0.00    +0.000 C 
ATOM     31  C25 UNL A   1      40.972  26.366  28.557  1.00  0.00    +0.000 C 
ATOM     32  N4  UNL A   1      41.741  25.397  28.956  1.00  0.00    +0.000 N 
ATOM     33  C26 UNL A   1      41.603  24.345  28.028  1.00  0.00    +0.000 C 
ATOM     34  C27 UNL A   1      42.466  23.293  27.935  1.00  0.00    +0.000 C 
ATOM     46  C34 UNL A   1      43.476  23.361  28.935  1.00  0.00    +0.000 C 
ATOM     47  C35 UNL A   1      43.509  23.060  30.271  1.00  0.00    +0.000 C 
ATOM     48  C36 UNL A   1      44.538  23.872  30.800  1.00  0.00    +0.000 C 
ATOM     49  C37 UNL A   1      45.113  24.609  29.761  1.00  0.00    +0.000 C 
ATOM     50  N5  UNL A   1      44.630  24.028  28.613  1.00  0.00    +0.000 N 
ATOM     51  C38 UNL A   1      45.847  25.849  29.625  1.00  0.00    +0.000 C 
ATOM     63  C45 UNL A   1      46.061  26.577  30.749  1.00  0.00    +0.000 C 
ATOM     64  N6  UNL A   1      45.888  27.944  30.723  1.00  0.00    +0.000 N 
ATOM     65  C46 UNL A   1      45.210  28.169  31.810  1.00  0.00    +0.000 C 
ATOM     66  C47 UNL A   1      44.451  29.403  32.093  1.00  0.00    +0.000 C 
ATOM     78  C54 UNL A   1      43.340  29.356  31.292  1.00  0.00    +0.000 C 
ATOM     79  C55 UNL A   1      42.296  30.351  31.152  1.00  0.00    +0.000 C 
ATOM     80  C56 UNL A   1      41.325  29.890  30.343  1.00  0.00    +0.000 C 
ATOM     81  C57 UNL A   1      41.636  28.528  29.883  1.00  0.00    +0.000 C 
ATOM     82  N7  UNL A   1      42.887  28.320  30.436  1.00  0.00    +0.000 N 
ATOM     83  C58 UNL A   1      45.153  27.064  32.776  1.00  0.00    +0.000 C 
ATOM     84  C59 UNL A   1      45.874  26.162  32.117  1.00  0.00    +0.000 C 
ATOM     85  C60 UNL A   1      40.516  24.700  27.164  1.00  0.00    +0.000 C 
ATOM     86  C61 UNL A   1      40.123  25.951  27.409  1.00  0.00    +0.000 C 
ATOM    114  H26 UNL A   1      42.913  22.388  30.779  1.00  0.00    +0.000 H 
ATOM    115  H27 UNL A   1      44.819  23.914  31.792  1.00  0.00    +0.000 H 
ATOM    116  H28 UNL A   1      45.039  24.082  27.719  1.00  0.00    +0.000 H 
ATOM    117  H29 UNL A   1      42.297  31.278  31.606  1.00  0.00    +0.000 H 
ATOM    118  H30 UNL A   1      40.478  30.419  30.081  1.00  0.00    +0.000 H 
ATOM    119  H31 UNL A   1      43.421  27.514  30.250  1.00  0.00    +0.000 H 
ATOM    120  H32 UNL A   1      44.691  27.006  33.697  1.00  0.00    +0.000 H 
ATOM    121  H33 UNL A   1      46.246  25.290  32.527  1.00  0.00    +0.000 H 
ATOM    122  H34 UNL A   1      40.097  24.078  26.456  1.00  0.00    +0.000 H 
ATOM    123  H35 UNL A   1      39.400  26.500  26.918  1.00  0.00    +0.000 H 
ENDROOT
BRANCH   30   29
ATOM    124  H36 UNL A   1      38.469  27.764  30.522  1.00  0.00    +0.000 H 
ATOM     29  C23 UNL A   1      39.483  28.385  28.768  1.00  0.00    +0.000 C 
ATOM    112  H24 UNL A   1      38.138  30.371  26.432  1.00  0.00    +0.000 H 
ATOM    113  H25 UNL A   1      40.157  29.112  26.900  1.00  0.00    +0.000 H 
ATOM     87  C62 UNL A   1      38.401  28.328  29.660  1.00  0.00    +0.000 C 
ATOM     88  C63 UNL A   1      37.234  29.038  29.378  1.00  0.00    +0.000 C 
ATOM     26  C20 UNL A   1      37.160  29.826  28.226  1.00  0.00    +0.000 C 
ATOM     27  C21 UNL A   1      38.218  29.831  27.308  1.00  0.00    +0.000 C 
ATOM     28  C22 UNL A   1      39.377  29.111  27.576  1.00  0.00    +0.000 C 
ATOM    125  H37 UNL A   1      36.427  28.982  30.019  1.00  0.00    +0.000 H 
BRANCH   26   24
ATOM     25  O2  UNL A   1      36.020  31.836  27.868  1.00  0.00    +0.000 O 
ATOM     24  C19 UNL A   1      35.956  30.617  27.881  1.00  0.00    +0.000 C 
BRANCH   24   23
ATOM    111  H23 UNL A   1      34.085  30.023  28.322  1.00  0.00    +0.000 H 
ATOM     23  N3  UNL A   1      34.757  30.003  27.603  1.00  0.00    +0.000 N 
BRANCH   23   22
ATOM    110  H22 UNL A   1      35.240  29.111  25.810  1.00  0.00    +0.000 H 
ATOM    109  H21 UNL A   1      33.704  29.969  25.824  1.00  0.00    +0.000 H 
ATOM     22  C18 UNL A   1      34.360  29.329  26.377  1.00  0.00    +0.000 C 
BRANCH   22   21
ATOM    107  H19 UNL A   1      33.412  27.536  25.749  1.00  0.00    +0.000 H 
ATOM    108  H20 UNL A   1      34.297  27.438  27.294  1.00  0.00    +0.000 H 
ATOM     21  C17 UNL A   1      33.639  28.016  26.679  1.00  0.00    +0.000 C 
BRANCH   21   20
ATOM    105  H17 UNL A   1      32.446  27.679  28.405  1.00  0.00    +0.000 H 
ATOM    106  H18 UNL A   1      32.172  29.233  27.560  1.00  0.00    +0.000 H 
ATOM     20  C16 UNL A   1      32.332  28.179  27.466  1.00  0.00    +0.000 C 
BRANCH   20   19
ATOM     19  C15 UNL A   1      31.083  27.620  26.778  1.00  0.00    +0.000 C 
ATOM    103  H15 UNL A   1      30.792  26.729  27.295  1.00  0.00    +0.000 H 
ATOM    104  H16 UNL A   1      30.350  28.398  26.819  1.00  0.00    +0.000 H 
BRANCH   19   18
ATOM     18  C14 UNL A   1      31.252  27.273  25.293  1.00  0.00    +0.000 C 
ATOM    101  H13 UNL A   1      30.887  28.097  24.716  1.00  0.00    +0.000 H 
ATOM    102  H14 UNL A   1      32.295  27.082  25.147  1.00  0.00    +0.000 H 
BRANCH   18   17
ATOM     17  C13 UNL A   1      30.519  26.012  24.836  1.00  0.00    +0.000 C 
ATOM     99  H11 UNL A   1      29.603  26.295  24.359  1.00  0.00    +0.000 H 
ATOM    100  H12 UNL A   1      31.151  25.482  24.155  1.00  0.00    +0.000 H 
BRANCH   17   16
ATOM     98  H10 UNL A   1      29.519  25.409  26.588  1.00  0.00    +0.000 H 
ATOM     16  N2  UNL A   1      30.221  25.143  25.952  1.00  0.00    +0.000 N 
BRANCH   16    2
ATOM      1  O1  UNL A   1      30.479  22.868  25.744  1.00  0.00    +0.000 O 
ATOM      2  C1  UNL A   1      30.887  23.950  26.156  1.00  0.00    +0.000 C 
BRANCH    2    3
ATOM     89  H1  UNL A   1      32.106  23.387  27.793  1.00  0.00    +0.000 H 
ATOM     90  H2  UNL A   1      32.177  25.104  27.348  1.00  0.00    +0.000 H 
ATOM      3  C2  UNL A   1      32.146  24.095  26.992  1.00  0.00    +0.000 C 
BRANCH    3    4
ATOM     97  H9  UNL A   1      34.079  21.960  26.954  1.00  0.00    +0.000 H 
ATOM      4  C3  UNL A   1      33.404  23.861  26.214  1.00  0.00    +0.000 C 
ATOM      5  C4  UNL A   1      34.005  24.709  25.247  1.00  0.00    +0.000 C 
ATOM      6  C5  UNL A   1      35.192  24.132  24.862  1.00  0.00    +0.000 C 
ATOM      7  N1  UNL A   1      35.361  22.942  25.541  1.00  0.00    +0.000 N 
ATOM     15  C12 UNL A   1      34.252  22.774  26.345  1.00  0.00    +0.000 C 
ATOM     91  H3  UNL A   1      33.619  25.600  24.896  1.00  0.00    +0.000 H 
ATOM     92  H4  UNL A   1      35.854  24.527  24.174  1.00  0.00    +0.000 H 
BRANCH    7    8
ATOM      8  C6  UNL A   1      36.488  22.084  25.452  1.00  0.00    +0.000 C 
ATOM      9  C7  UNL A   1      37.757  22.557  25.822  1.00  0.00    +0.000 C 
ATOM     10  C8  UNL A   1      38.869  21.712  25.763  1.00  0.00    +0.000 C 
ATOM     11  C9  UNL A   1      38.728  20.401  25.312  1.00  0.00    +0.000 C 
ATOM     12  C10 UNL A   1      37.474  19.929  24.932  1.00  0.00    +0.000 C 
ATOM     13  C11 UNL A   1      36.360  20.762  25.015  1.00  0.00    +0.000 C 
ATOM     14  F1  UNL A   1      35.186  20.268  24.597  1.00  0.00    +0.000 F 
ATOM     93  H5  UNL A   1      37.870  23.533  26.139  1.00  0.00    +0.000 H 
ATOM     94  H6  UNL A   1      39.796  22.060  26.052  1.00  0.00    +0.000 H 
ATOM     95  H7  UNL A   1      39.553  19.781  25.259  1.00  0.00    +0.000 H 
ATOM     96  H8  UNL A   1      37.369  18.961  24.590  1.00  0.00    +0.000 H 
ENDBRANCH    7    8
ENDBRANCH    3    4
ENDBRANCH    2    3
ENDBRANCH   16    2
ENDBRANCH   17   16
ENDBRANCH   18   17
ENDBRANCH   19   18
ENDBRANCH   20   19
ENDBRANCH   21   20
ENDBRANCH   22   21
ENDBRANCH   23   22
ENDBRANCH   24   23
ENDBRANCH   26   24
ENDBRANCH   30   29
BRANCH   34   35
ATOM     35  C28 UNL A   1      42.629  22.250  26.862  1.00  0.00    +0.000 C 
ATOM     36  C29 UNL A   1      43.554  22.361  25.813  1.00  0.00    +0.000 C 
ATOM     37  F2  UNL A   1      44.171  23.521  25.556  1.00  0.00    +0.000 F 
ATOM     38  C30 UNL A   1      43.942  21.246  25.062  1.00  0.00    +0.000 C 
ATOM     39  F3  UNL A   1      44.856  21.386  24.092  1.00  0.00    +0.000 F 
ATOM     40  C31 UNL A   1      43.444  19.987  25.355  1.00  0.00    +0.000 C 
ATOM     41  F4  UNL A   1      43.897  18.911  24.699  1.00  0.00    +0.000 F 
ATOM     42  C32 UNL A   1      42.503  19.847  26.355  1.00  0.00    +0.000 C 
ATOM     43  F5  UNL A   1      42.038  18.630  26.673  1.00  0.00    +0.000 F 
ATOM     44  C33 UNL A   1      42.080  20.963  27.075  1.00  0.00    +0.000 C 
ATOM     45  F6  UNL A   1      41.165  20.759  28.037  1.00  0.00    +0.000 F 
ENDBRANCH   34   35
BRANCH   51   52
ATOM     52  C39 UNL A   1      45.983  26.662  28.356  1.00  0.00    +0.000 C 
ATOM     53  C40 UNL A   1      44.885  27.214  27.676  1.00  0.00    +0.000 C 
ATOM     54  F7  UNL A   1      43.643  26.934  28.063  1.00  0.00    +0.000 F 
ATOM     55  C41 UNL A   1      45.031  28.062  26.581  1.00  0.00    +0.000 C 
ATOM     56  F8  UNL A   1      43.945  28.544  25.957  1.00  0.00    +0.000 F 
ATOM     57  C42 UNL A   1      46.294  28.403  26.141  1.00  0.00    +0.000 C 
ATOM     58  F9  UNL A   1      46.441  29.220  25.090  1.00  0.00    +0.000 F 
ATOM     59  C43 UNL A   1      47.403  27.881  26.789  1.00  0.00    +0.000 C 
ATOM     60  F10 UNL A   1      48.631  28.206  26.362  1.00  0.00    +0.000 F 
ATOM     61  C44 UNL A   1      47.251  27.019  27.879  1.00  0.00    +0.000 C 
ATOM     62  F11 UNL A   1      48.351  26.533  28.473  1.00  0.00    +0.000 F 
ENDBRANCH   51   52
BRANCH   66   67
ATOM     67  C48 UNL A   1      44.983  30.313  33.187  1.00  0.00    +0.000 C 
ATOM     68  C49 UNL A   1      44.253  30.481  34.399  1.00  0.00    +0.000 C 
ATOM     69  F12 UNL A   1      43.212  29.698  34.707  1.00  0.00    +0.000 F 
ATOM     70  C50 UNL A   1      44.553  31.454  35.356  1.00  0.00    +0.000 C 
ATOM     71  F13 UNL A   1      43.759  31.602  36.426  1.00  0.00    +0.000 F 
ATOM     72  C51 UNL A   1      45.649  32.265  35.192  1.00  0.00    +0.000 C 
ATOM     73  F14 UNL A   1      45.929  33.217  36.090  1.00  0.00    +0.000 F 
ATOM     74  C52 UNL A   1      46.462  32.062  34.095  1.00  0.00    +0.000 C 
ATOM     75  F15 UNL A   1      47.571  32.801  33.953  1.00  0.00    +0.000 F 
ATOM     76  C53 UNL A   1      46.143  31.098  33.120  1.00  0.00    +0.000 C 
ATOM     77  F16 UNL A   1      47.036  30.945  32.141  1.00  0.00    +0.000 F 
ENDBRANCH   66   67
TORSDOF 17
ENDMDL
MODEL 3
REMARK VINA RESULT:     -11.3     24.093     32.783
ROOT
ATOM     30  C24 UNL A   1      25.397  17.786   2.604  1.00  0.00    +0.000 C 
ATOM     31  C25 UNL A   1      26.011  18.309   3.907  1.00  0.00    +0.000 C 
ATOM     32  N4  UNL A   1      26.163  17.723   5.057  1.00  0.00    +0.000 N 
ATOM     33  C26 UNL A   1      26.683  18.682   5.949  1.00  0.00    +0.000 C 
ATOM     34  C27 UNL A   1      26.691  18.536   7.306  1.00  0.00    +0.000 C 
ATOM     46  C34 UNL A   1      26.173  17.269   7.693  1.00  0.00    +0.000 C 
ATOM     47  C35 UNL A   1      26.688  16.001   7.717  1.00  0.00    +0.000 C 
ATOM     48  C36 UNL A   1      25.563  15.151   7.620  1.00  0.00    +0.000 C 
ATOM     49  C37 UNL A   1      24.406  15.933   7.576  1.00  0.00    +0.000 C 
ATOM     50  N5  UNL A   1      24.824  17.194   7.931  1.00  0.00    +0.000 N 
ATOM     51  C38 UNL A   1      23.053  15.791   7.083  1.00  0.00    +0.000 C 
ATOM     63  C45 UNL A   1      22.732  14.633   6.455  1.00  0.00    +0.000 C 
ATOM     64  N6  UNL A   1      21.991  14.666   5.294  1.00  0.00    +0.000 N 
ATOM     65  C46 UNL A   1      22.630  13.837   4.521  1.00  0.00    +0.000 C 
ATOM     66  C47 UNL A   1      22.482  13.764   3.054  1.00  0.00    +0.000 C 
ATOM     78  C54 UNL A   1      23.113  14.873   2.554  1.00  0.00    +0.000 C 
ATOM     79  C55 UNL A   1      23.213  15.298   1.172  1.00  0.00    +0.000 C 
ATOM     80  C56 UNL A   1      24.001  16.384   1.080  1.00  0.00    +0.000 C 
ATOM     81  C57 UNL A   1      24.511  16.770   2.404  1.00  0.00    +0.000 C 
ATOM     82  N7  UNL A   1      23.873  15.862   3.230  1.00  0.00    +0.000 N 
ATOM     83  C58 UNL A   1      23.621  12.975   5.178  1.00  0.00    +0.000 C 
ATOM     84  C59 UNL A   1      23.489  13.406   6.429  1.00  0.00    +0.000 C 
ATOM     85  C60 UNL A   1      27.028  19.829   5.162  1.00  0.00    +0.000 C 
ATOM     86  C61 UNL A   1      26.592  19.677   3.911  1.00  0.00    +0.000 C 
ATOM    114  H26 UNL A   1      27.680  15.727   7.790  1.00  0.00    +0.000 H 
ATOM    115  H27 UNL A   1      25.591  14.120   7.588  1.00  0.00    +0.000 H 
ATOM    116  H28 UNL A   1      24.257  17.913   8.292  1.00  0.00    +0.000 H 
ATOM    117  H29 UNL A   1      22.747  14.836   0.376  1.00  0.00    +0.000 H 
ATOM    118  H30 UNL A   1      24.218  16.880   0.201  1.00  0.00    +0.000 H 
ATOM    119  H31 UNL A   1      23.942  15.899   4.212  1.00  0.00    +0.000 H 
ATOM    120  H32 UNL A   1      24.238  12.247   4.784  1.00  0.00    +0.000 H 
ATOM    121  H33 UNL A   1      23.875  12.931   7.260  1.00  0.00    +0.000 H 
ATOM    122  H34 UNL A   1      27.540  20.653   5.513  1.00  0.00    +0.000 H 
ATOM    123  H35 UNL A   1      26.645  20.351   3.131  1.00  0.00    +0.000 H 
ENDROOT
BRANCH   30   29
ATOM    124  H36 UNL A   1      27.945  18.368   1.866  1.00  0.00    +0.000 H 
ATOM     29  C23 UNL A   1      25.883  18.505   1.400  1.00  0.00    +0.000 C 
ATOM    112  H24 UNL A   1      24.690  19.771  -1.460  1.00  0.00    +0.000 H 
ATOM    113  H25 UNL A   1      23.936  18.868   0.659  1.00  0.00    +0.000 H 
ATOM     87  C62 UNL A   1      27.256  18.655   1.153  1.00  0.00    +0.000 C 
ATOM     88  C63 UNL A   1      27.686  19.193  -0.059  1.00  0.00    +0.000 C 
ATOM     26  C20 UNL A   1      26.749  19.550  -1.034  1.00  0.00    +0.000 C 
ATOM     27  C21 UNL A   1      25.379  19.456  -0.760  1.00  0.00    +0.000 C 
ATOM     28  C22 UNL A   1      24.945  18.936   0.455  1.00  0.00    +0.000 C 
ATOM    125  H37 UNL A   1      28.694  19.327  -0.237  1.00  0.00    +0.000 H 
BRANCH   26   24
ATOM     25  O2  UNL A   1      26.356  20.068  -3.280  1.00  0.00    +0.000 O 
ATOM     24  C19 UNL A   1      27.144  20.108  -2.347  1.00  0.00    +0.000 C 
BRANCH   24   23
ATOM    111  H23 UNL A   1      29.081  20.029  -2.886  1.00  0.00    +0.000 H 
ATOM     23  N3  UNL A   1      28.394  20.647  -2.546  1.00  0.00    +0.000 N 
BRANCH   23   22
ATOM    110  H22 UNL A   1      29.112  22.112  -1.288  1.00  0.00    +0.000 H 
ATOM    109  H21 UNL A   1      28.017  22.680  -2.544  1.00  0.00    +0.000 H 
ATOM     22  C18 UNL A   1      28.825  22.016  -2.314  1.00  0.00    +0.000 C 
BRANCH   22   21
ATOM    107  H19 UNL A   1      30.696  22.975  -2.612  1.00  0.00    +0.000 H 
ATOM    108  H20 UNL A   1      30.465  21.445  -3.500  1.00  0.00    +0.000 H 
ATOM     21  C17 UNL A   1      30.027  22.371  -3.190  1.00  0.00    +0.000 C 
BRANCH   21   20
ATOM    105  H17 UNL A   1      29.038  22.515  -5.065  1.00  0.00    +0.000 H 
ATOM    106  H18 UNL A   1      29.200  24.045  -4.151  1.00  0.00    +0.000 H 
ATOM     20  C16 UNL A   1      29.671  23.139  -4.470  1.00  0.00    +0.000 C 
BRANCH   20   19
ATOM     19  C15 UNL A   1      30.866  23.560  -5.330  1.00  0.00    +0.000 C 
ATOM    103  H15 UNL A   1      30.525  24.286  -6.037  1.00  0.00    +0.000 H 
ATOM    104  H16 UNL A   1      31.601  23.937  -4.650  1.00  0.00    +0.000 H 
BRANCH   19   18
ATOM     18  C14 UNL A   1      31.549  22.425  -6.106  1.00  0.00    +0.000 C 
ATOM    101  H13 UNL A   1      30.975  21.534  -5.962  1.00  0.00    +0.000 H 
ATOM    102  H14 UNL A   1      31.591  22.743  -7.127  1.00  0.00    +0.000 H 
BRANCH   18   17
ATOM     17  C13 UNL A   1      32.990  22.133  -5.690  1.00  0.00    +0.000 C 
ATOM     99  H11 UNL A   1      33.189  21.092  -5.830  1.00  0.00    +0.000 H 
ATOM    100  H12 UNL A   1      33.643  22.729  -6.294  1.00  0.00    +0.000 H 
BRANCH   17   16
ATOM     98  H10 UNL A   1      32.463  22.809  -3.766  1.00  0.00    +0.000 H 
ATOM     16  N2  UNL A   1      33.217  22.474  -4.303  1.00  0.00    +0.000 N 
BRANCH   16    2
ATOM      1  O1  UNL A   1      35.460  21.969  -4.301  1.00  0.00    +0.000 O 
ATOM      2  C1  UNL A   1      34.456  22.347  -3.705  1.00  0.00    +0.000 C 
BRANCH    2    3
ATOM     89  H1  UNL A   1      33.748  22.009  -1.738  1.00  0.00    +0.000 H 
ATOM     90  H2  UNL A   1      34.174  23.691  -2.114  1.00  0.00    +0.000 H 
ATOM      3  C2  UNL A   1      34.446  22.662  -2.219  1.00  0.00    +0.000 C 
BRANCH    3    4
ATOM     97  H9  UNL A   1      35.590  20.598  -0.567  1.00  0.00    +0.000 H 
ATOM      4  C3  UNL A   1      35.784  22.489  -1.569  1.00  0.00    +0.000 C 
ATOM      5  C4  UNL A   1      36.891  23.378  -1.595  1.00  0.00    +0.000 C 
ATOM      6  C5  UNL A   1      37.872  22.852  -0.788  1.00  0.00    +0.000 C 
ATOM      7  N1  UNL A   1      37.432  21.655  -0.260  1.00  0.00    +0.000 N 
ATOM     15  C12 UNL A   1      36.167  21.431  -0.762  1.00  0.00    +0.000 C 
ATOM     91  H3  UNL A   1      36.948  24.262  -2.126  1.00  0.00    +0.000 H 
ATOM     92  H4  UNL A   1      38.791  23.284  -0.605  1.00  0.00    +0.000 H 
BRANCH    7    8
ATOM      8  C6  UNL A   1      38.141  20.840   0.662  1.00  0.00    +0.000 C 
ATOM      9  C7  UNL A   1      37.821  20.889   2.028  1.00  0.00    +0.000 C 
ATOM     10  C8  UNL A   1      38.497  20.072   2.939  1.00  0.00    +0.000 C 
ATOM     11  C9  UNL A   1      39.509  19.220   2.499  1.00  0.00    +0.000 C 
ATOM     12  C10 UNL A   1      39.838  19.175   1.147  1.00  0.00    +0.000 C 
ATOM     13  C11 UNL A   1      39.149  19.971   0.233  1.00  0.00    +0.000 C 
ATOM     14  F1  UNL A   1      39.537  19.917  -1.049  1.00  0.00    +0.000 F 
ATOM     93  H5  UNL A   1      37.085  21.532   2.361  1.00  0.00    +0.000 H 
ATOM     94  H6  UNL A   1      38.246  20.099   3.939  1.00  0.00    +0.000 H 
ATOM     95  H7  UNL A   1      40.014  18.625   3.175  1.00  0.00    +0.000 H 
ATOM     96  H8  UNL A   1      40.593  18.551   0.820  1.00  0.00    +0.000 H 
ENDBRANCH    7    8
ENDBRANCH    3    4
ENDBRANCH    2    3
ENDBRANCH   16    2
ENDBRANCH   17   16
ENDBRANCH   18   17
ENDBRANCH   19   18
ENDBRANCH   20   19
ENDBRANCH   21   20
ENDBRANCH   22   21
ENDBRANCH   23   22
ENDBRANCH   24   23
ENDBRANCH   26   24
ENDBRANCH   30   29
BRANCH   34   35
ATOM     35  C28 UNL A   1      26.947  19.539   8.398  1.00  0.00    +0.000 C 
ATOM     36  C29 UNL A   1      26.029  20.536   8.760  1.00  0.00    +0.000 C 
ATOM     37  F2  UNL A   1      24.975  20.820   7.985  1.00  0.00    +0.000 F 
ATOM     38  C30 UNL A   1      26.122  21.201   9.988  1.00  0.00    +0.000 C 
ATOM     39  F3  UNL A   1      25.203  22.121  10.313  1.00  0.00    +0.000 F 
ATOM     40  C31 UNL A   1      27.110  20.870  10.900  1.00  0.00    +0.000 C 
ATOM     41  F4  UNL A   1      27.131  21.438  12.112  1.00  0.00    +0.000 F 
ATOM     42  C32 UNL A   1      28.054  19.922  10.561  1.00  0.00    +0.000 C 
ATOM     43  F5  UNL A   1      28.996  19.566  11.446  1.00  0.00    +0.000 F 
ATOM     44  C33 UNL A   1      27.992  19.289   9.320  1.00  0.00    +0.000 C 
ATOM     45  F6  UNL A   1      28.937  18.374   9.052  1.00  0.00    +0.000 F 
ENDBRANCH   34   35
BRANCH   51   52
ATOM     52  C39 UNL A   1      22.109  16.927   6.753  1.00  0.00    +0.000 C 
ATOM     53  C40 UNL A   1      22.390  17.902   5.782  1.00  0.00    +0.000 C 
ATOM     54  F7  UNL A   1      23.579  17.937   5.187  1.00  0.00    +0.000 F 
ATOM     55  C41 UNL A   1      21.462  18.868   5.400  1.00  0.00    +0.000 C 
ATOM     56  F8  UNL A   1      21.793  19.789   4.482  1.00  0.00    +0.000 F 
ATOM     57  C42 UNL A   1      20.205  18.876   5.970  1.00  0.00    +0.000 C 
ATOM     58  F9  UNL A   1      19.307  19.801   5.605  1.00  0.00    +0.000 F 
ATOM     59  C43 UNL A   1      19.888  17.926   6.929  1.00  0.00    +0.000 C 
ATOM     60  F10 UNL A   1      18.670  17.933   7.488  1.00  0.00    +0.000 F 
ATOM     61  C44 UNL A   1      20.828  16.968   7.320  1.00  0.00    +0.000 C 
ATOM     62  F11 UNL A   1      20.481  16.070   8.255  1.00  0.00    +0.000 F 
ENDBRANCH   51   52
BRANCH   66   67
ATOM     67  C48 UNL A   1      21.807  12.530   2.482  1.00  0.00    +0.000 C 
ATOM     68  C49 UNL A   1      22.579  11.530   1.824  1.00  0.00    +0.000 C 
ATOM     69  F12 UNL A   1      23.917  11.528   1.872  1.00  0.00    +0.000 F 
ATOM     70  C50 UNL A   1      22.022  10.481   1.087  1.00  0.00    +0.000 C 
ATOM     71  F13 UNL A   1      22.823   9.636   0.422  1.00  0.00    +0.000 F 
ATOM     72  C51 UNL A   1      20.658  10.328   1.030  1.00  0.00    +0.000 C 
ATOM     73  F14 UNL A   1      20.115   9.343   0.305  1.00  0.00    +0.000 F 
ATOM     74  C52 UNL A   1      19.867  11.198   1.753  1.00  0.00    +0.000 C 
ATOM     75  F15 UNL A   1      18.537  11.023   1.761  1.00  0.00    +0.000 F 
ATOM     76  C53 UNL A   1      20.429  12.267   2.474  1.00  0.00    +0.000 C 
ATOM     77  F16 UNL A   1      19.573  13.000   3.188  1.00  0.00    +0.000 F 
ENDBRANCH   66   67
TORSDOF 17
ENDMDL
MODEL 4
REMARK VINA RESULT:     -11.2      0.941      1.594
ROOT
ATOM     30  C24 UNL A   1      40.837  27.739  29.039  1.00  0.00    +0.000 C 
ATOM     31  C25 UNL A   1      40.973  26.302  28.527  1.00  0.00    +0.000 C 
ATOM     32  N4  UNL A   1      41.751  25.339  28.925  1.00  0.00    +0.000 N 
ATOM     33  C26 UNL A   1      41.556  24.254  28.046  1.00  0.00    +0.000 C 
ATOM     34  C27 UNL A   1      42.402  23.188  27.952  1.00  0.00    +0.000 C 
ATOM     46  C34 UNL A   1      43.460  23.282  28.898  1.00  0.00    +0.000 C 
ATOM     47  C35 UNL A   1      43.557  23.032  30.241  1.00  0.00    +0.000 C 
ATOM     48  C36 UNL A   1      44.619  23.851  30.687  1.00  0.00    +0.000 C 
ATOM     49  C37 UNL A   1      45.150  24.540  29.593  1.00  0.00    +0.000 C 
ATOM     50  N5  UNL A   1      44.604  23.922  28.493  1.00  0.00    +0.000 N 
ATOM     51  C38 UNL A   1      45.889  25.765  29.374  1.00  0.00    +0.000 C 
ATOM     63  C45 UNL A   1      46.167  26.533  30.457  1.00  0.00    +0.000 C 
ATOM     64  N6  UNL A   1      46.007  27.900  30.386  1.00  0.00    +0.000 N 
ATOM     65  C46 UNL A   1      45.386  28.175  31.496  1.00  0.00    +0.000 C 
ATOM     66  C47 UNL A   1      44.655  29.428  31.767  1.00  0.00    +0.000 C 
ATOM     78  C54 UNL A   1      43.505  29.364  31.024  1.00  0.00    +0.000 C 
ATOM     79  C55 UNL A   1      42.466  30.366  30.897  1.00  0.00    +0.000 C 
ATOM     80  C56 UNL A   1      41.451  29.887  30.155  1.00  0.00    +0.000 C 
ATOM     81  C57 UNL A   1      41.725  28.504  29.733  1.00  0.00    +0.000 C 
ATOM     82  N7  UNL A   1      42.999  28.302  30.232  1.00  0.00    +0.000 N 
ATOM     83  C58 UNL A   1      45.366  27.109  32.505  1.00  0.00    +0.000 C 
ATOM     84  C59 UNL A   1      46.044  26.173  31.847  1.00  0.00    +0.000 C 
ATOM     85  C60 UNL A   1      40.431  24.590  27.224  1.00  0.00    +0.000 C 
ATOM     86  C61 UNL A   1      40.064  25.853  27.439  1.00  0.00    +0.000 C 
ATOM    114  H26 UNL A   1      42.980  22.388  30.804  1.00  0.00    +0.000 H 
ATOM    115  H27 UNL A   1      44.950  23.928  31.661  1.00  0.00    +0.000 H 
ATOM    116  H28 UNL A   1      44.969  23.936  27.579  1.00  0.00    +0.000 H 
ATOM    117  H29 UNL A   1      42.500  31.310  31.313  1.00  0.00    +0.000 H 
ATOM    118  H30 UNL A   1      40.598  30.415  29.914  1.00  0.00    +0.000 H 
ATOM    119  H31 UNL A   1      43.515  27.482  30.051  1.00  0.00    +0.000 H 
ATOM    120  H32 UNL A   1      44.948  27.091  33.449  1.00  0.00    +0.000 H 
ATOM    121  H33 UNL A   1      46.426  25.312  32.271  1.00  0.00    +0.000 H 
ATOM    122  H34 UNL A   1      39.971  23.946  26.562  1.00  0.00    +0.000 H 
ATOM    123  H35 UNL A   1      39.324  26.392  26.963  1.00  0.00    +0.000 H 
ENDROOT
BRANCH   30   29
ATOM    124  H36 UNL A   1      38.566  27.748  30.528  1.00  0.00    +0.000 H 
ATOM     29  C23 UNL A   1      39.518  28.345  28.732  1.00  0.00    +0.000 C 
ATOM    112  H24 UNL A   1      38.097  30.313  26.426  1.00  0.00    +0.000 H 
ATOM    113  H25 UNL A   1      40.126  29.050  26.833  1.00  0.00    +0.000 H 
ATOM     87  C62 UNL A   1      38.469  28.303  29.664  1.00  0.00    +0.000 C 
ATOM     88  C63 UNL A   1      37.295  29.015  29.417  1.00  0.00    +0.000 C 
ATOM     26  C20 UNL A   1      37.182  29.792  28.260  1.00  0.00    +0.000 C 
ATOM     27  C21 UNL A   1      38.206  29.782  27.304  1.00  0.00    +0.000 C 
ATOM     28  C22 UNL A   1      39.372  29.060  27.537  1.00  0.00    +0.000 C 
ATOM    125  H37 UNL A   1      36.512  28.969  30.087  1.00  0.00    +0.000 H 
BRANCH   26   24
ATOM     25  O2  UNL A   1      36.085  31.747  27.595  1.00  0.00    +0.000 O 
ATOM     24  C19 UNL A   1      35.971  30.584  27.951  1.00  0.00    +0.000 C 
BRANCH   24   23
ATOM    111  H23 UNL A   1      34.111  30.501  28.715  1.00  0.00    +0.000 H 
ATOM     23  N3  UNL A   1      34.713  30.044  28.085  1.00  0.00    +0.000 N 
BRANCH   23   22
ATOM    110  H22 UNL A   1      33.174  28.708  27.778  1.00  0.00    +0.000 H 
ATOM    109  H21 UNL A   1      34.790  28.033  27.608  1.00  0.00    +0.000 H 
ATOM     22  C18 UNL A   1      34.163  28.878  27.410  1.00  0.00    +0.000 C 
BRANCH   22   21
ATOM    107  H19 UNL A   1      33.300  29.798  25.702  1.00  0.00    +0.000 H 
ATOM    108  H20 UNL A   1      35.048  29.462  25.594  1.00  0.00    +0.000 H 
ATOM     21  C17 UNL A   1      34.088  29.101  25.899  1.00  0.00    +0.000 C 
BRANCH   21   20
ATOM    105  H17 UNL A   1      33.016  28.032  24.408  1.00  0.00    +0.000 H 
ATOM    106  H18 UNL A   1      34.740  27.588  24.597  1.00  0.00    +0.000 H 
ATOM     20  C16 UNL A   1      33.818  27.828  25.085  1.00  0.00    +0.000 C 
BRANCH   20   19
ATOM     19  C15 UNL A   1      33.441  26.595  25.911  1.00  0.00    +0.000 C 
ATOM    103  H15 UNL A   1      33.676  26.798  26.935  1.00  0.00    +0.000 H 
ATOM    104  H16 UNL A   1      32.399  26.430  25.736  1.00  0.00    +0.000 H 
BRANCH   19   18
ATOM     18  C14 UNL A   1      34.150  25.294  25.510  1.00  0.00    +0.000 C 
ATOM    101  H13 UNL A   1      34.233  25.277  24.444  1.00  0.00    +0.000 H 
ATOM    102  H14 UNL A   1      35.097  25.303  26.010  1.00  0.00    +0.000 H 
BRANCH   18   17
ATOM     17  C13 UNL A   1      33.446  24.012  25.952  1.00  0.00    +0.000 C 
ATOM     99  H11 UNL A   1      33.330  23.369  25.104  1.00  0.00    +0.000 H 
ATOM    100  H12 UNL A   1      34.043  23.541  26.705  1.00  0.00    +0.000 H 
BRANCH   17   16
ATOM     98  H10 UNL A   1      32.082  24.882  27.300  1.00  0.00    +0.000 H 
ATOM     16  N2  UNL A   1      32.144  24.293  26.513  1.00  0.00    +0.000 N 
BRANCH   16    2
ATOM      1  O1  UNL A   1      30.057  23.343  26.670  1.00  0.00    +0.000 O 
ATOM      2  C1  UNL A   1      30.983  23.764  25.984  1.00  0.00    +0.000 C 
BRANCH    2    3
ATOM     89  H1  UNL A   1      30.140  23.120  24.151  1.00  0.00    +0.000 H 
ATOM     90  H2  UNL A   1      31.910  23.250  24.170  1.00  0.00    +0.000 H 
ATOM      3  C2  UNL A   1      30.985  23.696  24.467  1.00  0.00    +0.000 C 
BRANCH    3    4
ATOM     97  H9  UNL A   1      29.430  26.065  24.989  1.00  0.00    +0.000 H 
ATOM      4  C3  UNL A   1      30.912  25.042  23.815  1.00  0.00    +0.000 C 
ATOM      5  C4  UNL A   1      31.632  25.506  22.682  1.00  0.00    +0.000 C 
ATOM      6  C5  UNL A   1      31.178  26.769  22.384  1.00  0.00    +0.000 C 
ATOM      7  N1  UNL A   1      30.205  27.129  23.294  1.00  0.00    +0.000 N 
ATOM     15  C12 UNL A   1      30.067  26.078  24.177  1.00  0.00    +0.000 C 
ATOM     91  H3  UNL A   1      32.365  24.986  22.174  1.00  0.00    +0.000 H 
ATOM     92  H4  UNL A   1      31.512  27.356  21.603  1.00  0.00    +0.000 H 
BRANCH    7    8
ATOM      8  C6  UNL A   1      29.461  28.339  23.285  1.00  0.00    +0.000 C 
ATOM      9  C7  UNL A   1      28.109  28.324  22.906  1.00  0.00    +0.000 C 
ATOM     10  C8  UNL A   1      27.362  29.506  22.918  1.00  0.00    +0.000 C 
ATOM     11  C9  UNL A   1      27.962  30.710  23.283  1.00  0.00    +0.000 C 
ATOM     12  C10 UNL A   1      29.306  30.732  23.648  1.00  0.00    +0.000 C 
ATOM     13  C11 UNL A   1      30.046  29.551  23.661  1.00  0.00    +0.000 C 
ATOM     14  F1  UNL A   1      31.345  29.639  23.981  1.00  0.00    +0.000 F 
ATOM     93  H5  UNL A   1      27.665  27.438  22.617  1.00  0.00    +0.000 H 
ATOM     94  H6  UNL A   1      26.364  29.487  22.656  1.00  0.00    +0.000 H 
ATOM     95  H7  UNL A   1      27.411  31.584  23.281  1.00  0.00    +0.000 H 
ATOM     96  H8  UNL A   1      29.754  31.624  23.911  1.00  0.00    +0.000 H 
ENDBRANCH    7    8
ENDBRANCH    3    4
ENDBRANCH    2    3
ENDBRANCH   16    2
ENDBRANCH   17   16
ENDBRANCH   18   17
ENDBRANCH   19   18
ENDBRANCH   20   19
ENDBRANCH   21   20
ENDBRANCH   22   21
ENDBRANCH   23   22
ENDBRANCH   24   23
ENDBRANCH   26   24
ENDBRANCH   30   29
BRANCH   34   35
ATOM     35  C28 UNL A   1      42.501  22.103  26.914  1.00  0.00    +0.000 C 
ATOM     36  C29 UNL A   1      43.437  22.119  25.869  1.00  0.00    +0.000 C 
ATOM     37  F2  UNL A   1      44.132  23.226  25.580  1.00  0.00    +0.000 F 
ATOM     38  C30 UNL A   1      43.753  20.956  25.156  1.00  0.00    +0.000 C 
ATOM     39  F3  UNL A   1      44.680  21.004  24.190  1.00  0.00    +0.000 F 
ATOM     40  C31 UNL A   1      43.170  19.743  25.485  1.00  0.00    +0.000 C 
ATOM     41  F4  UNL A   1      43.553  18.619  24.867  1.00  0.00    +0.000 F 
ATOM     42  C32 UNL A   1      42.216  19.699  26.481  1.00  0.00    +0.000 C 
ATOM     43  F5  UNL A   1      41.668  18.527  26.833  1.00  0.00    +0.000 F 
ATOM     44  C33 UNL A   1      41.864  20.863  27.163  1.00  0.00    +0.000 C 
ATOM     45  F6  UNL A   1      40.933  20.752  28.123  1.00  0.00    +0.000 F 
ENDBRANCH   34   35
BRANCH   51   52
ATOM     52  C39 UNL A   1      45.971  26.527  28.069  1.00  0.00    +0.000 C 
ATOM     53  C40 UNL A   1      47.175  26.745  27.380  1.00  0.00    +0.000 C 
ATOM     54  F7  UNL A   1      48.336  26.388  27.923  1.00  0.00    +0.000 F 
ATOM     55  C41 UNL A   1      47.222  27.338  26.121  1.00  0.00    +0.000 C 
ATOM     56  F8  UNL A   1      48.404  27.540  25.518  1.00  0.00    +0.000 F 
ATOM     57  C42 UNL A   1      46.050  27.717  25.497  1.00  0.00    +0.000 C 
ATOM     58  F9  UNL A   1      46.089  28.285  24.285  1.00  0.00    +0.000 F 
ATOM     59  C43 UNL A   1      44.841  27.514  26.143  1.00  0.00    +0.000 C 
ATOM     60  F10 UNL A   1      43.701  27.885  25.542  1.00  0.00    +0.000 F 
ATOM     61  C44 UNL A   1      44.800  26.932  27.413  1.00  0.00    +0.000 C 
ATOM     62  F11 UNL A   1      43.608  26.759  28.004  1.00  0.00    +0.000 F 
ENDBRANCH   51   52
BRANCH   66   67
ATOM     67  C48 UNL A   1      45.250  30.373  32.797  1.00  0.00    +0.000 C 
ATOM     68  C49 UNL A   1      46.566  30.889  32.622  1.00  0.00    +0.000 C 
ATOM     69  F12 UNL A   1      47.232  30.745  31.469  1.00  0.00    +0.000 F 
ATOM     70  C50 UNL A   1      47.265  31.581  33.615  1.00  0.00    +0.000 C 
ATOM     71  F13 UNL A   1      48.535  31.953  33.398  1.00  0.00    +0.000 F 
ATOM     72  C51 UNL A   1      46.658  31.863  34.814  1.00  0.00    +0.000 C 
ATOM     73  F14 UNL A   1      47.329  32.502  35.780  1.00  0.00    +0.000 F 
ATOM     74  C52 UNL A   1      45.340  31.494  34.989  1.00  0.00    +0.000 C 
ATOM     75  F15 UNL A   1      44.712  31.820  36.128  1.00  0.00    +0.000 F 
ATOM     76  C53 UNL A   1      44.647  30.776  33.997  1.00  0.00    +0.000 C 
ATOM     77  F16 UNL A   1      43.360  30.532  34.249  1.00  0.00    +0.000 F 
ENDBRANCH   66   67
TORSDOF 17
ENDMDL
MODEL 5
REMARK VINA RESULT:     -11.1     21.282     24.886
ROOT
ATOM     30  C24 UNL A   1      25.237  33.298  46.219  1.00  0.00    +0.000 C 
ATOM     31  C25 UNL A   1      26.091  32.200  46.860  1.00  0.00    +0.000 C 
ATOM     32  N4  UNL A   1      27.061  32.287  47.721  1.00  0.00    +0.000 N 
ATOM     33  C26 UNL A   1      27.579  30.988  47.900  1.00  0.00    +0.000 C 
ATOM     34  C27 UNL A   1      28.783  30.722  48.483  1.00  0.00    +0.000 C 
ATOM     46  C34 UNL A   1      29.410  31.912  48.945  1.00  0.00    +0.000 C 
ATOM     47  C35 UNL A   1      29.238  32.709  50.045  1.00  0.00    +0.000 C 
ATOM     48  C36 UNL A   1      29.700  33.983  49.646  1.00  0.00    +0.000 C 
ATOM     49  C37 UNL A   1      30.167  33.905  48.331  1.00  0.00    +0.000 C 
ATOM     50  N5  UNL A   1      30.246  32.558  48.069  1.00  0.00    +0.000 N 
ATOM     51  C38 UNL A   1      30.359  34.814  47.221  1.00  0.00    +0.000 C 
ATOM     63  C45 UNL A   1      29.991  36.107  47.399  1.00  0.00    +0.000 C 
ATOM     64  N6  UNL A   1      29.302  36.765  46.403  1.00  0.00    +0.000 N 
ATOM     65  C46 UNL A   1      28.350  37.363  47.059  1.00  0.00    +0.000 C 
ATOM     66  C47 UNL A   1      27.121  37.910  46.453  1.00  0.00    +0.000 C 
ATOM     78  C54 UNL A   1      26.348  36.828  46.123  1.00  0.00    +0.000 C 
ATOM     79  C55 UNL A   1      25.062  36.819  45.455  1.00  0.00    +0.000 C 
ATOM     80  C56 UNL A   1      24.578  35.565  45.402  1.00  0.00    +0.000 C 
ATOM     81  C57 UNL A   1      25.504  34.624  46.052  1.00  0.00    +0.000 C 
ATOM     82  N7  UNL A   1      26.562  35.451  46.384  1.00  0.00    +0.000 N 
ATOM     83  C58 UNL A   1      28.506  37.415  48.519  1.00  0.00    +0.000 C 
ATOM     84  C59 UNL A   1      29.661  36.767  48.638  1.00  0.00    +0.000 C 
ATOM     85  C60 UNL A   1      26.682  30.094  47.229  1.00  0.00    +0.000 C 
ATOM     86  C61 UNL A   1      25.780  30.784  46.532  1.00  0.00    +0.000 C 
ATOM    114  H26 UNL A   1      28.854  32.438  50.964  1.00  0.00    +0.000 H 
ATOM    115  H27 UNL A   1      29.695  34.834  50.230  1.00  0.00    +0.000 H 
ATOM    116  H28 UNL A   1      30.802  32.132  47.377  1.00  0.00    +0.000 H 
ATOM    117  H29 UNL A   1      24.586  37.652  45.074  1.00  0.00    +0.000 H 
ATOM    118  H30 UNL A   1      23.681  35.298  44.967  1.00  0.00    +0.000 H 
ATOM    119  H31 UNL A   1      27.400  35.109  46.774  1.00  0.00    +0.000 H 
ATOM    120  H32 UNL A   1      27.898  37.833  49.240  1.00  0.00    +0.000 H 
ATOM    121  H33 UNL A   1      30.237  36.740  49.494  1.00  0.00    +0.000 H 
ATOM    122  H34 UNL A   1      26.728  29.065  47.279  1.00  0.00    +0.000 H 
ATOM    123  H35 UNL A   1      25.040  30.421  45.911  1.00  0.00    +0.000 H 
ENDROOT
BRANCH   30   29
ATOM    124  H36 UNL A   1      24.363  32.945  43.672  1.00  0.00    +0.000 H 
ATOM     29  C23 UNL A   1      23.921  32.809  45.739  1.00  0.00    +0.000 C 
ATOM    112  H24 UNL A   1      21.088  31.513  46.966  1.00  0.00    +0.000 H 
ATOM    113  H25 UNL A   1      23.130  32.601  47.690  1.00  0.00    +0.000 H 
ATOM     87  C62 UNL A   1      23.672  32.629  44.370  1.00  0.00    +0.000 C 
ATOM     88  C63 UNL A   1      22.488  32.020  43.957  1.00  0.00    +0.000 C 
ATOM     26  C20 UNL A   1      21.570  31.564  44.908  1.00  0.00    +0.000 C 
ATOM     27  C21 UNL A   1      21.793  31.801  46.270  1.00  0.00    +0.000 C 
ATOM     28  C22 UNL A   1      22.965  32.423  46.687  1.00  0.00    +0.000 C 
ATOM    125  H37 UNL A   1      22.289  31.906  42.950  1.00  0.00    +0.000 H 
BRANCH   26   24
ATOM     25  O2  UNL A   1      19.979  29.861  45.097  1.00  0.00    +0.000 O 
ATOM     24  C19 UNL A   1      20.304  30.894  44.532  1.00  0.00    +0.000 C 
BRANCH   24   23
ATOM    111  H23 UNL A   1      19.357  30.813  42.759  1.00  0.00    +0.000 H 
ATOM     23  N3  UNL A   1      19.499  31.398  43.537  1.00  0.00    +0.000 N 
BRANCH   23   22
ATOM    110  H22 UNL A   1      18.191  32.713  42.639  1.00  0.00    +0.000 H 
ATOM    109  H21 UNL A   1      19.572  33.462  43.432  1.00  0.00    +0.000 H 
ATOM     22  C18 UNL A   1      18.833  32.690  43.494  1.00  0.00    +0.000 C 
BRANCH   22   21
ATOM    107  H19 UNL A   1      18.389  32.319  45.538  1.00  0.00    +0.000 H 
ATOM    108  H20 UNL A   1      18.015  33.963  44.956  1.00  0.00    +0.000 H 
ATOM     21  C17 UNL A   1      17.983  32.914  44.746  1.00  0.00    +0.000 C 
BRANCH   21   20
ATOM    105  H17 UNL A   1      15.953  33.016  45.366  1.00  0.00    +0.000 H 
ATOM    106  H18 UNL A   1      16.222  32.880  43.602  1.00  0.00    +0.000 H 
ATOM     20  C16 UNL A   1      16.503  32.545  44.579  1.00  0.00    +0.000 C 
BRANCH   20   19
ATOM     19  C15 UNL A   1      16.197  31.045  44.618  1.00  0.00    +0.000 C 
ATOM    103  H15 UNL A   1      17.073  30.538  44.963  1.00  0.00    +0.000 H 
ATOM    104  H16 UNL A   1      15.353  30.932  45.266  1.00  0.00    +0.000 H 
BRANCH   19   18
ATOM     18  C14 UNL A   1      15.787  30.424  43.276  1.00  0.00    +0.000 C 
ATOM    101  H13 UNL A   1      14.841  30.836  42.995  1.00  0.00    +0.000 H 
ATOM    102  H14 UNL A   1      16.573  30.654  42.587  1.00  0.00    +0.000 H 
BRANCH   18   17
ATOM     17  C13 UNL A   1      15.657  28.900  43.282  1.00  0.00    +0.000 C 
ATOM     99  H11 UNL A   1      16.628  28.469  43.404  1.00  0.00    +0.000 H 
ATOM    100  H12 UNL A   1      15.013  28.620  44.089  1.00  0.00    +0.000 H 
BRANCH   17   16
ATOM     98  H10 UNL A   1      14.543  29.035  41.500  1.00  0.00    +0.000 H 
ATOM     16  N2  UNL A   1      15.078  28.417  42.049  1.00  0.00    +0.000 N 
BRANCH   16    2
ATOM      1  O1  UNL A   1      15.375  26.810  40.432  1.00  0.00    +0.000 O 
ATOM      2  C1  UNL A   1      15.248  27.117  41.613  1.00  0.00    +0.000 C 
BRANCH    2    3
ATOM     89  H1  UNL A   1      14.881  26.582  43.629  1.00  0.00    +0.000 H 
ATOM     90  H2  UNL A   1      16.188  25.685  42.831  1.00  0.00    +0.000 H 
ATOM      3  C2  UNL A   1      15.204  26.093  42.734  1.00  0.00    +0.000 C 
BRANCH    3    4
ATOM     97  H9  UNL A   1      15.550  23.525  41.476  1.00  0.00    +0.000 H 
ATOM      4  C3  UNL A   1      14.276  24.951  42.456  1.00  0.00    +0.000 C 
ATOM      5  C4  UNL A   1      12.890  24.859  42.749  1.00  0.00    +0.000 C 
ATOM      6  C5  UNL A   1      12.429  23.671  42.233  1.00  0.00    +0.000 C 
ATOM      7  N1  UNL A   1      13.476  22.999  41.634  1.00  0.00    +0.000 N 
ATOM     15  C12 UNL A   1      14.603  23.778  41.797  1.00  0.00    +0.000 C 
ATOM     91  H3  UNL A   1      12.329  25.560  43.259  1.00  0.00    +0.000 H 
ATOM     92  H4  UNL A   1      11.454  23.333  42.285  1.00  0.00    +0.000 H 
BRANCH    7    8
ATOM      8  C6  UNL A   1      13.386  21.762  40.943  1.00  0.00    +0.000 C 
ATOM      9  C7  UNL A   1      13.157  20.577  41.660  1.00  0.00    +0.000 C 
ATOM     10  C8  UNL A   1      13.042  19.357  40.986  1.00  0.00    +0.000 C 
ATOM     11  C9  UNL A   1      13.180  19.307  39.600  1.00  0.00    +0.000 C 
ATOM     12  C10 UNL A   1      13.420  20.479  38.885  1.00  0.00    +0.000 C 
ATOM     13  C11 UNL A   1      13.509  21.699  39.552  1.00  0.00    +0.000 C 
ATOM     14  F1  UNL A   1      13.782  22.786  38.817  1.00  0.00    +0.000 F 
ATOM     93  H5  UNL A   1      13.073  20.605  42.689  1.00  0.00    +0.000 H 
ATOM     94  H6  UNL A   1      12.856  18.492  41.516  1.00  0.00    +0.000 H 
ATOM     95  H7  UNL A   1      13.105  18.404  39.105  1.00  0.00    +0.000 H 
ATOM     96  H8  UNL A   1      13.530  20.443  37.859  1.00  0.00    +0.000 H 
ENDBRANCH    7    8
ENDBRANCH    3    4
ENDBRANCH    2    3
ENDBRANCH   16    2
ENDBRANCH   17   16
ENDBRANCH   18   17
ENDBRANCH   19   18
ENDBRANCH   20   19
ENDBRANCH   21   20
ENDBRANCH   22   21
ENDBRANCH   23   22
ENDBRANCH   24   23
ENDBRANCH   26   24
ENDBRANCH   30   29
BRANCH   34   35
ATOM     35  C28 UNL A   1      29.599  29.457  48.514  1.00  0.00    +0.000 C 
ATOM     36  C29 UNL A   1      30.782  29.285  47.781  1.00  0.00    +0.000 C 
ATOM     37  F2  UNL A   1      31.123  30.140  46.808  1.00  0.00    +0.000 F 
ATOM     38  C30 UNL A   1      31.698  28.276  48.101  1.00  0.00    +0.000 C 
ATOM     39  F3  UNL A   1      32.835  28.168  47.400  1.00  0.00    +0.000 F 
ATOM     40  C31 UNL A   1      31.475  27.434  49.178  1.00  0.00    +0.000 C 
ATOM     41  F4  UNL A   1      32.404  26.539  49.540  1.00  0.00    +0.000 F 
ATOM     42  C32 UNL A   1      30.303  27.549  49.897  1.00  0.00    +0.000 C 
ATOM     43  F5  UNL A   1      30.090  26.764  50.963  1.00  0.00    +0.000 F 
ATOM     44  C33 UNL A   1      29.367  28.523  49.553  1.00  0.00    +0.000 C 
ATOM     45  F6  UNL A   1      28.250  28.587  50.294  1.00  0.00    +0.000 F 
ENDBRANCH   34   35
BRANCH   51   52
ATOM     52  C39 UNL A   1      30.462  34.420  45.764  1.00  0.00    +0.000 C 
ATOM     53  C40 UNL A   1      29.356  34.023  44.995  1.00  0.00    +0.000 C 
ATOM     54  F7  UNL A   1      28.165  33.856  45.564  1.00  0.00    +0.000 F 
ATOM     55  C41 UNL A   1      29.442  33.784  43.625  1.00  0.00    +0.000 C 
ATOM     56  F8  UNL A   1      28.356  33.386  42.945  1.00  0.00    +0.000 F 
ATOM     57  C42 UNL A   1      30.647  33.955  42.974  1.00  0.00    +0.000 C 
ATOM     58  F9  UNL A   1      30.736  33.728  41.656  1.00  0.00    +0.000 F 
ATOM     59  C43 UNL A   1      31.761  34.350  43.698  1.00  0.00    +0.000 C 
ATOM     60  F10 UNL A   1      32.933  34.513  43.069  1.00  0.00    +0.000 F 
ATOM     61  C44 UNL A   1      31.672  34.575  45.075  1.00  0.00    +0.000 C 
ATOM     62  F11 UNL A   1      32.777  34.952  45.737  1.00  0.00    +0.000 F 
ENDBRANCH   51   52
BRANCH   66   67
ATOM     67  C48 UNL A   1      26.968  39.422  46.430  1.00  0.00    +0.000 C 
ATOM     68  C49 UNL A   1      27.842  40.219  45.637  1.00  0.00    +0.000 C 
ATOM     69  F12 UNL A   1      28.669  39.675  44.735  1.00  0.00    +0.000 F 
ATOM     70  C50 UNL A   1      27.914  41.613  45.724  1.00  0.00    +0.000 C 
ATOM     71  F13 UNL A   1      28.830  42.278  45.007  1.00  0.00    +0.000 F 
ATOM     72  C51 UNL A   1      27.059  42.294  46.555  1.00  0.00    +0.000 C 
ATOM     73  F14 UNL A   1      27.137  43.626  46.666  1.00  0.00    +0.000 F 
ATOM     74  C52 UNL A   1      26.107  41.578  47.254  1.00  0.00    +0.000 C 
ATOM     75  F15 UNL A   1      25.223  42.234  48.019  1.00  0.00    +0.000 F 
ATOM     76  C53 UNL A   1      26.055  40.174  47.183  1.00  0.00    +0.000 C 
ATOM     77  F16 UNL A   1      25.052  39.596  47.846  1.00  0.00    +0.000 F 
ENDBRANCH   66   67
TORSDOF 17
ENDMDL
MODEL 6
REMARK VINA RESULT:     -11.1      1.437      3.599
ROOT
ATOM     30  C24 UNL A   1      40.770  27.742  29.079  1.00  0.00    +0.000 C 
ATOM     31  C25 UNL A   1      40.945  26.326  28.520  1.00  0.00    +0.000 C 
ATOM     32  N4  UNL A   1      41.703  25.352  28.926  1.00  0.00    +0.000 N 
ATOM     33  C26 UNL A   1      41.567  24.301  27.996  1.00  0.00    +0.000 C 
ATOM     34  C27 UNL A   1      42.424  23.243  27.912  1.00  0.00    +0.000 C 
ATOM     46  C34 UNL A   1      43.423  23.303  28.923  1.00  0.00    +0.000 C 
ATOM     47  C35 UNL A   1      43.441  23.002  30.258  1.00  0.00    +0.000 C 
ATOM     48  C36 UNL A   1      44.470  23.807  30.798  1.00  0.00    +0.000 C 
ATOM     49  C37 UNL A   1      45.061  24.540  29.765  1.00  0.00    +0.000 C 
ATOM     50  N5  UNL A   1      44.585  23.963  28.612  1.00  0.00    +0.000 N 
ATOM     51  C38 UNL A   1      45.805  25.775  29.638  1.00  0.00    +0.000 C 
ATOM     63  C45 UNL A   1      46.013  26.501  30.764  1.00  0.00    +0.000 C 
ATOM     64  N6  UNL A   1      45.850  27.869  30.736  1.00  0.00    +0.000 N 
ATOM     65  C46 UNL A   1      45.163  28.098  31.817  1.00  0.00    +0.000 C 
ATOM     66  C47 UNL A   1      44.409  29.338  32.092  1.00  0.00    +0.000 C 
ATOM     78  C54 UNL A   1      43.307  29.298  31.280  1.00  0.00    +0.000 C 
ATOM     79  C55 UNL A   1      42.271  30.301  31.130  1.00  0.00    +0.000 C 
ATOM     80  C56 UNL A   1      41.305  29.847  30.311  1.00  0.00    +0.000 C 
ATOM     81  C57 UNL A   1      41.611  28.483  29.853  1.00  0.00    +0.000 C 
ATOM     82  N7  UNL A   1      42.854  28.266  30.419  1.00  0.00    +0.000 N 
ATOM     83  C58 UNL A   1      45.088  26.994  32.782  1.00  0.00    +0.000 C 
ATOM     84  C59 UNL A   1      45.810  26.086  32.130  1.00  0.00    +0.000 C 
ATOM     85  C60 UNL A   1      40.491  24.664  27.122  1.00  0.00    +0.000 C 
ATOM     86  C61 UNL A   1      40.105  25.917  27.364  1.00  0.00    +0.000 C 
ATOM    114  H26 UNL A   1      42.835  22.334  30.760  1.00  0.00    +0.000 H 
ATOM    115  H27 UNL A   1      44.742  23.846  31.793  1.00  0.00    +0.000 H 
ATOM    116  H28 UNL A   1      45.004  24.014  27.722  1.00  0.00    +0.000 H 
ATOM    117  H29 UNL A   1      42.274  31.228  31.584  1.00  0.00    +0.000 H 
ATOM    118  H30 UNL A   1      40.465  30.382  30.040  1.00  0.00    +0.000 H 
ATOM    119  H31 UNL A   1      43.385  27.456  30.238  1.00  0.00    +0.000 H 
ATOM    120  H32 UNL A   1      44.616  26.938  33.697  1.00  0.00    +0.000 H 
ATOM    121  H33 UNL A   1      46.171  25.211  32.543  1.00  0.00    +0.000 H 
ATOM    122  H34 UNL A   1      40.076  24.045  26.409  1.00  0.00    +0.000 H 
ATOM    123  H35 UNL A   1      39.391  26.472  26.865  1.00  0.00    +0.000 H 
ENDROOT
BRANCH   30   29
ATOM    124  H36 UNL A   1      38.437  27.757  30.468  1.00  0.00    +0.000 H 
ATOM     29  C23 UNL A   1      39.468  28.356  28.717  1.00  0.00    +0.000 C 
ATOM    112  H24 UNL A   1      38.156  30.336  26.357  1.00  0.00    +0.000 H 
ATOM    113  H25 UNL A   1      40.160  29.063  26.848  1.00  0.00    +0.000 H 
ATOM     87  C62 UNL A   1      38.380  28.315  29.602  1.00  0.00    +0.000 C 
ATOM     88  C63 UNL A   1      37.222  29.034  29.308  1.00  0.00    +0.000 C 
ATOM     26  C20 UNL A   1      37.162  29.814  28.149  1.00  0.00    +0.000 C 
ATOM     27  C21 UNL A   1      38.226  29.802  27.238  1.00  0.00    +0.000 C 
ATOM     28  C22 UNL A   1      39.377  29.074  27.519  1.00  0.00    +0.000 C 
ATOM    125  H37 UNL A   1      36.410  28.990  29.944  1.00  0.00    +0.000 H 
BRANCH   26   24
ATOM     25  O2  UNL A   1      36.029  31.832  27.815  1.00  0.00    +0.000 O 
ATOM     24  C19 UNL A   1      35.968  30.613  27.791  1.00  0.00    +0.000 C 
BRANCH   24   23
ATOM    111  H23 UNL A   1      34.828  29.047  27.246  1.00  0.00    +0.000 H 
ATOM     23  N3  UNL A   1      34.779  30.007  27.458  1.00  0.00    +0.000 N 
BRANCH   23   22
ATOM    110  H22 UNL A   1      33.506  31.450  26.722  1.00  0.00    +0.000 H 
ATOM    109  H21 UNL A   1      33.158  30.918  28.363  1.00  0.00    +0.000 H 
ATOM     22  C18 UNL A   1      33.458  30.610  27.382  1.00  0.00    +0.000 C 
BRANCH   22   21
ATOM    107  H19 UNL A   1      32.564  28.684  27.337  1.00  0.00    +0.000 H 
ATOM    108  H20 UNL A   1      31.466  30.050  27.008  1.00  0.00    +0.000 H 
ATOM     21  C17 UNL A   1      32.430  29.620  26.834  1.00  0.00    +0.000 C 
BRANCH   21   20
ATOM    105  H17 UNL A   1      32.847  30.284  24.858  1.00  0.00    +0.000 H 
ATOM    106  H18 UNL A   1      33.233  28.570  25.202  1.00  0.00    +0.000 H 
ATOM     20  C16 UNL A   1      32.535  29.372  25.323  1.00  0.00    +0.000 C 
BRANCH   20   19
ATOM     19  C15 UNL A   1      31.239  28.914  24.647  1.00  0.00    +0.000 C 
ATOM    103  H15 UNL A   1      31.046  27.908  24.952  1.00  0.00    +0.000 H 
ATOM    104  H16 UNL A   1      30.485  29.608  24.954  1.00  0.00    +0.000 H 
BRANCH   19   18
ATOM     18  C14 UNL A   1      31.251  28.951  23.113  1.00  0.00    +0.000 C 
ATOM    101  H13 UNL A   1      30.782  29.860  22.799  1.00  0.00    +0.000 H 
ATOM    102  H14 UNL A   1      32.277  28.880  22.819  1.00  0.00    +0.000 H 
BRANCH   18   17
ATOM     17  C13 UNL A   1      30.530  27.787  22.433  1.00  0.00    +0.000 C 
ATOM     99  H11 UNL A   1      29.544  28.100  22.159  1.00  0.00    +0.000 H 
ATOM    100  H12 UNL A   1      31.091  27.502  21.567  1.00  0.00    +0.000 H 
BRANCH   17   16
ATOM     98  H10 UNL A   1      29.841  26.691  24.093  1.00  0.00    +0.000 H 
ATOM     16  N2  UNL A   1      30.435  26.642  23.310  1.00  0.00    +0.000 N 
BRANCH   16    2
ATOM      1  O1  UNL A   1      30.649  24.361  23.123  1.00  0.00    +0.000 O 
ATOM      2  C1  UNL A   1      31.150  25.481  23.087  1.00  0.00    +0.000 C 
BRANCH    2    3
ATOM     89  H1  UNL A   1      32.815  26.771  22.868  1.00  0.00    +0.000 H 
ATOM     90  H2  UNL A   1      32.877  25.280  21.907  1.00  0.00    +0.000 H 
ATOM      3  C2  UNL A   1      32.632  25.717  22.852  1.00  0.00    +0.000 C 
BRANCH    3    4
ATOM     97  H9  UNL A   1      34.801  23.829  22.698  1.00  0.00    +0.000 H 
ATOM      4  C3  UNL A   1      33.505  25.068  23.881  1.00  0.00    +0.000 C 
ATOM      5  C4  UNL A   1      33.458  25.224  25.291  1.00  0.00    +0.000 C 
ATOM      6  C5  UNL A   1      34.385  24.368  25.839  1.00  0.00    +0.000 C 
ATOM      7  N1  UNL A   1      35.027  23.685  24.827  1.00  0.00    +0.000 N 
ATOM     15  C12 UNL A   1      34.499  24.137  23.635  1.00  0.00    +0.000 C 
ATOM     91  H3  UNL A   1      32.838  25.864  25.812  1.00  0.00    +0.000 H 
ATOM     92  H4  UNL A   1      34.571  24.254  26.849  1.00  0.00    +0.000 H 
BRANCH    7    8
ATOM      8  C6  UNL A   1      36.011  22.675  24.995  1.00  0.00    +0.000 C 
ATOM      9  C7  UNL A   1      35.683  21.332  24.753  1.00  0.00    +0.000 C 
ATOM     10  C8  UNL A   1      36.653  20.335  24.892  1.00  0.00    +0.000 C 
ATOM     11  C9  UNL A   1      37.945  20.665  25.297  1.00  0.00    +0.000 C 
ATOM     12  C10 UNL A   1      38.273  21.995  25.550  1.00  0.00    +0.000 C 
ATOM     13  C11 UNL A   1      37.315  22.994  25.388  1.00  0.00    +0.000 C 
ATOM     14  F1  UNL A   1      37.675  24.250  25.687  1.00  0.00    +0.000 F 
ATOM     93  H5  UNL A   1      34.723  21.080  24.471  1.00  0.00    +0.000 H 
ATOM     94  H6  UNL A   1      36.411  19.351  24.695  1.00  0.00    +0.000 H 
ATOM     95  H7  UNL A   1      38.657  19.926  25.409  1.00  0.00    +0.000 H 
ATOM     96  H8  UNL A   1      39.227  22.241  25.858  1.00  0.00    +0.000 H 
ENDBRANCH    7    8
ENDBRANCH    3    4
ENDBRANCH    2    3
ENDBRANCH   16    2
ENDBRANCH   17   16
ENDBRANCH   18   17
ENDBRANCH   19   18
ENDBRANCH   20   19
ENDBRANCH   21   20
ENDBRANCH   22   21
ENDBRANCH   23   22
ENDBRANCH   24   23
ENDBRANCH   26   24
ENDBRANCH   30   29
BRANCH   34   35
ATOM     35  C28 UNL A   1      42.590  22.199  26.841  1.00  0.00    +0.000 C 
ATOM     36  C29 UNL A   1      43.566  22.275  25.836  1.00  0.00    +0.000 C 
ATOM     37  F2  UNL A   1      44.245  23.407  25.616  1.00  0.00    +0.000 F 
ATOM     38  C30 UNL A   1      43.939  21.147  25.096  1.00  0.00    +0.000 C 
ATOM     39  F3  UNL A   1      44.903  21.252  24.170  1.00  0.00    +0.000 F 
ATOM     40  C31 UNL A   1      43.373  19.910  25.357  1.00  0.00    +0.000 C 
ATOM     41  F4  UNL A   1      43.808  18.818  24.715  1.00  0.00    +0.000 F 
ATOM     42  C32 UNL A   1      42.382  19.806  26.311  1.00  0.00    +0.000 C 
ATOM     43  F5  UNL A   1      41.849  18.610  26.598  1.00  0.00    +0.000 F 
ATOM     44  C33 UNL A   1      41.975  20.936  27.019  1.00  0.00    +0.000 C 
ATOM     45  F6  UNL A   1      41.009  20.769  27.936  1.00  0.00    +0.000 F 
ENDBRANCH   34   35
BRANCH   51   52
ATOM     52  C39 UNL A   1      45.959  26.587  28.370  1.00  0.00    +0.000 C 
ATOM     53  C40 UNL A   1      44.872  27.140  27.675  1.00  0.00    +0.000 C 
ATOM     54  F7  UNL A   1      43.624  26.863  28.045  1.00  0.00    +0.000 F 
ATOM     55  C41 UNL A   1      45.034  27.988  26.582  1.00  0.00    +0.000 C 
ATOM     56  F8  UNL A   1      43.958  28.471  25.943  1.00  0.00    +0.000 F 
ATOM     57  C42 UNL A   1      46.304  28.326  26.159  1.00  0.00    +0.000 C 
ATOM     58  F9  UNL A   1      46.466  29.143  25.109  1.00  0.00    +0.000 F 
ATOM     59  C43 UNL A   1      47.403  27.803  26.822  1.00  0.00    +0.000 C 
ATOM     60  F10 UNL A   1      48.637  28.126  26.412  1.00  0.00    +0.000 F 
ATOM     61  C44 UNL A   1      47.234  26.941  27.910  1.00  0.00    +0.000 C 
ATOM     62  F11 UNL A   1      48.326  26.454  28.519  1.00  0.00    +0.000 F 
ENDBRANCH   51   52
BRANCH   66   67
ATOM     67  C48 UNL A   1      44.936  30.244  33.192  1.00  0.00    +0.000 C 
ATOM     68  C49 UNL A   1      45.849  31.293  32.882  1.00  0.00    +0.000 C 
ATOM     69  F12 UNL A   1      46.103  31.654  31.618  1.00  0.00    +0.000 F 
ATOM     70  C50 UNL A   1      46.544  32.026  33.847  1.00  0.00    +0.000 C 
ATOM     71  F13 UNL A   1      47.454  32.934  33.466  1.00  0.00    +0.000 F 
ATOM     72  C51 UNL A   1      46.308  31.803  35.182  1.00  0.00    +0.000 C 
ATOM     73  F14 UNL A   1      46.988  32.481  36.114  1.00  0.00    +0.000 F 
ATOM     74  C52 UNL A   1      45.342  30.883  35.536  1.00  0.00    +0.000 C 
ATOM     75  F15 UNL A   1      45.053  30.701  36.832  1.00  0.00    +0.000 F 
ATOM     76  C53 UNL A   1      44.662  30.129  34.562  1.00  0.00    +0.000 C 
ATOM     77  F16 UNL A   1      43.704  29.321  35.018  1.00  0.00    +0.000 F 
ENDBRANCH   66   67
TORSDOF 17
ENDMDL
MODEL 7
REMARK VINA RESULT:     -11.1      1.854      3.754
ROOT
ATOM     30  C24 UNL A   1      40.853  27.748  28.965  1.00  0.00    +0.000 C 
ATOM     31  C25 UNL A   1      41.009  26.311  28.458  1.00  0.00    +0.000 C 
ATOM     32  N4  UNL A   1      41.795  25.358  28.864  1.00  0.00    +0.000 N 
ATOM     33  C26 UNL A   1      41.619  24.268  27.987  1.00  0.00    +0.000 C 
ATOM     34  C27 UNL A   1      42.478  23.212  27.903  1.00  0.00    +0.000 C 
ATOM     46  C34 UNL A   1      43.528  23.321  28.857  1.00  0.00    +0.000 C 
ATOM     47  C35 UNL A   1      43.618  23.076  30.201  1.00  0.00    +0.000 C 
ATOM     48  C36 UNL A   1      44.667  23.909  30.652  1.00  0.00    +0.000 C 
ATOM     49  C37 UNL A   1      45.198  24.601  29.560  1.00  0.00    +0.000 C 
ATOM     50  N5  UNL A   1      44.668  23.973  28.458  1.00  0.00    +0.000 N 
ATOM     51  C38 UNL A   1      45.925  25.833  29.342  1.00  0.00    +0.000 C 
ATOM     63  C45 UNL A   1      46.186  26.607  30.425  1.00  0.00    +0.000 C 
ATOM     64  N6  UNL A   1      46.011  27.972  30.348  1.00  0.00    +0.000 N 
ATOM     65  C46 UNL A   1      45.379  28.243  31.453  1.00  0.00    +0.000 C 
ATOM     66  C47 UNL A   1      44.632  29.489  31.714  1.00  0.00    +0.000 C 
ATOM     78  C54 UNL A   1      43.489  29.410  30.963  1.00  0.00    +0.000 C 
ATOM     79  C55 UNL A   1      42.439  30.399  30.826  1.00  0.00    +0.000 C 
ATOM     80  C56 UNL A   1      41.435  29.906  30.078  1.00  0.00    +0.000 C 
ATOM     81  C57 UNL A   1      41.727  28.525  29.663  1.00  0.00    +0.000 C 
ATOM     82  N7  UNL A   1      43.000  28.339  30.171  1.00  0.00    +0.000 N 
ATOM     83  C58 UNL A   1      45.363  27.180  32.465  1.00  0.00    +0.000 C 
ATOM     84  C59 UNL A   1      46.057  26.250  31.815  1.00  0.00    +0.000 C 
ATOM     85  C60 UNL A   1      40.496  24.589  27.156  1.00  0.00    +0.000 C 
ATOM     86  C61 UNL A   1      40.114  25.849  27.365  1.00  0.00    +0.000 C 
ATOM    114  H26 UNL A   1      43.044  22.427  30.762  1.00  0.00    +0.000 H 
ATOM    115  H27 UNL A   1      44.990  23.992  31.629  1.00  0.00    +0.000 H 
ATOM    116  H28 UNL A   1      45.039  23.988  27.547  1.00  0.00    +0.000 H 
ATOM    117  H29 UNL A   1      42.459  31.345  31.240  1.00  0.00    +0.000 H 
ATOM    118  H30 UNL A   1      40.578  30.424  29.830  1.00  0.00    +0.000 H 
ATOM    119  H31 UNL A   1      43.527  27.525  29.997  1.00  0.00    +0.000 H 
ATOM    120  H32 UNL A   1      44.940  27.161  33.406  1.00  0.00    +0.000 H 
ATOM    121  H33 UNL A   1      46.445  25.395  32.245  1.00  0.00    +0.000 H 
ATOM    122  H34 UNL A   1      40.049  23.938  26.493  1.00  0.00    +0.000 H 
ATOM    123  H35 UNL A   1      39.371  26.378  26.881  1.00  0.00    +0.000 H 
ENDROOT
BRANCH   30   29
ATOM    124  H36 UNL A   1      38.565  27.715  30.426  1.00  0.00    +0.000 H 
ATOM     29  C23 UNL A   1      39.529  28.338  28.646  1.00  0.00    +0.000 C 
ATOM    112  H24 UNL A   1      38.109  30.302  26.336  1.00  0.00    +0.000 H 
ATOM    113  H25 UNL A   1      40.150  29.064  26.759  1.00  0.00    +0.000 H 
ATOM     87  C62 UNL A   1      38.470  28.275  29.565  1.00  0.00    +0.000 C 
ATOM     88  C63 UNL A   1      37.290  28.973  29.309  1.00  0.00    +0.000 C 
ATOM     26  C20 UNL A   1      37.180  29.756  28.156  1.00  0.00    +0.000 C 
ATOM     27  C21 UNL A   1      38.216  29.767  27.212  1.00  0.00    +0.000 C 
ATOM     28  C22 UNL A   1      39.388  29.059  27.454  1.00  0.00    +0.000 C 
ATOM    125  H37 UNL A   1      36.500  28.912  29.970  1.00  0.00    +0.000 H 
BRANCH   26   24
ATOM     25  O2  UNL A   1      36.025  31.751  27.767  1.00  0.00    +0.000 O 
ATOM     24  C19 UNL A   1      35.961  30.533  27.838  1.00  0.00    +0.000 C 
BRANCH   24   23
ATOM    111  H23 UNL A   1      34.156  29.875  28.434  1.00  0.00    +0.000 H 
ATOM     23  N3  UNL A   1      34.749  29.912  27.649  1.00  0.00    +0.000 N 
BRANCH   23   22
ATOM    110  H22 UNL A   1      35.015  29.299  25.700  1.00  0.00    +0.000 H 
ATOM    109  H21 UNL A   1      33.396  29.869  26.086  1.00  0.00    +0.000 H 
ATOM     22  C18 UNL A   1      34.236  29.303  26.432  1.00  0.00    +0.000 C 
BRANCH   22   21
ATOM    107  H19 UNL A   1      34.673  27.259  26.803  1.00  0.00    +0.000 H 
ATOM    108  H20 UNL A   1      33.177  27.874  27.554  1.00  0.00    +0.000 H 
ATOM     21  C17 UNL A   1      33.796  27.860  26.681  1.00  0.00    +0.000 C 
BRANCH   21   20
ATOM    105  H17 UNL A   1      32.337  26.486  25.974  1.00  0.00    +0.000 H 
ATOM    106  H18 UNL A   1      32.394  28.063  25.131  1.00  0.00    +0.000 H 
ATOM     20  C16 UNL A   1      32.952  27.253  25.552  1.00  0.00    +0.000 C 
BRANCH   20   19
ATOM     19  C15 UNL A   1      33.751  26.641  24.398  1.00  0.00    +0.000 C 
ATOM    103  H15 UNL A   1      34.785  26.857  24.561  1.00  0.00    +0.000 H 
ATOM    104  H16 UNL A   1      33.525  25.595  24.405  1.00  0.00    +0.000 H 
BRANCH   19   18
ATOM     18  C14 UNL A   1      33.374  27.146  22.999  1.00  0.00    +0.000 C 
ATOM    101  H13 UNL A   1      33.742  28.145  22.897  1.00  0.00    +0.000 H 
ATOM    102  H14 UNL A   1      33.812  26.460  22.305  1.00  0.00    +0.000 H 
BRANCH   18   17
ATOM     17  C13 UNL A   1      31.875  27.161  22.698  1.00  0.00    +0.000 C 
ATOM     99  H11 UNL A   1      31.359  27.600  23.526  1.00  0.00    +0.000 H 
ATOM    100  H12 UNL A   1      31.715  27.730  21.806  1.00  0.00    +0.000 H 
BRANCH   17   16
ATOM     98  H10 UNL A   1      31.579  25.367  21.635  1.00  0.00    +0.000 H 
ATOM     16  N2  UNL A   1      31.369  25.824  22.482  1.00  0.00    +0.000 N 
BRANCH   16    2
ATOM      1  O1  UNL A   1      29.886  25.740  24.236  1.00  0.00    +0.000 O 
ATOM      2  C1  UNL A   1      30.601  25.165  23.422  1.00  0.00    +0.000 C 
BRANCH    2    3
ATOM     89  H1  UNL A   1      31.028  23.361  22.396  1.00  0.00    +0.000 H 
ATOM     90  H2  UNL A   1      29.847  23.225  23.714  1.00  0.00    +0.000 H 
ATOM      3  C2  UNL A   1      30.772  23.655  23.393  1.00  0.00    +0.000 C 
BRANCH    3    4
ATOM     97  H9  UNL A   1      33.649  23.624  23.263  1.00  0.00    +0.000 H 
ATOM      4  C3  UNL A   1      31.838  23.163  24.322  1.00  0.00    +0.000 C 
ATOM      5  C4  UNL A   1      31.674  22.524  25.580  1.00  0.00    +0.000 C 
ATOM      6  C5  UNL A   1      32.922  22.165  26.034  1.00  0.00    +0.000 C 
ATOM      7  N1  UNL A   1      33.872  22.565  25.115  1.00  0.00    +0.000 N 
ATOM     15  C12 UNL A   1      33.201  23.194  24.086  1.00  0.00    +0.000 C 
ATOM     91  H3  UNL A   1      30.779  22.359  26.066  1.00  0.00    +0.000 H 
ATOM     92  H4  UNL A   1      33.117  21.675  26.921  1.00  0.00    +0.000 H 
BRANCH    7    8
ATOM      8  C6  UNL A   1      35.269  22.326  25.203  1.00  0.00    +0.000 C 
ATOM      9  C7  UNL A   1      36.138  23.379  25.530  1.00  0.00    +0.000 C 
ATOM     10  C8  UNL A   1      37.512  23.148  25.644  1.00  0.00    +0.000 C 
ATOM     11  C9  UNL A   1      38.030  21.876  25.409  1.00  0.00    +0.000 C 
ATOM     12  C10 UNL A   1      37.174  20.830  25.073  1.00  0.00    +0.000 C 
ATOM     13  C11 UNL A   1      35.801  21.052  24.983  1.00  0.00    +0.000 C 
ATOM     14  F1  UNL A   1      35.030  20.019  24.616  1.00  0.00    +0.000 F 
ATOM     93  H5  UNL A   1      35.761  24.328  25.686  1.00  0.00    +0.000 H 
ATOM     94  H6  UNL A   1      38.144  23.922  25.901  1.00  0.00    +0.000 H 
ATOM     95  H7  UNL A   1      39.047  21.709  25.483  1.00  0.00    +0.000 H 
ATOM     96  H8  UNL A   1      37.556  19.888  24.890  1.00  0.00    +0.000 H 
ENDBRANCH    7    8
ENDBRANCH    3    4
ENDBRANCH    2    3
ENDBRANCH   16    2
ENDBRANCH   17   16
ENDBRANCH   18   17
ENDBRANCH   19   18
ENDBRANCH   20   19
ENDBRANCH   21   20
ENDBRANCH   22   21
ENDBRANCH   23   22
ENDBRANCH   24   23
ENDBRANCH   26   24
ENDBRANCH   30   29
BRANCH   34   35
ATOM     35  C28 UNL A   1      42.597  22.125  26.869  1.00  0.00    +0.000 C 
ATOM     36  C29 UNL A   1      43.551  22.140  25.841  1.00  0.00    +0.000 C 
ATOM     37  F2  UNL A   1      44.250  23.248  25.562  1.00  0.00    +0.000 F 
ATOM     38  C30 UNL A   1      43.882  20.977  25.136  1.00  0.00    +0.000 C 
ATOM     39  F3  UNL A   1      44.826  21.024  24.186  1.00  0.00    +0.000 F 
ATOM     40  C31 UNL A   1      43.295  19.764  25.457  1.00  0.00    +0.000 C 
ATOM     41  F4  UNL A   1      43.691  18.638  24.848  1.00  0.00    +0.000 F 
ATOM     42  C32 UNL A   1      42.323  19.719  26.436  1.00  0.00    +0.000 C 
ATOM     43  F5  UNL A   1      41.772  18.547  26.781  1.00  0.00    +0.000 F 
ATOM     44  C33 UNL A   1      41.958  20.885  27.109  1.00  0.00    +0.000 C 
ATOM     45  F6  UNL A   1      41.010  20.774  28.053  1.00  0.00    +0.000 F 
ENDBRANCH   34   35
BRANCH   51   52
ATOM     52  C39 UNL A   1      46.007  26.592  28.036  1.00  0.00    +0.000 C 
ATOM     53  C40 UNL A   1      47.216  26.835  27.363  1.00  0.00    +0.000 C 
ATOM     54  F7  UNL A   1      48.377  26.506  27.924  1.00  0.00    +0.000 F 
ATOM     55  C41 UNL A   1      47.267  27.424  26.102  1.00  0.00    +0.000 C 
ATOM     56  F8  UNL A   1      48.453  27.652  25.516  1.00  0.00    +0.000 F 
ATOM     57  C42 UNL A   1      46.096  27.774  25.460  1.00  0.00    +0.000 C 
ATOM     58  F9  UNL A   1      46.138  28.338  24.246  1.00  0.00    +0.000 F 
ATOM     59  C43 UNL A   1      44.883  27.546  26.090  1.00  0.00    +0.000 C 
ATOM     60  F10 UNL A   1      43.743  27.888  25.472  1.00  0.00    +0.000 F 
ATOM     61  C44 UNL A   1      44.838  26.967  27.362  1.00  0.00    +0.000 C 
ATOM     62  F11 UNL A   1      43.641  26.769  27.937  1.00  0.00    +0.000 F 
ENDBRANCH   51   52
BRANCH   66   67
ATOM     67  C48 UNL A   1      45.208  30.444  32.746  1.00  0.00    +0.000 C 
ATOM     68  C49 UNL A   1      46.385  31.192  32.454  1.00  0.00    +0.000 C 
ATOM     69  F12 UNL A   1      46.893  31.250  31.216  1.00  0.00    +0.000 F 
ATOM     70  C50 UNL A   1      47.099  31.919  33.410  1.00  0.00    +0.000 C 
ATOM     71  F13 UNL A   1      48.248  32.520  33.068  1.00  0.00    +0.000 F 
ATOM     72  C51 UNL A   1      46.633  32.002  34.699  1.00  0.00    +0.000 C 
ATOM     73  F14 UNL A   1      47.323  32.674  35.629  1.00  0.00    +0.000 F 
ATOM     74  C52 UNL A   1      45.430  31.398  35.007  1.00  0.00    +0.000 C 
ATOM     75  F15 UNL A   1      44.928  31.525  36.243  1.00  0.00    +0.000 F 
ATOM     76  C53 UNL A   1      44.727  30.646  34.048  1.00  0.00    +0.000 C 
ATOM     77  F16 UNL A   1      43.546  30.165  34.439  1.00  0.00    +0.000 F 
ENDBRANCH   66   67
TORSDOF 17
ENDMDL
MODEL 8
REMARK VINA RESULT:     -11.0     35.689     42.985
ROOT
ATOM     30  C24 UNL A   1      26.218  23.010 -10.393  1.00  0.00    +0.000 C 
ATOM     31  C25 UNL A   1      26.048  24.453  -9.906  1.00  0.00    +0.000 C 
ATOM     32  N4  UNL A   1      24.982  25.193  -9.831  1.00  0.00    +0.000 N 
ATOM     33  C26 UNL A   1      25.392  26.476  -9.417  1.00  0.00    +0.000 C 
ATOM     34  C27 UNL A   1      24.616  27.594  -9.517  1.00  0.00    +0.000 C 
ATOM     46  C34 UNL A   1      23.325  27.283 -10.027  1.00  0.00    +0.000 C 
ATOM     47  C35 UNL A   1      22.193  26.745  -9.477  1.00  0.00    +0.000 C 
ATOM     48  C36 UNL A   1      21.506  26.157 -10.564  1.00  0.00    +0.000 C 
ATOM     49  C37 UNL A   1      22.229  26.390 -11.736  1.00  0.00    +0.000 C 
ATOM     50  N5  UNL A   1      23.162  27.337 -11.388  1.00  0.00    +0.000 N 
ATOM     51  C38 UNL A   1      22.358  25.772 -13.039  1.00  0.00    +0.000 C 
ATOM     63  C45 UNL A   1      21.644  24.643 -13.271  1.00  0.00    +0.000 C 
ATOM     64  N6  UNL A   1      22.237  23.578 -13.914  1.00  0.00    +0.000 N 
ATOM     65  C46 UNL A   1      21.870  22.563 -13.188  1.00  0.00    +0.000 C 
ATOM     66  C47 UNL A   1      22.508  21.232 -13.212  1.00  0.00    +0.000 C 
ATOM     78  C54 UNL A   1      23.713  21.378 -12.575  1.00  0.00    +0.000 C 
ATOM     79  C55 UNL A   1      24.745  20.381 -12.374  1.00  0.00    +0.000 C 
ATOM     80  C56 UNL A   1      25.733  20.887 -11.614  1.00  0.00    +0.000 C 
ATOM     81  C57 UNL A   1      25.433  22.274 -11.228  1.00  0.00    +0.000 C 
ATOM     82  N7  UNL A   1      24.249  22.508 -11.904  1.00  0.00    +0.000 N 
ATOM     83  C58 UNL A   1      20.786  22.813 -12.229  1.00  0.00    +0.000 C 
ATOM     84  C59 UNL A   1      20.569  24.101 -12.477  1.00  0.00    +0.000 C 
ATOM     85  C60 UNL A   1      26.771  26.364  -9.043  1.00  0.00    +0.000 C 
ATOM     86  C61 UNL A   1      27.241  25.160  -9.369  1.00  0.00    +0.000 C 
ATOM    114  H26 UNL A   1      21.904  26.764  -8.487  1.00  0.00    +0.000 H 
ATOM    115  H27 UNL A   1      20.615  25.639 -10.502  1.00  0.00    +0.000 H 
ATOM    116  H28 UNL A   1      23.629  27.946 -12.005  1.00  0.00    +0.000 H 
ATOM    117  H29 UNL A   1      24.725  19.423 -12.758  1.00  0.00    +0.000 H 
ATOM    118  H30 UNL A   1      26.585  20.373 -11.340  1.00  0.00    +0.000 H 
ATOM    119  H31 UNL A   1      23.812  23.390 -11.919  1.00  0.00    +0.000 H 
ATOM    120  H32 UNL A   1      20.327  22.175 -11.560  1.00  0.00    +0.000 H 
ATOM    121  H33 UNL A   1      19.749  24.636 -12.148  1.00  0.00    +0.000 H 
ATOM    122  H34 UNL A   1      27.321  27.109  -8.588  1.00  0.00    +0.000 H 
ATOM    123  H35 UNL A   1      28.204  24.803  -9.272  1.00  0.00    +0.000 H 
ENDROOT
BRANCH   30   29
ATOM    124  H36 UNL A   1      26.492  21.660  -8.053  1.00  0.00    +0.000 H 
ATOM     29  C23 UNL A   1      27.419  22.342  -9.831  1.00  0.00    +0.000 C 
ATOM    112  H24 UNL A   1      30.554  21.575 -10.722  1.00  0.00    +0.000 H 
ATOM    113  H25 UNL A   1      28.661  22.905 -11.448  1.00  0.00    +0.000 H 
ATOM     87  C62 UNL A   1      27.351  21.631  -8.624  1.00  0.00    +0.000 C 
ATOM     88  C63 UNL A   1      28.448  20.882  -8.200  1.00  0.00    +0.000 C 
ATOM     26  C20 UNL A   1      29.597  20.819  -8.994  1.00  0.00    +0.000 C 
ATOM     27  C21 UNL A   1      29.683  21.580 -10.167  1.00  0.00    +0.000 C 
ATOM     28  C22 UNL A   1      28.598  22.342 -10.586  1.00  0.00    +0.000 C 
ATOM    125  H37 UNL A   1      28.412  20.375  -7.301  1.00  0.00    +0.000 H 
BRANCH   26   24
ATOM     25  O2  UNL A   1      30.834  18.838  -8.880  1.00  0.00    +0.000 O 
ATOM     24  C19 UNL A   1      30.787  20.028  -8.607  1.00  0.00    +0.000 C 
BRANCH   24   23
ATOM    111  H23 UNL A   1      32.702  20.149  -7.999  1.00  0.00    +0.000 H 
ATOM     23  N3  UNL A   1      31.831  20.601  -7.918  1.00  0.00    +0.000 N 
BRANCH   23   22
ATOM    110  H22 UNL A   1      32.516  21.668  -6.294  1.00  0.00    +0.000 H 
ATOM    109  H21 UNL A   1      30.819  21.918  -6.686  1.00  0.00    +0.000 H 
ATOM     22  C18 UNL A   1      31.805  21.791  -7.083  1.00  0.00    +0.000 C 
BRANCH   22   21
ATOM    107  H19 UNL A   1      33.219  23.242  -7.720  1.00  0.00    +0.000 H 
ATOM    108  H20 UNL A   1      31.962  22.818  -8.912  1.00  0.00    +0.000 H 
ATOM     21  C17 UNL A   1      32.182  23.036  -7.887  1.00  0.00    +0.000 C 
BRANCH   21   20
ATOM    105  H17 UNL A   1      31.853  24.758  -6.686  1.00  0.00    +0.000 H 
ATOM    106  H18 UNL A   1      31.366  24.901  -8.403  1.00  0.00    +0.000 H 
ATOM     20  C16 UNL A   1      31.378  24.291  -7.523  1.00  0.00    +0.000 C 
BRANCH   20   19
ATOM     19  C15 UNL A   1      29.912  24.042  -7.158  1.00  0.00    +0.000 C 
ATOM    103  H15 UNL A   1      29.304  24.627  -7.815  1.00  0.00    +0.000 H 
ATOM    104  H16 UNL A   1      29.758  22.988  -7.256  1.00  0.00    +0.000 H 
BRANCH   19   18
ATOM     18  C14 UNL A   1      29.526  24.395  -5.715  1.00  0.00    +0.000 C 
ATOM    101  H13 UNL A   1      30.061  25.277  -5.435  1.00  0.00    +0.000 H 
ATOM    102  H14 UNL A   1      28.463  24.523  -5.712  1.00  0.00    +0.000 H 
BRANCH   18   17
ATOM     17  C13 UNL A   1      29.827  23.309  -4.682  1.00  0.00    +0.000 C 
ATOM     99  H11 UNL A   1      29.929  22.370  -5.183  1.00  0.00    +0.000 H 
ATOM    100  H12 UNL A   1      30.734  23.568  -4.175  1.00  0.00    +0.000 H 
BRANCH   17   16
ATOM     98  H10 UNL A   1      28.525  24.009  -3.182  1.00  0.00    +0.000 H 
ATOM     16  N2  UNL A   1      28.771  23.209  -3.700  1.00  0.00    +0.000 N 
BRANCH   16    2
ATOM      1  O1  UNL A   1      28.296  21.317  -2.484  1.00  0.00    +0.000 O 
ATOM      2  C1  UNL A   1      28.094  22.028  -3.463  1.00  0.00    +0.000 C 
BRANCH    2    3
ATOM     89  H1  UNL A   1      26.911  20.613  -4.504  1.00  0.00    +0.000 H 
ATOM     90  H2  UNL A   1      27.564  21.933  -5.495  1.00  0.00    +0.000 H 
ATOM      3  C2  UNL A   1      27.113  21.662  -4.563  1.00  0.00    +0.000 C 
BRANCH    3    4
ATOM     97  H9  UNL A   1      26.279  24.306  -5.345  1.00  0.00    +0.000 H 
ATOM      4  C3  UNL A   1      25.814  22.401  -4.468  1.00  0.00    +0.000 C 
ATOM      5  C4  UNL A   1      24.590  21.949  -3.907  1.00  0.00    +0.000 C 
ATOM      6  C5  UNL A   1      23.695  22.992  -3.956  1.00  0.00    +0.000 C 
ATOM      7  N1  UNL A   1      24.303  24.086  -4.538  1.00  0.00    +0.000 N 
ATOM     15  C12 UNL A   1      25.588  23.707  -4.869  1.00  0.00    +0.000 C 
ATOM     91  H3  UNL A   1      24.406  21.005  -3.531  1.00  0.00    +0.000 H 
ATOM     92  H4  UNL A   1      22.722  22.962  -3.611  1.00  0.00    +0.000 H 
BRANCH    7    8
ATOM      8  C6  UNL A   1      23.720  25.368  -4.716  1.00  0.00    +0.000 C 
ATOM      9  C7  UNL A   1      23.524  26.206  -3.608  1.00  0.00    +0.000 C 
ATOM     10  C8  UNL A   1      22.973  27.480  -3.777  1.00  0.00    +0.000 C 
ATOM     11  C9  UNL A   1      22.593  27.916  -5.045  1.00  0.00    +0.000 C 
ATOM     12  C10 UNL A   1      22.774  27.084  -6.147  1.00  0.00    +0.000 C 
ATOM     13  C11 UNL A   1      23.346  25.823  -5.984  1.00  0.00    +0.000 C 
ATOM     14  F1  UNL A   1      23.458  25.050  -7.073  1.00  0.00    +0.000 F 
ATOM     93  H5  UNL A   1      23.787  25.881  -2.663  1.00  0.00    +0.000 H 
ATOM     94  H6  UNL A   1      22.848  28.099  -2.961  1.00  0.00    +0.000 H 
ATOM     95  H7  UNL A   1      22.177  28.853  -5.166  1.00  0.00    +0.000 H 
ATOM     96  H8  UNL A   1      22.485  27.401  -7.086  1.00  0.00    +0.000 H 
ENDBRANCH    7    8
ENDBRANCH    3    4
ENDBRANCH    2    3
ENDBRANCH   16    2
ENDBRANCH   17   16
ENDBRANCH   18   17
ENDBRANCH   19   18
ENDBRANCH   20   19
ENDBRANCH   21   20
ENDBRANCH   22   21
ENDBRANCH   23   22
ENDBRANCH   24   23
ENDBRANCH   26   24
ENDBRANCH   30   29
BRANCH   34   35
ATOM     35  C28 UNL A   1      24.972  29.050  -9.384  1.00  0.00    +0.000 C 
ATOM     36  C29 UNL A   1      25.427  29.625  -8.188  1.00  0.00    +0.000 C 
ATOM     37  F2  UNL A   1      25.328  28.971  -7.024  1.00  0.00    +0.000 F 
ATOM     38  C30 UNL A   1      26.090  30.858  -8.178  1.00  0.00    +0.000 C 
ATOM     39  F3  UNL A   1      26.542  31.357  -7.020  1.00  0.00    +0.000 F 
ATOM     40  C31 UNL A   1      26.345  31.534  -9.360  1.00  0.00    +0.000 C 
ATOM     41  F4  UNL A   1      27.068  32.661  -9.352  1.00  0.00    +0.000 F 
ATOM     42  C32 UNL A   1      25.877  31.016 -10.551  1.00  0.00    +0.000 C 
ATOM     43  F5  UNL A   1      26.146  31.642 -11.706  1.00  0.00    +0.000 F 
ATOM     44  C33 UNL A   1      25.176  29.811 -10.560  1.00  0.00    +0.000 C 
ATOM     45  F6  UNL A   1      24.752  29.359 -11.750  1.00  0.00    +0.000 F 
ENDBRANCH   34   35
BRANCH   51   52
ATOM     52  C39 UNL A   1      23.525  25.942 -13.987  1.00  0.00    +0.000 C 
ATOM     53  C40 UNL A   1      24.840  25.573 -13.660  1.00  0.00    +0.000 C 
ATOM     54  F7  UNL A   1      25.139  25.163 -12.430  1.00  0.00    +0.000 F 
ATOM     55  C41 UNL A   1      25.883  25.619 -14.583  1.00  0.00    +0.000 C 
ATOM     56  F8  UNL A   1      27.124  25.274 -14.209  1.00  0.00    +0.000 F 
ATOM     57  C42 UNL A   1      25.634  26.021 -15.879  1.00  0.00    +0.000 C 
ATOM     58  F9  UNL A   1      26.632  26.065 -16.772  1.00  0.00    +0.000 F 
ATOM     59  C43 UNL A   1      24.348  26.390 -16.242  1.00  0.00    +0.000 C 
ATOM     60  F10 UNL A   1      24.103  26.785 -17.499  1.00  0.00    +0.000 F 
ATOM     61  C44 UNL A   1      23.308  26.356 -15.308  1.00  0.00    +0.000 C 
ATOM     62  F11 UNL A   1      22.079  26.725 -15.700  1.00  0.00    +0.000 F 
ENDBRANCH   51   52
BRANCH   66   67
ATOM     67  C48 UNL A   1      21.705  20.084 -13.799  1.00  0.00    +0.000 C 
ATOM     68  C49 UNL A   1      21.191  19.060 -12.952  1.00  0.00    +0.000 C 
ATOM     69  F12 UNL A   1      21.205  19.177 -11.618  1.00  0.00    +0.000 F 
ATOM     70  C50 UNL A   1      20.635  17.868 -13.425  1.00  0.00    +0.000 C 
ATOM     71  F13 UNL A   1      20.259  16.918 -12.557  1.00  0.00    +0.000 F 
ATOM     72  C51 UNL A   1      20.492  17.666 -14.776  1.00  0.00    +0.000 C 
ATOM     73  F14 UNL A   1      19.985  16.517 -15.240  1.00  0.00    +0.000 F 
ATOM     74  C52 UNL A   1      20.860  18.680 -15.638  1.00  0.00    +0.000 C 
ATOM     75  F15 UNL A   1      20.665  18.524 -16.955  1.00  0.00    +0.000 F 
ATOM     76  C53 UNL A   1      21.441  19.868 -15.159  1.00  0.00    +0.000 C 
ATOM     77  F16 UNL A   1      21.694  20.802 -16.078  1.00  0.00    +0.000 F 
ENDBRANCH   66   67
TORSDOF 17
ENDMDL
MODEL 9
REMARK VINA RESULT:     -11.0      4.479      8.934
ROOT
ATOM     30  C24 UNL A   1      40.257  29.224  29.597  1.00  0.00    +0.000 C 
ATOM     31  C25 UNL A   1      39.057  30.165  29.449  1.00  0.00    +0.000 C 
ATOM     32  N4  UNL A   1      38.999  31.463  29.485  1.00  0.00    +0.000 N 
ATOM     33  C26 UNL A   1      37.639  31.823  29.405  1.00  0.00    +0.000 C 
ATOM     34  C27 UNL A   1      37.159  33.061  29.717  1.00  0.00    +0.000 C 
ATOM     46  C34 UNL A   1      38.212  33.953  30.062  1.00  0.00    +0.000 C 
ATOM     47  C35 UNL A   1      39.126  34.668  29.336  1.00  0.00    +0.000 C 
ATOM     48  C36 UNL A   1      40.218  34.859  30.213  1.00  0.00    +0.000 C 
ATOM     49  C37 UNL A   1      39.912  34.283  31.448  1.00  0.00    +0.000 C 
ATOM     50  N5  UNL A   1      38.565  34.019  31.386  1.00  0.00    +0.000 N 
ATOM     51  C38 UNL A   1      40.646  33.751  32.577  1.00  0.00    +0.000 C 
ATOM     63  C45 UNL A   1      42.000  33.743  32.497  1.00  0.00    +0.000 C 
ATOM     64  N6  UNL A   1      42.703  32.632  32.910  1.00  0.00    +0.000 N 
ATOM     65  C46 UNL A   1      43.562  32.461  31.947  1.00  0.00    +0.000 C 
ATOM     66  C47 UNL A   1      44.317  31.217  31.699  1.00  0.00    +0.000 C 
ATOM     78  C54 UNL A   1      43.415  30.322  31.186  1.00  0.00    +0.000 C 
ATOM     79  C55 UNL A   1      43.638  28.938  30.821  1.00  0.00    +0.000 C 
ATOM     80  C56 UNL A   1      42.528  28.424  30.260  1.00  0.00    +0.000 C 
ATOM     81  C57 UNL A   1      41.465  29.438  30.190  1.00  0.00    +0.000 C 
ATOM     82  N7  UNL A   1      42.055  30.513  30.830  1.00  0.00    +0.000 N 
ATOM     83  C58 UNL A   1      43.712  33.582  31.009  1.00  0.00    +0.000 C 
ATOM     84  C59 UNL A   1      42.830  34.426  31.537  1.00  0.00    +0.000 C 
ATOM     85  C60 UNL A   1      36.915  30.624  29.099  1.00  0.00    +0.000 C 
ATOM     86  C61 UNL A   1      37.726  29.568  29.164  1.00  0.00    +0.000 C 
ATOM    114  H26 UNL A   1      39.037  34.996  28.361  1.00  0.00    +0.000 H 
ATOM    115  H27 UNL A   1      41.098  35.345  29.979  1.00  0.00    +0.000 H 
ATOM    116  H28 UNL A   1      37.961  33.899  32.155  1.00  0.00    +0.000 H 
ATOM    117  H29 UNL A   1      44.519  28.421  30.970  1.00  0.00    +0.000 H 
ATOM    118  H30 UNL A   1      42.435  27.452  29.926  1.00  0.00    +0.000 H 
ATOM    119  H31 UNL A   1      41.568  31.348  31.023  1.00  0.00    +0.000 H 
ATOM    120  H32 UNL A   1      44.323  33.684  30.184  1.00  0.00    +0.000 H 
ATOM    121  H33 UNL A   1      42.752  35.426  31.292  1.00  0.00    +0.000 H 
ATOM    122  H34 UNL A   1      35.912  30.585  28.863  1.00  0.00    +0.000 H 
ATOM    123  H35 UNL A   1      37.485  28.571  29.044  1.00  0.00    +0.000 H 
ENDROOT
BRANCH   30   29
ATOM    124  H36 UNL A   1      39.087  27.005  30.636  1.00  0.00    +0.000 H 
ATOM     29  C23 UNL A   1      40.040  27.897  28.968  1.00  0.00    +0.000 C 
ATOM    112  H24 UNL A   1      40.384  26.406  25.990  1.00  0.00    +0.000 H 
ATOM    113  H25 UNL A   1      40.988  28.443  27.158  1.00  0.00    +0.000 H 
ATOM     87  C62 UNL A   1      39.350  26.881  29.647  1.00  0.00    +0.000 C 
ATOM     88  C63 UNL A   1      39.021  25.702  28.977  1.00  0.00    +0.000 C 
ATOM     26  C20 UNL A   1      39.352  25.553  27.627  1.00  0.00    +0.000 C 
ATOM     27  C21 UNL A   1      40.094  26.544  26.971  1.00  0.00    +0.000 C 
ATOM     28  C22 UNL A   1      40.439  27.714  27.639  1.00  0.00    +0.000 C 
ATOM    125  H37 UNL A   1      38.535  24.942  29.477  1.00  0.00    +0.000 H 
BRANCH   26   24
ATOM     25  O2  UNL A   1      39.832  23.431  26.768  1.00  0.00    +0.000 O 
ATOM     24  C19 UNL A   1      39.014  24.334  26.857  1.00  0.00    +0.000 C 
BRANCH   24   23
ATOM    111  H23 UNL A   1      37.163  24.943  26.356  1.00  0.00    +0.000 H 
ATOM     23  N3  UNL A   1      37.805  24.210  26.214  1.00  0.00    +0.000 N 
BRANCH   23   22
ATOM    110  H22 UNL A   1      37.133  22.279  25.958  1.00  0.00    +0.000 H 
ATOM    109  H21 UNL A   1      38.135  22.898  24.651  1.00  0.00    +0.000 H 
ATOM     22  C18 UNL A   1      37.358  23.129  25.349  1.00  0.00    +0.000 C 
BRANCH   22   21
ATOM    107  H19 UNL A   1      36.388  24.124  23.744  1.00  0.00    +0.000 H 
ATOM    108  H20 UNL A   1      35.616  22.612  24.290  1.00  0.00    +0.000 H 
ATOM     21  C17 UNL A   1      36.097  23.524  24.581  1.00  0.00    +0.000 C 
BRANCH   21   20
ATOM    105  H17 UNL A   1      35.611  24.913  26.113  1.00  0.00    +0.000 H 
ATOM    106  H18 UNL A   1      34.507  24.890  24.705  1.00  0.00    +0.000 H 
ATOM     20  C16 UNL A   1      35.074  24.315  25.407  1.00  0.00    +0.000 C 
BRANCH   20   19
ATOM     19  C15 UNL A   1      34.061  23.464  26.178  1.00  0.00    +0.000 C 
ATOM    103  H15 UNL A   1      34.383  23.409  27.196  1.00  0.00    +0.000 H 
ATOM    104  H16 UNL A   1      33.115  23.946  26.053  1.00  0.00    +0.000 H 
BRANCH   19   18
ATOM     18  C14 UNL A   1      33.880  22.031  25.660  1.00  0.00    +0.000 C 
ATOM    101  H13 UNL A   1      34.342  21.965  24.698  1.00  0.00    +0.000 H 
ATOM    102  H14 UNL A   1      34.327  21.389  26.391  1.00  0.00    +0.000 H 
BRANCH   18   17
ATOM     17  C13 UNL A   1      32.428  21.573  25.520  1.00  0.00    +0.000 C 
ATOM     99  H11 UNL A   1      32.392  20.724  24.869  1.00  0.00    +0.000 H 
ATOM    100  H12 UNL A   1      32.059  21.321  26.492  1.00  0.00    +0.000 H 
BRANCH   17   16
ATOM     98  H10 UNL A   1      31.057  23.170  25.589  1.00  0.00    +0.000 H 
ATOM     16  N2  UNL A   1      31.596  22.622  24.974  1.00  0.00    +0.000 N 
BRANCH   16    2
ATOM      1  O1  UNL A   1      31.970  22.122  22.762  1.00  0.00    +0.000 O 
ATOM      2  C1  UNL A   1      31.531  22.883  23.619  1.00  0.00    +0.000 C 
BRANCH    2    3
ATOM     89  H1  UNL A   1      30.021  24.348  23.862  1.00  0.00    +0.000 H 
ATOM     90  H2  UNL A   1      30.730  24.249  22.238  1.00  0.00    +0.000 H 
ATOM      3  C2  UNL A   1      30.918  24.233  23.291  1.00  0.00    +0.000 C 
BRANCH    3    4
ATOM     97  H9  UNL A   1      31.089  26.087  25.489  1.00  0.00    +0.000 H 
ATOM      4  C3  UNL A   1      31.826  25.385  23.597  1.00  0.00    +0.000 C 
ATOM      5  C4  UNL A   1      32.890  25.893  22.806  1.00  0.00    +0.000 C 
ATOM      6  C5  UNL A   1      33.385  27.011  23.437  1.00  0.00    +0.000 C 
ATOM      7  N1  UNL A   1      32.680  27.223  24.605  1.00  0.00    +0.000 N 
ATOM     15  C12 UNL A   1      31.748  26.211  24.705  1.00  0.00    +0.000 C 
ATOM     91  H3  UNL A   1      33.231  25.494  21.917  1.00  0.00    +0.000 H 
ATOM     92  H4  UNL A   1      34.160  27.599  23.091  1.00  0.00    +0.000 H 
BRANCH    7    8
ATOM      8  C6  UNL A   1      32.862  28.308  25.502  1.00  0.00    +0.000 C 
ATOM      9  C7  UNL A   1      33.953  28.310  26.385  1.00  0.00    +0.000 C 
ATOM     10  C8  UNL A   1      34.154  29.386  27.254  1.00  0.00    +0.000 C 
ATOM     11  C9  UNL A   1      33.256  30.452  27.268  1.00  0.00    +0.000 C 
ATOM     12  C10 UNL A   1      32.164  30.450  26.403  1.00  0.00    +0.000 C 
ATOM     13  C11 UNL A   1      31.977  29.390  25.518  1.00  0.00    +0.000 C 
ATOM     14  F1  UNL A   1      30.887  29.422  24.738  1.00  0.00    +0.000 F 
ATOM     93  H5  UNL A   1      34.611  27.514  26.392  1.00  0.00    +0.000 H 
ATOM     94  H6  UNL A   1      34.968  29.391  27.888  1.00  0.00    +0.000 H 
ATOM     95  H7  UNL A   1      33.400  31.241  27.918  1.00  0.00    +0.000 H 
ATOM     96  H8  UNL A   1      31.494  31.235  26.417  1.00  0.00    +0.000 H 
ENDBRANCH    7    8
ENDBRANCH    3    4
ENDBRANCH    2    3
ENDBRANCH   16    2
ENDBRANCH   17   16
ENDBRANCH   18   17
ENDBRANCH   19   18
ENDBRANCH   20   19
ENDBRANCH   21   20
ENDBRANCH   22   21
ENDBRANCH   23   22
ENDBRANCH   24   23
ENDBRANCH   26   24
ENDBRANCH   30   29
BRANCH   34   35
ATOM     35  C28 UNL A   1      35.750  33.538  29.946  1.00  0.00    +0.000 C 
ATOM     36  C29 UNL A   1      35.182  33.679  31.221  1.00  0.00    +0.000 C 
ATOM     37  F2  UNL A   1      35.772  33.155  32.303  1.00  0.00    +0.000 F 
ATOM     38  C30 UNL A   1      34.035  34.455  31.427  1.00  0.00    +0.000 C 
ATOM     39  F3  UNL A   1      33.545  34.596  32.665  1.00  0.00    +0.000 F 
ATOM     40  C31 UNL A   1      33.443  35.135  30.375  1.00  0.00    +0.000 C 
ATOM     41  F4  UNL A   1      32.408  35.956  30.597  1.00  0.00    +0.000 F 
ATOM     42  C32 UNL A   1      33.952  34.987  29.101  1.00  0.00    +0.000 C 
ATOM     43  F5  UNL A   1      33.410  35.666  28.079  1.00  0.00    +0.000 F 
ATOM     44  C33 UNL A   1      35.067  34.178  28.884  1.00  0.00    +0.000 C 
ATOM     45  F6  UNL A   1      35.515  34.079  27.623  1.00  0.00    +0.000 F 
ENDBRANCH   34   35
BRANCH   51   52
ATOM     52  C39 UNL A   1      40.106  32.783  33.606  1.00  0.00    +0.000 C 
ATOM     53  C40 UNL A   1      40.016  33.087  34.975  1.00  0.00    +0.000 C 
ATOM     54  F7  UNL A   1      40.529  34.220  35.449  1.00  0.00    +0.000 F 
ATOM     55  C41 UNL A   1      39.403  32.237  35.893  1.00  0.00    +0.000 C 
ATOM     56  F8  UNL A   1      39.366  32.569  37.192  1.00  0.00    +0.000 F 
ATOM     57  C42 UNL A   1      38.839  31.054  35.461  1.00  0.00    +0.000 C 
ATOM     58  F9  UNL A   1      38.246  30.233  36.339  1.00  0.00    +0.000 F 
ATOM     59  C43 UNL A   1      38.903  30.721  34.117  1.00  0.00    +0.000 C 
ATOM     60  F10 UNL A   1      38.359  29.571  33.695  1.00  0.00    +0.000 F 
ATOM     61  C44 UNL A   1      39.532  31.570  33.202  1.00  0.00    +0.000 C 
ATOM     62  F11 UNL A   1      39.576  31.206  31.912  1.00  0.00    +0.000 F 
ENDBRANCH   51   52
BRANCH   66   67
ATOM     67  C48 UNL A   1      45.814  31.249  31.954  1.00  0.00    +0.000 C 
ATOM     68  C49 UNL A   1      46.729  31.223  30.863  1.00  0.00    +0.000 C 
ATOM     69  F12 UNL A   1      46.321  31.388  29.598  1.00  0.00    +0.000 F 
ATOM     70  C50 UNL A   1      48.106  31.031  31.009  1.00  0.00    +0.000 C 
ATOM     71  F13 UNL A   1      48.883  30.929  29.921  1.00  0.00    +0.000 F 
ATOM     72  C51 UNL A   1      48.656  30.931  32.263  1.00  0.00    +0.000 C 
ATOM     73  F14 UNL A   1      49.969  30.721  32.413  1.00  0.00    +0.000 F 
ATOM     74  C52 UNL A   1      47.829  31.073  33.360  1.00  0.00    +0.000 C 
ATOM     75  F15 UNL A   1      48.360  31.043  34.591  1.00  0.00    +0.000 F 
ATOM     76  C53 UNL A   1      46.441  31.241  33.209  1.00  0.00    +0.000 C 
ATOM     77  F16 UNL A   1      45.753  31.435  34.335  1.00  0.00    +0.000 F 
ENDBRANCH   66   67
TORSDOF 17
ENDMDL
MODEL 10
REMARK VINA RESULT:     -11.0     20.829     24.417
ROOT
ATOM     30  C24 UNL A   1      25.380  32.797  46.349  1.00  0.00    +0.000 C 
ATOM     31  C25 UNL A   1      26.347  31.765  46.938  1.00  0.00    +0.000 C 
ATOM     32  N4  UNL A   1      27.353  31.923  47.746  1.00  0.00    +0.000 N 
ATOM     33  C26 UNL A   1      27.975  30.666  47.890  1.00  0.00    +0.000 C 
ATOM     34  C27 UNL A   1      29.226  30.490  48.405  1.00  0.00    +0.000 C 
ATOM     46  C34 UNL A   1      29.787  31.724  48.838  1.00  0.00    +0.000 C 
ATOM     47  C35 UNL A   1      29.617  32.504  49.949  1.00  0.00    +0.000 C 
ATOM     48  C36 UNL A   1      29.961  33.810  49.531  1.00  0.00    +0.000 C 
ATOM     49  C37 UNL A   1      30.360  33.767  48.193  1.00  0.00    +0.000 C 
ATOM     50  N5  UNL A   1      30.523  32.430  47.921  1.00  0.00    +0.000 N 
ATOM     51  C38 UNL A   1      30.422  34.689  47.078  1.00  0.00    +0.000 C 
ATOM     63  C45 UNL A   1      29.969  35.951  47.282  1.00  0.00    +0.000 C 
ATOM     64  N6  UNL A   1      29.180  36.557  46.329  1.00  0.00    +0.000 N 
ATOM     65  C46 UNL A   1      28.224  37.082  47.038  1.00  0.00    +0.000 C 
ATOM     66  C47 UNL A   1      26.926  37.536  46.502  1.00  0.00    +0.000 C 
ATOM     78  C54 UNL A   1      26.218  36.400  46.210  1.00  0.00    +0.000 C 
ATOM     79  C55 UNL A   1      24.902  36.295  45.613  1.00  0.00    +0.000 C 
ATOM     80  C56 UNL A   1      24.511  35.009  45.581  1.00  0.00    +0.000 C 
ATOM     81  C57 UNL A   1      25.538  34.139  46.174  1.00  0.00    +0.000 C 
ATOM     82  N7  UNL A   1      26.548  35.042  46.453  1.00  0.00    +0.000 N 
ATOM     83  C58 UNL A   1      28.455  37.144  48.487  1.00  0.00    +0.000 C 
ATOM     84  C59 UNL A   1      29.659  36.584  48.540  1.00  0.00    +0.000 C 
ATOM     85  C60 UNL A   1      27.112  29.709  47.265  1.00  0.00    +0.000 C 
ATOM     86  C61 UNL A   1      26.124  30.330  46.620  1.00  0.00    +0.000 C 
ATOM    114  H26 UNL A   1      29.305  32.205  50.886  1.00  0.00    +0.000 H 
ATOM    115  H27 UNL A   1      29.924  34.658  50.119  1.00  0.00    +0.000 H 
ATOM    116  H28 UNL A   1      31.071  32.048  47.197  1.00  0.00    +0.000 H 
ATOM    117  H29 UNL A   1      24.346  37.091  45.263  1.00  0.00    +0.000 H 
ATOM    118  H30 UNL A   1      23.614  34.676  45.193  1.00  0.00    +0.000 H 
ATOM    119  H31 UNL A   1      27.429  34.763  46.794  1.00  0.00    +0.000 H 
ATOM    120  H32 UNL A   1      27.858  37.515  49.243  1.00  0.00    +0.000 H 
ATOM    121  H33 UNL A   1      30.282  36.599  49.363  1.00  0.00    +0.000 H 
ATOM    122  H34 UNL A   1      27.237  28.685  47.307  1.00  0.00    +0.000 H 
ATOM    123  H35 UNL A   1      25.380  29.913  46.039  1.00  0.00    +0.000 H 
ENDROOT
BRANCH   30   29
ATOM    124  H36 UNL A   1      23.280  32.037  47.894  1.00  0.00    +0.000 H 
ATOM     29  C23 UNL A   1      24.079  32.211  45.940  1.00  0.00    +0.000 C 
ATOM    112  H24 UNL A   1      22.363  31.527  43.148  1.00  0.00    +0.000 H 
ATOM    113  H25 UNL A   1      24.576  32.191  43.884  1.00  0.00    +0.000 H 
ATOM     87  C62 UNL A   1      23.080  31.940  46.887  1.00  0.00    +0.000 C 
ATOM     88  C63 UNL A   1      21.814  31.540  46.460  1.00  0.00    +0.000 C 
ATOM     26  C20 UNL A   1      21.538  31.442  45.093  1.00  0.00    +0.000 C 
ATOM     27  C21 UNL A   1      22.556  31.654  44.154  1.00  0.00    +0.000 C 
ATOM     28  C22 UNL A   1      23.825  32.037  44.575  1.00  0.00    +0.000 C 
ATOM    125  H37 UNL A   1      21.081  31.317  47.153  1.00  0.00    +0.000 H 
BRANCH   26   24
ATOM     25  O2  UNL A   1      19.709  29.992  44.955  1.00  0.00    +0.000 O 
ATOM     24  C19 UNL A   1      20.209  31.041  44.578  1.00  0.00    +0.000 C 
BRANCH   24   23
ATOM    111  H23 UNL A   1      20.088  32.216  42.949  1.00  0.00    +0.000 H 
ATOM     23  N3  UNL A   1      19.538  31.814  43.659  1.00  0.00    +0.000 N 
BRANCH   23   22
ATOM    110  H22 UNL A   1      17.985  33.076  43.169  1.00  0.00    +0.000 H 
ATOM    109  H21 UNL A   1      17.719  32.091  44.603  1.00  0.00    +0.000 H 
ATOM     22  C18 UNL A   1      18.115  32.110  43.608  1.00  0.00    +0.000 C 
BRANCH   22   21
ATOM    107  H19 UNL A   1      17.041  31.566  41.859  1.00  0.00    +0.000 H 
ATOM    108  H20 UNL A   1      18.054  30.282  42.570  1.00  0.00    +0.000 H 
ATOM     21  C17 UNL A   1      17.369  31.083  42.756  1.00  0.00    +0.000 C 
BRANCH   21   20
ATOM    105  H17 UNL A   1      16.418  30.209  44.444  1.00  0.00    +0.000 H 
ATOM    106  H18 UNL A   1      15.368  31.197  43.384  1.00  0.00    +0.000 H 
ATOM     20  C16 UNL A   1      16.144  30.463  43.442  1.00  0.00    +0.000 C 
BRANCH   20   19
ATOM     19  C15 UNL A   1      15.589  29.204  42.768  1.00  0.00    +0.000 C 
ATOM    103  H15 UNL A   1      14.522  29.275  42.764  1.00  0.00    +0.000 H 
ATOM    104  H16 UNL A   1      16.021  29.177  41.790  1.00  0.00    +0.000 H 
BRANCH   19   18
ATOM     18  C14 UNL A   1      15.974  27.878  43.439  1.00  0.00    +0.000 C 
ATOM    101  H13 UNL A   1      16.620  27.346  42.774  1.00  0.00    +0.000 H 
ATOM    102  H14 UNL A   1      16.438  28.136  44.368  1.00  0.00    +0.000 H 
BRANCH   18   17
ATOM     17  C13 UNL A   1      14.798  26.965  43.788  1.00  0.00    +0.000 C 
ATOM     99  H11 UNL A   1      14.799  26.784  44.842  1.00  0.00    +0.000 H 
ATOM    100  H12 UNL A   1      13.893  27.451  43.487  1.00  0.00    +0.000 H 
BRANCH   17   16
ATOM     98  H10 UNL A   1      15.756  25.424  42.718  1.00  0.00    +0.000 H 
ATOM     16  N2  UNL A   1      14.888  25.701  43.092  1.00  0.00    +0.000 N 
BRANCH   16    2
ATOM      1  O1  UNL A   1      12.636  25.250  43.018  1.00  0.00    +0.000 O 
ATOM      2  C1  UNL A   1      13.798  24.867  42.933  1.00  0.00    +0.000 C 
BRANCH    2    3
ATOM     89  H1  UNL A   1      13.506  22.795  43.260  1.00  0.00    +0.000 H 
ATOM     90  H2  UNL A   1      15.191  23.296  43.017  1.00  0.00    +0.000 H 
ATOM      3  C2  UNL A   1      14.176  23.414  42.701  1.00  0.00    +0.000 C 
BRANCH    3    4
ATOM     97  H9  UNL A   1      15.730  24.108  40.377  1.00  0.00    +0.000 H 
ATOM      4  C3  UNL A   1      14.110  23.008  41.262  1.00  0.00    +0.000 C 
ATOM      5  C4  UNL A   1      13.181  22.131  40.643  1.00  0.00    +0.000 C 
ATOM      6  C5  UNL A   1      13.444  22.124  39.293  1.00  0.00    +0.000 C 
ATOM      7  N1  UNL A   1      14.515  22.956  39.035  1.00  0.00    +0.000 N 
ATOM     15  C12 UNL A   1      14.929  23.471  40.246  1.00  0.00    +0.000 C 
ATOM     91  H3  UNL A   1      12.440  21.594  41.121  1.00  0.00    +0.000 H 
ATOM     92  H4  UNL A   1      12.923  21.583  38.584  1.00  0.00    +0.000 H 
BRANCH    7    8
ATOM      8  C6  UNL A   1      15.050  23.253  37.754  1.00  0.00    +0.000 C 
ATOM      9  C7  UNL A   1      14.508  24.302  36.995  1.00  0.00    +0.000 C 
ATOM     10  C8  UNL A   1      15.045  24.617  35.744  1.00  0.00    +0.000 C 
ATOM     11  C9  UNL A   1      16.108  23.875  35.231  1.00  0.00    +0.000 C 
ATOM     12  C10 UNL A   1      16.643  22.826  35.974  1.00  0.00    +0.000 C 
ATOM     13  C11 UNL A   1      16.125  22.526  37.232  1.00  0.00    +0.000 C 
ATOM     14  F1  UNL A   1      16.652  21.479  37.884  1.00  0.00    +0.000 F 
ATOM     93  H5  UNL A   1      13.708  24.842  37.362  1.00  0.00    +0.000 H 
ATOM     94  H6  UNL A   1      14.654  25.400  35.198  1.00  0.00    +0.000 H 
ATOM     95  H7  UNL A   1      16.497  24.103  34.302  1.00  0.00    +0.000 H 
ATOM     96  H8  UNL A   1      17.425  22.270  35.592  1.00  0.00    +0.000 H 
ENDBRANCH    7    8
ENDBRANCH    3    4
ENDBRANCH    2    3
ENDBRANCH   16    2
ENDBRANCH   17   16
ENDBRANCH   18   17
ENDBRANCH   19   18
ENDBRANCH   20   19
ENDBRANCH   21   20
ENDBRANCH   22   21
ENDBRANCH   23   22
ENDBRANCH   24   23
ENDBRANCH   26   24
ENDBRANCH   30   29
BRANCH   34   35
ATOM     35  C28 UNL A   1      30.134  29.290  48.385  1.00  0.00    +0.000 C 
ATOM     36  C29 UNL A   1      31.301  29.219  47.611  1.00  0.00    +0.000 C 
ATOM     37  F2  UNL A   1      31.546  30.113  46.645  1.00  0.00    +0.000 F 
ATOM     38  C30 UNL A   1      32.300  28.276  47.883  1.00  0.00    +0.000 C 
ATOM     39  F3  UNL A   1      33.418  28.264  47.144  1.00  0.00    +0.000 F 
ATOM     40  C31 UNL A   1      32.176  27.401  48.950  1.00  0.00    +0.000 C 
ATOM     41  F4  UNL A   1      33.180  26.572  49.265  1.00  0.00    +0.000 F 
ATOM     42  C32 UNL A   1      31.024  27.417  49.708  1.00  0.00    +0.000 C 
ATOM     43  F5  UNL A   1      30.905  26.600  50.765  1.00  0.00    +0.000 F 
ATOM     44  C33 UNL A   1      30.007  28.324  49.413  1.00  0.00    +0.000 C 
ATOM     45  F6  UNL A   1      28.913  28.291  50.190  1.00  0.00    +0.000 F 
ENDBRANCH   34   35
BRANCH   51   52
ATOM     52  C39 UNL A   1      30.475  34.305  45.616  1.00  0.00    +0.000 C 
ATOM     53  C40 UNL A   1      29.342  33.916  44.883  1.00  0.00    +0.000 C 
ATOM     54  F7  UNL A   1      28.170  33.748  45.491  1.00  0.00    +0.000 F 
ATOM     55  C41 UNL A   1      29.380  33.686  43.509  1.00  0.00    +0.000 C 
ATOM     56  F8  UNL A   1      28.271  33.296  42.863  1.00  0.00    +0.000 F 
ATOM     57  C42 UNL A   1      30.563  33.858  42.818  1.00  0.00    +0.000 C 
ATOM     58  F9  UNL A   1      30.606  33.640  41.497  1.00  0.00    +0.000 F 
ATOM     59  C43 UNL A   1      31.702  34.245  43.506  1.00  0.00    +0.000 C 
ATOM     60  F10 UNL A   1      32.853  34.410  42.839  1.00  0.00    +0.000 F 
ATOM     61  C44 UNL A   1      31.661  34.461  44.887  1.00  0.00    +0.000 C 
ATOM     62  F11 UNL A   1      32.788  34.831  45.514  1.00  0.00    +0.000 F 
ENDBRANCH   51   52
BRANCH   66   67
ATOM     67  C48 UNL A   1      26.660  39.032  46.495  1.00  0.00    +0.000 C 
ATOM     68  C49 UNL A   1      27.493  39.905  45.737  1.00  0.00    +0.000 C 
ATOM     69  F12 UNL A   1      28.382  39.438  44.852  1.00  0.00    +0.000 F 
ATOM     70  C50 UNL A   1      27.456  41.298  45.844  1.00  0.00    +0.000 C 
ATOM     71  F13 UNL A   1      28.339  42.042  45.162  1.00  0.00    +0.000 F 
ATOM     72  C51 UNL A   1      26.531  41.901  46.660  1.00  0.00    +0.000 C 
ATOM     73  F14 UNL A   1      26.505  43.233  46.790  1.00  0.00    +0.000 F 
ATOM     74  C52 UNL A   1      25.617  41.105  47.323  1.00  0.00    +0.000 C 
ATOM     75  F15 UNL A   1      24.666  41.681  48.071  1.00  0.00    +0.000 F 
ATOM     76  C53 UNL A   1      25.673  39.702  47.232  1.00  0.00    +0.000 C 
ATOM     77  F16 UNL A   1      24.700  39.041  47.860  1.00  0.00    +0.000 F 
ENDBRANCH   66   67
TORSDOF 17
ENDMDL
