MODEL 1
REMARK VINA RESULT:     -11.4      0.000      0.000
ROOT
ATOM    129  H36 UNL A   1      40.914  26.730  25.340  1.00  0.00    +0.000 H 
ATOM    130  H37 UNL A   1      39.469  28.512  26.449  1.00  0.00    +0.000 H 
ATOM    131  H38 UNL A   1      42.241  27.239  29.283  1.00  0.00    +0.000 H 
ATOM    132  H39 UNL A   1      43.901  24.436  29.565  1.00  0.00    +0.000 H 
ATOM    133  H40 UNL A   1      45.175  26.150  31.018  1.00  0.00    +0.000 H 
ATOM    134  H41 UNL A   1      39.358  27.538  33.711  1.00  0.00    +0.000 H 
ATOM    135  H42 UNL A   1      38.275  27.305  31.384  1.00  0.00    +0.000 H 
ATOM     32  C27 UNL A   1      39.815  28.619  29.322  1.00  0.00    +0.000 C 
ATOM     33  C28 UNL A   1      40.160  28.399  30.752  1.00  0.00    +0.000 C 
ATOM     34  N4  UNL A   1      41.182  28.880  31.380  1.00  0.00    +0.000 N 
ATOM     35  C29 UNL A   1      41.101  28.385  32.677  1.00  0.00    +0.000 C 
ATOM     36  C30 UNL A   1      42.233  28.241  33.419  1.00  0.00    +0.000 C 
ATOM     48  C37 UNL A   1      43.320  28.993  32.847  1.00  0.00    +0.000 C 
ATOM     49  C38 UNL A   1      43.776  30.292  32.865  1.00  0.00    +0.000 C 
ATOM     50  C39 UNL A   1      44.607  30.444  31.713  1.00  0.00    +0.000 C 
ATOM     51  C40 UNL A   1      44.665  29.228  31.041  1.00  0.00    +0.000 C 
ATOM     52  N5  UNL A   1      43.916  28.365  31.791  1.00  0.00    +0.000 N 
ATOM     53  C41 UNL A   1      45.089  28.828  29.723  1.00  0.00    +0.000 C 
ATOM     65  C48 UNL A   1      45.064  27.534  29.301  1.00  0.00    +0.000 C 
ATOM     66  N6  UNL A   1      44.777  27.232  27.988  1.00  0.00    +0.000 N 
ATOM     67  C49 UNL A   1      44.098  26.121  28.061  1.00  0.00    +0.000 C 
ATOM     68  C50 UNL A   1      43.042  25.758  27.090  1.00  0.00    +0.000 C 
ATOM     80  C57 UNL A   1      42.014  26.625  27.260  1.00  0.00    +0.000 C 
ATOM     81  C58 UNL A   1      41.005  27.057  26.314  1.00  0.00    +0.000 C 
ATOM     82  C59 UNL A   1      40.202  27.958  26.919  1.00  0.00    +0.000 C 
ATOM     83  C60 UNL A   1      40.531  28.029  28.342  1.00  0.00    +0.000 C 
ATOM     84  N7  UNL A   1      41.700  27.290  28.463  1.00  0.00    +0.000 N 
ATOM     85  C61 UNL A   1      44.219  25.386  29.315  1.00  0.00    +0.000 C 
ATOM     86  C62 UNL A   1      44.862  26.300  30.046  1.00  0.00    +0.000 C 
ATOM     87  C63 UNL A   1      39.782  27.826  32.816  1.00  0.00    +0.000 C 
ATOM     88  C64 UNL A   1      39.182  27.732  31.626  1.00  0.00    +0.000 C 
ATOM    126  H33 UNL A   1      43.560  31.013  33.571  1.00  0.00    +0.000 H 
ATOM    127  H34 UNL A   1      45.086  31.313  31.428  1.00  0.00    +0.000 H 
ATOM    128  H35 UNL A   1      43.818  27.406  31.594  1.00  0.00    +0.000 H 
ENDROOT
BRANCH   32   31
ATOM    136  H43 UNL A   1      39.593  31.327  29.629  1.00  0.00    +0.000 H 
ATOM    137  H44 UNL A   1      37.613  32.662  29.234  1.00  0.00    +0.000 H 
ATOM    124  H31 UNL A   1      35.574  29.267  27.860  1.00  0.00    +0.000 H 
ATOM    125  H32 UNL A   1      37.470  27.901  28.454  1.00  0.00    +0.000 H 
ATOM     89  C65 UNL A   1      38.719  30.877  29.316  1.00  0.00    +0.000 C 
ATOM     90  C66 UNL A   1      37.581  31.644  29.072  1.00  0.00    +0.000 C 
ATOM     28  C23 UNL A   1      36.387  31.059  28.606  1.00  0.00    +0.000 C 
ATOM     29  C24 UNL A   1      36.396  29.699  28.310  1.00  0.00    +0.000 C 
ATOM     30  C25 UNL A   1      37.503  28.920  28.614  1.00  0.00    +0.000 C 
ATOM     31  C26 UNL A   1      38.664  29.502  29.137  1.00  0.00    +0.000 C 
BRANCH   28   26
ATOM     26  C22 UNL A   1      35.196  31.950  28.526  1.00  0.00    +0.000 C 
ATOM     27  O2  UNL A   1      35.009  32.772  29.432  1.00  0.00    +0.000 O 
BRANCH   26   25
ATOM     25  N3  UNL A   1      34.239  31.888  27.549  1.00  0.00    +0.000 N 
ATOM    123  H30 UNL A   1      34.387  32.527  26.815  1.00  0.00    +0.000 H 
BRANCH   25   24
ATOM    121  H28 UNL A   1      32.550  31.000  28.313  1.00  0.00    +0.000 H 
ATOM    122  H29 UNL A   1      32.451  31.558  26.629  1.00  0.00    +0.000 H 
ATOM     24  C21 UNL A   1      33.052  31.076  27.371  1.00  0.00    +0.000 C 
BRANCH   24   23
ATOM    119  H26 UNL A   1      34.390  29.463  27.025  1.00  0.00    +0.000 H 
ATOM     23  C20 UNL A   1      33.351  29.661  26.865  1.00  0.00    +0.000 C 
ATOM    120  H27 UNL A   1      32.706  29.004  27.410  1.00  0.00    +0.000 H 
BRANCH   23   22
ATOM    118  H25 UNL A   1      33.627  28.585  25.083  1.00  0.00    +0.000 H 
ATOM    117  H24 UNL A   1      33.296  30.321  24.848  1.00  0.00    +0.000 H 
ATOM     22  C19 UNL A   1      33.046  29.430  25.385  1.00  0.00    +0.000 C 
BRANCH   22   21
ATOM    115  H22 UNL A   1      30.993  29.936  25.347  1.00  0.00    +0.000 H 
ATOM    116  H23 UNL A   1      31.545  28.836  24.053  1.00  0.00    +0.000 H 
ATOM     21  C18 UNL A   1      31.592  29.088  25.091  1.00  0.00    +0.000 C 
BRANCH   21   20
ATOM    113  H20 UNL A   1      31.851  27.477  26.455  1.00  0.00    +0.000 H 
ATOM    114  H21 UNL A   1      30.219  28.235  26.425  1.00  0.00    +0.000 H 
ATOM     20  C17 UNL A   1      31.051  27.869  25.861  1.00  0.00    +0.000 C 
BRANCH   20   19
ATOM     19  C16 UNL A   1      30.493  26.716  25.009  1.00  0.00    +0.000 C 
ATOM    111  H18 UNL A   1      29.570  27.043  24.576  1.00  0.00    +0.000 H 
ATOM    112  H19 UNL A   1      31.250  26.489  24.288  1.00  0.00    +0.000 H 
BRANCH   19   18
ATOM     18  N2  UNL A   1      30.238  25.475  25.728  1.00  0.00    +0.000 N 
ATOM    110  H17 UNL A   1      29.286  25.321  25.932  1.00  0.00    +0.000 H 
BRANCH   18   16
ATOM     17  O1  UNL A   1      30.553  23.418  26.520  1.00  0.00    +0.000 O 
ATOM     16  C15 UNL A   1      31.066  24.484  26.176  1.00  0.00    +0.000 C 
BRANCH   16   15
ATOM    108  H15 UNL A   1      32.683  25.719  26.649  1.00  0.00    +0.000 H 
ATOM    109  H16 UNL A   1      32.873  23.931  26.959  1.00  0.00    +0.000 H 
ATOM     15  C14 UNL A   1      32.554  24.714  26.304  1.00  0.00    +0.000 C 
BRANCH   15   12
ATOM      3  C3  UNL A   1      38.222  22.964  25.968  1.00  0.00    +0.000 C 
ATOM      4  C4  UNL A   1      38.834  21.707  25.745  1.00  0.00    +0.000 C 
ATOM      5  C5  UNL A   1      38.127  20.588  25.311  1.00  0.00    +0.000 C 
ATOM      6  C6  UNL A   1      36.772  20.686  25.041  1.00  0.00    +0.000 C 
ATOM      7  C7  UNL A   1      36.130  21.922  25.223  1.00  0.00    +0.000 C 
ATOM      8  C8  UNL A   1      34.833  22.369  24.916  1.00  0.00    +0.000 C 
ATOM      9  C9  UNL A   1      34.694  23.685  25.299  1.00  0.00    +0.000 C 
ATOM     10  N1  UNL A   1      35.922  24.070  25.794  1.00  0.00    +0.000 N 
ATOM     11  C10 UNL A   1      36.835  23.023  25.701  1.00  0.00    +0.000 C 
ATOM     12  C11 UNL A   1      33.462  24.542  25.063  1.00  0.00    +0.000 C 
ATOM    140  H47 UNL A   1      33.514  20.774  24.721  1.00  0.00    +0.000 H 
ATOM    141  H48 UNL A   1      34.208  21.351  23.218  1.00  0.00    +0.000 H 
ATOM    138  H45 UNL A   1      32.176  22.247  22.997  1.00  0.00    +0.000 H 
ATOM    139  H46 UNL A   1      31.977  22.346  24.796  1.00  0.00    +0.000 H 
ATOM     91  O3  UNL A   1      32.789  23.947  23.926  1.00  0.00    +0.000 O 
ATOM     92  C67 UNL A   1      32.597  22.522  23.942  1.00  0.00    +0.000 C 
ATOM     93  C68 UNL A   1      33.807  21.641  24.167  1.00  0.00    +0.000 C 
ATOM     99  H6  UNL A   1      39.847  21.614  25.913  1.00  0.00    +0.000 H 
ATOM    100  H7  UNL A   1      38.614  19.685  25.189  1.00  0.00    +0.000 H 
ATOM    101  H8  UNL A   1      36.241  19.864  24.713  1.00  0.00    +0.000 H 
ATOM    102  H9  UNL A   1      36.125  24.960  26.162  1.00  0.00    +0.000 H 
BRANCH    3    2
ATOM     97  H4  UNL A   1      40.050  23.950  26.276  1.00  0.00    +0.000 H 
ATOM      2  C2  UNL A   1      39.012  24.175  26.400  1.00  0.00    +0.000 C 
ATOM     98  H5  UNL A   1      38.659  24.980  25.791  1.00  0.00    +0.000 H 
BRANCH    2    1
ATOM      1  C1  UNL A   1      38.804  24.631  27.841  1.00  0.00    +0.000 C 
ATOM     94  H1  UNL A   1      39.442  24.068  28.489  1.00  0.00    +0.000 H 
ATOM     95  H2  UNL A   1      37.783  24.475  28.121  1.00  0.00    +0.000 H 
ATOM     96  H3  UNL A   1      39.041  25.672  27.922  1.00  0.00    +0.000 H 
ENDBRANCH    2    1
ENDBRANCH    3    2
BRANCH   12   13
ATOM     13  C12 UNL A   1      33.891  25.963  24.566  1.00  0.00    +0.000 C 
ATOM    103  H10 UNL A   1      34.953  26.043  24.673  1.00  0.00    +0.000 H 
ATOM    104  H11 UNL A   1      33.342  26.661  25.162  1.00  0.00    +0.000 H 
BRANCH   13   14
ATOM    105  H12 UNL A   1      33.354  27.338  23.012  1.00  0.00    +0.000 H 
ATOM    106  H13 UNL A   1      32.661  25.745  22.825  1.00  0.00    +0.000 H 
ATOM    107  H14 UNL A   1      34.352  26.009  22.474  1.00  0.00    +0.000 H 
ATOM     14  C13 UNL A   1      33.538  26.288  23.109  1.00  0.00    +0.000 C 
ENDBRANCH   13   14
ENDBRANCH   12   13
ENDBRANCH   15   12
ENDBRANCH   16   15
ENDBRANCH   18   16
ENDBRANCH   19   18
ENDBRANCH   20   19
ENDBRANCH   21   20
ENDBRANCH   22   21
ENDBRANCH   23   22
ENDBRANCH   24   23
ENDBRANCH   25   24
ENDBRANCH   26   25
ENDBRANCH   28   26
ENDBRANCH   32   31
BRANCH   36   37
ATOM     37  C31 UNL A   1      42.523  27.056  34.318  1.00  0.00    +0.000 C 
ATOM     38  C32 UNL A   1      42.259  27.166  35.701  1.00  0.00    +0.000 C 
ATOM     39  F1  UNL A   1      41.504  28.167  36.176  1.00  0.00    +0.000 F 
ATOM     40  C33 UNL A   1      42.838  26.302  36.638  1.00  0.00    +0.000 C 
ATOM     41  F2  UNL A   1      42.652  26.518  37.948  1.00  0.00    +0.000 F 
ATOM     42  C34 UNL A   1      43.656  25.267  36.227  1.00  0.00    +0.000 C 
ATOM     43  F3  UNL A   1      44.257  24.475  37.124  1.00  0.00    +0.000 F 
ATOM     44  C35 UNL A   1      43.886  25.086  34.880  1.00  0.00    +0.000 C 
ATOM     45  F4  UNL A   1      44.696  24.103  34.463  1.00  0.00    +0.000 F 
ATOM     46  C36 UNL A   1      43.347  25.971  33.946  1.00  0.00    +0.000 C 
ATOM     47  F5  UNL A   1      43.760  25.787  32.688  1.00  0.00    +0.000 F 
ENDBRANCH   36   37
BRANCH   53   54
ATOM     54  C42 UNL A   1      45.393  29.885  28.715  1.00  0.00    +0.000 C 
ATOM     55  C43 UNL A   1      44.435  30.506  27.900  1.00  0.00    +0.000 C 
ATOM     56  F6  UNL A   1      43.140  30.164  27.980  1.00  0.00    +0.000 F 
ATOM     57  C44 UNL A   1      44.799  31.524  27.020  1.00  0.00    +0.000 C 
ATOM     58  F7  UNL A   1      43.874  32.101  26.239  1.00  0.00    +0.000 F 
ATOM     59  C45 UNL A   1      46.114  31.964  26.968  1.00  0.00    +0.000 C 
ATOM     60  F8  UNL A   1      46.456  32.971  26.153  1.00  0.00    +0.000 F 
ATOM     61  C46 UNL A   1      47.070  31.378  27.780  1.00  0.00    +0.000 C 
ATOM     62  F9  UNL A   1      48.334  31.824  27.765  1.00  0.00    +0.000 F 
ATOM     63  C47 UNL A   1      46.717  30.339  28.633  1.00  0.00    +0.000 C 
ATOM     64  F10 UNL A   1      47.663  29.796  29.415  1.00  0.00    +0.000 F 
ENDBRANCH   53   54
BRANCH   68   69
ATOM     69  C51 UNL A   1      43.090  24.486  26.332  1.00  0.00    +0.000 C 
ATOM     70  C52 UNL A   1      43.960  24.333  25.238  1.00  0.00    +0.000 C 
ATOM     71  F11 UNL A   1      44.542  25.406  24.681  1.00  0.00    +0.000 F 
ATOM     72  C53 UNL A   1      44.319  23.070  24.756  1.00  0.00    +0.000 C 
ATOM     73  F12 UNL A   1      45.219  22.962  23.769  1.00  0.00    +0.000 F 
ATOM     74  C54 UNL A   1      43.805  21.927  25.345  1.00  0.00    +0.000 C 
ATOM     75  F13 UNL A   1      44.213  20.716  24.942  1.00  0.00    +0.000 F 
ATOM     76  C55 UNL A   1      42.900  22.046  26.385  1.00  0.00    +0.000 C 
ATOM     77  F14 UNL A   1      42.420  20.946  26.982  1.00  0.00    +0.000 F 
ATOM     78  C56 UNL A   1      42.544  23.306  26.869  1.00  0.00    +0.000 C 
ATOM     79  F15 UNL A   1      41.738  23.350  27.939  1.00  0.00    +0.000 F 
ENDBRANCH   68   69
TORSDOF 20
ENDMDL
MODEL 2
REMARK VINA RESULT:     -10.9      3.244      8.971
ROOT
ATOM    129  H36 UNL A   1      36.910  28.507  30.528  1.00  0.00    +0.000 H 
ATOM    130  H37 UNL A   1      38.622  26.804  29.712  1.00  0.00    +0.000 H 
ATOM    131  H38 UNL A   1      40.530  30.503  29.835  1.00  0.00    +0.000 H 
ATOM    132  H39 UNL A   1      39.342  33.545  29.675  1.00  0.00    +0.000 H 
ATOM    133  H40 UNL A   1      41.703  33.772  30.696  1.00  0.00    +0.000 H 
ATOM    134  H41 UNL A   1      43.759  30.106  25.661  1.00  0.00    +0.000 H 
ATOM    135  H42 UNL A   1      41.617  28.688  25.876  1.00  0.00    +0.000 H 
ATOM     32  C27 UNL A   1      41.007  28.034  28.624  1.00  0.00    +0.000 C 
ATOM     33  C28 UNL A   1      42.058  28.939  28.088  1.00  0.00    +0.000 C 
ATOM     34  N4  UNL A   1      42.997  29.514  28.765  1.00  0.00    +0.000 N 
ATOM     35  C29 UNL A   1      43.714  30.278  27.850  1.00  0.00    +0.000 C 
ATOM     36  C30 UNL A   1      44.389  31.382  28.273  1.00  0.00    +0.000 C 
ATOM     48  C37 UNL A   1      44.552  31.369  29.703  1.00  0.00    +0.000 C 
ATOM     49  C38 UNL A   1      45.407  30.805  30.622  1.00  0.00    +0.000 C 
ATOM     50  C39 UNL A   1      44.717  30.808  31.873  1.00  0.00    +0.000 C 
ATOM     51  C40 UNL A   1      43.473  31.402  31.693  1.00  0.00    +0.000 C 
ATOM     52  N5  UNL A   1      43.437  31.775  30.379  1.00  0.00    +0.000 N 
ATOM     53  C41 UNL A   1      42.259  31.448  32.470  1.00  0.00    +0.000 C 
ATOM     65  C48 UNL A   1      41.153  32.135  32.073  1.00  0.00    +0.000 C 
ATOM     66  N6  UNL A   1      39.894  31.657  32.359  1.00  0.00    +0.000 N 
ATOM     67  C49 UNL A   1      39.186  31.987  31.314  1.00  0.00    +0.000 C 
ATOM     68  C50 UNL A   1      38.042  31.183  30.831  1.00  0.00    +0.000 C 
ATOM     80  C57 UNL A   1      38.533  30.006  30.371  1.00  0.00    +0.000 C 
ATOM     81  C58 UNL A   1      37.887  28.713  30.271  1.00  0.00    +0.000 C 
ATOM     82  C59 UNL A   1      38.777  27.822  29.782  1.00  0.00    +0.000 C 
ATOM     83  C60 UNL A   1      39.992  28.521  29.369  1.00  0.00    +0.000 C 
ATOM     84  N7  UNL A   1      39.829  29.812  29.852  1.00  0.00    +0.000 N 
ATOM     85  C61 UNL A   1      39.758  33.025  30.463  1.00  0.00    +0.000 C 
ATOM     86  C62 UNL A   1      40.977  33.105  31.002  1.00  0.00    +0.000 C 
ATOM     87  C63 UNL A   1      43.289  29.851  26.544  1.00  0.00    +0.000 C 
ATOM     88  C64 UNL A   1      42.201  29.081  26.631  1.00  0.00    +0.000 C 
ATOM    126  H33 UNL A   1      46.360  30.451  30.444  1.00  0.00    +0.000 H 
ATOM    127  H34 UNL A   1      45.081  30.432  32.762  1.00  0.00    +0.000 H 
ATOM    128  H35 UNL A   1      42.695  32.276  29.968  1.00  0.00    +0.000 H 
ENDROOT
BRANCH   32   31
ATOM    136  H43 UNL A   1      42.865  26.222  29.485  1.00  0.00    +0.000 H 
ATOM    137  H44 UNL A   1      43.040  23.906  28.802  1.00  0.00    +0.000 H 
ATOM    124  H31 UNL A   1      39.550  24.298  26.512  1.00  0.00    +0.000 H 
ATOM    125  H32 UNL A   1      39.496  26.654  27.017  1.00  0.00    +0.000 H 
ATOM     89  C65 UNL A   1      42.199  25.832  28.800  1.00  0.00    +0.000 C 
ATOM     90  C66 UNL A   1      42.285  24.495  28.417  1.00  0.00    +0.000 C 
ATOM     28  C23 UNL A   1      41.363  23.928  27.515  1.00  0.00    +0.000 C 
ATOM     29  C24 UNL A   1      40.303  24.718  27.080  1.00  0.00    +0.000 C 
ATOM     30  C25 UNL A   1      40.249  26.065  27.404  1.00  0.00    +0.000 C 
ATOM     31  C26 UNL A   1      41.208  26.634  28.251  1.00  0.00    +0.000 C 
BRANCH   28   26
ATOM     26  C22 UNL A   1      41.643  22.536  27.063  1.00  0.00    +0.000 C 
ATOM     27  O2  UNL A   1      42.565  21.912  27.604  1.00  0.00    +0.000 O 
BRANCH   26   25
ATOM     25  N3  UNL A   1      40.997  21.905  26.035  1.00  0.00    +0.000 N 
ATOM    123  H30 UNL A   1      41.367  22.121  25.148  1.00  0.00    +0.000 H 
BRANCH   25   24
ATOM    121  H28 UNL A   1      39.999  20.358  25.120  1.00  0.00    +0.000 H 
ATOM    122  H29 UNL A   1      39.889  20.425  26.892  1.00  0.00    +0.000 H 
ATOM     24  C21 UNL A   1      39.881  20.984  25.980  1.00  0.00    +0.000 C 
BRANCH   24   23
ATOM    119  H26 UNL A   1      37.990  21.497  26.801  1.00  0.00    +0.000 H 
ATOM     23  C20 UNL A   1      38.519  21.681  25.889  1.00  0.00    +0.000 C 
ATOM    120  H27 UNL A   1      38.722  22.718  25.720  1.00  0.00    +0.000 H 
BRANCH   23   22
ATOM    118  H25 UNL A   1      36.879  20.596  25.149  1.00  0.00    +0.000 H 
ATOM    117  H24 UNL A   1      38.255  20.709  24.021  1.00  0.00    +0.000 H 
ATOM     22  C19 UNL A   1      37.637  21.222  24.728  1.00  0.00    +0.000 C 
BRANCH   22   21
ATOM    115  H22 UNL A   1      37.463  22.571  23.108  1.00  0.00    +0.000 H 
ATOM    116  H23 UNL A   1      35.924  22.005  23.817  1.00  0.00    +0.000 H 
ATOM     21  C18 UNL A   1      36.919  22.351  24.003  1.00  0.00    +0.000 C 
BRANCH   21   20
ATOM    113  H20 UNL A   1      37.594  23.686  25.513  1.00  0.00    +0.000 H 
ATOM    114  H21 UNL A   1      36.789  24.441  24.092  1.00  0.00    +0.000 H 
ATOM     20  C17 UNL A   1      36.784  23.652  24.815  1.00  0.00    +0.000 C 
BRANCH   20   19
ATOM     19  C16 UNL A   1      35.477  23.832  25.606  1.00  0.00    +0.000 C 
ATOM    111  H18 UNL A   1      35.724  24.241  26.563  1.00  0.00    +0.000 H 
ATOM    112  H19 UNL A   1      34.858  24.471  25.011  1.00  0.00    +0.000 H 
BRANCH   19   18
ATOM     18  N2  UNL A   1      34.706  22.614  25.822  1.00  0.00    +0.000 N 
ATOM    110  H17 UNL A   1      35.111  21.997  26.475  1.00  0.00    +0.000 H 
BRANCH   18   16
ATOM     17  O1  UNL A   1      33.571  21.598  24.199  1.00  0.00    +0.000 O 
ATOM     16  C15 UNL A   1      33.529  22.164  25.293  1.00  0.00    +0.000 C 
BRANCH   16   15
ATOM    108  H15 UNL A   1      31.620  21.534  25.861  1.00  0.00    +0.000 H 
ATOM    109  H16 UNL A   1      32.510  22.647  26.999  1.00  0.00    +0.000 H 
ATOM     15  C14 UNL A   1      32.216  22.412  25.997  1.00  0.00    +0.000 C 
BRANCH   15   12
ATOM      3  C3  UNL A   1      33.611  28.181  25.724  1.00  0.00    +0.000 C 
ATOM      4  C4  UNL A   1      34.066  29.017  24.677  1.00  0.00    +0.000 C 
ATOM      5  C5  UNL A   1      34.059  28.626  23.340  1.00  0.00    +0.000 C 
ATOM      6  C6  UNL A   1      33.557  27.385  22.984  1.00  0.00    +0.000 C 
ATOM      7  C7  UNL A   1      33.070  26.534  23.989  1.00  0.00    +0.000 C 
ATOM      8  C8  UNL A   1      32.392  25.304  23.942  1.00  0.00    +0.000 C 
ATOM      9  C9  UNL A   1      32.129  24.869  25.223  1.00  0.00    +0.000 C 
ATOM     10  N1  UNL A   1      32.597  25.857  26.064  1.00  0.00    +0.000 N 
ATOM     11  C10 UNL A   1      33.124  26.915  25.327  1.00  0.00    +0.000 C 
ATOM     12  C11 UNL A   1      31.344  23.619  25.582  1.00  0.00    +0.000 C 
ATOM    140  H47 UNL A   1      32.706  24.342  22.126  1.00  0.00    +0.000 H 
ATOM    141  H48 UNL A   1      31.237  25.295  22.216  1.00  0.00    +0.000 H 
ATOM    138  H45 UNL A   1      30.318  23.271  22.417  1.00  0.00    +0.000 H 
ATOM    139  H46 UNL A   1      31.831  22.610  23.164  1.00  0.00    +0.000 H 
ATOM     91  O3  UNL A   1      30.491  23.358  24.439  1.00  0.00    +0.000 O 
ATOM     92  C67 UNL A   1      31.100  23.392  23.137  1.00  0.00    +0.000 C 
ATOM     93  C68 UNL A   1      31.883  24.627  22.747  1.00  0.00    +0.000 C 
ATOM     99  H6  UNL A   1      34.420  29.957  24.913  1.00  0.00    +0.000 H 
ATOM    100  H7  UNL A   1      34.427  29.262  22.615  1.00  0.00    +0.000 H 
ATOM    101  H8  UNL A   1      33.542  27.089  21.995  1.00  0.00    +0.000 H 
ATOM    102  H9  UNL A   1      32.564  25.819  27.047  1.00  0.00    +0.000 H 
BRANCH    3    2
ATOM     97  H4  UNL A   1      32.663  29.146  27.331  1.00  0.00    +0.000 H 
ATOM      2  C2  UNL A   1      33.590  28.637  27.163  1.00  0.00    +0.000 C 
ATOM     98  H5  UNL A   1      33.717  27.750  27.747  1.00  0.00    +0.000 H 
BRANCH    2    1
ATOM      1  C1  UNL A   1      34.718  29.572  27.587  1.00  0.00    +0.000 C 
ATOM     94  H1  UNL A   1      35.302  29.838  26.731  1.00  0.00    +0.000 H 
ATOM     95  H2  UNL A   1      35.339  29.078  28.304  1.00  0.00    +0.000 H 
ATOM     96  H3  UNL A   1      34.302  30.456  28.024  1.00  0.00    +0.000 H 
ENDBRANCH    2    1
ENDBRANCH    3    2
BRANCH   12   13
ATOM     13  C12 UNL A   1      30.350  23.935  26.749  1.00  0.00    +0.000 C 
ATOM    103  H10 UNL A   1      29.668  24.685  26.408  1.00  0.00    +0.000 H 
ATOM    104  H11 UNL A   1      30.956  24.243  27.575  1.00  0.00    +0.000 H 
BRANCH   13   14
ATOM    105  H12 UNL A   1      29.235  22.133  26.427  1.00  0.00    +0.000 H 
ATOM    106  H13 UNL A   1      28.652  23.103  27.759  1.00  0.00    +0.000 H 
ATOM    107  H14 UNL A   1      30.116  22.167  27.937  1.00  0.00    +0.000 H 
ATOM     14  C13 UNL A   1      29.526  22.744  27.256  1.00  0.00    +0.000 C 
ENDBRANCH   13   14
ENDBRANCH   12   13
ENDBRANCH   15   12
ENDBRANCH   16   15
ENDBRANCH   18   16
ENDBRANCH   19   18
ENDBRANCH   20   19
ENDBRANCH   21   20
ENDBRANCH   22   21
ENDBRANCH   23   22
ENDBRANCH   24   23
ENDBRANCH   25   24
ENDBRANCH   26   25
ENDBRANCH   28   26
ENDBRANCH   32   31
BRANCH   36   37
ATOM     37  C31 UNL A   1      44.439  32.696  27.518  1.00  0.00    +0.000 C 
ATOM     38  C32 UNL A   1      45.528  32.948  26.655  1.00  0.00    +0.000 C 
ATOM     39  F1  UNL A   1      46.345  31.954  26.277  1.00  0.00    +0.000 F 
ATOM     40  C33 UNL A   1      45.857  34.241  26.232  1.00  0.00    +0.000 C 
ATOM     41  F2  UNL A   1      46.968  34.444  25.511  1.00  0.00    +0.000 F 
ATOM     42  C34 UNL A   1      45.082  35.320  26.609  1.00  0.00    +0.000 C 
ATOM     43  F3  UNL A   1      45.426  36.565  26.255  1.00  0.00    +0.000 F 
ATOM     44  C35 UNL A   1      43.971  35.108  27.398  1.00  0.00    +0.000 C 
ATOM     45  F4  UNL A   1      43.221  36.146  27.795  1.00  0.00    +0.000 F 
ATOM     46  C36 UNL A   1      43.666  33.827  27.858  1.00  0.00    +0.000 C 
ATOM     47  F5  UNL A   1      42.659  33.766  28.735  1.00  0.00    +0.000 F 
ENDBRANCH   36   37
BRANCH   53   54
ATOM     54  C42 UNL A   1      42.139  30.562  33.666  1.00  0.00    +0.000 C 
ATOM     55  C43 UNL A   1      42.283  30.995  34.992  1.00  0.00    +0.000 C 
ATOM     56  F6  UNL A   1      42.554  32.278  35.270  1.00  0.00    +0.000 F 
ATOM     57  C44 UNL A   1      42.103  30.109  36.054  1.00  0.00    +0.000 C 
ATOM     58  F7  UNL A   1      42.254  30.534  37.317  1.00  0.00    +0.000 F 
ATOM     59  C45 UNL A   1      41.739  28.793  35.811  1.00  0.00    +0.000 C 
ATOM     60  F8  UNL A   1      41.525  27.952  36.832  1.00  0.00    +0.000 F 
ATOM     61  C46 UNL A   1      41.572  28.353  34.508  1.00  0.00    +0.000 C 
ATOM     62  F9  UNL A   1      41.181  27.094  34.266  1.00  0.00    +0.000 F 
ATOM     63  C47 UNL A   1      41.785  29.224  33.447  1.00  0.00    +0.000 C 
ATOM     64  F10 UNL A   1      41.606  28.773  32.195  1.00  0.00    +0.000 F 
ENDBRANCH   53   54
BRANCH   68   69
ATOM     69  C51 UNL A   1      36.695  31.776  30.661  1.00  0.00    +0.000 C 
ATOM     70  C52 UNL A   1      35.836  31.940  31.763  1.00  0.00    +0.000 C 
ATOM     71  F11 UNL A   1      36.092  31.308  32.919  1.00  0.00    +0.000 F 
ATOM     72  C53 UNL A   1      34.754  32.825  31.725  1.00  0.00    +0.000 C 
ATOM     73  F12 UNL A   1      34.012  33.020  32.824  1.00  0.00    +0.000 F 
ATOM     74  C54 UNL A   1      34.492  33.558  30.580  1.00  0.00    +0.000 C 
ATOM     75  F13 UNL A   1      33.509  34.469  30.570  1.00  0.00    +0.000 F 
ATOM     76  C55 UNL A   1      35.283  33.375  29.460  1.00  0.00    +0.000 C 
ATOM     77  F14 UNL A   1      35.056  34.102  28.357  1.00  0.00    +0.000 F 
ATOM     78  C56 UNL A   1      36.365  32.494  29.497  1.00  0.00    +0.000 C 
ATOM     79  F15 UNL A   1      37.149  32.434  28.411  1.00  0.00    +0.000 F 
ENDBRANCH   68   69
TORSDOF 20
ENDMDL
MODEL 3
REMARK VINA RESULT:     -10.8      4.639     10.867
ROOT
ATOM    129  H36 UNL A   1      36.788  28.586  30.464  1.00  0.00    +0.000 H 
ATOM    130  H37 UNL A   1      38.388  26.841  29.522  1.00  0.00    +0.000 H 
ATOM    131  H38 UNL A   1      40.498  30.420  29.801  1.00  0.00    +0.000 H 
ATOM    132  H39 UNL A   1      39.477  33.525  29.828  1.00  0.00    +0.000 H 
ATOM    133  H40 UNL A   1      41.865  33.569  30.809  1.00  0.00    +0.000 H 
ATOM    134  H41 UNL A   1      43.622  30.076  25.543  1.00  0.00    +0.000 H 
ATOM    135  H42 UNL A   1      41.410  28.767  25.728  1.00  0.00    +0.000 H 
ATOM     32  C27 UNL A   1      40.817  27.998  28.450  1.00  0.00    +0.000 C 
ATOM     33  C28 UNL A   1      41.906  28.873  27.940  1.00  0.00    +0.000 C 
ATOM     34  N4  UNL A   1      42.887  29.358  28.626  1.00  0.00    +0.000 N 
ATOM     35  C29 UNL A   1      43.628  30.132  27.738  1.00  0.00    +0.000 C 
ATOM     36  C30 UNL A   1      44.370  31.173  28.204  1.00  0.00    +0.000 C 
ATOM     48  C37 UNL A   1      44.558  31.073  29.628  1.00  0.00    +0.000 C 
ATOM     49  C38 UNL A   1      45.399  30.416  30.497  1.00  0.00    +0.000 C 
ATOM     50  C39 UNL A   1      44.733  30.387  31.761  1.00  0.00    +0.000 C 
ATOM     51  C40 UNL A   1      43.520  31.057  31.640  1.00  0.00    +0.000 C 
ATOM     52  N5  UNL A   1      43.480  31.502  30.348  1.00  0.00    +0.000 N 
ATOM     53  C41 UNL A   1      42.326  31.125  32.444  1.00  0.00    +0.000 C 
ATOM     65  C48 UNL A   1      41.252  31.891  32.108  1.00  0.00    +0.000 C 
ATOM     66  N6  UNL A   1      39.974  31.468  32.396  1.00  0.00    +0.000 N 
ATOM     67  C49 UNL A   1      39.266  31.891  31.385  1.00  0.00    +0.000 C 
ATOM     68  C50 UNL A   1      38.070  31.177  30.885  1.00  0.00    +0.000 C 
ATOM     80  C57 UNL A   1      38.487  30.002  30.352  1.00  0.00    +0.000 C 
ATOM     81  C58 UNL A   1      37.770  28.753  30.197  1.00  0.00    +0.000 C 
ATOM     82  C59 UNL A   1      38.600  27.843  29.643  1.00  0.00    +0.000 C 
ATOM     83  C60 UNL A   1      39.844  28.497  29.242  1.00  0.00    +0.000 C 
ATOM     84  N7  UNL A   1      39.761  29.768  29.796  1.00  0.00    +0.000 N 
ATOM     85  C61 UNL A   1      39.878  32.941  30.579  1.00  0.00    +0.000 C 
ATOM     86  C62 UNL A   1      41.109  32.927  31.094  1.00  0.00    +0.000 C 
ATOM     87  C63 UNL A   1      43.156  29.800  26.420  1.00  0.00    +0.000 C 
ATOM     88  C64 UNL A   1      42.029  29.085  26.490  1.00  0.00    +0.000 C 
ATOM    126  H33 UNL A   1      46.327  30.020  30.279  1.00  0.00    +0.000 H 
ATOM    127  H34 UNL A   1      45.093  29.945  32.621  1.00  0.00    +0.000 H 
ATOM    128  H35 UNL A   1      42.760  32.064  29.981  1.00  0.00    +0.000 H 
ENDROOT
BRANCH   32   31
ATOM    136  H43 UNL A   1      42.169  25.888  29.543  1.00  0.00    +0.000 H 
ATOM    137  H44 UNL A   1      42.227  23.622  28.695  1.00  0.00    +0.000 H 
ATOM    124  H31 UNL A   1      39.490  24.654  25.693  1.00  0.00    +0.000 H 
ATOM    125  H32 UNL A   1      39.597  26.956  26.402  1.00  0.00    +0.000 H 
ATOM     89  C65 UNL A   1      41.652  25.643  28.685  1.00  0.00    +0.000 C 
ATOM     90  C66 UNL A   1      41.669  24.335  28.202  1.00  0.00    +0.000 C 
ATOM     28  C23 UNL A   1      40.938  23.965  27.056  1.00  0.00    +0.000 C 
ATOM     29  C24 UNL A   1      40.123  24.924  26.462  1.00  0.00    +0.000 C 
ATOM     30  C25 UNL A   1      40.154  26.241  26.896  1.00  0.00    +0.000 C 
ATOM     31  C26 UNL A   1      40.934  26.612  27.998  1.00  0.00    +0.000 C 
BRANCH   28   26
ATOM     26  C22 UNL A   1      41.152  22.581  26.548  1.00  0.00    +0.000 C 
ATOM     27  O2  UNL A   1      40.489  21.661  27.042  1.00  0.00    +0.000 O 
BRANCH   26   25
ATOM     25  N3  UNL A   1      42.085  22.229  25.610  1.00  0.00    +0.000 N 
ATOM    123  H30 UNL A   1      41.883  22.573  24.709  1.00  0.00    +0.000 H 
BRANCH   25   24
ATOM    121  H28 UNL A   1      43.694  21.505  26.663  1.00  0.00    +0.000 H 
ATOM    122  H29 UNL A   1      43.060  20.455  25.378  1.00  0.00    +0.000 H 
ATOM     24  C21 UNL A   1      43.307  21.455  25.667  1.00  0.00    +0.000 C 
BRANCH   24   23
ATOM    119  H26 UNL A   1      44.767  21.106  24.164  1.00  0.00    +0.000 H 
ATOM     23  C20 UNL A   1      44.389  21.951  24.701  1.00  0.00    +0.000 C 
ATOM    120  H27 UNL A   1      43.920  22.677  24.071  1.00  0.00    +0.000 H 
BRANCH   23   22
ATOM    118  H25 UNL A   1      46.456  22.216  24.962  1.00  0.00    +0.000 H 
ATOM    117  H24 UNL A   1      45.485  22.529  26.425  1.00  0.00    +0.000 H 
ATOM     22  C19 UNL A   1      45.570  22.658  25.366  1.00  0.00    +0.000 C 
BRANCH   22   21
ATOM    115  H22 UNL A   1      46.352  24.584  25.754  1.00  0.00    +0.000 H 
ATOM    116  H23 UNL A   1      45.951  24.238  24.048  1.00  0.00    +0.000 H 
ATOM     21  C18 UNL A   1      45.653  24.149  25.071  1.00  0.00    +0.000 C 
BRANCH   21   20
ATOM    113  H20 UNL A   1      43.847  24.906  24.244  1.00  0.00    +0.000 H 
ATOM    114  H21 UNL A   1      43.772  24.388  25.965  1.00  0.00    +0.000 H 
ATOM     20  C17 UNL A   1      44.318  24.905  25.204  1.00  0.00    +0.000 C 
BRANCH   20   19
ATOM     19  C16 UNL A   1      44.405  26.364  25.684  1.00  0.00    +0.000 C 
ATOM    111  H18 UNL A   1      44.349  26.998  24.823  1.00  0.00    +0.000 H 
ATOM    112  H19 UNL A   1      43.595  26.498  26.371  1.00  0.00    +0.000 H 
BRANCH   19   18
ATOM     18  N2  UNL A   1      45.615  26.709  26.418  1.00  0.00    +0.000 N 
ATOM    110  H17 UNL A   1      46.444  26.381  25.997  1.00  0.00    +0.000 H 
BRANCH   18   16
ATOM     17  O1  UNL A   1      46.541  28.399  27.533  1.00  0.00    +0.000 O 
ATOM     16  C15 UNL A   1      45.822  27.400  27.579  1.00  0.00    +0.000 C 
BRANCH   16   15
ATOM    108  H15 UNL A   1      45.117  27.773  29.510  1.00  0.00    +0.000 H 
ATOM    109  H16 UNL A   1      44.349  26.399  28.587  1.00  0.00    +0.000 H 
ATOM     15  C14 UNL A   1      45.240  26.913  28.886  1.00  0.00    +0.000 C 
BRANCH   15   12
ATOM      3  C3  UNL A   1      44.576  25.355  34.581  1.00  0.00    +0.000 C 
ATOM      4  C4  UNL A   1      43.838  24.333  35.224  1.00  0.00    +0.000 C 
ATOM      5  C5  UNL A   1      43.249  23.277  34.533  1.00  0.00    +0.000 C 
ATOM      6  C6  UNL A   1      43.404  23.175  33.160  1.00  0.00    +0.000 C 
ATOM      7  C7  UNL A   1      44.152  24.154  32.486  1.00  0.00    +0.000 C 
ATOM      8  C8  UNL A   1      44.594  24.257  31.156  1.00  0.00    +0.000 C 
ATOM      9  C9  UNL A   1      45.303  25.428  30.992  1.00  0.00    +0.000 C 
ATOM     10  N1  UNL A   1      45.346  26.024  32.235  1.00  0.00    +0.000 N 
ATOM     11  C10 UNL A   1      44.698  25.230  33.179  1.00  0.00    +0.000 C 
ATOM     12  C11 UNL A   1      46.006  25.857  29.716  1.00  0.00    +0.000 C 
ATOM    140  H47 UNL A   1      43.448  23.074  29.888  1.00  0.00    +0.000 H 
ATOM    141  H48 UNL A   1      44.929  22.330  30.459  1.00  0.00    +0.000 H 
ATOM    138  H45 UNL A   1      45.594  22.816  28.384  1.00  0.00    +0.000 H 
ATOM    139  H46 UNL A   1      44.451  24.220  28.300  1.00  0.00    +0.000 H 
ATOM     91  O3  UNL A   1      46.277  24.630  28.993  1.00  0.00    +0.000 O 
ATOM     92  C67 UNL A   1      45.197  23.690  28.856  1.00  0.00    +0.000 C 
ATOM     93  C68 UNL A   1      44.481  23.237  30.110  1.00  0.00    +0.000 C 
ATOM     99  H6  UNL A   1      43.730  24.371  36.249  1.00  0.00    +0.000 H 
ATOM    100  H7  UNL A   1      42.697  22.570  35.044  1.00  0.00    +0.000 H 
ATOM    101  H8  UNL A   1      42.976  22.392  32.640  1.00  0.00    +0.000 H 
ATOM    102  H9  UNL A   1      45.774  26.888  32.428  1.00  0.00    +0.000 H 
BRANCH    3    2
ATOM     97  H4  UNL A   1      44.994  27.393  34.871  1.00  0.00    +0.000 H 
ATOM      2  C2  UNL A   1      45.241  26.470  35.352  1.00  0.00    +0.000 C 
ATOM     98  H5  UNL A   1      44.875  26.384  36.354  1.00  0.00    +0.000 H 
BRANCH    2    1
ATOM      1  C1  UNL A   1      46.760  26.395  35.463  1.00  0.00    +0.000 C 
ATOM     94  H1  UNL A   1      47.128  25.622  34.821  1.00  0.00    +0.000 H 
ATOM     95  H2  UNL A   1      47.033  26.178  36.475  1.00  0.00    +0.000 H 
ATOM     96  H3  UNL A   1      47.185  27.333  35.172  1.00  0.00    +0.000 H 
ENDBRANCH    2    1
ENDBRANCH    3    2
BRANCH   12   13
ATOM     13  C12 UNL A   1      47.422  26.431  30.058  1.00  0.00    +0.000 C 
ATOM    103  H10 UNL A   1      47.578  26.318  31.110  1.00  0.00    +0.000 H 
ATOM    104  H11 UNL A   1      47.413  27.449  29.728  1.00  0.00    +0.000 H 
BRANCH   13   14
ATOM    105  H12 UNL A   1      48.312  24.784  29.016  1.00  0.00    +0.000 H 
ATOM    106  H13 UNL A   1      49.434  25.697  29.997  1.00  0.00    +0.000 H 
ATOM    107  H14 UNL A   1      48.868  26.352  28.479  1.00  0.00    +0.000 H 
ATOM     14  C13 UNL A   1      48.598  25.766  29.332  1.00  0.00    +0.000 C 
ENDBRANCH   13   14
ENDBRANCH   12   13
ENDBRANCH   15   12
ENDBRANCH   16   15
ENDBRANCH   18   16
ENDBRANCH   19   18
ENDBRANCH   20   19
ENDBRANCH   21   20
ENDBRANCH   22   21
ENDBRANCH   23   22
ENDBRANCH   24   23
ENDBRANCH   25   24
ENDBRANCH   26   25
ENDBRANCH   28   26
ENDBRANCH   32   31
BRANCH   36   37
ATOM     37  C31 UNL A   1      44.478  32.522  27.519  1.00  0.00    +0.000 C 
ATOM     38  C32 UNL A   1      45.589  32.778  26.686  1.00  0.00    +0.000 C 
ATOM     39  F1  UNL A   1      46.377  31.776  26.269  1.00  0.00    +0.000 F 
ATOM     40  C33 UNL A   1      45.969  34.079  26.336  1.00  0.00    +0.000 C 
ATOM     41  F2  UNL A   1      47.098  34.279  25.642  1.00  0.00    +0.000 F 
ATOM     42  C34 UNL A   1      45.227  35.165  26.758  1.00  0.00    +0.000 C 
ATOM     43  F3  UNL A   1      45.620  36.412  26.473  1.00  0.00    +0.000 F 
ATOM     44  C35 UNL A   1      44.097  34.952  27.518  1.00  0.00    +0.000 C 
ATOM     45  F4  UNL A   1      43.377  35.994  27.959  1.00  0.00    +0.000 F 
ATOM     46  C36 UNL A   1      43.739  33.661  27.907  1.00  0.00    +0.000 C 
ATOM     47  F5  UNL A   1      42.717  33.590  28.765  1.00  0.00    +0.000 F 
ENDBRANCH   36   37
BRANCH   53   54
ATOM     54  C42 UNL A   1      42.179  30.184  33.593  1.00  0.00    +0.000 C 
ATOM     55  C43 UNL A   1      41.860  28.824  33.470  1.00  0.00    +0.000 C 
ATOM     56  F6  UNL A   1      41.654  28.273  32.264  1.00  0.00    +0.000 F 
ATOM     57  C44 UNL A   1      41.794  28.002  34.594  1.00  0.00    +0.000 C 
ATOM     58  F7  UNL A   1      41.477  26.706  34.462  1.00  0.00    +0.000 F 
ATOM     59  C45 UNL A   1      42.084  28.514  35.850  1.00  0.00    +0.000 C 
ATOM     60  F8  UNL A   1      42.061  27.716  36.926  1.00  0.00    +0.000 F 
ATOM     61  C46 UNL A   1      42.421  29.850  35.989  1.00  0.00    +0.000 C 
ATOM     62  F9  UNL A   1      42.741  30.344  37.194  1.00  0.00    +0.000 F 
ATOM     63  C47 UNL A   1      42.453  30.680  34.875  1.00  0.00    +0.000 C 
ATOM     64  F10 UNL A   1      42.793  31.968  35.039  1.00  0.00    +0.000 F 
ENDBRANCH   53   54
BRANCH   68   69
ATOM     69  C51 UNL A   1      36.755  31.850  30.776  1.00  0.00    +0.000 C 
ATOM     70  C52 UNL A   1      35.872  31.887  31.870  1.00  0.00    +0.000 C 
ATOM     71  F11 UNL A   1      36.067  31.078  32.923  1.00  0.00    +0.000 F 
ATOM     72  C53 UNL A   1      34.830  32.816  31.942  1.00  0.00    +0.000 C 
ATOM     73  F12 UNL A   1      34.064  32.878  33.040  1.00  0.00    +0.000 F 
ATOM     74  C54 UNL A   1      34.632  33.723  30.915  1.00  0.00    +0.000 C 
ATOM     75  F13 UNL A   1      33.689  34.670  31.020  1.00  0.00    +0.000 F 
ATOM     76  C55 UNL A   1      35.448  33.674  29.798  1.00  0.00    +0.000 C 
ATOM     77  F14 UNL A   1      35.284  34.568  28.812  1.00  0.00    +0.000 F 
ATOM     78  C56 UNL A   1      36.490  32.749  29.726  1.00  0.00    +0.000 C 
ATOM     79  F15 UNL A   1      37.302  32.816  28.662  1.00  0.00    +0.000 F 
ENDBRANCH   68   69
TORSDOF 20
ENDMDL
MODEL 4
REMARK VINA RESULT:     -10.7      1.297      2.191
ROOT
ATOM    129  H36 UNL A   1      40.600  26.311  25.693  1.00  0.00    +0.000 H 
ATOM    130  H37 UNL A   1      39.411  28.293  26.767  1.00  0.00    +0.000 H 
ATOM    131  H38 UNL A   1      42.151  26.850  29.550  1.00  0.00    +0.000 H 
ATOM    132  H39 UNL A   1      43.504  23.896  29.908  1.00  0.00    +0.000 H 
ATOM    133  H40 UNL A   1      45.022  25.521  31.220  1.00  0.00    +0.000 H 
ATOM    134  H41 UNL A   1      39.520  27.674  34.068  1.00  0.00    +0.000 H 
ATOM    135  H42 UNL A   1      38.314  27.456  31.800  1.00  0.00    +0.000 H 
ATOM     32  C27 UNL A   1      39.895  28.493  29.615  1.00  0.00    +0.000 C 
ATOM     33  C28 UNL A   1      40.277  28.302  31.039  1.00  0.00    +0.000 C 
ATOM     34  N4  UNL A   1      41.373  28.695  31.600  1.00  0.00    +0.000 N 
ATOM     35  C29 UNL A   1      41.296  28.272  32.923  1.00  0.00    +0.000 C 
ATOM     36  C30 UNL A   1      42.438  28.037  33.626  1.00  0.00    +0.000 C 
ATOM     48  C37 UNL A   1      43.574  28.636  32.974  1.00  0.00    +0.000 C 
ATOM     49  C38 UNL A   1      44.170  29.874  32.908  1.00  0.00    +0.000 C 
ATOM     50  C39 UNL A   1      44.961  29.880  31.718  1.00  0.00    +0.000 C 
ATOM     51  C40 UNL A   1      44.855  28.635  31.107  1.00  0.00    +0.000 C 
ATOM     52  N5  UNL A   1      44.050  27.897  31.929  1.00  0.00    +0.000 N 
ATOM     53  C41 UNL A   1      45.172  28.129  29.795  1.00  0.00    +0.000 C 
ATOM     65  C48 UNL A   1      44.987  26.828  29.440  1.00  0.00    +0.000 C 
ATOM     66  N6  UNL A   1      44.609  26.500  28.157  1.00  0.00    +0.000 N 
ATOM     67  C49 UNL A   1      43.817  25.476  28.314  1.00  0.00    +0.000 C 
ATOM     68  C50 UNL A   1      42.685  25.189  27.405  1.00  0.00    +0.000 C 
ATOM     80  C57 UNL A   1      41.767  26.173  27.571  1.00  0.00    +0.000 C 
ATOM     81  C58 UNL A   1      40.770  26.671  26.645  1.00  0.00    +0.000 C 
ATOM     82  C59 UNL A   1      40.098  27.683  27.235  1.00  0.00    +0.000 C 
ATOM     83  C60 UNL A   1      40.497  27.782  28.637  1.00  0.00    +0.000 C 
ATOM     84  N7  UNL A   1      41.582  26.923  28.750  1.00  0.00    +0.000 N 
ATOM     85  C61 UNL A   1      43.913  24.791  29.598  1.00  0.00    +0.000 C 
ATOM     86  C62 UNL A   1      44.684  25.660  30.255  1.00  0.00    +0.000 C 
ATOM     87  C63 UNL A   1      39.932  27.871  33.143  1.00  0.00    +0.000 C 
ATOM     88  C64 UNL A   1      39.273  27.790  31.983  1.00  0.00    +0.000 C 
ATOM    126  H33 UNL A   1      44.067  30.647  33.584  1.00  0.00    +0.000 H 
ATOM    127  H34 UNL A   1      45.519  30.675  31.370  1.00  0.00    +0.000 H 
ATOM    128  H35 UNL A   1      43.838  26.946  31.785  1.00  0.00    +0.000 H 
ENDROOT
BRANCH   32   31
ATOM    136  H43 UNL A   1      37.230  28.174  29.093  1.00  0.00    +0.000 H 
ATOM    137  H44 UNL A   1      35.588  29.937  28.861  1.00  0.00    +0.000 H 
ATOM    124  H31 UNL A   1      38.491  32.796  29.849  1.00  0.00    +0.000 H 
ATOM    125  H32 UNL A   1      40.171  31.068  29.869  1.00  0.00    +0.000 H 
ATOM     89  C65 UNL A   1      37.513  29.162  29.188  1.00  0.00    +0.000 C 
ATOM     90  C66 UNL A   1      36.569  30.180  29.072  1.00  0.00    +0.000 C 
ATOM     28  C23 UNL A   1      36.922  31.533  29.237  1.00  0.00    +0.000 C 
ATOM     29  C24 UNL A   1      38.232  31.827  29.609  1.00  0.00    +0.000 C 
ATOM     30  C25 UNL A   1      39.190  30.826  29.660  1.00  0.00    +0.000 C 
ATOM     31  C26 UNL A   1      38.840  29.489  29.430  1.00  0.00    +0.000 C 
BRANCH   28   26
ATOM     26  C22 UNL A   1      35.864  32.539  28.941  1.00  0.00    +0.000 C 
ATOM     27  O2  UNL A   1      35.698  33.474  29.735  1.00  0.00    +0.000 O 
BRANCH   26   25
ATOM     25  N3  UNL A   1      35.002  32.477  27.880  1.00  0.00    +0.000 N 
ATOM    123  H30 UNL A   1      35.410  32.753  27.028  1.00  0.00    +0.000 H 
BRANCH   25   24
ATOM    121  H28 UNL A   1      33.145  32.178  28.710  1.00  0.00    +0.000 H 
ATOM    122  H29 UNL A   1      33.172  32.737  27.023  1.00  0.00    +0.000 H 
ATOM     24  C21 UNL A   1      33.613  32.089  27.752  1.00  0.00    +0.000 C 
BRANCH   24   23
ATOM    119  H26 UNL A   1      34.076  30.502  26.417  1.00  0.00    +0.000 H 
ATOM     23  C20 UNL A   1      33.423  30.652  27.253  1.00  0.00    +0.000 C 
ATOM    120  H27 UNL A   1      33.645  30.014  28.082  1.00  0.00    +0.000 H 
BRANCH   23   22
ATOM    118  H25 UNL A   1      31.500  31.234  26.643  1.00  0.00    +0.000 H 
ATOM    117  H24 UNL A   1      31.545  29.722  27.586  1.00  0.00    +0.000 H 
ATOM     22  C19 UNL A   1      32.001  30.305  26.813  1.00  0.00    +0.000 C 
BRANCH   22   21
ATOM    115  H22 UNL A   1      31.036  29.824  24.994  1.00  0.00    +0.000 H 
ATOM    116  H23 UNL A   1      32.820  29.738  24.973  1.00  0.00    +0.000 H 
ATOM     21  C18 UNL A   1      31.922  29.521  25.512  1.00  0.00    +0.000 C 
BRANCH   21   20
ATOM    113  H20 UNL A   1      32.771  27.694  26.191  1.00  0.00    +0.000 H 
ATOM    114  H21 UNL A   1      30.975  27.793  26.227  1.00  0.00    +0.000 H 
ATOM     20  C17 UNL A   1      31.876  27.991  25.685  1.00  0.00    +0.000 C 
BRANCH   20   19
ATOM     19  C16 UNL A   1      31.769  27.161  24.396  1.00  0.00    +0.000 C 
ATOM    111  H18 UNL A   1      31.400  27.800  23.621  1.00  0.00    +0.000 H 
ATOM    112  H19 UNL A   1      32.751  26.779  24.207  1.00  0.00    +0.000 H 
BRANCH   19   18
ATOM     18  N2  UNL A   1      30.894  25.998  24.473  1.00  0.00    +0.000 N 
ATOM    110  H17 UNL A   1      30.256  26.028  25.223  1.00  0.00    +0.000 H 
BRANCH   18   16
ATOM     17  O1  UNL A   1      29.745  24.705  23.071  1.00  0.00    +0.000 O 
ATOM     16  C15 UNL A   1      30.789  24.873  23.703  1.00  0.00    +0.000 C 
BRANCH   16   15
ATOM    108  H15 UNL A   1      31.560  23.043  23.053  1.00  0.00    +0.000 H 
ATOM    109  H16 UNL A   1      32.747  24.394  23.358  1.00  0.00    +0.000 H 
ATOM     15  C14 UNL A   1      31.892  23.840  23.685  1.00  0.00    +0.000 C 
BRANCH   15   12
ATOM      3  C3  UNL A   1      34.993  18.856  24.604  1.00  0.00    +0.000 C 
ATOM      4  C4  UNL A   1      36.373  18.595  24.781  1.00  0.00    +0.000 C 
ATOM      5  C5  UNL A   1      37.310  19.601  25.003  1.00  0.00    +0.000 C 
ATOM      6  C6  UNL A   1      36.901  20.921  25.097  1.00  0.00    +0.000 C 
ATOM      7  C7  UNL A   1      35.537  21.222  24.954  1.00  0.00    +0.000 C 
ATOM      8  C8  UNL A   1      34.807  22.410  25.126  1.00  0.00    +0.000 C 
ATOM      9  C9  UNL A   1      33.475  22.179  24.860  1.00  0.00    +0.000 C 
ATOM     10  N1  UNL A   1      33.371  20.835  24.576  1.00  0.00    +0.000 N 
ATOM     11  C10 UNL A   1      34.614  20.215  24.686  1.00  0.00    +0.000 C 
ATOM     12  C11 UNL A   1      32.359  23.200  25.012  1.00  0.00    +0.000 C 
ATOM    140  H47 UNL A   1      36.041  24.078  24.983  1.00  0.00    +0.000 H 
ATOM    141  H48 UNL A   1      35.748  23.510  26.616  1.00  0.00    +0.000 H 
ATOM    138  H45 UNL A   1      34.398  25.287  26.649  1.00  0.00    +0.000 H 
ATOM    139  H46 UNL A   1      34.138  25.177  24.859  1.00  0.00    +0.000 H 
ATOM     91  O3  UNL A   1      32.844  24.160  25.985  1.00  0.00    +0.000 O 
ATOM     92  C67 UNL A   1      34.175  24.673  25.802  1.00  0.00    +0.000 C 
ATOM     93  C68 UNL A   1      35.309  23.681  25.655  1.00  0.00    +0.000 C 
ATOM     99  H6  UNL A   1      36.700  17.617  24.743  1.00  0.00    +0.000 H 
ATOM    100  H7  UNL A   1      38.311  19.362  25.099  1.00  0.00    +0.000 H 
ATOM    101  H8  UNL A   1      37.588  21.673  25.268  1.00  0.00    +0.000 H 
ATOM    102  H9  UNL A   1      32.536  20.376  24.329  1.00  0.00    +0.000 H 
BRANCH    3    2
ATOM     97  H4  UNL A   1      34.103  17.052  25.207  1.00  0.00    +0.000 H 
ATOM      2  C2  UNL A   1      33.987  17.749  24.404  1.00  0.00    +0.000 C 
ATOM     98  H5  UNL A   1      33.032  18.232  24.375  1.00  0.00    +0.000 H 
BRANCH    2    1
ATOM      1  C1  UNL A   1      34.094  16.974  23.095  1.00  0.00    +0.000 C 
ATOM     94  H1  UNL A   1      34.423  15.977  23.296  1.00  0.00    +0.000 H 
ATOM     95  H2  UNL A   1      34.797  17.459  22.450  1.00  0.00    +0.000 H 
ATOM     96  H3  UNL A   1      33.135  16.945  22.619  1.00  0.00    +0.000 H 
ENDBRANCH    2    1
ENDBRANCH    3    2
BRANCH   12   13
ATOM     13  C12 UNL A   1      31.122  22.534  25.702  1.00  0.00    +0.000 C 
ATOM    103  H10 UNL A   1      31.399  21.541  25.988  1.00  0.00    +0.000 H 
ATOM    104  H11 UNL A   1      30.330  22.574  24.984  1.00  0.00    +0.000 H 
BRANCH   13   14
ATOM    105  H12 UNL A   1      31.417  23.569  27.555  1.00  0.00    +0.000 H 
ATOM    106  H13 UNL A   1      29.973  22.586  27.510  1.00  0.00    +0.000 H 
ATOM    107  H14 UNL A   1      30.021  24.107  26.652  1.00  0.00    +0.000 H 
ATOM     14  C13 UNL A   1      30.593  23.253  26.949  1.00  0.00    +0.000 C 
ENDBRANCH   13   14
ENDBRANCH   12   13
ENDBRANCH   15   12
ENDBRANCH   16   15
ENDBRANCH   18   16
ENDBRANCH   19   18
ENDBRANCH   20   19
ENDBRANCH   21   20
ENDBRANCH   22   21
ENDBRANCH   23   22
ENDBRANCH   24   23
ENDBRANCH   25   24
ENDBRANCH   26   25
ENDBRANCH   28   26
ENDBRANCH   32   31
BRANCH   36   37
ATOM     37  C31 UNL A   1      42.637  26.869  34.572  1.00  0.00    +0.000 C 
ATOM     38  C32 UNL A   1      42.519  27.088  35.962  1.00  0.00    +0.000 C 
ATOM     39  F1  UNL A   1      41.961  28.214  36.433  1.00  0.00    +0.000 F 
ATOM     40  C33 UNL A   1      43.051  26.198  36.902  1.00  0.00    +0.000 C 
ATOM     41  F2  UNL A   1      43.019  26.506  38.206  1.00  0.00    +0.000 F 
ATOM     42  C34 UNL A   1      43.672  25.034  36.492  1.00  0.00    +0.000 C 
ATOM     43  F3  UNL A   1      44.233  24.208  37.384  1.00  0.00    +0.000 F 
ATOM     44  C35 UNL A   1      43.749  24.751  35.145  1.00  0.00    +0.000 C 
ATOM     45  F4  UNL A   1      44.369  23.639  34.726  1.00  0.00    +0.000 F 
ATOM     46  C36 UNL A   1      43.260  25.657  34.204  1.00  0.00    +0.000 C 
ATOM     47  F5  UNL A   1      43.525  25.350  32.930  1.00  0.00    +0.000 F 
ENDBRANCH   36   37
BRANCH   53   54
ATOM     54  C42 UNL A   1      45.545  29.099  28.723  1.00  0.00    +0.000 C 
ATOM     55  C43 UNL A   1      44.631  29.899  28.023  1.00  0.00    +0.000 C 
ATOM     56  F6  UNL A   1      43.317  29.829  28.283  1.00  0.00    +0.000 F 
ATOM     57  C44 UNL A   1      45.071  30.818  27.071  1.00  0.00    +0.000 C 
ATOM     58  F7  UNL A   1      44.185  31.569  26.401  1.00  0.00    +0.000 F 
ATOM     59  C45 UNL A   1      46.428  30.980  26.833  1.00  0.00    +0.000 C 
ATOM     60  F8  UNL A   1      46.854  31.892  25.949  1.00  0.00    +0.000 F 
ATOM     61  C46 UNL A   1      47.347  30.213  27.530  1.00  0.00    +0.000 C 
ATOM     62  F9  UNL A   1      48.661  30.392  27.335  1.00  0.00    +0.000 F 
ATOM     63  C47 UNL A   1      46.910  29.272  28.453  1.00  0.00    +0.000 C 
ATOM     64  F10 UNL A   1      47.823  28.550  29.122  1.00  0.00    +0.000 F 
ENDBRANCH   53   54
BRANCH   68   69
ATOM     69  C51 UNL A   1      42.559  23.886  26.711  1.00  0.00    +0.000 C 
ATOM     70  C52 UNL A   1      43.501  23.492  25.744  1.00  0.00    +0.000 C 
ATOM     71  F11 UNL A   1      44.351  24.389  25.223  1.00  0.00    +0.000 F 
ATOM     72  C53 UNL A   1      43.646  22.154  25.364  1.00  0.00    +0.000 C 
ATOM     73  F12 UNL A   1      44.614  21.805  24.505  1.00  0.00    +0.000 F 
ATOM     74  C54 UNL A   1      42.843  21.177  25.928  1.00  0.00    +0.000 C 
ATOM     75  F13 UNL A   1      43.038  19.885  25.629  1.00  0.00    +0.000 F 
ATOM     76  C55 UNL A   1      41.868  21.541  26.839  1.00  0.00    +0.000 C 
ATOM     77  F14 UNL A   1      41.106  20.600  27.413  1.00  0.00    +0.000 F 
ATOM     78  C56 UNL A   1      41.724  22.876  27.222  1.00  0.00    +0.000 C 
ATOM     79  F15 UNL A   1      40.825  23.149  28.178  1.00  0.00    +0.000 F 
ENDBRANCH   68   69
TORSDOF 20
ENDMDL
MODEL 5
REMARK VINA RESULT:     -10.6      1.505      3.566
ROOT
ATOM    129  H36 UNL A   1      41.755  27.012  25.277  1.00  0.00    +0.000 H 
ATOM    130  H37 UNL A   1      39.991  28.607  26.194  1.00  0.00    +0.000 H 
ATOM    131  H38 UNL A   1      42.639  27.787  29.300  1.00  0.00    +0.000 H 
ATOM    132  H39 UNL A   1      44.624  25.242  29.823  1.00  0.00    +0.000 H 
ATOM    133  H40 UNL A   1      45.522  27.145  31.320  1.00  0.00    +0.000 H 
ATOM    134  H41 UNL A   1      39.353  27.795  33.449  1.00  0.00    +0.000 H 
ATOM    135  H42 UNL A   1      38.525  27.364  31.046  1.00  0.00    +0.000 H 
ATOM     32  C27 UNL A   1      40.058  28.826  29.081  1.00  0.00    +0.000 C 
ATOM     33  C28 UNL A   1      40.298  28.688  30.542  1.00  0.00    +0.000 C 
ATOM     34  N4  UNL A   1      41.186  29.318  31.238  1.00  0.00    +0.000 N 
ATOM     35  C29 UNL A   1      41.054  28.846  32.540  1.00  0.00    +0.000 C 
ATOM     36  C30 UNL A   1      42.123  28.874  33.382  1.00  0.00    +0.000 C 
ATOM     48  C37 UNL A   1      43.148  29.753  32.881  1.00  0.00    +0.000 C 
ATOM     49  C38 UNL A   1      43.424  31.101  32.892  1.00  0.00    +0.000 C 
ATOM     50  C39 UNL A   1      44.329  31.338  31.812  1.00  0.00    +0.000 C 
ATOM     51  C40 UNL A   1      44.608  30.126  31.191  1.00  0.00    +0.000 C 
ATOM     52  N5  UNL A   1      43.915  29.187  31.903  1.00  0.00    +0.000 N 
ATOM     53  C41 UNL A   1      45.199  29.756  29.929  1.00  0.00    +0.000 C 
ATOM     65  C48 UNL A   1      45.385  28.461  29.552  1.00  0.00    +0.000 C 
ATOM     66  N6  UNL A   1      45.260  28.093  28.231  1.00  0.00    +0.000 N 
ATOM     67  C49 UNL A   1      44.731  26.902  28.284  1.00  0.00    +0.000 C 
ATOM     68  C50 UNL A   1      43.825  26.377  27.239  1.00  0.00    +0.000 C 
ATOM     80  C57 UNL A   1      42.680  27.101  27.287  1.00  0.00    +0.000 C 
ATOM     81  C58 UNL A   1      41.713  27.371  26.243  1.00  0.00    +0.000 C 
ATOM     82  C59 UNL A   1      40.745  28.168  26.745  1.00  0.00    +0.000 C 
ATOM     83  C60 UNL A   1      40.932  28.316  28.187  1.00  0.00    +0.000 C 
ATOM     84  N7  UNL A   1      42.173  27.745  28.435  1.00  0.00    +0.000 N 
ATOM     85  C61 UNL A   1      44.835  26.220  29.569  1.00  0.00    +0.000 C 
ATOM     86  C62 UNL A   1      45.282  27.229  30.320  1.00  0.00    +0.000 C 
ATOM     87  C63 UNL A   1      39.814  28.117  32.584  1.00  0.00    +0.000 C 
ATOM     88  C64 UNL A   1      39.343  27.915  31.350  1.00  0.00    +0.000 C 
ATOM    126  H33 UNL A   1      43.051  31.803  33.551  1.00  0.00    +0.000 H 
ATOM    127  H34 UNL A   1      44.712  32.257  31.539  1.00  0.00    +0.000 H 
ATOM    128  H35 UNL A   1      43.964  28.219  31.731  1.00  0.00    +0.000 H 
ENDROOT
BRANCH   32   31
ATOM    136  H43 UNL A   1      37.744  27.935  27.927  1.00  0.00    +0.000 H 
ATOM    137  H44 UNL A   1      35.749  29.241  27.512  1.00  0.00    +0.000 H 
ATOM    124  H31 UNL A   1      37.479  32.536  29.442  1.00  0.00    +0.000 H 
ATOM    125  H32 UNL A   1      39.542  31.309  29.664  1.00  0.00    +0.000 H 
ATOM     89  C65 UNL A   1      37.714  28.933  28.190  1.00  0.00    +0.000 C 
ATOM     90  C66 UNL A   1      36.561  29.685  27.968  1.00  0.00    +0.000 C 
ATOM     28  C23 UNL A   1      36.480  31.036  28.354  1.00  0.00    +0.000 C 
ATOM     29  C24 UNL A   1      37.555  31.586  29.047  1.00  0.00    +0.000 C 
ATOM     30  C25 UNL A   1      38.729  30.865  29.211  1.00  0.00    +0.000 C 
ATOM     31  C26 UNL A   1      38.821  29.540  28.765  1.00  0.00    +0.000 C 
BRANCH   28   26
ATOM     26  C22 UNL A   1      35.258  31.778  27.931  1.00  0.00    +0.000 C 
ATOM     27  O2  UNL A   1      35.361  32.981  27.661  1.00  0.00    +0.000 O 
BRANCH   26   25
ATOM     25  N3  UNL A   1      33.999  31.244  27.881  1.00  0.00    +0.000 N 
ATOM    123  H30 UNL A   1      33.492  31.358  28.718  1.00  0.00    +0.000 H 
BRANCH   25   24
ATOM    121  H28 UNL A   1      32.246  30.895  26.867  1.00  0.00    +0.000 H 
ATOM    122  H29 UNL A   1      33.743  30.749  25.921  1.00  0.00    +0.000 H 
ATOM     24  C21 UNL A   1      33.257  30.545  26.852  1.00  0.00    +0.000 C 
BRANCH   24   23
ATOM    119  H26 UNL A   1      33.551  28.577  26.110  1.00  0.00    +0.000 H 
ATOM     23  C20 UNL A   1      33.246  29.024  27.034  1.00  0.00    +0.000 C 
ATOM    120  H27 UNL A   1      33.912  28.813  27.845  1.00  0.00    +0.000 H 
BRANCH   23   22
ATOM    118  H25 UNL A   1      31.151  28.994  26.898  1.00  0.00    +0.000 H 
ATOM    117  H24 UNL A   1      31.792  28.500  28.488  1.00  0.00    +0.000 H 
ATOM     22  C19 UNL A   1      31.893  28.432  27.424  1.00  0.00    +0.000 C 
BRANCH   22   21
ATOM    115  H22 UNL A   1      32.542  26.689  26.418  1.00  0.00    +0.000 H 
ATOM    116  H23 UNL A   1      31.629  26.418  27.928  1.00  0.00    +0.000 H 
ATOM     21  C18 UNL A   1      31.706  26.976  27.020  1.00  0.00    +0.000 C 
BRANCH   21   20
ATOM    113  H20 UNL A   1      29.666  27.368  26.567  1.00  0.00    +0.000 H 
ATOM    114  H21 UNL A   1      30.689  26.814  25.194  1.00  0.00    +0.000 H 
ATOM     20  C17 UNL A   1      30.420  26.691  26.222  1.00  0.00    +0.000 C 
BRANCH   20   19
ATOM     19  C16 UNL A   1      29.853  25.266  26.329  1.00  0.00    +0.000 C 
ATOM    111  H18 UNL A   1      29.134  25.255  27.123  1.00  0.00    +0.000 H 
ATOM    112  H19 UNL A   1      29.436  25.041  25.369  1.00  0.00    +0.000 H 
BRANCH   19   18
ATOM     18  N2  UNL A   1      30.833  24.222  26.596  1.00  0.00    +0.000 N 
ATOM    110  H17 UNL A   1      31.544  24.493  27.222  1.00  0.00    +0.000 H 
BRANCH   18   16
ATOM     17  O1  UNL A   1      29.957  22.218  26.180  1.00  0.00    +0.000 O 
ATOM     16  C15 UNL A   1      30.956  22.937  26.144  1.00  0.00    +0.000 C 
BRANCH   16   15
ATOM    108  H15 UNL A   1      33.010  22.672  26.423  1.00  0.00    +0.000 H 
ATOM    109  H16 UNL A   1      32.107  21.359  25.536  1.00  0.00    +0.000 H 
ATOM     15  C14 UNL A   1      32.291  22.404  25.678  1.00  0.00    +0.000 C 
BRANCH   15   12
ATOM      3  C3  UNL A   1      31.705  27.610  22.875  1.00  0.00    +0.000 C 
ATOM      4  C4  UNL A   1      32.501  28.780  22.832  1.00  0.00    +0.000 C 
ATOM      5  C5  UNL A   1      33.802  28.827  23.327  1.00  0.00    +0.000 C 
ATOM      6  C6  UNL A   1      34.384  27.687  23.857  1.00  0.00    +0.000 C 
ATOM      7  C7  UNL A   1      33.638  26.498  23.895  1.00  0.00    +0.000 C 
ATOM      8  C8  UNL A   1      33.979  25.178  24.237  1.00  0.00    +0.000 C 
ATOM      9  C9  UNL A   1      32.873  24.366  24.110  1.00  0.00    +0.000 C 
ATOM     10  N1  UNL A   1      31.860  25.173  23.638  1.00  0.00    +0.000 N 
ATOM     11  C10 UNL A   1      32.323  26.472  23.441  1.00  0.00    +0.000 C 
ATOM     12  C11 UNL A   1      32.861  22.860  24.315  1.00  0.00    +0.000 C 
ATOM    140  H47 UNL A   1      35.680  25.125  25.431  1.00  0.00    +0.000 H 
ATOM    141  H48 UNL A   1      35.969  24.894  23.717  1.00  0.00    +0.000 H 
ATOM    138  H45 UNL A   1      36.205  22.772  24.371  1.00  0.00    +0.000 H 
ATOM    139  H46 UNL A   1      35.085  23.034  25.772  1.00  0.00    +0.000 H 
ATOM     91  O3  UNL A   1      34.224  22.428  24.078  1.00  0.00    +0.000 O 
ATOM     92  C67 UNL A   1      35.275  23.164  24.727  1.00  0.00    +0.000 C 
ATOM     93  C68 UNL A   1      35.318  24.665  24.536  1.00  0.00    +0.000 C 
ATOM     99  H6  UNL A   1      32.101  29.635  22.417  1.00  0.00    +0.000 H 
ATOM    100  H7  UNL A   1      34.333  29.712  23.297  1.00  0.00    +0.000 H 
ATOM    101  H8  UNL A   1      35.350  27.711  24.221  1.00  0.00    +0.000 H 
ATOM    102  H9  UNL A   1      30.939  24.873  23.463  1.00  0.00    +0.000 H 
BRANCH    3    2
ATOM     97  H4  UNL A   1      30.351  27.981  21.313  1.00  0.00    +0.000 H 
ATOM      2  C2  UNL A   1      30.311  27.567  22.298  1.00  0.00    +0.000 C 
ATOM     98  H5  UNL A   1      30.018  26.538  22.332  1.00  0.00    +0.000 H 
BRANCH    2    1
ATOM      1  C1  UNL A   1      29.239  28.323  23.077  1.00  0.00    +0.000 C 
ATOM     94  H1  UNL A   1      28.285  28.158  22.622  1.00  0.00    +0.000 H 
ATOM     95  H2  UNL A   1      29.463  29.369  23.068  1.00  0.00    +0.000 H 
ATOM     96  H3  UNL A   1      29.218  27.971  24.087  1.00  0.00    +0.000 H 
ENDBRANCH    2    1
ENDBRANCH    3    2
BRANCH   12   13
ATOM     13  C12 UNL A   1      32.029  22.177  23.178  1.00  0.00    +0.000 C 
ATOM    103  H10 UNL A   1      32.291  22.644  22.252  1.00  0.00    +0.000 H 
ATOM    104  H11 UNL A   1      31.003  22.301  23.451  1.00  0.00    +0.000 H 
BRANCH   13   14
ATOM    105  H12 UNL A   1      32.852  20.306  23.823  1.00  0.00    +0.000 H 
ATOM    106  H13 UNL A   1      32.726  20.469  22.088  1.00  0.00    +0.000 H 
ATOM    107  H14 UNL A   1      31.294  20.169  23.044  1.00  0.00    +0.000 H 
ATOM     14  C13 UNL A   1      32.241  20.666  23.021  1.00  0.00    +0.000 C 
ENDBRANCH   13   14
ENDBRANCH   12   13
ENDBRANCH   15   12
ENDBRANCH   16   15
ENDBRANCH   18   16
ENDBRANCH   19   18
ENDBRANCH   20   19
ENDBRANCH   21   20
ENDBRANCH   22   21
ENDBRANCH   23   22
ENDBRANCH   24   23
ENDBRANCH   25   24
ENDBRANCH   26   25
ENDBRANCH   28   26
ENDBRANCH   32   31
BRANCH   36   37
ATOM     37  C31 UNL A   1      42.486  27.760  34.344  1.00  0.00    +0.000 C 
ATOM     38  C32 UNL A   1      43.015  26.557  33.828  1.00  0.00    +0.000 C 
ATOM     39  F1  UNL A   1      43.464  26.493  32.566  1.00  0.00    +0.000 F 
ATOM     40  C33 UNL A   1      43.013  25.368  34.567  1.00  0.00    +0.000 C 
ATOM     41  F2  UNL A   1      43.417  24.226  33.994  1.00  0.00    +0.000 F 
ATOM     42  C34 UNL A   1      42.534  25.348  35.862  1.00  0.00    +0.000 C 
ATOM     43  F3  UNL A   1      42.477  24.202  36.552  1.00  0.00    +0.000 F 
ATOM     44  C35 UNL A   1      42.069  26.517  36.425  1.00  0.00    +0.000 C 
ATOM     45  F4  UNL A   1      41.576  26.513  37.672  1.00  0.00    +0.000 F 
ATOM     46  C36 UNL A   1      42.028  27.694  35.678  1.00  0.00    +0.000 C 
ATOM     47  F5  UNL A   1      41.418  28.723  36.275  1.00  0.00    +0.000 F 
ENDBRANCH   36   37
BRANCH   53   54
ATOM     54  C42 UNL A   1      45.451  30.822  28.915  1.00  0.00    +0.000 C 
ATOM     55  C43 UNL A   1      46.697  31.425  28.689  1.00  0.00    +0.000 C 
ATOM     56  F6  UNL A   1      47.773  31.067  29.406  1.00  0.00    +0.000 F 
ATOM     57  C44 UNL A   1      46.856  32.378  27.684  1.00  0.00    +0.000 C 
ATOM     58  F7  UNL A   1      48.050  32.954  27.486  1.00  0.00    +0.000 F 
ATOM     59  C45 UNL A   1      45.787  32.713  26.865  1.00  0.00    +0.000 C 
ATOM     60  F8  UNL A   1      45.950  33.598  25.872  1.00  0.00    +0.000 F 
ATOM     61  C46 UNL A   1      44.554  32.113  27.060  1.00  0.00    +0.000 C 
ATOM     62  F9  UNL A   1      43.527  32.402  26.248  1.00  0.00    +0.000 F 
ATOM     63  C47 UNL A   1      44.384  31.189  28.084  1.00  0.00    +0.000 C 
ATOM     64  F10 UNL A   1      43.180  30.616  28.242  1.00  0.00    +0.000 F 
ENDBRANCH   53   54
BRANCH   68   69
ATOM     69  C51 UNL A   1      44.110  25.106  26.533  1.00  0.00    +0.000 C 
ATOM     70  C52 UNL A   1      43.107  24.135  26.365  1.00  0.00    +0.000 C 
ATOM     71  F11 UNL A   1      41.974  24.203  27.081  1.00  0.00    +0.000 F 
ATOM     72  C53 UNL A   1      43.211  23.131  25.397  1.00  0.00    +0.000 C 
ATOM     73  F12 UNL A   1      42.195  22.278  25.208  1.00  0.00    +0.000 F 
ATOM     74  C54 UNL A   1      44.327  23.062  24.581  1.00  0.00    +0.000 C 
ATOM     75  F13 UNL A   1      44.391  22.155  23.597  1.00  0.00    +0.000 F 
ATOM     76  C55 UNL A   1      45.358  23.968  24.761  1.00  0.00    +0.000 C 
ATOM     77  F14 UNL A   1      46.429  23.928  23.956  1.00  0.00    +0.000 F 
ATOM     78  C56 UNL A   1      45.254  24.972  25.725  1.00  0.00    +0.000 C 
ATOM     79  F15 UNL A   1      46.244  25.874  25.784  1.00  0.00    +0.000 F 
ENDBRANCH   68   69
TORSDOF 20
ENDMDL
MODEL 6
REMARK VINA RESULT:     -10.6      3.008      8.958
ROOT
ATOM    129  H36 UNL A   1      37.112  28.447  30.433  1.00  0.00    +0.000 H 
ATOM    130  H37 UNL A   1      38.675  26.667  29.493  1.00  0.00    +0.000 H 
ATOM    131  H38 UNL A   1      40.941  30.114  30.065  1.00  0.00    +0.000 H 
ATOM    132  H39 UNL A   1      40.075  33.263  30.193  1.00  0.00    +0.000 H 
ATOM    133  H40 UNL A   1      42.403  33.135  31.303  1.00  0.00    +0.000 H 
ATOM    134  H41 UNL A   1      44.282  29.809  25.972  1.00  0.00    +0.000 H 
ATOM    135  H42 UNL A   1      42.000  28.610  25.971  1.00  0.00    +0.000 H 
ATOM     32  C27 UNL A   1      41.215  27.745  28.614  1.00  0.00    +0.000 C 
ATOM     33  C28 UNL A   1      42.373  28.585  28.208  1.00  0.00    +0.000 C 
ATOM     34  N4  UNL A   1      43.337  28.985  28.971  1.00  0.00    +0.000 N 
ATOM     35  C29 UNL A   1      44.165  29.760  28.164  1.00  0.00    +0.000 C 
ATOM     36  C30 UNL A   1      44.930  30.738  28.722  1.00  0.00    +0.000 C 
ATOM     48  C37 UNL A   1      45.032  30.561  30.147  1.00  0.00    +0.000 C 
ATOM     49  C38 UNL A   1      45.787  29.820  31.027  1.00  0.00    +0.000 C 
ATOM     50  C39 UNL A   1      45.050  29.767  32.249  1.00  0.00    +0.000 C 
ATOM     51  C40 UNL A   1      43.881  30.504  32.096  1.00  0.00    +0.000 C 
ATOM     52  N5  UNL A   1      43.937  31.011  30.828  1.00  0.00    +0.000 N 
ATOM     53  C41 UNL A   1      42.647  30.596  32.837  1.00  0.00    +0.000 C 
ATOM     65  C48 UNL A   1      41.634  31.433  32.481  1.00  0.00    +0.000 C 
ATOM     66  N6  UNL A   1      40.322  31.063  32.677  1.00  0.00    +0.000 N 
ATOM     67  C49 UNL A   1      39.695  31.571  31.651  1.00  0.00    +0.000 C 
ATOM     68  C50 UNL A   1      38.496  30.945  31.052  1.00  0.00    +0.000 C 
ATOM     80  C57 UNL A   1      38.883  29.776  30.485  1.00  0.00    +0.000 C 
ATOM     81  C58 UNL A   1      38.115  28.575  30.228  1.00  0.00    +0.000 C 
ATOM     82  C59 UNL A   1      38.929  27.650  29.675  1.00  0.00    +0.000 C 
ATOM     83  C60 UNL A   1      40.225  28.257  29.376  1.00  0.00    +0.000 C 
ATOM     84  N7  UNL A   1      40.173  29.502  29.987  1.00  0.00    +0.000 N 
ATOM     85  C61 UNL A   1      40.403  32.624  30.934  1.00  0.00    +0.000 C 
ATOM     86  C62 UNL A   1      41.601  32.521  31.514  1.00  0.00    +0.000 C 
ATOM     87  C63 UNL A   1      43.752  29.516  26.808  1.00  0.00    +0.000 C 
ATOM     88  C64 UNL A   1      42.590  28.859  26.780  1.00  0.00    +0.000 C 
ATOM    126  H33 UNL A   1      46.706  29.387  30.840  1.00  0.00    +0.000 H 
ATOM    127  H34 UNL A   1      45.338  29.266  33.104  1.00  0.00    +0.000 H 
ATOM    128  H35 UNL A   1      43.267  31.626  30.450  1.00  0.00    +0.000 H 
ENDROOT
BRANCH   32   31
ATOM    136  H43 UNL A   1      42.801  25.651  29.375  1.00  0.00    +0.000 H 
ATOM    137  H44 UNL A   1      42.770  23.414  28.451  1.00  0.00    +0.000 H 
ATOM    124  H31 UNL A   1      39.512  24.440  26.021  1.00  0.00    +0.000 H 
ATOM    125  H32 UNL A   1      39.679  26.722  26.780  1.00  0.00    +0.000 H 
ATOM     89  C65 UNL A   1      42.145  25.413  28.614  1.00  0.00    +0.000 C 
ATOM     90  C66 UNL A   1      42.112  24.122  28.091  1.00  0.00    +0.000 C 
ATOM     28  C23 UNL A   1      41.200  23.762  27.080  1.00  0.00    +0.000 C 
ATOM     29  C24 UNL A   1      40.264  24.710  26.674  1.00  0.00    +0.000 C 
ATOM     30  C25 UNL A   1      40.335  26.013  27.142  1.00  0.00    +0.000 C 
ATOM     31  C26 UNL A   1      41.289  26.377  28.100  1.00  0.00    +0.000 C 
BRANCH   28   26
ATOM     26  C22 UNL A   1      41.358  22.401  26.494  1.00  0.00    +0.000 C 
ATOM     27  O2  UNL A   1      42.296  22.200  25.712  1.00  0.00    +0.000 O 
BRANCH   26   25
ATOM     25  N3  UNL A   1      40.498  21.357  26.701  1.00  0.00    +0.000 N 
ATOM    123  H30 UNL A   1      40.603  20.932  27.583  1.00  0.00    +0.000 H 
BRANCH   25   24
ATOM    121  H28 UNL A   1      39.901  20.430  24.966  1.00  0.00    +0.000 H 
ATOM    122  H29 UNL A   1      39.067  19.927  26.452  1.00  0.00    +0.000 H 
ATOM     24  C21 UNL A   1      39.464  20.746  25.890  1.00  0.00    +0.000 C 
BRANCH   24   23
ATOM    119  H26 UNL A   1      37.880  22.020  26.506  1.00  0.00    +0.000 H 
ATOM     23  C20 UNL A   1      38.297  21.689  25.578  1.00  0.00    +0.000 C 
ATOM    120  H27 UNL A   1      38.702  22.485  24.989  1.00  0.00    +0.000 H 
BRANCH   23   22
ATOM    118  H25 UNL A   1      37.430  20.040  24.608  1.00  0.00    +0.000 H 
ATOM    117  H24 UNL A   1      37.103  21.609  23.825  1.00  0.00    +0.000 H 
ATOM     22  C19 UNL A   1      37.174  21.069  24.747  1.00  0.00    +0.000 C 
BRANCH   22   21
ATOM    115  H22 UNL A   1      35.449  20.087  25.475  1.00  0.00    +0.000 H 
ATOM    116  H23 UNL A   1      35.955  21.541  26.380  1.00  0.00    +0.000 H 
ATOM     21  C18 UNL A   1      35.810  21.093  25.420  1.00  0.00    +0.000 C 
BRANCH   21   20
ATOM    113  H20 UNL A   1      34.111  21.278  24.156  1.00  0.00    +0.000 H 
ATOM    114  H21 UNL A   1      34.260  22.503  25.466  1.00  0.00    +0.000 H 
ATOM     20  C17 UNL A   1      34.751  21.944  24.697  1.00  0.00    +0.000 C 
BRANCH   20   19
ATOM     19  C16 UNL A   1      35.279  22.994  23.704  1.00  0.00    +0.000 C 
ATOM    111  H18 UNL A   1      35.684  23.808  24.269  1.00  0.00    +0.000 H 
ATOM    112  H19 UNL A   1      36.002  22.489  23.098  1.00  0.00    +0.000 H 
BRANCH   19   18
ATOM     18  N2  UNL A   1      34.290  23.535  22.782  1.00  0.00    +0.000 N 
ATOM    110  H17 UNL A   1      34.089  22.943  22.021  1.00  0.00    +0.000 H 
BRANCH   18   16
ATOM     17  O1  UNL A   1      34.225  25.759  22.686  1.00  0.00    +0.000 O 
ATOM     16  C15 UNL A   1      33.587  24.708  22.770  1.00  0.00    +0.000 C 
BRANCH   16   15
ATOM    108  H15 UNL A   1      31.699  25.380  22.179  1.00  0.00    +0.000 H 
ATOM    109  H16 UNL A   1      31.819  23.681  22.832  1.00  0.00    +0.000 H 
ATOM     15  C14 UNL A   1      32.084  24.714  22.923  1.00  0.00    +0.000 C 
BRANCH   15   12
ATOM      3  C3  UNL A   1      33.497  29.224  26.525  1.00  0.00    +0.000 C 
ATOM      4  C4  UNL A   1      33.003  30.543  26.661  1.00  0.00    +0.000 C 
ATOM      5  C5  UNL A   1      31.831  30.979  26.047  1.00  0.00    +0.000 C 
ATOM      6  C6  UNL A   1      31.074  30.097  25.293  1.00  0.00    +0.000 C 
ATOM      7  C7  UNL A   1      31.515  28.771  25.154  1.00  0.00    +0.000 C 
ATOM      8  C8  UNL A   1      30.921  27.631  24.583  1.00  0.00    +0.000 C 
ATOM      9  C9  UNL A   1      31.774  26.556  24.700  1.00  0.00    +0.000 C 
ATOM     10  N1  UNL A   1      32.874  27.016  25.391  1.00  0.00    +0.000 N 
ATOM     11  C10 UNL A   1      32.711  28.356  25.732  1.00  0.00    +0.000 C 
ATOM     12  C11 UNL A   1      31.456  25.133  24.273  1.00  0.00    +0.000 C 
ATOM    140  H47 UNL A   1      29.437  28.157  23.225  1.00  0.00    +0.000 H 
ATOM    141  H48 UNL A   1      28.868  27.802  24.845  1.00  0.00    +0.000 H 
ATOM    138  H45 UNL A   1      28.228  25.905  23.857  1.00  0.00    +0.000 H 
ATOM    139  H46 UNL A   1      29.560  26.041  22.636  1.00  0.00    +0.000 H 
ATOM     91  O3  UNL A   1      30.010  25.035  24.299  1.00  0.00    +0.000 O 
ATOM     92  C67 UNL A   1      29.264  26.088  23.663  1.00  0.00    +0.000 C 
ATOM     93  C68 UNL A   1      29.552  27.516  24.074  1.00  0.00    +0.000 C 
ATOM     99  H6  UNL A   1      33.533  31.212  27.240  1.00  0.00    +0.000 H 
ATOM    100  H7  UNL A   1      31.526  31.959  26.155  1.00  0.00    +0.000 H 
ATOM    101  H8  UNL A   1      30.201  30.409  24.839  1.00  0.00    +0.000 H 
ATOM    102  H9  UNL A   1      33.665  26.473  25.613  1.00  0.00    +0.000 H 
BRANCH    3    2
ATOM     97  H4  UNL A   1      34.478  27.951  27.877  1.00  0.00    +0.000 H 
ATOM      2  C2  UNL A   1      34.748  28.759  27.230  1.00  0.00    +0.000 C 
ATOM     98  H5  UNL A   1      35.433  28.491  26.453  1.00  0.00    +0.000 H 
BRANCH    2    1
ATOM      1  C1  UNL A   1      35.472  29.805  28.070  1.00  0.00    +0.000 C 
ATOM     94  H1  UNL A   1      36.202  29.325  28.688  1.00  0.00    +0.000 H 
ATOM     95  H2  UNL A   1      34.765  30.319  28.687  1.00  0.00    +0.000 H 
ATOM     96  H3  UNL A   1      35.958  30.507  27.424  1.00  0.00    +0.000 H 
ENDBRANCH    2    1
ENDBRANCH    3    2
BRANCH   12   13
ATOM     13  C12 UNL A   1      31.937  24.129  25.373  1.00  0.00    +0.000 C 
ATOM    103  H10 UNL A   1      32.280  24.698  26.212  1.00  0.00    +0.000 H 
ATOM    104  H11 UNL A   1      32.698  23.533  24.914  1.00  0.00    +0.000 H 
BRANCH   13   14
ATOM    105  H12 UNL A   1      29.944  23.650  25.999  1.00  0.00    +0.000 H 
ATOM    106  H13 UNL A   1      31.187  22.731  26.814  1.00  0.00    +0.000 H 
ATOM    107  H14 UNL A   1      30.761  22.350  25.163  1.00  0.00    +0.000 H 
ATOM     14  C13 UNL A   1      30.878  23.140  25.875  1.00  0.00    +0.000 C 
ENDBRANCH   13   14
ENDBRANCH   12   13
ENDBRANCH   15   12
ENDBRANCH   16   15
ENDBRANCH   18   16
ENDBRANCH   19   18
ENDBRANCH   20   19
ENDBRANCH   21   20
ENDBRANCH   22   21
ENDBRANCH   23   22
ENDBRANCH   24   23
ENDBRANCH   25   24
ENDBRANCH   26   25
ENDBRANCH   28   26
ENDBRANCH   32   31
BRANCH   36   37
ATOM     37  C31 UNL A   1      45.143  32.110  28.112  1.00  0.00    +0.000 C 
ATOM     38  C32 UNL A   1      44.035  32.971  27.962  1.00  0.00    +0.000 C 
ATOM     39  F1  UNL A   1      42.881  32.719  28.599  1.00  0.00    +0.000 F 
ATOM     40  C33 UNL A   1      44.055  34.062  27.085  1.00  0.00    +0.000 C 
ATOM     41  F2  UNL A   1      42.941  34.780  26.887  1.00  0.00    +0.000 F 
ATOM     42  C34 UNL A   1      45.197  34.363  26.368  1.00  0.00    +0.000 C 
ATOM     43  F3  UNL A   1      45.202  35.370  25.485  1.00  0.00    +0.000 F 
ATOM     44  C35 UNL A   1      46.322  33.585  26.536  1.00  0.00    +0.000 C 
ATOM     45  F4  UNL A   1      47.432  33.846  25.830  1.00  0.00    +0.000 F 
ATOM     46  C36 UNL A   1      46.292  32.471  27.375  1.00  0.00    +0.000 C 
ATOM     47  F5  UNL A   1      47.388  31.708  27.342  1.00  0.00    +0.000 F 
ENDBRANCH   36   37
BRANCH   53   54
ATOM     54  C42 UNL A   1      42.389  29.611  33.927  1.00  0.00    +0.000 C 
ATOM     55  C43 UNL A   1      41.806  28.350  33.736  1.00  0.00    +0.000 C 
ATOM     56  F6  UNL A   1      41.425  27.947  32.514  1.00  0.00    +0.000 F 
ATOM     57  C44 UNL A   1      41.648  27.468  34.804  1.00  0.00    +0.000 C 
ATOM     58  F7  UNL A   1      41.078  26.270  34.609  1.00  0.00    +0.000 F 
ATOM     59  C45 UNL A   1      42.105  27.814  36.067  1.00  0.00    +0.000 C 
ATOM     60  F8  UNL A   1      41.992  26.950  37.086  1.00  0.00    +0.000 F 
ATOM     61  C46 UNL A   1      42.703  29.047  36.271  1.00  0.00    +0.000 C 
ATOM     62  F9  UNL A   1      43.183  29.372  37.479  1.00  0.00    +0.000 F 
ATOM     63  C47 UNL A   1      42.829  29.941  35.216  1.00  0.00    +0.000 C 
ATOM     64  F10 UNL A   1      43.422  31.125  35.440  1.00  0.00    +0.000 F 
ENDBRANCH   53   54
BRANCH   68   69
ATOM     69  C51 UNL A   1      37.224  31.690  30.906  1.00  0.00    +0.000 C 
ATOM     70  C52 UNL A   1      36.316  31.783  31.976  1.00  0.00    +0.000 C 
ATOM     71  F11 UNL A   1      36.437  30.971  33.037  1.00  0.00    +0.000 F 
ATOM     72  C53 UNL A   1      35.326  32.770  32.016  1.00  0.00    +0.000 C 
ATOM     73  F12 UNL A   1      34.537  32.882  33.093  1.00  0.00    +0.000 F 
ATOM     74  C54 UNL A   1      35.207  33.681  30.980  1.00  0.00    +0.000 C 
ATOM     75  F13 UNL A   1      34.317  34.680  31.056  1.00  0.00    +0.000 F 
ATOM     76  C55 UNL A   1      36.047  33.579  29.885  1.00  0.00    +0.000 C 
ATOM     77  F14 UNL A   1      35.960  34.474  28.892  1.00  0.00    +0.000 F 
ATOM     78  C56 UNL A   1      37.038  32.596  29.845  1.00  0.00    +0.000 C 
ATOM     79  F15 UNL A   1      37.879  32.611  28.802  1.00  0.00    +0.000 F 
ENDBRANCH   68   69
TORSDOF 20
ENDMDL
MODEL 7
REMARK VINA RESULT:     -10.4     34.315     42.243
ROOT
ATOM    129  H36 UNL A   1      12.428  30.216   2.391  1.00  0.00    +0.000 H 
ATOM    130  H37 UNL A   1      10.122  29.177   2.706  1.00  0.00    +0.000 H 
ATOM    131  H38 UNL A   1      10.007  31.376  -0.828  1.00  0.00    +0.000 H 
ATOM    132  H39 UNL A   1      11.793  33.920  -1.840  1.00  0.00    +0.000 H 
ATOM    133  H40 UNL A   1      10.726  32.926  -3.971  1.00  0.00    +0.000 H 
ATOM    134  H41 UNL A   1       5.036  33.189  -0.719  1.00  0.00    +0.000 H 
ATOM    135  H42 UNL A   1       6.276  32.461   1.420  1.00  0.00    +0.000 H 
ATOM     32  C27 UNL A   1       8.127  30.297   0.931  1.00  0.00    +0.000 C 
ATOM     33  C28 UNL A   1       7.335  31.090  -0.046  1.00  0.00    +0.000 C 
ATOM     34  N4  UNL A   1       7.230  30.865  -1.314  1.00  0.00    +0.000 N 
ATOM     35  C29 UNL A   1       6.414  31.875  -1.814  1.00  0.00    +0.000 C 
ATOM     36  C30 UNL A   1       6.529  32.255  -3.116  1.00  0.00    +0.000 C 
ATOM     48  C37 UNL A   1       7.246  31.266  -3.878  1.00  0.00    +0.000 C 
ATOM     49  C38 UNL A   1       6.969  30.077  -4.513  1.00  0.00    +0.000 C 
ATOM     50  C39 UNL A   1       8.215  29.393  -4.653  1.00  0.00    +0.000 C 
ATOM     51  C40 UNL A   1       9.225  30.195  -4.131  1.00  0.00    +0.000 C 
ATOM     52  N5  UNL A   1       8.601  31.340  -3.723  1.00  0.00    +0.000 N 
ATOM     53  C41 UNL A   1      10.593  29.962  -3.740  1.00  0.00    +0.000 C 
ATOM     65  C48 UNL A   1      11.402  30.946  -3.262  1.00  0.00    +0.000 C 
ATOM     66  N6  UNL A   1      12.343  30.670  -2.295  1.00  0.00    +0.000 N 
ATOM     67  C49 UNL A   1      12.358  31.744  -1.554  1.00  0.00    +0.000 C 
ATOM     68  C50 UNL A   1      12.654  31.716  -0.105  1.00  0.00    +0.000 C 
ATOM     80  C57 UNL A   1      11.633  31.070   0.510  1.00  0.00    +0.000 C 
ATOM     81  C58 UNL A   1      11.623  30.335   1.758  1.00  0.00    +0.000 C 
ATOM     82  C59 UNL A   1      10.385  29.833   1.955  1.00  0.00    +0.000 C 
ATOM     83  C60 UNL A   1       9.476  30.363   0.941  1.00  0.00    +0.000 C 
ATOM     84  N7  UNL A   1      10.306  31.009   0.036  1.00  0.00    +0.000 N 
ATOM     85  C61 UNL A   1      11.778  32.938  -2.158  1.00  0.00    +0.000 C 
ATOM     86  C62 UNL A   1      11.222  32.391  -3.241  1.00  0.00    +0.000 C 
ATOM     87  C63 UNL A   1       5.818  32.518  -0.673  1.00  0.00    +0.000 C 
ATOM     88  C64 UNL A   1       6.418  32.126   0.455  1.00  0.00    +0.000 C 
ATOM    126  H33 UNL A   1       6.044  29.744  -4.827  1.00  0.00    +0.000 H 
ATOM    127  H34 UNL A   1       8.346  28.459  -5.073  1.00  0.00    +0.000 H 
ATOM    128  H35 UNL A   1       9.072  32.125  -3.360  1.00  0.00    +0.000 H 
ENDROOT
BRANCH   32   31
ATOM    136  H43 UNL A   1       7.193  30.840   3.443  1.00  0.00    +0.000 H 
ATOM    137  H44 UNL A   1       5.776  29.412   4.791  1.00  0.00    +0.000 H 
ATOM    124  H31 UNL A   1       5.491  26.676   1.627  1.00  0.00    +0.000 H 
ATOM    125  H32 UNL A   1       7.071  27.988   0.364  1.00  0.00    +0.000 H 
ATOM     89  C65 UNL A   1       6.886  29.923   3.081  1.00  0.00    +0.000 C 
ATOM     90  C66 UNL A   1       6.057  29.105   3.846  1.00  0.00    +0.000 C 
ATOM     28  C23 UNL A   1       5.592  27.869   3.359  1.00  0.00    +0.000 C 
ATOM     29  C24 UNL A   1       5.911  27.519   2.050  1.00  0.00    +0.000 C 
ATOM     30  C25 UNL A   1       6.789  28.295   1.308  1.00  0.00    +0.000 C 
ATOM     31  C26 UNL A   1       7.297  29.492   1.827  1.00  0.00    +0.000 C 
BRANCH   28   26
ATOM     26  C22 UNL A   1       4.838  27.014   4.320  1.00  0.00    +0.000 C 
ATOM     27  O2  UNL A   1       3.630  26.830   4.126  1.00  0.00    +0.000 O 
BRANCH   26   25
ATOM     25  N3  UNL A   1       5.368  26.462   5.454  1.00  0.00    +0.000 N 
ATOM    123  H30 UNL A   1       6.116  26.982   5.830  1.00  0.00    +0.000 H 
BRANCH   25   24
ATOM    121  H28 UNL A   1       3.993  25.186   6.293  1.00  0.00    +0.000 H 
ATOM    122  H29 UNL A   1       5.495  24.444   5.702  1.00  0.00    +0.000 H 
ATOM     24  C21 UNL A   1       5.057  25.272   6.218  1.00  0.00    +0.000 C 
BRANCH   24   23
ATOM    119  H26 UNL A   1       5.299  26.169   8.128  1.00  0.00    +0.000 H 
ATOM     23  C20 UNL A   1       5.643  25.284   7.634  1.00  0.00    +0.000 C 
ATOM    120  H27 UNL A   1       5.312  24.382   8.104  1.00  0.00    +0.000 H 
BRANCH   23   22
ATOM    118  H25 UNL A   1       7.432  25.348   8.733  1.00  0.00    +0.000 H 
ATOM    117  H24 UNL A   1       7.540  26.079   7.109  1.00  0.00    +0.000 H 
ATOM     22  C19 UNL A   1       7.170  25.266   7.699  1.00  0.00    +0.000 C 
BRANCH   22   21
ATOM    115  H22 UNL A   1       7.041  23.403   6.706  1.00  0.00    +0.000 H 
ATOM    116  H23 UNL A   1       8.591  24.272   6.529  1.00  0.00    +0.000 H 
ATOM     21  C18 UNL A   1       7.803  23.979   7.189  1.00  0.00    +0.000 C 
BRANCH   21   20
ATOM    113  H20 UNL A   1       9.143  23.714   8.818  1.00  0.00    +0.000 H 
ATOM    114  H21 UNL A   1       7.633  22.735   8.867  1.00  0.00    +0.000 H 
ATOM     20  C17 UNL A   1       8.448  23.104   8.279  1.00  0.00    +0.000 C 
BRANCH   20   19
ATOM     19  C16 UNL A   1       9.201  21.854   7.794  1.00  0.00    +0.000 C 
ATOM    111  H18 UNL A   1       8.887  21.026   8.396  1.00  0.00    +0.000 H 
ATOM    112  H19 UNL A   1       8.960  21.748   6.757  1.00  0.00    +0.000 H 
BRANCH   19   18
ATOM     18  N2  UNL A   1      10.654  21.934   7.863  1.00  0.00    +0.000 N 
ATOM    110  H17 UNL A   1      10.995  22.233   8.738  1.00  0.00    +0.000 H 
BRANCH   18   16
ATOM     17  O1  UNL A   1      11.351  20.951   5.991  1.00  0.00    +0.000 O 
ATOM     16  C15 UNL A   1      11.634  21.675   6.947  1.00  0.00    +0.000 C 
BRANCH   16   15
ATOM    108  H15 UNL A   1      13.285  22.061   8.167  1.00  0.00    +0.000 H 
ATOM    109  H16 UNL A   1      13.610  21.663   6.417  1.00  0.00    +0.000 H 
ATOM     15  C14 UNL A   1      13.035  22.207   7.137  1.00  0.00    +0.000 C 
BRANCH   15   12
ATOM      3  C3  UNL A   1      10.706  25.706   2.938  1.00  0.00    +0.000 C 
ATOM      4  C4  UNL A   1       9.638  26.635   2.936  1.00  0.00    +0.000 C 
ATOM      5  C5  UNL A   1       9.026  27.086   4.104  1.00  0.00    +0.000 C 
ATOM      6  C6  UNL A   1       9.484  26.653   5.338  1.00  0.00    +0.000 C 
ATOM      7  C7  UNL A   1      10.560  25.751   5.385  1.00  0.00    +0.000 C 
ATOM      8  C8  UNL A   1      11.322  25.243   6.451  1.00  0.00    +0.000 C 
ATOM      9  C9  UNL A   1      12.277  24.376   5.967  1.00  0.00    +0.000 C 
ATOM     10  N1  UNL A   1      12.142  24.388   4.595  1.00  0.00    +0.000 N 
ATOM     11  C10 UNL A   1      11.134  25.271   4.212  1.00  0.00    +0.000 C 
ATOM     12  C11 UNL A   1      13.341  23.686   6.803  1.00  0.00    +0.000 C 
ATOM    140  H47 UNL A   1      10.295  25.401   8.252  1.00  0.00    +0.000 H 
ATOM    141  H48 UNL A   1      11.406  26.714   7.914  1.00  0.00    +0.000 H 
ATOM    138  H45 UNL A   1      12.638  25.635   9.430  1.00  0.00    +0.000 H 
ATOM    139  H46 UNL A   1      11.868  24.053   8.993  1.00  0.00    +0.000 H 
ATOM     91  O3  UNL A   1      13.517  24.524   7.973  1.00  0.00    +0.000 O 
ATOM     92  C67 UNL A   1      12.330  24.959   8.660  1.00  0.00    +0.000 C 
ATOM     93  C68 UNL A   1      11.255  25.657   7.855  1.00  0.00    +0.000 C 
ATOM     99  H6  UNL A   1       9.296  26.994   2.031  1.00  0.00    +0.000 H 
ATOM    100  H7  UNL A   1       8.232  27.743   4.049  1.00  0.00    +0.000 H 
ATOM    101  H8  UNL A   1       9.041  26.986   6.208  1.00  0.00    +0.000 H 
ATOM    102  H9  UNL A   1      12.681  23.849   3.973  1.00  0.00    +0.000 H 
BRANCH    3    2
ATOM     97  H4  UNL A   1      12.091  24.500   1.919  1.00  0.00    +0.000 H 
ATOM      2  C2  UNL A   1      11.382  25.260   1.664  1.00  0.00    +0.000 C 
ATOM     98  H5  UNL A   1      10.594  24.929   1.021  1.00  0.00    +0.000 H 
BRANCH    2    1
ATOM      1  C1  UNL A   1      12.120  26.342   0.882  1.00  0.00    +0.000 C 
ATOM     94  H1  UNL A   1      12.249  26.024  -0.131  1.00  0.00    +0.000 H 
ATOM     95  H2  UNL A   1      13.078  26.513   1.327  1.00  0.00    +0.000 H 
ATOM     96  H3  UNL A   1      11.550  27.247   0.903  1.00  0.00    +0.000 H 
ENDBRANCH    2    1
ENDBRANCH    3    2
BRANCH   12   13
ATOM     13  C12 UNL A   1      14.720  23.750   6.065  1.00  0.00    +0.000 C 
ATOM    103  H10 UNL A   1      15.108  24.741   6.176  1.00  0.00    +0.000 H 
ATOM    104  H11 UNL A   1      14.522  23.474   5.051  1.00  0.00    +0.000 H 
BRANCH   13   14
ATOM    105  H12 UNL A   1      15.549  22.465   7.566  1.00  0.00    +0.000 H 
ATOM    106  H13 UNL A   1      16.743  23.244   6.555  1.00  0.00    +0.000 H 
ATOM    107  H14 UNL A   1      15.806  21.909   5.929  1.00  0.00    +0.000 H 
ATOM     14  C13 UNL A   1      15.785  22.767   6.566  1.00  0.00    +0.000 C 
ENDBRANCH   13   14
ENDBRANCH   12   13
ENDBRANCH   15   12
ENDBRANCH   16   15
ENDBRANCH   18   16
ENDBRANCH   19   18
ENDBRANCH   20   19
ENDBRANCH   21   20
ENDBRANCH   22   21
ENDBRANCH   23   22
ENDBRANCH   24   23
ENDBRANCH   25   24
ENDBRANCH   26   25
ENDBRANCH   28   26
ENDBRANCH   32   31
BRANCH   36   37
ATOM     37  C31 UNL A   1       6.482  33.693  -3.596  1.00  0.00    +0.000 C 
ATOM     38  C32 UNL A   1       5.510  34.062  -4.552  1.00  0.00    +0.000 C 
ATOM     39  F1  UNL A   1       4.470  33.258  -4.816  1.00  0.00    +0.000 F 
ATOM     40  C33 UNL A   1       5.630  35.224  -5.322  1.00  0.00    +0.000 C 
ATOM     41  F2  UNL A   1       4.746  35.473  -6.297  1.00  0.00    +0.000 F 
ATOM     42  C34 UNL A   1       6.694  36.085  -5.130  1.00  0.00    +0.000 C 
ATOM     43  F3  UNL A   1       6.844  37.167  -5.905  1.00  0.00    +0.000 F 
ATOM     44  C35 UNL A   1       7.630  35.793  -4.161  1.00  0.00    +0.000 C 
ATOM     45  F4  UNL A   1       8.683  36.603  -3.978  1.00  0.00    +0.000 F 
ATOM     46  C36 UNL A   1       7.537  34.614  -3.422  1.00  0.00    +0.000 C 
ATOM     47  F5  UNL A   1       8.578  34.363  -2.623  1.00  0.00    +0.000 F 
ENDBRANCH   36   37
BRANCH   53   54
ATOM     54  C42 UNL A   1      11.092  28.557  -3.681  1.00  0.00    +0.000 C 
ATOM     55  C43 UNL A   1      10.700  27.615  -2.718  1.00  0.00    +0.000 C 
ATOM     56  F6  UNL A   1       9.825  27.940  -1.756  1.00  0.00    +0.000 F 
ATOM     57  C44 UNL A   1      11.178  26.306  -2.767  1.00  0.00    +0.000 C 
ATOM     58  F7  UNL A   1      10.803  25.418  -1.834  1.00  0.00    +0.000 F 
ATOM     59  C45 UNL A   1      12.019  25.907  -3.795  1.00  0.00    +0.000 C 
ATOM     60  F8  UNL A   1      12.444  24.639  -3.866  1.00  0.00    +0.000 F 
ATOM     61  C46 UNL A   1      12.401  26.818  -4.766  1.00  0.00    +0.000 C 
ATOM     62  F9  UNL A   1      13.180  26.431  -5.785  1.00  0.00    +0.000 F 
ATOM     63  C47 UNL A   1      11.955  28.133  -4.701  1.00  0.00    +0.000 C 
ATOM     64  F10 UNL A   1      12.332  28.991  -5.661  1.00  0.00    +0.000 F 
ENDBRANCH   53   54
BRANCH   68   69
ATOM     69  C51 UNL A   1      13.744  32.532   0.479  1.00  0.00    +0.000 C 
ATOM     70  C52 UNL A   1      13.462  33.557   1.400  1.00  0.00    +0.000 C 
ATOM     71  F11 UNL A   1      12.207  34.008   1.546  1.00  0.00    +0.000 F 
ATOM     72  C53 UNL A   1      14.446  34.071   2.250  1.00  0.00    +0.000 C 
ATOM     73  F12 UNL A   1      14.119  34.984   3.175  1.00  0.00    +0.000 F 
ATOM     74  C54 UNL A   1      15.741  33.586   2.192  1.00  0.00    +0.000 C 
ATOM     75  F13 UNL A   1      16.665  34.015   3.063  1.00  0.00    +0.000 F 
ATOM     76  C55 UNL A   1      16.064  32.619   1.256  1.00  0.00    +0.000 C 
ATOM     77  F14 UNL A   1      17.308  32.121   1.212  1.00  0.00    +0.000 F 
ATOM     78  C56 UNL A   1      15.082  32.103   0.409  1.00  0.00    +0.000 C 
ATOM     79  F15 UNL A   1      15.438  31.102  -0.409  1.00  0.00    +0.000 F 
ENDBRANCH   68   69
TORSDOF 20
ENDMDL
MODEL 8
REMARK VINA RESULT:     -10.3      1.161      2.002
ROOT
ATOM    129  H36 UNL A   1      41.003  26.111  26.415  1.00  0.00    +0.000 H 
ATOM    130  H37 UNL A   1      39.598  27.957  27.470  1.00  0.00    +0.000 H 
ATOM    131  H38 UNL A   1      42.800  27.232  30.032  1.00  0.00    +0.000 H 
ATOM    132  H39 UNL A   1      44.669  24.583  30.445  1.00  0.00    +0.000 H 
ATOM    133  H40 UNL A   1      46.004  26.544  31.467  1.00  0.00    +0.000 H 
ATOM    134  H41 UNL A   1      40.511  28.004  34.741  1.00  0.00    +0.000 H 
ATOM    135  H42 UNL A   1      39.149  27.395  32.639  1.00  0.00    +0.000 H 
ATOM     32  C27 UNL A   1      40.311  28.482  30.227  1.00  0.00    +0.000 C 
ATOM     33  C28 UNL A   1      40.855  28.482  31.611  1.00  0.00    +0.000 C 
ATOM     34  N4  UNL A   1      41.916  29.096  32.021  1.00  0.00    +0.000 N 
ATOM     35  C29 UNL A   1      42.040  28.784  33.371  1.00  0.00    +0.000 C 
ATOM     36  C30 UNL A   1      43.268  28.802  33.959  1.00  0.00    +0.000 C 
ATOM     48  C37 UNL A   1      44.216  29.520  33.147  1.00  0.00    +0.000 C 
ATOM     49  C38 UNL A   1      44.580  30.829  32.929  1.00  0.00    +0.000 C 
ATOM     50  C39 UNL A   1      45.240  30.860  31.663  1.00  0.00    +0.000 C 
ATOM     51  C40 UNL A   1      45.292  29.566  31.155  1.00  0.00    +0.000 C 
ATOM     52  N5  UNL A   1      44.709  28.780  32.110  1.00  0.00    +0.000 N 
ATOM     53  C41 UNL A   1      45.565  29.007  29.855  1.00  0.00    +0.000 C 
ATOM     65  C48 UNL A   1      45.574  27.667  29.615  1.00  0.00    +0.000 C 
ATOM     66  N6  UNL A   1      45.137  27.171  28.407  1.00  0.00    +0.000 N 
ATOM     67  C49 UNL A   1      44.551  26.047  28.720  1.00  0.00    +0.000 C 
ATOM     68  C50 UNL A   1      43.404  25.500  27.963  1.00  0.00    +0.000 C 
ATOM     80  C57 UNL A   1      42.350  26.331  28.158  1.00  0.00    +0.000 C 
ATOM     81  C58 UNL A   1      41.198  26.576  27.314  1.00  0.00    +0.000 C 
ATOM     82  C59 UNL A   1      40.422  27.511  27.902  1.00  0.00    +0.000 C 
ATOM     83  C60 UNL A   1      40.930  27.796  29.243  1.00  0.00    +0.000 C 
ATOM     84  N7  UNL A   1      42.153  27.141  29.295  1.00  0.00    +0.000 N 
ATOM     85  C61 UNL A   1      44.886  25.503  30.031  1.00  0.00    +0.000 C 
ATOM     86  C62 UNL A   1      45.556  26.541  30.537  1.00  0.00    +0.000 C 
ATOM     87  C63 UNL A   1      40.793  28.185  33.765  1.00  0.00    +0.000 C 
ATOM     88  C64 UNL A   1      40.050  27.896  32.693  1.00  0.00    +0.000 C 
ATOM    126  H33 UNL A   1      44.411  31.630  33.557  1.00  0.00    +0.000 H 
ATOM    127  H34 UNL A   1      45.617  31.703  31.201  1.00  0.00    +0.000 H 
ATOM    128  H35 UNL A   1      44.651  27.799  32.056  1.00  0.00    +0.000 H 
ENDROOT
BRANCH   32   31
ATOM    136  H43 UNL A   1      37.688  27.727  30.398  1.00  0.00    +0.000 H 
ATOM    137  H44 UNL A   1      35.759  29.175  30.194  1.00  0.00    +0.000 H 
ATOM    124  H31 UNL A   1      38.272  32.517  29.903  1.00  0.00    +0.000 H 
ATOM    125  H32 UNL A   1      40.192  31.059  29.889  1.00  0.00    +0.000 H 
ATOM     89  C65 UNL A   1      37.814  28.737  30.225  1.00  0.00    +0.000 C 
ATOM     90  C66 UNL A   1      36.706  29.577  30.124  1.00  0.00    +0.000 C 
ATOM     28  C23 UNL A   1      36.852  30.964  29.930  1.00  0.00    +0.000 C 
ATOM     29  C24 UNL A   1      38.139  31.494  29.928  1.00  0.00    +0.000 C 
ATOM     30  C25 UNL A   1      39.245  30.657  29.961  1.00  0.00    +0.000 C 
ATOM     31  C26 UNL A   1      39.088  29.272  30.090  1.00  0.00    +0.000 C 
BRANCH   28   26
ATOM     26  C22 UNL A   1      35.602  31.738  29.685  1.00  0.00    +0.000 C 
ATOM     27  O2  UNL A   1      34.945  32.125  30.659  1.00  0.00    +0.000 O 
BRANCH   26   25
ATOM     25  N3  UNL A   1      35.076  32.001  28.449  1.00  0.00    +0.000 N 
ATOM    123  H30 UNL A   1      35.746  32.311  27.797  1.00  0.00    +0.000 H 
BRANCH   25   24
ATOM    121  H28 UNL A   1      33.039  32.151  28.677  1.00  0.00    +0.000 H 
ATOM    122  H29 UNL A   1      33.688  32.617  27.090  1.00  0.00    +0.000 H 
ATOM     24  C21 UNL A   1      33.738  31.920  27.901  1.00  0.00    +0.000 C 
BRANCH   24   23
ATOM    119  H26 UNL A   1      34.094  30.315  26.555  1.00  0.00    +0.000 H 
ATOM     23  C20 UNL A   1      33.394  30.539  27.333  1.00  0.00    +0.000 C 
ATOM    120  H27 UNL A   1      33.442  29.856  28.154  1.00  0.00    +0.000 H 
BRANCH   23   22
ATOM    118  H25 UNL A   1      31.859  31.236  26.080  1.00  0.00    +0.000 H 
ATOM    117  H24 UNL A   1      31.287  30.430  27.564  1.00  0.00    +0.000 H 
ATOM     22  C19 UNL A   1      31.985  30.415  26.753  1.00  0.00    +0.000 C 
BRANCH   22   21
ATOM    115  H22 UNL A   1      30.695  29.019  25.826  1.00  0.00    +0.000 H 
ATOM    116  H23 UNL A   1      32.265  29.281  25.017  1.00  0.00    +0.000 H 
ATOM     21  C18 UNL A   1      31.751  29.147  25.945  1.00  0.00    +0.000 C 
BRANCH   21   20
ATOM    113  H20 UNL A   1      33.319  27.738  26.215  1.00  0.00    +0.000 H 
ATOM    114  H21 UNL A   1      32.251  28.016  27.636  1.00  0.00    +0.000 H 
ATOM     20  C17 UNL A   1      32.321  27.865  26.579  1.00  0.00    +0.000 C 
BRANCH   20   19
ATOM     19  C16 UNL A   1      31.551  26.564  26.300  1.00  0.00    +0.000 C 
ATOM    111  H18 UNL A   1      30.607  26.625  26.800  1.00  0.00    +0.000 H 
ATOM    112  H19 UNL A   1      31.470  26.491  25.235  1.00  0.00    +0.000 H 
BRANCH   19   18
ATOM     18  N2  UNL A   1      32.213  25.341  26.737  1.00  0.00    +0.000 N 
ATOM    110  H17 UNL A   1      33.019  25.497  27.280  1.00  0.00    +0.000 H 
BRANCH   18   16
ATOM     17  O1  UNL A   1      32.147  23.237  27.462  1.00  0.00    +0.000 O 
ATOM     16  C15 UNL A   1      31.928  24.019  26.536  1.00  0.00    +0.000 C 
BRANCH   16   15
ATOM    108  H15 UNL A   1      30.926  22.599  25.376  1.00  0.00    +0.000 H 
ATOM    109  H16 UNL A   1      30.827  24.341  24.842  1.00  0.00    +0.000 H 
ATOM     15  C14 UNL A   1      31.426  23.528  25.198  1.00  0.00    +0.000 C 
BRANCH   15   12
ATOM      3  C3  UNL A   1      37.297  22.640  25.417  1.00  0.00    +0.000 C 
ATOM      4  C4  UNL A   1      38.098  21.473  25.450  1.00  0.00    +0.000 C 
ATOM      5  C5  UNL A   1      37.590  20.201  25.197  1.00  0.00    +0.000 C 
ATOM      6  C6  UNL A   1      36.256  20.041  24.858  1.00  0.00    +0.000 C 
ATOM      7  C7  UNL A   1      35.433  21.176  24.787  1.00  0.00    +0.000 C 
ATOM      8  C8  UNL A   1      34.109  21.358  24.352  1.00  0.00    +0.000 C 
ATOM      9  C9  UNL A   1      33.755  22.683  24.485  1.00  0.00    +0.000 C 
ATOM     10  N1  UNL A   1      34.878  23.332  24.952  1.00  0.00    +0.000 N 
ATOM     11  C10 UNL A   1      35.937  22.438  25.087  1.00  0.00    +0.000 C 
ATOM     12  C11 UNL A   1      32.431  23.287  24.048  1.00  0.00    +0.000 C 
ATOM    140  H47 UNL A   1      33.050  19.569  24.395  1.00  0.00    +0.000 H 
ATOM    141  H48 UNL A   1      33.753  19.978  22.842  1.00  0.00    +0.000 H 
ATOM    138  H45 UNL A   1      31.632  20.498  22.380  1.00  0.00    +0.000 H 
ATOM    139  H46 UNL A   1      31.300  20.875  24.121  1.00  0.00    +0.000 H 
ATOM     91  O3  UNL A   1      31.930  22.407  23.010  1.00  0.00    +0.000 O 
ATOM     92  C67 UNL A   1      31.945  20.994  23.275  1.00  0.00    +0.000 C 
ATOM     93  C68 UNL A   1      33.251  20.362  23.705  1.00  0.00    +0.000 C 
ATOM     99  H6  UNL A   1      39.100  21.568  25.673  1.00  0.00    +0.000 H 
ATOM    100  H7  UNL A   1      38.210  19.377  25.261  1.00  0.00    +0.000 H 
ATOM    101  H8  UNL A   1      35.874  19.103  24.663  1.00  0.00    +0.000 H 
ATOM    102  H9  UNL A   1      34.925  24.293  25.160  1.00  0.00    +0.000 H 
BRANCH    3    2
ATOM     97  H4  UNL A   1      38.596  24.204  24.890  1.00  0.00    +0.000 H 
ATOM      2  C2  UNL A   1      37.872  24.015  25.655  1.00  0.00    +0.000 C 
ATOM     98  H5  UNL A   1      37.036  24.682  25.644  1.00  0.00    +0.000 H 
BRANCH    2    1
ATOM      1  C1  UNL A   1      38.552  24.233  27.003  1.00  0.00    +0.000 C 
ATOM     94  H1  UNL A   1      38.960  25.221  27.041  1.00  0.00    +0.000 H 
ATOM     95  H2  UNL A   1      39.337  23.517  27.127  1.00  0.00    +0.000 H 
ATOM     96  H3  UNL A   1      37.833  24.114  27.787  1.00  0.00    +0.000 H 
ENDBRANCH    2    1
ENDBRANCH    3    2
BRANCH   12   13
ATOM     13  C12 UNL A   1      32.683  24.649  23.319  1.00  0.00    +0.000 C 
ATOM    103  H10 UNL A   1      33.365  24.471  22.514  1.00  0.00    +0.000 H 
ATOM    104  H11 UNL A   1      33.060  25.315  24.067  1.00  0.00    +0.000 H 
BRANCH   13   14
ATOM    105  H12 UNL A   1      30.862  24.614  22.191  1.00  0.00    +0.000 H 
ATOM    106  H13 UNL A   1      31.736  26.124  22.087  1.00  0.00    +0.000 H 
ATOM    107  H14 UNL A   1      30.845  25.728  23.537  1.00  0.00    +0.000 H 
ATOM     14  C13 UNL A   1      31.437  25.330  22.740  1.00  0.00    +0.000 C 
ENDBRANCH   13   14
ENDBRANCH   12   13
ENDBRANCH   15   12
ENDBRANCH   16   15
ENDBRANCH   18   16
ENDBRANCH   19   18
ENDBRANCH   20   19
ENDBRANCH   21   20
ENDBRANCH   22   21
ENDBRANCH   23   22
ENDBRANCH   24   23
ENDBRANCH   25   24
ENDBRANCH   26   25
ENDBRANCH   28   26
ENDBRANCH   32   31
BRANCH   36   37
ATOM     37  C31 UNL A   1      43.754  27.770  34.957  1.00  0.00    +0.000 C 
ATOM     38  C32 UNL A   1      43.674  26.401  34.619  1.00  0.00    +0.000 C 
ATOM     39  F1  UNL A   1      43.454  26.021  33.352  1.00  0.00    +0.000 F 
ATOM     40  C33 UNL A   1      43.729  25.393  35.588  1.00  0.00    +0.000 C 
ATOM     41  F2  UNL A   1      43.530  24.116  35.234  1.00  0.00    +0.000 F 
ATOM     42  C34 UNL A   1      43.918  25.709  36.920  1.00  0.00    +0.000 C 
ATOM     43  F3  UNL A   1      43.913  24.752  37.856  1.00  0.00    +0.000 F 
ATOM     44  C35 UNL A   1      44.067  27.030  37.282  1.00  0.00    +0.000 C 
ATOM     45  F4  UNL A   1      44.227  27.359  38.572  1.00  0.00    +0.000 F 
ATOM     46  C36 UNL A   1      43.969  28.041  36.326  1.00  0.00    +0.000 C 
ATOM     47  F5  UNL A   1      43.976  29.285  36.814  1.00  0.00    +0.000 F 
ENDBRANCH   36   37
BRANCH   53   54
ATOM     54  C42 UNL A   1      45.661  29.927  28.684  1.00  0.00    +0.000 C 
ATOM     55  C43 UNL A   1      44.559  30.440  27.984  1.00  0.00    +0.000 C 
ATOM     56  F6  UNL A   1      43.307  30.113  28.340  1.00  0.00    +0.000 F 
ATOM     57  C44 UNL A   1      44.737  31.336  26.932  1.00  0.00    +0.000 C 
ATOM     58  F7  UNL A   1      43.675  31.811  26.265  1.00  0.00    +0.000 F 
ATOM     59  C45 UNL A   1      46.011  31.765  26.589  1.00  0.00    +0.000 C 
ATOM     60  F8  UNL A   1      46.181  32.659  25.605  1.00  0.00    +0.000 F 
ATOM     61  C46 UNL A   1      47.111  31.284  27.281  1.00  0.00    +0.000 C 
ATOM     62  F9  UNL A   1      48.341  31.723  26.982  1.00  0.00    +0.000 F 
ATOM     63  C47 UNL A   1      46.938  30.363  28.307  1.00  0.00    +0.000 C 
ATOM     64  F10 UNL A   1      48.021  29.924  28.968  1.00  0.00    +0.000 F 
ENDBRANCH   53   54
BRANCH   68   69
ATOM     69  C51 UNL A   1      43.439  24.139  27.380  1.00  0.00    +0.000 C 
ATOM     70  C52 UNL A   1      42.848  23.053  28.051  1.00  0.00    +0.000 C 
ATOM     71  F11 UNL A   1      42.504  23.163  29.343  1.00  0.00    +0.000 F 
ATOM     72  C53 UNL A   1      42.516  21.870  27.383  1.00  0.00    +0.000 C 
ATOM     73  F12 UNL A   1      41.874  20.892  28.036  1.00  0.00    +0.000 F 
ATOM     74  C54 UNL A   1      42.781  21.734  26.031  1.00  0.00    +0.000 C 
ATOM     75  F13 UNL A   1      42.387  20.637  25.371  1.00  0.00    +0.000 F 
ATOM     76  C55 UNL A   1      43.415  22.763  25.356  1.00  0.00    +0.000 C 
ATOM     77  F14 UNL A   1      43.649  22.653  24.040  1.00  0.00    +0.000 F 
ATOM     78  C56 UNL A   1      43.744  23.945  26.020  1.00  0.00    +0.000 C 
ATOM     79  F15 UNL A   1      44.270  24.938  25.289  1.00  0.00    +0.000 F 
ENDBRANCH   68   69
TORSDOF 20
ENDMDL
MODEL 9
REMARK VINA RESULT:     -10.1      8.538     14.683
ROOT
ATOM    129  H36 UNL A   1      37.375  34.648  28.614  1.00  0.00    +0.000 H 
ATOM    130  H37 UNL A   1      39.896  34.923  28.368  1.00  0.00    +0.000 H 
ATOM    131  H38 UNL A   1      39.230  32.789  31.881  1.00  0.00    +0.000 H 
ATOM    132  H39 UNL A   1      36.630  32.653  33.857  1.00  0.00    +0.000 H 
ATOM    133  H40 UNL A   1      38.032  30.555  34.405  1.00  0.00    +0.000 H 
ATOM    134  H41 UNL A   1      43.137  34.638  34.935  1.00  0.00    +0.000 H 
ATOM    135  H42 UNL A   1      42.229  35.964  32.919  1.00  0.00    +0.000 H 
ATOM     32  C27 UNL A   1      41.348  34.235  30.778  1.00  0.00    +0.000 C 
ATOM     33  C28 UNL A   1      41.797  33.874  32.149  1.00  0.00    +0.000 C 
ATOM     34  N4  UNL A   1      42.002  32.681  32.601  1.00  0.00    +0.000 N 
ATOM     35  C29 UNL A   1      42.381  32.837  33.930  1.00  0.00    +0.000 C 
ATOM     36  C30 UNL A   1      42.154  31.834  34.822  1.00  0.00    +0.000 C 
ATOM     48  C37 UNL A   1      41.880  30.595  34.141  1.00  0.00    +0.000 C 
ATOM     49  C38 UNL A   1      42.599  29.575  33.561  1.00  0.00    +0.000 C 
ATOM     50  C39 UNL A   1      41.708  28.913  32.661  1.00  0.00    +0.000 C 
ATOM     51  C40 UNL A   1      40.461  29.523  32.739  1.00  0.00    +0.000 C 
ATOM     52  N5  UNL A   1      40.596  30.500  33.685  1.00  0.00    +0.000 N 
ATOM     53  C41 UNL A   1      39.277  29.499  31.917  1.00  0.00    +0.000 C 
ATOM     65  C48 UNL A   1      38.147  30.189  32.230  1.00  0.00    +0.000 C 
ATOM     66  N6  UNL A   1      37.364  30.737  31.238  1.00  0.00    +0.000 N 
ATOM     67  C49 UNL A   1      36.929  31.851  31.759  1.00  0.00    +0.000 C 
ATOM     68  C50 UNL A   1      36.640  33.057  30.952  1.00  0.00    +0.000 C 
ATOM     80  C57 UNL A   1      37.819  33.517  30.466  1.00  0.00    +0.000 C 
ATOM     81  C58 UNL A   1      38.085  34.298  29.275  1.00  0.00    +0.000 C 
ATOM     82  C59 UNL A   1      39.417  34.496  29.176  1.00  0.00    +0.000 C 
ATOM     83  C60 UNL A   1      40.075  34.010  30.387  1.00  0.00    +0.000 C 
ATOM     84  N7  UNL A   1      39.078  33.332  31.074  1.00  0.00    +0.000 N 
ATOM     85  C61 UNL A   1      37.022  31.951  33.211  1.00  0.00    +0.000 C 
ATOM     86  C62 UNL A   1      37.764  30.869  33.459  1.00  0.00    +0.000 C 
ATOM     87  C63 UNL A   1      42.668  34.236  34.108  1.00  0.00    +0.000 C 
ATOM     88  C64 UNL A   1      42.242  34.942  33.057  1.00  0.00    +0.000 C 
ATOM    126  H33 UNL A   1      43.587  29.335  33.740  1.00  0.00    +0.000 H 
ATOM    127  H34 UNL A   1      41.950  28.113  32.055  1.00  0.00    +0.000 H 
ATOM    128  H35 UNL A   1      39.856  31.068  34.001  1.00  0.00    +0.000 H 
ENDROOT
BRANCH   32   31
ATOM    136  H43 UNL A   1      41.825  36.854  30.151  1.00  0.00    +0.000 H 
ATOM    137  H44 UNL A   1      43.662  37.703  28.822  1.00  0.00    +0.000 H 
ATOM    124  H31 UNL A   1      45.279  33.844  28.557  1.00  0.00    +0.000 H 
ATOM    125  H32 UNL A   1      43.343  32.966  29.693  1.00  0.00    +0.000 H 
ATOM     89  C65 UNL A   1      42.523  36.204  29.755  1.00  0.00    +0.000 C 
ATOM     90  C66 UNL A   1      43.592  36.689  29.004  1.00  0.00    +0.000 C 
ATOM     28  C23 UNL A   1      44.579  35.828  28.489  1.00  0.00    +0.000 C 
ATOM     29  C24 UNL A   1      44.510  34.478  28.823  1.00  0.00    +0.000 C 
ATOM     30  C25 UNL A   1      43.415  33.979  29.513  1.00  0.00    +0.000 C 
ATOM     31  C26 UNL A   1      42.405  34.837  29.966  1.00  0.00    +0.000 C 
BRANCH   28   26
ATOM     26  C22 UNL A   1      45.587  36.439  27.577  1.00  0.00    +0.000 C 
ATOM     27  O2  UNL A   1      45.275  37.459  26.949  1.00  0.00    +0.000 O 
BRANCH   26   25
ATOM     25  N3  UNL A   1      46.826  35.917  27.321  1.00  0.00    +0.000 N 
ATOM    123  H30 UNL A   1      47.119  35.259  27.992  1.00  0.00    +0.000 H 
BRANCH   25   24
ATOM    121  H28 UNL A   1      48.458  35.292  26.238  1.00  0.00    +0.000 H 
ATOM    122  H29 UNL A   1      47.250  36.252  25.356  1.00  0.00    +0.000 H 
ATOM     24  C21 UNL A   1      47.797  36.133  26.268  1.00  0.00    +0.000 C 
BRANCH   24   23
ATOM    119  H26 UNL A   1      48.006  38.154  26.890  1.00  0.00    +0.000 H 
ATOM     23  C20 UNL A   1      48.635  37.402  26.461  1.00  0.00    +0.000 C 
ATOM    120  H27 UNL A   1      49.455  37.127  27.092  1.00  0.00    +0.000 H 
BRANCH   23   22
ATOM    118  H25 UNL A   1      49.110  37.228  24.423  1.00  0.00    +0.000 H 
ATOM    117  H24 UNL A   1      50.280  38.184  25.372  1.00  0.00    +0.000 H 
ATOM     22  C19 UNL A   1      49.248  37.969  25.182  1.00  0.00    +0.000 C 
BRANCH   22   21
ATOM    115  H22 UNL A   1      49.348  39.944  24.434  1.00  0.00    +0.000 H 
ATOM    116  H23 UNL A   1      47.988  38.955  23.834  1.00  0.00    +0.000 H 
ATOM     21  C18 UNL A   1      48.581  39.240  24.677  1.00  0.00    +0.000 C 
BRANCH   21   20
ATOM    113  H20 UNL A   1      47.413  39.191  26.453  1.00  0.00    +0.000 H 
ATOM    114  H21 UNL A   1      48.124  40.786  26.016  1.00  0.00    +0.000 H 
ATOM     20  C17 UNL A   1      47.620  39.903  25.681  1.00  0.00    +0.000 C 
BRANCH   20   19
ATOM     19  C16 UNL A   1      46.274  40.389  25.119  1.00  0.00    +0.000 C 
ATOM    111  H18 UNL A   1      45.950  39.684  24.382  1.00  0.00    +0.000 H 
ATOM    112  H19 UNL A   1      45.614  40.467  25.958  1.00  0.00    +0.000 H 
BRANCH   19   18
ATOM     18  N2  UNL A   1      46.295  41.708  24.501  1.00  0.00    +0.000 N 
ATOM    110  H17 UNL A   1      45.974  42.429  25.091  1.00  0.00    +0.000 H 
BRANCH   18   16
ATOM     17  O1  UNL A   1      47.864  42.394  23.078  1.00  0.00    +0.000 O 
ATOM     16  C15 UNL A   1      46.672  42.137  23.259  1.00  0.00    +0.000 C 
BRANCH   16   15
ATOM    108  H15 UNL A   1      46.194  42.494  21.257  1.00  0.00    +0.000 H 
ATOM    109  H16 UNL A   1      45.033  41.476  22.229  1.00  0.00    +0.000 H 
ATOM     15  C14 UNL A   1      45.650  42.349  22.167  1.00  0.00    +0.000 C 
BRANCH   15   12
ATOM      3  C3  UNL A   1      42.998  45.506  17.888  1.00  0.00    +0.000 C 
ATOM      4  C4  UNL A   1      41.749  45.388  17.233  1.00  0.00    +0.000 C 
ATOM      5  C5  UNL A   1      40.736  44.545  17.683  1.00  0.00    +0.000 C 
ATOM      6  C6  UNL A   1      40.914  43.803  18.840  1.00  0.00    +0.000 C 
ATOM      7  C7  UNL A   1      42.129  43.910  19.535  1.00  0.00    +0.000 C 
ATOM      8  C8  UNL A   1      42.557  43.407  20.776  1.00  0.00    +0.000 C 
ATOM      9  C9  UNL A   1      43.857  43.797  21.012  1.00  0.00    +0.000 C 
ATOM     10  N1  UNL A   1      44.217  44.588  19.942  1.00  0.00    +0.000 N 
ATOM     11  C10 UNL A   1      43.153  44.720  19.053  1.00  0.00    +0.000 C 
ATOM     12  C11 UNL A   1      44.642  43.515  22.282  1.00  0.00    +0.000 C 
ATOM    140  H47 UNL A   1      41.410  41.774  21.361  1.00  0.00    +0.000 H 
ATOM    141  H48 UNL A   1      40.895  43.316  22.017  1.00  0.00    +0.000 H 
ATOM    138  H45 UNL A   1      41.868  42.496  23.852  1.00  0.00    +0.000 H 
ATOM    139  H46 UNL A   1      43.002  41.494  22.854  1.00  0.00    +0.000 H 
ATOM     91  O3  UNL A   1      43.645  43.325  23.318  1.00  0.00    +0.000 O 
ATOM     92  C67 UNL A   1      42.545  42.447  23.024  1.00  0.00    +0.000 C 
ATOM     93  C68 UNL A   1      41.739  42.707  21.769  1.00  0.00    +0.000 C 
ATOM     99  H6  UNL A   1      41.580  45.951  16.385  1.00  0.00    +0.000 H 
ATOM    100  H7  UNL A   1      39.851  44.474  17.155  1.00  0.00    +0.000 H 
ATOM    101  H8  UNL A   1      40.167  43.179  19.184  1.00  0.00    +0.000 H 
ATOM    102  H9  UNL A   1      45.103  45.001  19.822  1.00  0.00    +0.000 H 
BRANCH    3    2
ATOM     97  H4  UNL A   1      44.978  46.206  17.915  1.00  0.00    +0.000 H 
ATOM      2  C2  UNL A   1      44.069  46.455  17.408  1.00  0.00    +0.000 C 
ATOM     98  H5  UNL A   1      44.108  46.330  16.346  1.00  0.00    +0.000 H 
BRANCH    2    1
ATOM      1  C1  UNL A   1      43.801  47.939  17.636  1.00  0.00    +0.000 C 
ATOM     94  H1  UNL A   1      44.653  48.507  17.327  1.00  0.00    +0.000 H 
ATOM     95  H2  UNL A   1      43.613  48.112  18.674  1.00  0.00    +0.000 H 
ATOM     96  H3  UNL A   1      42.947  48.238  17.064  1.00  0.00    +0.000 H 
ENDBRANCH    2    1
ENDBRANCH    3    2
BRANCH   12   13
ATOM     13  C12 UNL A   1      45.422  44.800  22.720  1.00  0.00    +0.000 C 
ATOM    103  H10 UNL A   1      45.159  45.590  22.049  1.00  0.00    +0.000 H 
ATOM    104  H11 UNL A   1      46.458  44.536  22.695  1.00  0.00    +0.000 H 
BRANCH   13   14
ATOM    105  H12 UNL A   1      44.100  45.472  24.268  1.00  0.00    +0.000 H 
ATOM    106  H13 UNL A   1      45.693  46.187  24.330  1.00  0.00    +0.000 H 
ATOM    107  H14 UNL A   1      45.458  44.535  24.846  1.00  0.00    +0.000 H 
ATOM     14  C13 UNL A   1      45.148  45.285  24.149  1.00  0.00    +0.000 C 
ENDBRANCH   13   14
ENDBRANCH   12   13
ENDBRANCH   15   12
ENDBRANCH   16   15
ENDBRANCH   18   16
ENDBRANCH   19   18
ENDBRANCH   20   19
ENDBRANCH   21   20
ENDBRANCH   22   21
ENDBRANCH   23   22
ENDBRANCH   24   23
ENDBRANCH   25   24
ENDBRANCH   26   25
ENDBRANCH   28   26
ENDBRANCH   32   31
BRANCH   36   37
ATOM     37  C31 UNL A   1      41.660  32.044  36.240  1.00  0.00    +0.000 C 
ATOM     38  C32 UNL A   1      40.459  32.756  36.447  1.00  0.00    +0.000 C 
ATOM     39  F1  UNL A   1      39.618  32.990  35.429  1.00  0.00    +0.000 F 
ATOM     40  C33 UNL A   1      40.135  33.322  37.686  1.00  0.00    +0.000 C 
ATOM     41  F2  UNL A   1      39.042  34.088  37.804  1.00  0.00    +0.000 F 
ATOM     42  C34 UNL A   1      40.971  33.153  38.773  1.00  0.00    +0.000 C 
ATOM     43  F3  UNL A   1      40.694  33.741  39.944  1.00  0.00    +0.000 F 
ATOM     44  C35 UNL A   1      42.121  32.408  38.628  1.00  0.00    +0.000 C 
ATOM     45  F4  UNL A   1      42.957  32.254  39.665  1.00  0.00    +0.000 F 
ATOM     46  C36 UNL A   1      42.469  31.880  37.385  1.00  0.00    +0.000 C 
ATOM     47  F5  UNL A   1      43.677  31.310  37.330  1.00  0.00    +0.000 F 
ENDBRANCH   36   37
BRANCH   53   54
ATOM     54  C42 UNL A   1      39.348  28.846  30.577  1.00  0.00    +0.000 C 
ATOM     55  C43 UNL A   1      39.800  29.476  29.408  1.00  0.00    +0.000 C 
ATOM     56  F6  UNL A   1      40.204  30.755  29.430  1.00  0.00    +0.000 F 
ATOM     57  C44 UNL A   1      39.882  28.775  28.206  1.00  0.00    +0.000 C 
ATOM     58  F7  UNL A   1      40.307  29.393  27.094  1.00  0.00    +0.000 F 
ATOM     59  C45 UNL A   1      39.554  27.428  28.161  1.00  0.00    +0.000 C 
ATOM     60  F8  UNL A   1      39.673  26.743  27.015  1.00  0.00    +0.000 F 
ATOM     61  C46 UNL A   1      39.125  26.783  29.309  1.00  0.00    +0.000 C 
ATOM     62  F9  UNL A   1      38.844  25.473  29.282  1.00  0.00    +0.000 F 
ATOM     63  C47 UNL A   1      39.008  27.488  30.500  1.00  0.00    +0.000 C 
ATOM     64  F10 UNL A   1      38.600  26.835  31.600  1.00  0.00    +0.000 F 
ENDBRANCH   53   54
BRANCH   68   69
ATOM     69  C51 UNL A   1      35.312  33.712  30.985  1.00  0.00    +0.000 C 
ATOM     70  C52 UNL A   1      34.980  34.616  32.010  1.00  0.00    +0.000 C 
ATOM     71  F11 UNL A   1      35.730  34.682  33.121  1.00  0.00    +0.000 F 
ATOM     72  C53 UNL A   1      33.930  35.529  31.873  1.00  0.00    +0.000 C 
ATOM     73  F12 UNL A   1      33.701  36.433  32.835  1.00  0.00    +0.000 F 
ATOM     74  C54 UNL A   1      33.173  35.552  30.715  1.00  0.00    +0.000 C 
ATOM     75  F13 UNL A   1      32.223  36.482  30.545  1.00  0.00    +0.000 F 
ATOM     76  C55 UNL A   1      33.437  34.636  29.711  1.00  0.00    +0.000 C 
ATOM     77  F14 UNL A   1      32.730  34.671  28.573  1.00  0.00    +0.000 F 
ATOM     78  C56 UNL A   1      34.487  33.726  29.845  1.00  0.00    +0.000 C 
ATOM     79  F15 UNL A   1      34.750  32.931  28.800  1.00  0.00    +0.000 F 
ENDBRANCH   68   69
TORSDOF 20
ENDMDL
MODEL 10
REMARK VINA RESULT:     -10.1      4.943     10.041
ROOT
ATOM    129  H36 UNL A   1      42.612  21.841  29.297  1.00  0.00    +0.000 H 
ATOM    130  H37 UNL A   1      43.342  23.071  31.406  1.00  0.00    +0.000 H 
ATOM    131  H38 UNL A   1      44.655  25.317  28.156  1.00  0.00    +0.000 H 
ATOM    132  H39 UNL A   1      45.314  24.459  25.070  1.00  0.00    +0.000 H 
ATOM    133  H40 UNL A   1      44.989  27.021  25.027  1.00  0.00    +0.000 H 
ATOM    134  H41 UNL A   1      49.232  27.207  30.025  1.00  0.00    +0.000 H 
ATOM    135  H42 UNL A   1      48.143  25.070  30.971  1.00  0.00    +0.000 H 
ATOM     32  C27 UNL A   1      45.257  25.178  30.878  1.00  0.00    +0.000 C 
ATOM     33  C28 UNL A   1      46.249  26.129  30.309  1.00  0.00    +0.000 C 
ATOM     34  N4  UNL A   1      45.992  27.274  29.767  1.00  0.00    +0.000 N 
ATOM     35  C29 UNL A   1      47.220  27.787  29.361  1.00  0.00    +0.000 C 
ATOM     36  C30 UNL A   1      47.277  28.664  28.322  1.00  0.00    +0.000 C 
ATOM     48  C37 UNL A   1      45.976  29.214  28.042  1.00  0.00    +0.000 C 
ATOM     49  C38 UNL A   1      45.176  30.226  28.522  1.00  0.00    +0.000 C 
ATOM     50  C39 UNL A   1      43.842  29.912  28.122  1.00  0.00    +0.000 C 
ATOM     51  C40 UNL A   1      43.865  28.737  27.379  1.00  0.00    +0.000 C 
ATOM     52  N5  UNL A   1      45.182  28.378  27.310  1.00  0.00    +0.000 N 
ATOM     53  C41 UNL A   1      42.857  27.797  26.954  1.00  0.00    +0.000 C 
ATOM     65  C48 UNL A   1      43.141  26.703  26.195  1.00  0.00    +0.000 C 
ATOM     66  N6  UNL A   1      42.445  25.529  26.373  1.00  0.00    +0.000 N 
ATOM     67  C49 UNL A   1      43.337  24.599  26.171  1.00  0.00    +0.000 C 
ATOM     68  C50 UNL A   1      43.302  23.287  26.855  1.00  0.00    +0.000 C 
ATOM     80  C57 UNL A   1      43.542  23.505  28.171  1.00  0.00    +0.000 C 
ATOM     81  C58 UNL A   1      43.142  22.725  29.324  1.00  0.00    +0.000 C 
ATOM     82  C59 UNL A   1      43.580  23.345  30.441  1.00  0.00    +0.000 C 
ATOM     83  C60 UNL A   1      44.442  24.466  30.070  1.00  0.00    +0.000 C 
ATOM     84  N7  UNL A   1      44.290  24.579  28.695  1.00  0.00    +0.000 N 
ATOM     85  C61 UNL A   1      44.542  25.020  25.464  1.00  0.00    +0.000 C 
ATOM     86  C62 UNL A   1      44.353  26.341  25.474  1.00  0.00    +0.000 C 
ATOM     87  C63 UNL A   1      48.227  26.975  29.991  1.00  0.00    +0.000 C 
ATOM     88  C64 UNL A   1      47.682  25.878  30.525  1.00  0.00    +0.000 C 
ATOM    126  H33 UNL A   1      45.481  31.049  29.066  1.00  0.00    +0.000 H 
ATOM    127  H34 UNL A   1      43.000  30.467  28.345  1.00  0.00    +0.000 H 
ATOM    128  H35 UNL A   1      45.518  27.609  26.795  1.00  0.00    +0.000 H 
ENDROOT
BRANCH   32   31
ATOM    136  H43 UNL A   1      45.780  27.133  32.717  1.00  0.00    +0.000 H 
ATOM    137  H44 UNL A   1      45.746  26.888  35.125  1.00  0.00    +0.000 H 
ATOM    124  H31 UNL A   1      44.417  22.933  34.724  1.00  0.00    +0.000 H 
ATOM    125  H32 UNL A   1      44.657  23.106  32.332  1.00  0.00    +0.000 H 
ATOM     89  C65 UNL A   1      45.555  26.220  33.142  1.00  0.00    +0.000 C 
ATOM     90  C66 UNL A   1      45.517  26.078  34.528  1.00  0.00    +0.000 C 
ATOM     28  C23 UNL A   1      45.173  24.854  35.133  1.00  0.00    +0.000 C 
ATOM     29  C24 UNL A   1      44.783  23.803  34.308  1.00  0.00    +0.000 C 
ATOM     30  C25 UNL A   1      44.883  23.916  32.929  1.00  0.00    +0.000 C 
ATOM     31  C26 UNL A   1      45.288  25.120  32.339  1.00  0.00    +0.000 C 
BRANCH   28   26
ATOM     26  C22 UNL A   1      45.314  24.779  36.615  1.00  0.00    +0.000 C 
ATOM     27  O2  UNL A   1      46.410  24.458  37.089  1.00  0.00    +0.000 O 
BRANCH   26   25
ATOM     25  N3  UNL A   1      44.294  24.976  37.506  1.00  0.00    +0.000 N 
ATOM    123  H30 UNL A   1      44.400  24.464  38.341  1.00  0.00    +0.000 H 
BRANCH   25   24
ATOM    121  H28 UNL A   1      42.786  25.973  38.484  1.00  0.00    +0.000 H 
ATOM    122  H29 UNL A   1      43.325  26.678  36.944  1.00  0.00    +0.000 H 
ATOM     24  C21 UNL A   1      43.090  25.780  37.476  1.00  0.00    +0.000 C 
BRANCH   24   23
ATOM    119  H26 UNL A   1      42.175  24.078  36.592  1.00  0.00    +0.000 H 
ATOM     23  C20 UNL A   1      41.926  25.109  36.739  1.00  0.00    +0.000 C 
ATOM    120  H27 UNL A   1      41.060  25.251  37.352  1.00  0.00    +0.000 H 
BRANCH   23   22
ATOM    118  H25 UNL A   1      40.524  25.742  35.309  1.00  0.00    +0.000 H 
ATOM    117  H24 UNL A   1      42.042  25.108  34.620  1.00  0.00    +0.000 H 
ATOM     22  C19 UNL A   1      41.591  25.716  35.377  1.00  0.00    +0.000 C 
BRANCH   22   21
ATOM    115  H22 UNL A   1      41.380  27.798  35.677  1.00  0.00    +0.000 H 
ATOM    116  H23 UNL A   1      43.057  27.189  35.615  1.00  0.00    +0.000 H 
ATOM     21  C18 UNL A   1      42.076  27.146  35.192  1.00  0.00    +0.000 C 
BRANCH   21   20
ATOM    113  H20 UNL A   1      43.257  27.624  33.490  1.00  0.00    +0.000 H 
ATOM    114  H21 UNL A   1      41.650  26.884  33.157  1.00  0.00    +0.000 H 
ATOM     20  C17 UNL A   1      42.213  27.594  33.726  1.00  0.00    +0.000 C 
BRANCH   20   19
ATOM     19  C16 UNL A   1      41.615  28.966  33.372  1.00  0.00    +0.000 C 
ATOM    111  H18 UNL A   1      41.387  28.967  32.326  1.00  0.00    +0.000 H 
ATOM    112  H19 UNL A   1      40.756  29.084  34.000  1.00  0.00    +0.000 H 
BRANCH   19   18
ATOM     18  N2  UNL A   1      42.473  30.111  33.646  1.00  0.00    +0.000 N 
ATOM    110  H17 UNL A   1      43.163  29.938  34.328  1.00  0.00    +0.000 H 
BRANCH   18   16
ATOM     17  O1  UNL A   1      42.796  31.517  31.950  1.00  0.00    +0.000 O 
ATOM     16  C15 UNL A   1      42.504  31.380  33.139  1.00  0.00    +0.000 C 
BRANCH   16   15
ATOM    108  H15 UNL A   1      42.647  32.336  34.992  1.00  0.00    +0.000 H 
ATOM    109  H16 UNL A   1      42.720  33.383  33.500  1.00  0.00    +0.000 H 
ATOM     15  C14 UNL A   1      42.253  32.577  34.027  1.00  0.00    +0.000 C 
BRANCH   15   12
ATOM      3  C3  UNL A   1      37.519  32.129  30.463  1.00  0.00    +0.000 C 
ATOM      4  C4  UNL A   1      36.460  31.194  30.375  1.00  0.00    +0.000 C 
ATOM      5  C5  UNL A   1      36.215  30.236  31.355  1.00  0.00    +0.000 C 
ATOM      6  C6  UNL A   1      37.000  30.194  32.496  1.00  0.00    +0.000 C 
ATOM      7  C7  UNL A   1      38.045  31.121  32.636  1.00  0.00    +0.000 C 
ATOM      8  C8  UNL A   1      38.910  31.418  33.704  1.00  0.00    +0.000 C 
ATOM      9  C9  UNL A   1      39.774  32.426  33.335  1.00  0.00    +0.000 C 
ATOM     10  N1  UNL A   1      39.409  32.791  32.056  1.00  0.00    +0.000 N 
ATOM     11  C10 UNL A   1      38.312  32.045  31.630  1.00  0.00    +0.000 C 
ATOM     12  C11 UNL A   1      40.805  33.075  34.242  1.00  0.00    +0.000 C 
ATOM    140  H47 UNL A   1      39.031  29.828  35.038  1.00  0.00    +0.000 H 
ATOM    141  H48 UNL A   1      37.868  31.068  35.466  1.00  0.00    +0.000 H 
ATOM    138  H45 UNL A   1      39.463  31.605  36.932  1.00  0.00    +0.000 H 
ATOM    139  H46 UNL A   1      40.750  30.944  35.840  1.00  0.00    +0.000 H 
ATOM     91  O3  UNL A   1      40.313  32.874  35.591  1.00  0.00    +0.000 O 
ATOM     92  C67 UNL A   1      39.875  31.551  35.946  1.00  0.00    +0.000 C 
ATOM     93  C68 UNL A   1      38.843  30.881  35.065  1.00  0.00    +0.000 C 
ATOM     99  H6  UNL A   1      35.844  31.222  29.548  1.00  0.00    +0.000 H 
ATOM    100  H7  UNL A   1      35.446  29.557  31.232  1.00  0.00    +0.000 H 
ATOM    101  H8  UNL A   1      36.822  29.491  33.231  1.00  0.00    +0.000 H 
ATOM    102  H9  UNL A   1      39.860  33.482  31.519  1.00  0.00    +0.000 H 
BRANCH    3    2
ATOM     97  H4  UNL A   1      38.004  34.096  29.909  1.00  0.00    +0.000 H 
ATOM      2  C2  UNL A   1      37.745  33.186  29.410  1.00  0.00    +0.000 C 
ATOM     98  H5  UNL A   1      38.514  32.798  28.775  1.00  0.00    +0.000 H 
BRANCH    2    1
ATOM      1  C1  UNL A   1      36.564  33.480  28.490  1.00  0.00    +0.000 C 
ATOM     94  H1  UNL A   1      35.707  33.729  29.079  1.00  0.00    +0.000 H 
ATOM     95  H2  UNL A   1      36.352  32.616  27.896  1.00  0.00    +0.000 H 
ATOM     96  H3  UNL A   1      36.808  34.302  27.849  1.00  0.00    +0.000 H 
ENDBRANCH    2    1
ENDBRANCH    3    2
BRANCH   12   13
ATOM     13  C12 UNL A   1      40.783  34.628  34.045  1.00  0.00    +0.000 C 
ATOM    103  H10 UNL A   1      40.397  34.830  33.067  1.00  0.00    +0.000 H 
ATOM    104  H11 UNL A   1      41.791  34.956  34.189  1.00  0.00    +0.000 H 
BRANCH   13   14
ATOM    105  H12 UNL A   1      39.812  34.827  35.945  1.00  0.00    +0.000 H 
ATOM    106  H13 UNL A   1      38.980  35.626  34.632  1.00  0.00    +0.000 H 
ATOM    107  H14 UNL A   1      40.433  36.328  35.300  1.00  0.00    +0.000 H 
ATOM     14  C13 UNL A   1      39.938  35.412  35.057  1.00  0.00    +0.000 C 
ENDBRANCH   13   14
ENDBRANCH   12   13
ENDBRANCH   15   12
ENDBRANCH   16   15
ENDBRANCH   18   16
ENDBRANCH   19   18
ENDBRANCH   20   19
ENDBRANCH   21   20
ENDBRANCH   22   21
ENDBRANCH   23   22
ENDBRANCH   24   23
ENDBRANCH   25   24
ENDBRANCH   26   25
ENDBRANCH   28   26
ENDBRANCH   32   31
BRANCH   36   37
ATOM     37  C31 UNL A   1      48.339  28.642  27.239  1.00  0.00    +0.000 C 
ATOM     38  C32 UNL A   1      48.509  27.468  26.474  1.00  0.00    +0.000 C 
ATOM     39  F1  UNL A   1      47.581  26.501  26.489  1.00  0.00    +0.000 F 
ATOM     40  C33 UNL A   1      49.679  27.220  25.746  1.00  0.00    +0.000 C 
ATOM     41  F2  UNL A   1      49.844  26.041  25.131  1.00  0.00    +0.000 F 
ATOM     42  C34 UNL A   1      50.695  28.156  25.712  1.00  0.00    +0.000 C 
ATOM     43  F3  UNL A   1      51.838  27.898  25.064  1.00  0.00    +0.000 F 
ATOM     44  C35 UNL A   1      50.539  29.344  26.393  1.00  0.00    +0.000 C 
ATOM     45  F4  UNL A   1      51.524  30.253  26.392  1.00  0.00    +0.000 F 
ATOM     46  C36 UNL A   1      49.394  29.575  27.156  1.00  0.00    +0.000 C 
ATOM     47  F5  UNL A   1      49.421  30.691  27.891  1.00  0.00    +0.000 F 
ENDBRANCH   36   37
BRANCH   53   54
ATOM     54  C42 UNL A   1      41.480  27.919  27.515  1.00  0.00    +0.000 C 
ATOM     55  C43 UNL A   1      41.057  27.335  28.718  1.00  0.00    +0.000 C 
ATOM     56  F6  UNL A   1      41.901  26.599  29.457  1.00  0.00    +0.000 F 
ATOM     57  C44 UNL A   1      39.765  27.543  29.196  1.00  0.00    +0.000 C 
ATOM     58  F7  UNL A   1      39.371  26.969  30.342  1.00  0.00    +0.000 F 
ATOM     59  C45 UNL A   1      38.889  28.366  28.504  1.00  0.00    +0.000 C 
ATOM     60  F8  UNL A   1      37.660  28.600  28.984  1.00  0.00    +0.000 F 
ATOM     61  C46 UNL A   1      39.295  28.968  27.324  1.00  0.00    +0.000 C 
ATOM     62  F9  UNL A   1      38.469  29.797  26.670  1.00  0.00    +0.000 F 
ATOM     63  C47 UNL A   1      40.571  28.735  26.827  1.00  0.00    +0.000 C 
ATOM     64  F10 UNL A   1      40.941  29.340  25.687  1.00  0.00    +0.000 F 
ENDBRANCH   53   54
BRANCH   68   69
ATOM     69  C51 UNL A   1      43.290  22.016  26.094  1.00  0.00    +0.000 C 
ATOM     70  C52 UNL A   1      44.483  21.469  25.590  1.00  0.00    +0.000 C 
ATOM     71  F11 UNL A   1      45.597  22.214  25.530  1.00  0.00    +0.000 F 
ATOM     72  C53 UNL A   1      44.576  20.122  25.224  1.00  0.00    +0.000 C 
ATOM     73  F12 UNL A   1      45.753  19.616  24.831  1.00  0.00    +0.000 F 
ATOM     74  C54 UNL A   1      43.475  19.291  25.338  1.00  0.00    +0.000 C 
ATOM     75  F13 UNL A   1      43.584  17.982  25.070  1.00  0.00    +0.000 F 
ATOM     76  C55 UNL A   1      42.271  19.814  25.775  1.00  0.00    +0.000 C 
ATOM     77  F14 UNL A   1      41.207  19.011  25.918  1.00  0.00    +0.000 F 
ATOM     78  C56 UNL A   1      42.177  21.157  26.143  1.00  0.00    +0.000 C 
ATOM     79  F15 UNL A   1      41.010  21.578  26.648  1.00  0.00    +0.000 F 
ENDBRANCH   68   69
TORSDOF 20
ENDMDL
