MODEL 1
REMARK VINA RESULT:      -8.9      0.000      0.000
ROOT
ATOM     24  C20 UNL A   1      13.953  53.826   5.007  1.00  0.00    +0.000 C 
ATOM     25  C21 UNL A   1      14.924  54.265   3.948  1.00  0.00    +0.000 C 
ATOM     26  N3  UNL A   1      15.426  53.582   2.949  1.00  0.00    +0.000 N 
ATOM     27  C22 UNL A   1      16.228  54.472   2.249  1.00  0.00    +0.000 C 
ATOM     28  C23 UNL A   1      17.006  54.236   1.166  1.00  0.00    +0.000 C 
ATOM     40  C30 UNL A   1      17.142  52.952   0.531  1.00  0.00    +0.000 C 
ATOM     41  C31 UNL A   1      17.959  52.592  -0.526  1.00  0.00    +0.000 C 
ATOM     42  C32 UNL A   1      17.720  51.246  -0.827  1.00  0.00    +0.000 C 
ATOM     43  C33 UNL A   1      16.784  50.756   0.071  1.00  0.00    +0.000 C 
ATOM     44  N4  UNL A   1      16.436  51.814   0.896  1.00  0.00    +0.000 N 
ATOM     45  C34 UNL A   1      16.246  49.424   0.169  1.00  0.00    +0.000 C 
ATOM     57  C41 UNL A   1      15.342  49.015   1.093  1.00  0.00    +0.000 C 
ATOM     58  N5  UNL A   1      14.751  49.741   2.115  1.00  0.00    +0.000 N 
ATOM     59  C42 UNL A   1      13.943  48.911   2.728  1.00  0.00    +0.000 C 
ATOM     60  C43 UNL A   1      13.064  49.151   3.924  1.00  0.00    +0.000 C 
ATOM     72  C50 UNL A   1      13.070  50.361   4.513  1.00  0.00    +0.000 C 
ATOM     73  C51 UNL A   1      12.279  50.739   5.681  1.00  0.00    +0.000 C 
ATOM     74  C52 UNL A   1      12.509  52.032   5.965  1.00  0.00    +0.000 C 
ATOM     75  C53 UNL A   1      13.489  52.562   5.017  1.00  0.00    +0.000 C 
ATOM     76  N6  UNL A   1      13.770  51.499   4.197  1.00  0.00    +0.000 N 
ATOM     77  C54 UNL A   1      13.912  47.563   2.145  1.00  0.00    +0.000 C 
ATOM     78  C55 UNL A   1      14.810  47.670   1.174  1.00  0.00    +0.000 C 
ATOM     79  C56 UNL A   1      16.113  55.756   2.909  1.00  0.00    +0.000 C 
ATOM     80  C57 UNL A   1      15.371  55.665   4.002  1.00  0.00    +0.000 C 
ATOM    118  H25 UNL A   1      18.629  53.209  -1.011  1.00  0.00    +0.000 H 
ATOM    119  H26 UNL A   1      18.164  50.709  -1.587  1.00  0.00    +0.000 H 
ATOM    120  H27 UNL A   1      15.786  51.766   1.633  1.00  0.00    +0.000 H 
ATOM    121  H28 UNL A   1      11.645  50.115   6.203  1.00  0.00    +0.000 H 
ATOM    122  H29 UNL A   1      12.065  52.565   6.729  1.00  0.00    +0.000 H 
ATOM    123  H30 UNL A   1      14.412  51.548   3.452  1.00  0.00    +0.000 H 
ATOM    124  H31 UNL A   1      13.342  46.747   2.418  1.00  0.00    +0.000 H 
ATOM    125  H32 UNL A   1      15.092  46.893   0.555  1.00  0.00    +0.000 H 
ATOM    126  H33 UNL A   1      16.551  56.627   2.571  1.00  0.00    +0.000 H 
ATOM    127  H34 UNL A   1      15.160  56.388   4.708  1.00  0.00    +0.000 H 
ENDROOT
BRANCH   24   23
ATOM    129  H36 UNL A   1      14.159  55.986   9.062  1.00  0.00    +0.000 H 
ATOM     81  C58 UNL A   1      14.147  54.996   7.201  1.00  0.00    +0.000 C 
ATOM     82  C59 UNL A   1      13.678  55.896   8.153  1.00  0.00    +0.000 C 
ATOM     20  C16 UNL A   1      12.553  56.679   7.877  1.00  0.00    +0.000 C 
ATOM     21  C17 UNL A   1      11.832  56.480   6.696  1.00  0.00    +0.000 C 
ATOM    116  H23 UNL A   1      10.980  57.031   6.510  1.00  0.00    +0.000 H 
ATOM     22  C18 UNL A   1      12.269  55.531   5.768  1.00  0.00    +0.000 C 
ATOM    117  H24 UNL A   1      11.725  55.367   4.907  1.00  0.00    +0.000 H 
ATOM     23  C19 UNL A   1      13.445  54.801   6.002  1.00  0.00    +0.000 C 
ATOM    128  H35 UNL A   1      15.017  54.469   7.377  1.00  0.00    +0.000 H 
BRANCH   20   18
ATOM     18  C15 UNL A   1      12.082  57.703   8.837  1.00  0.00    +0.000 C 
ATOM     19  O2  UNL A   1      12.378  58.877   8.668  1.00  0.00    +0.000 O 
BRANCH   18   17
ATOM     17  N2  UNL A   1      11.313  57.331   9.914  1.00  0.00    +0.000 N 
ATOM    115  H22 UNL A   1      11.210  58.012  10.617  1.00  0.00    +0.000 H 
BRANCH   17   16
ATOM    113  H20 UNL A   1       9.677  56.272  10.598  1.00  0.00    +0.000 H 
ATOM    114  H21 UNL A   1      10.523  55.565   9.221  1.00  0.00    +0.000 H 
ATOM     16  C14 UNL A   1      10.630  56.070  10.157  1.00  0.00    +0.000 C 
BRANCH   16   15
ATOM    111  H18 UNL A   1      11.148  54.151  10.894  1.00  0.00    +0.000 H 
ATOM     15  C13 UNL A   1      11.425  55.164  11.095  1.00  0.00    +0.000 C 
ATOM    112  H19 UNL A   1      12.459  55.363  10.903  1.00  0.00    +0.000 H 
BRANCH   15   14
ATOM    110  H17 UNL A   1      10.343  54.860  12.865  1.00  0.00    +0.000 H 
ATOM    109  H16 UNL A   1      11.067  56.490  12.712  1.00  0.00    +0.000 H 
ATOM     14  C12 UNL A   1      11.199  55.436  12.585  1.00  0.00    +0.000 C 
BRANCH   14   13
ATOM    107  H14 UNL A   1      13.196  54.782  12.908  1.00  0.00    +0.000 H 
ATOM    108  H15 UNL A   1      12.483  55.783  14.210  1.00  0.00    +0.000 H 
ATOM     13  C11 UNL A   1      12.335  54.986  13.512  1.00  0.00    +0.000 C 
BRANCH   13   12
ATOM    105  H12 UNL A   1      12.563  53.818  15.279  1.00  0.00    +0.000 H 
ATOM    106  H13 UNL A   1      10.977  53.694  14.483  1.00  0.00    +0.000 H 
ATOM     12  C10 UNL A   1      12.038  53.736  14.351  1.00  0.00    +0.000 C 
BRANCH   12   11
ATOM     11  C9  UNL A   1      12.454  52.426  13.677  1.00  0.00    +0.000 C 
ATOM    103  H10 UNL A   1      12.158  51.603  14.294  1.00  0.00    +0.000 H 
ATOM    104  H11 UNL A   1      11.976  52.362  12.722  1.00  0.00    +0.000 H 
BRANCH   11   10
ATOM     10  N1  UNL A   1      13.892  52.387  13.487  1.00  0.00    +0.000 N 
ATOM    102  H9  UNL A   1      14.411  52.342  14.322  1.00  0.00    +0.000 H 
BRANCH   10    8
ATOM      9  O1  UNL A   1      15.864  52.280  12.444  1.00  0.00    +0.000 O 
ATOM      8  C8  UNL A   1      14.643  52.399  12.357  1.00  0.00    +0.000 C 
BRANCH    8    7
ATOM    101  H8  UNL A   1      13.015  52.735  10.983  1.00  0.00    +0.000 H 
ATOM      7  C7  UNL A   1      14.041  52.636  11.026  1.00  0.00    +0.000 C 
BRANCH    7    6
ATOM    100  H7  UNL A   1      15.097  53.655   9.603  1.00  0.00    +0.000 H 
ATOM      6  C6  UNL A   1      14.716  52.734   9.872  1.00  0.00    +0.000 C 
BRANCH    6    5
ATOM    130  H37 UNL A   1      13.882  50.223  10.178  1.00  0.00    +0.000 H 
ATOM      3  C3  UNL A   1      15.959  50.621   6.973  1.00  0.00    +0.000 C 
ATOM      4  C4  UNL A   1      15.709  51.723   7.805  1.00  0.00    +0.000 C 
ATOM      5  C5  UNL A   1      14.940  51.595   8.970  1.00  0.00    +0.000 C 
ATOM     99  H6  UNL A   1      16.099  52.646   7.554  1.00  0.00    +0.000 H 
ATOM    136  H43 UNL A   1      15.580  48.560   6.704  1.00  0.00    +0.000 H 
ATOM     83  C60 UNL A   1      14.441  50.333   9.317  1.00  0.00    +0.000 C 
ATOM     84  C61 UNL A   1      14.694  49.219   8.505  1.00  0.00    +0.000 C 
ATOM     93  C69 UNL A   1      15.428  49.373   7.323  1.00  0.00    +0.000 C 
BRANCH    3    2
ATOM     97  H4  UNL A   1      16.396  51.549   5.130  1.00  0.00    +0.000 H 
ATOM      2  C2  UNL A   1      16.812  50.774   5.739  1.00  0.00    +0.000 C 
ATOM     98  H5  UNL A   1      17.804  51.012   6.061  1.00  0.00    +0.000 H 
BRANCH    2    1
ATOM      1  C1  UNL A   1      16.894  49.499   4.915  1.00  0.00    +0.000 C 
ATOM     94  H1  UNL A   1      17.015  48.659   5.567  1.00  0.00    +0.000 H 
ATOM     95  H2  UNL A   1      17.729  49.557   4.248  1.00  0.00    +0.000 H 
ATOM     96  H3  UNL A   1      15.994  49.382   4.348  1.00  0.00    +0.000 H 
ENDBRANCH    2    1
ENDBRANCH    3    2
BRANCH   84   85
ATOM     85  C62 UNL A   1      14.146  47.897   8.922  1.00  0.00    +0.000 C 
ATOM     86  O3  UNL A   1      14.911  46.994   9.247  1.00  0.00    +0.000 O 
BRANCH   85   87
ATOM    131  H38 UNL A   1      12.210  49.471   8.003  1.00  0.00    +0.000 H 
ATOM    132  H39 UNL A   1       9.813  49.080   7.992  1.00  0.00    +0.000 H 
ATOM    133  H40 UNL A   1       8.909  47.052   8.969  1.00  0.00    +0.000 H 
ATOM    134  H41 UNL A   1      10.392  45.428   9.993  1.00  0.00    +0.000 H 
ATOM    135  H42 UNL A   1      12.791  45.811  10.005  1.00  0.00    +0.000 H 
ATOM     87  C63 UNL A   1      12.684  47.650   8.966  1.00  0.00    +0.000 C 
ATOM     88  C64 UNL A   1      11.825  48.604   8.412  1.00  0.00    +0.000 C 
ATOM     89  C65 UNL A   1      10.447  48.383   8.413  1.00  0.00    +0.000 C 
ATOM     90  C66 UNL A   1       9.927  47.219   8.980  1.00  0.00    +0.000 C 
ATOM     91  C67 UNL A   1      10.780  46.281   9.563  1.00  0.00    +0.000 C 
ATOM     92  C68 UNL A   1      12.160  46.498   9.565  1.00  0.00    +0.000 C 
ENDBRANCH   85   87
ENDBRANCH   84   85
ENDBRANCH    6    5
ENDBRANCH    7    6
ENDBRANCH    8    7
ENDBRANCH   10    8
ENDBRANCH   11   10
ENDBRANCH   12   11
ENDBRANCH   13   12
ENDBRANCH   14   13
ENDBRANCH   15   14
ENDBRANCH   16   15
ENDBRANCH   17   16
ENDBRANCH   18   17
ENDBRANCH   20   18
ENDBRANCH   24   23
BRANCH   28   29
ATOM     33  F2  UNL A   1      17.512  57.938  -2.007  1.00  0.00    +0.000 F 
ATOM     34  C27 UNL A   1      19.227  57.572  -0.426  1.00  0.00    +0.000 C 
ATOM     35  F3  UNL A   1      19.927  58.601  -0.925  1.00  0.00    +0.000 F 
ATOM     36  C28 UNL A   1      19.739  56.831   0.629  1.00  0.00    +0.000 C 
ATOM     37  F4  UNL A   1      20.925  57.158   1.162  1.00  0.00    +0.000 F 
ATOM     38  C29 UNL A   1      19.026  55.746   1.131  1.00  0.00    +0.000 C 
ATOM     39  F5  UNL A   1      19.555  55.039   2.141  1.00  0.00    +0.000 F 
ATOM     29  C24 UNL A   1      17.776  55.395   0.601  1.00  0.00    +0.000 C 
ATOM     30  C25 UNL A   1      17.267  56.173  -0.450  1.00  0.00    +0.000 C 
ATOM     31  F1  UNL A   1      16.081  55.872  -1.001  1.00  0.00    +0.000 F 
ATOM     32  C26 UNL A   1      17.996  57.240  -0.969  1.00  0.00    +0.000 C 
ENDBRANCH   28   29
BRANCH   45   46
ATOM     46  C35 UNL A   1      16.735  48.399  -0.811  1.00  0.00    +0.000 C 
ATOM     47  C36 UNL A   1      15.982  48.046  -1.941  1.00  0.00    +0.000 C 
ATOM     48  F6  UNL A   1      14.771  48.587  -2.140  1.00  0.00    +0.000 F 
ATOM     49  C37 UNL A   1      16.458  47.106  -2.850  1.00  0.00    +0.000 C 
ATOM     50  F7  UNL A   1      15.704  46.751  -3.900  1.00  0.00    +0.000 F 
ATOM     51  C38 UNL A   1      17.703  46.525  -2.665  1.00  0.00    +0.000 C 
ATOM     52  F8  UNL A   1      18.162  45.624  -3.544  1.00  0.00    +0.000 F 
ATOM     53  C39 UNL A   1      18.472  46.872  -1.563  1.00  0.00    +0.000 C 
ATOM     54  F9  UNL A   1      19.680  46.320  -1.389  1.00  0.00    +0.000 F 
ATOM     55  C40 UNL A   1      17.988  47.793  -0.638  1.00  0.00    +0.000 C 
ATOM     56  F10 UNL A   1      18.748  48.101   0.424  1.00  0.00    +0.000 F 
ENDBRANCH   45   46
BRANCH   60   61
ATOM     65  F12 UNL A   1      12.568  45.106   6.597  1.00  0.00    +0.000 F 
ATOM     66  C47 UNL A   1      10.640  46.012   5.579  1.00  0.00    +0.000 C 
ATOM     67  F13 UNL A   1       9.887  45.033   6.096  1.00  0.00    +0.000 F 
ATOM     68  C48 UNL A   1      10.062  46.984   4.775  1.00  0.00    +0.000 C 
ATOM     69  F14 UNL A   1       8.744  46.953   4.530  1.00  0.00    +0.000 F 
ATOM     70  C49 UNL A   1      10.847  47.994   4.223  1.00  0.00    +0.000 C 
ATOM     71  F15 UNL A   1      10.264  48.916   3.444  1.00  0.00    +0.000 F 
ATOM     61  C44 UNL A   1      12.223  48.064   4.484  1.00  0.00    +0.000 C 
ATOM     62  C45 UNL A   1      12.782  47.078   5.308  1.00  0.00    +0.000 C 
ATOM     63  F11 UNL A   1      14.098  47.093   5.570  1.00  0.00    +0.000 F 
ATOM     64  C46 UNL A   1      12.001  46.056   5.840  1.00  0.00    +0.000 C 
ENDBRANCH   60   61
TORSDOF 21
ENDMDL
MODEL 2
REMARK VINA RESULT:      -8.7     37.709     42.004
ROOT
ATOM     24  C20 UNL A   1      41.230  26.539  27.565  1.00  0.00    +0.000 C 
ATOM     25  C21 UNL A   1      42.666  26.772  27.188  1.00  0.00    +0.000 C 
ATOM     26  N3  UNL A   1      43.441  27.791  27.465  1.00  0.00    +0.000 N 
ATOM     27  C22 UNL A   1      44.681  27.480  26.924  1.00  0.00    +0.000 C 
ATOM     28  C23 UNL A   1      45.804  28.236  26.898  1.00  0.00    +0.000 C 
ATOM     40  C30 UNL A   1      45.902  29.560  27.451  1.00  0.00    +0.000 C 
ATOM     41  C31 UNL A   1      46.972  30.436  27.413  1.00  0.00    +0.000 C 
ATOM     42  C32 UNL A   1      46.619  31.591  28.122  1.00  0.00    +0.000 C 
ATOM     43  C33 UNL A   1      45.314  31.451  28.565  1.00  0.00    +0.000 C 
ATOM     44  N4  UNL A   1      44.887  30.200  28.149  1.00  0.00    +0.000 N 
ATOM     45  C34 UNL A   1      44.515  32.387  29.313  1.00  0.00    +0.000 C 
ATOM     57  C41 UNL A   1      43.230  32.184  29.695  1.00  0.00    +0.000 C 
ATOM     58  N5  UNL A   1      42.416  31.083  29.468  1.00  0.00    +0.000 N 
ATOM     59  C42 UNL A   1      41.270  31.357  30.042  1.00  0.00    +0.000 C 
ATOM     60  C43 UNL A   1      40.014  30.533  30.092  1.00  0.00    +0.000 C 
ATOM     72  C50 UNL A   1      39.982  29.342  29.465  1.00  0.00    +0.000 C 
ATOM     73  C51 UNL A   1      38.836  28.438  29.421  1.00  0.00    +0.000 C 
ATOM     74  C52 UNL A   1      39.179  27.330  28.743  1.00  0.00    +0.000 C 
ATOM     75  C53 UNL A   1      40.560  27.463  28.278  1.00  0.00    +0.000 C 
ATOM     76  N6  UNL A   1      40.953  28.690  28.747  1.00  0.00    +0.000 N 
ATOM     77  C54 UNL A   1      41.235  32.658  30.723  1.00  0.00    +0.000 C 
ATOM     78  C55 UNL A   1      42.442  33.136  30.450  1.00  0.00    +0.000 C 
ATOM     79  C56 UNL A   1      44.569  26.159  26.341  1.00  0.00    +0.000 C 
ATOM     80  C57 UNL A   1      43.327  25.706  26.420  1.00  0.00    +0.000 C 
ATOM    118  H25 UNL A   1      47.876  30.268  26.944  1.00  0.00    +0.000 H 
ATOM    119  H26 UNL A   1      47.227  32.408  28.286  1.00  0.00    +0.000 H 
ATOM    120  H27 UNL A   1      43.996  29.820  28.323  1.00  0.00    +0.000 H 
ATOM    121  H28 UNL A   1      37.913  28.620  29.843  1.00  0.00    +0.000 H 
ATOM    122  H29 UNL A   1      38.566  26.516  28.578  1.00  0.00    +0.000 H 
ATOM    123  H30 UNL A   1      41.849  29.067  28.586  1.00  0.00    +0.000 H 
ATOM    124  H31 UNL A   1      40.473  33.087  31.270  1.00  0.00    +0.000 H 
ATOM    125  H32 UNL A   1      42.776  34.069  30.740  1.00  0.00    +0.000 H 
ATOM    126  H33 UNL A   1      45.355  25.640  25.920  1.00  0.00    +0.000 H 
ATOM    127  H34 UNL A   1      42.928  24.833  26.042  1.00  0.00    +0.000 H 
ENDROOT
BRANCH   24   23
ATOM    129  H36 UNL A   1      38.021  24.083  25.369  1.00  0.00    +0.000 H 
ATOM     81  C58 UNL A   1      39.496  25.260  26.310  1.00  0.00    +0.000 C 
ATOM     82  C59 UNL A   1      38.852  24.070  25.982  1.00  0.00    +0.000 C 
ATOM     20  C16 UNL A   1      39.330  22.857  26.485  1.00  0.00    +0.000 C 
ATOM     21  C17 UNL A   1      40.383  22.844  27.405  1.00  0.00    +0.000 C 
ATOM    116  H23 UNL A   1      40.710  21.952  27.805  1.00  0.00    +0.000 H 
ATOM     22  C18 UNL A   1      40.988  24.045  27.781  1.00  0.00    +0.000 C 
ATOM    117  H24 UNL A   1      41.750  24.040  28.478  1.00  0.00    +0.000 H 
ATOM     23  C19 UNL A   1      40.567  25.259  27.217  1.00  0.00    +0.000 C 
ATOM    128  H35 UNL A   1      39.185  26.146  25.884  1.00  0.00    +0.000 H 
BRANCH   20   18
ATOM     18  C15 UNL A   1      38.715  21.570  26.086  1.00  0.00    +0.000 C 
ATOM     19  O2  UNL A   1      39.387  20.548  26.086  1.00  0.00    +0.000 O 
BRANCH   18   17
ATOM     17  N2  UNL A   1      37.392  21.528  25.717  1.00  0.00    +0.000 N 
ATOM    115  H22 UNL A   1      36.745  21.667  26.445  1.00  0.00    +0.000 H 
BRANCH   17   16
ATOM    113  H20 UNL A   1      37.521  20.773  23.799  1.00  0.00    +0.000 H 
ATOM    114  H21 UNL A   1      35.912  20.754  24.521  1.00  0.00    +0.000 H 
ATOM     16  C14 UNL A   1      36.817  21.309  24.400  1.00  0.00    +0.000 C 
BRANCH   16   15
ATOM    111  H18 UNL A   1      37.019  23.409  24.185  1.00  0.00    +0.000 H 
ATOM     15  C13 UNL A   1      36.475  22.624  23.703  1.00  0.00    +0.000 C 
ATOM    112  H19 UNL A   1      36.741  22.500  22.674  1.00  0.00    +0.000 H 
BRANCH   15   14
ATOM    110  H17 UNL A   1      34.556  22.422  24.524  1.00  0.00    +0.000 H 
ATOM    109  H16 UNL A   1      34.577  22.760  22.766  1.00  0.00    +0.000 H 
ATOM     14  C12 UNL A   1      34.988  22.989  23.727  1.00  0.00    +0.000 C 
BRANCH   14   13
ATOM    107  H14 UNL A   1      35.488  25.054  23.662  1.00  0.00    +0.000 H 
ATOM    108  H15 UNL A   1      33.742  24.671  23.566  1.00  0.00    +0.000 H 
ATOM     13  C11 UNL A   1      34.680  24.460  24.035  1.00  0.00    +0.000 C 
BRANCH   13   12
ATOM    105  H12 UNL A   1      35.461  24.873  25.974  1.00  0.00    +0.000 H 
ATOM    106  H13 UNL A   1      33.940  25.704  25.573  1.00  0.00    +0.000 H 
ATOM     12  C10 UNL A   1      34.495  24.790  25.523  1.00  0.00    +0.000 C 
BRANCH   12   11
ATOM     11  C9  UNL A   1      33.692  23.740  26.293  1.00  0.00    +0.000 C 
ATOM    103  H10 UNL A   1      33.640  22.842  25.713  1.00  0.00    +0.000 H 
ATOM    104  H11 UNL A   1      34.180  23.548  27.226  1.00  0.00    +0.000 H 
BRANCH   11   10
ATOM     10  N1  UNL A   1      32.348  24.218  26.556  1.00  0.00    +0.000 N 
ATOM    102  H9  UNL A   1      32.286  24.876  27.286  1.00  0.00    +0.000 H 
BRANCH   10    8
ATOM      9  O1  UNL A   1      30.149  23.837  26.662  1.00  0.00    +0.000 O 
ATOM      8  C8  UNL A   1      31.163  23.915  25.969  1.00  0.00    +0.000 C 
BRANCH    8    7
ATOM    101  H8  UNL A   1      31.484  22.701  24.215  1.00  0.00    +0.000 H 
ATOM      7  C7  UNL A   1      31.069  23.593  24.528  1.00  0.00    +0.000 C 
BRANCH    7    6
ATOM    100  H7  UNL A   1      29.972  23.897  22.830  1.00  0.00    +0.000 H 
ATOM      6  C6  UNL A   1      30.490  24.360  23.593  1.00  0.00    +0.000 C 
BRANCH    6    5
ATOM    130  H37 UNL A   1      28.480  26.084  23.310  1.00  0.00    +0.000 H 
ATOM      3  C3  UNL A   1      31.839  27.907  23.679  1.00  0.00    +0.000 C 
ATOM      4  C4  UNL A   1      31.777  26.506  23.720  1.00  0.00    +0.000 C 
ATOM      5  C5  UNL A   1      30.556  25.829  23.601  1.00  0.00    +0.000 C 
ATOM     99  H6  UNL A   1      32.648  25.964  23.840  1.00  0.00    +0.000 H 
ATOM    136  H43 UNL A   1      30.681  29.666  23.510  1.00  0.00    +0.000 H 
ATOM     83  C60 UNL A   1      29.385  26.571  23.409  1.00  0.00    +0.000 C 
ATOM     84  C61 UNL A   1      29.430  27.972  23.351  1.00  0.00    +0.000 C 
ATOM     93  C69 UNL A   1      30.653  28.634  23.513  1.00  0.00    +0.000 C 
BRANCH    3    2
ATOM     97  H4  UNL A   1      32.985  29.660  23.932  1.00  0.00    +0.000 H 
ATOM      2  C2  UNL A   1      33.166  28.616  23.780  1.00  0.00    +0.000 C 
ATOM     98  H5  UNL A   1      33.701  28.183  24.599  1.00  0.00    +0.000 H 
BRANCH    2    1
ATOM      1  C1  UNL A   1      34.023  28.448  22.536  1.00  0.00    +0.000 C 
ATOM     94  H1  UNL A   1      33.554  27.752  21.871  1.00  0.00    +0.000 H 
ATOM     95  H2  UNL A   1      34.989  28.082  22.813  1.00  0.00    +0.000 H 
ATOM     96  H3  UNL A   1      34.128  29.393  22.044  1.00  0.00    +0.000 H 
ENDBRANCH    2    1
ENDBRANCH    3    2
BRANCH   84   85
ATOM     85  C62 UNL A   1      28.157  28.716  23.138  1.00  0.00    +0.000 C 
ATOM     86  O3  UNL A   1      27.083  28.171  23.377  1.00  0.00    +0.000 O 
BRANCH   85   87
ATOM    131  H38 UNL A   1      28.108  30.936  24.599  1.00  0.00    +0.000 H 
ATOM    132  H39 UNL A   1      28.175  33.246  23.852  1.00  0.00    +0.000 H 
ATOM    133  H40 UNL A   1      28.237  33.754  21.481  1.00  0.00    +0.000 H 
ATOM    134  H41 UNL A   1      28.194  31.960  19.849  1.00  0.00    +0.000 H 
ATOM    135  H42 UNL A   1      28.129  29.647  20.589  1.00  0.00    +0.000 H 
ATOM     87  C63 UNL A   1      28.157  30.116  22.651  1.00  0.00    +0.000 C 
ATOM     88  C64 UNL A   1      28.142  31.153  23.590  1.00  0.00    +0.000 C 
ATOM     89  C65 UNL A   1      28.173  32.481  23.160  1.00  0.00    +0.000 C 
ATOM     90  C66 UNL A   1      28.202  32.773  21.796  1.00  0.00    +0.000 C 
ATOM     91  C67 UNL A   1      28.184  31.740  20.857  1.00  0.00    +0.000 C 
ATOM     92  C68 UNL A   1      28.154  30.410  21.282  1.00  0.00    +0.000 C 
ENDBRANCH   85   87
ENDBRANCH   84   85
ENDBRANCH    6    5
ENDBRANCH    7    6
ENDBRANCH    8    7
ENDBRANCH   10    8
ENDBRANCH   11   10
ENDBRANCH   12   11
ENDBRANCH   13   12
ENDBRANCH   14   13
ENDBRANCH   15   14
ENDBRANCH   16   15
ENDBRANCH   17   16
ENDBRANCH   18   17
ENDBRANCH   20   18
ENDBRANCH   24   23
BRANCH   28   29
ATOM     33  F2  UNL A   1      50.062  25.816  27.100  1.00  0.00    +0.000 F 
ATOM     34  C27 UNL A   1      49.277  26.533  24.992  1.00  0.00    +0.000 C 
ATOM     35  F3  UNL A   1      50.360  26.015  24.396  1.00  0.00    +0.000 F 
ATOM     36  C28 UNL A   1      48.315  27.187  24.236  1.00  0.00    +0.000 C 
ATOM     37  F4  UNL A   1      48.460  27.283  22.907  1.00  0.00    +0.000 F 
ATOM     38  C29 UNL A   1      47.202  27.748  24.856  1.00  0.00    +0.000 C 
ATOM     39  F5  UNL A   1      46.298  28.389  24.100  1.00  0.00    +0.000 F 
ATOM     29  C24 UNL A   1      47.020  27.645  26.243  1.00  0.00    +0.000 C 
ATOM     30  C25 UNL A   1      47.993  26.959  26.984  1.00  0.00    +0.000 C 
ATOM     31  F1  UNL A   1      47.872  26.843  28.316  1.00  0.00    +0.000 F 
ATOM     32  C26 UNL A   1      49.120  26.424  26.364  1.00  0.00    +0.000 C 
ENDBRANCH   28   29
BRANCH   45   46
ATOM     46  C35 UNL A   1      45.139  33.700  29.682  1.00  0.00    +0.000 C 
ATOM     47  C36 UNL A   1      45.874  33.855  30.867  1.00  0.00    +0.000 C 
ATOM     48  F6  UNL A   1      45.989  32.833  31.728  1.00  0.00    +0.000 F 
ATOM     49  C37 UNL A   1      46.462  35.075  31.187  1.00  0.00    +0.000 C 
ATOM     50  F7  UNL A   1      47.124  35.215  32.344  1.00  0.00    +0.000 F 
ATOM     51  C38 UNL A   1      46.352  36.151  30.319  1.00  0.00    +0.000 C 
ATOM     52  F8  UNL A   1      46.924  37.324  30.626  1.00  0.00    +0.000 F 
ATOM     53  C39 UNL A   1      45.644  36.014  29.134  1.00  0.00    +0.000 C 
ATOM     54  F9  UNL A   1      45.546  37.050  28.289  1.00  0.00    +0.000 F 
ATOM     55  C40 UNL A   1      45.032  34.803  28.823  1.00  0.00    +0.000 C 
ATOM     56  F10 UNL A   1      44.344  34.704  27.675  1.00  0.00    +0.000 F 
ENDBRANCH   45   46
BRANCH   60   61
ATOM     65  F12 UNL A   1      35.708  32.815  30.028  1.00  0.00    +0.000 F 
ATOM     66  C47 UNL A   1      36.483  31.955  32.086  1.00  0.00    +0.000 C 
ATOM     67  F13 UNL A   1      35.381  32.399  32.704  1.00  0.00    +0.000 F 
ATOM     68  C48 UNL A   1      37.468  31.296  32.807  1.00  0.00    +0.000 C 
ATOM     69  F14 UNL A   1      37.308  31.086  34.121  1.00  0.00    +0.000 F 
ATOM     70  C49 UNL A   1      38.622  30.848  32.167  1.00  0.00    +0.000 C 
ATOM     71  F15 UNL A   1      39.561  30.219  32.889  1.00  0.00    +0.000 F 
ATOM     61  C44 UNL A   1      38.802  31.031  30.789  1.00  0.00    +0.000 C 
ATOM     62  C45 UNL A   1      37.788  31.690  30.079  1.00  0.00    +0.000 C 
ATOM     63  F11 UNL A   1      37.925  31.904  28.763  1.00  0.00    +0.000 F 
ATOM     64  C46 UNL A   1      36.646  32.158  30.723  1.00  0.00    +0.000 C 
ENDBRANCH   60   61
TORSDOF 21
ENDMDL
MODEL 3
REMARK VINA RESULT:      -8.7     47.080     52.060
ROOT
ATOM     24  C20 UNL A   1      53.113  19.936  11.432  1.00  0.00    +0.000 C 
ATOM     25  C21 UNL A   1      54.449  19.278  11.234  1.00  0.00    +0.000 C 
ATOM     26  N3  UNL A   1      55.459  19.186  12.063  1.00  0.00    +0.000 N 
ATOM     27  C22 UNL A   1      56.424  18.438  11.402  1.00  0.00    +0.000 C 
ATOM     28  C23 UNL A   1      57.671  18.112  11.817  1.00  0.00    +0.000 C 
ATOM     40  C30 UNL A   1      58.235  18.513  13.079  1.00  0.00    +0.000 C 
ATOM     41  C31 UNL A   1      59.512  18.294  13.563  1.00  0.00    +0.000 C 
ATOM     42  C32 UNL A   1      59.589  18.830  14.854  1.00  0.00    +0.000 C 
ATOM     43  C33 UNL A   1      58.372  19.419  15.157  1.00  0.00    +0.000 C 
ATOM     44  N4  UNL A   1      57.549  19.214  14.061  1.00  0.00    +0.000 N 
ATOM     45  C34 UNL A   1      57.986  20.116  16.357  1.00  0.00    +0.000 C 
ATOM     57  C41 UNL A   1      56.775  20.685  16.572  1.00  0.00    +0.000 C 
ATOM     58  N5  UNL A   1      55.673  20.734  15.732  1.00  0.00    +0.000 N 
ATOM     59  C42 UNL A   1      54.744  21.381  16.392  1.00  0.00    +0.000 C 
ATOM     60  C43 UNL A   1      53.352  21.748  15.957  1.00  0.00    +0.000 C 
ATOM     72  C50 UNL A   1      52.938  21.413  14.720  1.00  0.00    +0.000 C 
ATOM     73  C51 UNL A   1      51.623  21.706  14.158  1.00  0.00    +0.000 C 
ATOM     74  C52 UNL A   1      51.552  21.188  12.921  1.00  0.00    +0.000 C 
ATOM     75  C53 UNL A   1      52.829  20.555  12.593  1.00  0.00    +0.000 C 
ATOM     76  N6  UNL A   1      53.593  20.743  13.717  1.00  0.00    +0.000 N 
ATOM     77  C54 UNL A   1      55.145  21.797  17.742  1.00  0.00    +0.000 C 
ATOM     78  C55 UNL A   1      56.404  21.380  17.788  1.00  0.00    +0.000 C 
ATOM     79  C56 UNL A   1      55.863  18.063  10.121  1.00  0.00    +0.000 C 
ATOM     80  C57 UNL A   1      54.671  18.612   9.941  1.00  0.00    +0.000 C 
ATOM    118  H25 UNL A   1      60.277  17.818  13.060  1.00  0.00    +0.000 H 
ATOM    119  H26 UNL A   1      60.412  18.793  15.474  1.00  0.00    +0.000 H 
ATOM    120  H27 UNL A   1      56.618  19.522  13.989  1.00  0.00    +0.000 H 
ATOM    121  H28 UNL A   1      50.870  22.226  14.634  1.00  0.00    +0.000 H 
ATOM    122  H29 UNL A   1      50.727  21.230  12.301  1.00  0.00    +0.000 H 
ATOM    123  H30 UNL A   1      54.522  20.426  13.796  1.00  0.00    +0.000 H 
ATOM    124  H31 UNL A   1      54.594  22.285  18.465  1.00  0.00    +0.000 H 
ATOM    125  H32 UNL A   1      57.037  21.531  18.589  1.00  0.00    +0.000 H 
ATOM    126  H33 UNL A   1      56.332  17.448   9.437  1.00  0.00    +0.000 H 
ATOM    127  H34 UNL A   1      54.058  18.581   9.112  1.00  0.00    +0.000 H 
ENDROOT
BRANCH   24   23
ATOM    129  H36 UNL A   1      50.693  21.685   7.934  1.00  0.00    +0.000 H 
ATOM     81  C58 UNL A   1      51.868  20.925   9.511  1.00  0.00    +0.000 C 
ATOM     82  C59 UNL A   1      50.887  20.861   8.525  1.00  0.00    +0.000 C 
ATOM     20  C16 UNL A   1      50.164  19.679   8.337  1.00  0.00    +0.000 C 
ATOM     21  C17 UNL A   1      50.344  18.600   9.208  1.00  0.00    +0.000 C 
ATOM    116  H23 UNL A   1      49.783  17.743   9.092  1.00  0.00    +0.000 H 
ATOM     22  C18 UNL A   1      51.285  18.689  10.236  1.00  0.00    +0.000 C 
ATOM    117  H24 UNL A   1      51.402  17.902  10.894  1.00  0.00    +0.000 H 
ATOM     23  C19 UNL A   1      52.073  19.842  10.379  1.00  0.00    +0.000 C 
ATOM    128  H35 UNL A   1      52.449  21.773   9.603  1.00  0.00    +0.000 H 
BRANCH   20   18
ATOM     18  C15 UNL A   1      49.174  19.557   7.243  1.00  0.00    +0.000 C 
ATOM     19  O2  UNL A   1      47.981  19.500   7.505  1.00  0.00    +0.000 O 
BRANCH   18   17
ATOM     17  N2  UNL A   1      49.599  19.507   5.937  1.00  0.00    +0.000 N 
ATOM    115  H22 UNL A   1      49.297  20.248   5.365  1.00  0.00    +0.000 H 
BRANCH   17   16
ATOM    113  H20 UNL A   1      50.494  17.645   5.910  1.00  0.00    +0.000 H 
ATOM    114  H21 UNL A   1      49.995  18.277   4.340  1.00  0.00    +0.000 H 
ATOM     16  C14 UNL A   1      50.435  18.512   5.285  1.00  0.00    +0.000 C 
BRANCH   16   15
ATOM    111  H18 UNL A   1      52.227  18.557   4.152  1.00  0.00    +0.000 H 
ATOM     15  C13 UNL A   1      51.848  19.033   5.032  1.00  0.00    +0.000 C 
ATOM    112  H19 UNL A   1      51.765  20.095   4.933  1.00  0.00    +0.000 H 
BRANCH   15   14
ATOM    110  H17 UNL A   1      52.298  18.974   7.080  1.00  0.00    +0.000 H 
ATOM    109  H16 UNL A   1      53.679  19.420   6.032  1.00  0.00    +0.000 H 
ATOM     14  C12 UNL A   1      52.834  18.779   6.176  1.00  0.00    +0.000 C 
BRANCH   14   13
ATOM    107  H14 UNL A   1      53.247  16.874   5.330  1.00  0.00    +0.000 H 
ATOM    108  H15 UNL A   1      54.362  17.410   6.624  1.00  0.00    +0.000 H 
ATOM     13  C11 UNL A   1      53.348  17.338   6.289  1.00  0.00    +0.000 C 
BRANCH   13   12
ATOM    105  H12 UNL A   1      53.269  16.317   8.157  1.00  0.00    +0.000 H 
ATOM    106  H13 UNL A   1      51.719  16.977   7.584  1.00  0.00    +0.000 H 
ATOM     12  C10 UNL A   1      52.620  16.464   7.319  1.00  0.00    +0.000 C 
BRANCH   12   11
ATOM     11  C9  UNL A   1      52.208  15.091   6.783  1.00  0.00    +0.000 C 
ATOM    103  H10 UNL A   1      52.945  14.368   7.065  1.00  0.00    +0.000 H 
ATOM    104  H11 UNL A   1      51.257  14.830   7.197  1.00  0.00    +0.000 H 
BRANCH   11   10
ATOM     10  N1  UNL A   1      52.099  15.122   5.336  1.00  0.00    +0.000 N 
ATOM    102  H9  UNL A   1      52.903  15.454   4.875  1.00  0.00    +0.000 H 
BRANCH   10    8
ATOM      9  O1  UNL A   1      51.337  14.307   3.401  1.00  0.00    +0.000 O 
ATOM      8  C8  UNL A   1      51.081  14.772   4.511  1.00  0.00    +0.000 C 
BRANCH    8    7
ATOM    101  H8  UNL A   1      49.452  15.137   5.878  1.00  0.00    +0.000 H 
ATOM      7  C7  UNL A   1      49.666  15.011   4.876  1.00  0.00    +0.000 C 
BRANCH    7    6
ATOM    100  H7  UNL A   1      48.765  14.680   3.072  1.00  0.00    +0.000 H 
ATOM      6  C6  UNL A   1      48.640  15.077   4.016  1.00  0.00    +0.000 C 
BRANCH    6    5
ATOM    130  H37 UNL A   1      47.888  17.606   3.650  1.00  0.00    +0.000 H 
ATOM      3  C3  UNL A   1      45.116  15.558   5.343  1.00  0.00    +0.000 C 
ATOM      4  C4  UNL A   1      46.331  14.956   4.983  1.00  0.00    +0.000 C 
ATOM      5  C5  UNL A   1      47.346  15.689   4.351  1.00  0.00    +0.000 C 
ATOM     99  H6  UNL A   1      46.481  13.955   5.186  1.00  0.00    +0.000 H 
ATOM    136  H43 UNL A   1      44.023  17.365   5.298  1.00  0.00    +0.000 H 
ATOM     83  C60 UNL A   1      47.145  17.053   4.105  1.00  0.00    +0.000 C 
ATOM     84  C61 UNL A   1      45.942  17.673   4.472  1.00  0.00    +0.000 C 
ATOM     93  C69 UNL A   1      44.923  16.917   5.064  1.00  0.00    +0.000 C 
BRANCH    3    2
ATOM     97  H4  UNL A   1      43.931  15.146   7.038  1.00  0.00    +0.000 H 
ATOM      2  C2  UNL A   1      44.047  14.760   6.047  1.00  0.00    +0.000 C 
ATOM     98  H5  UNL A   1      43.148  14.853   5.476  1.00  0.00    +0.000 H 
BRANCH    2    1
ATOM      1  C1  UNL A   1      44.379  13.279   6.138  1.00  0.00    +0.000 C 
ATOM     94  H1  UNL A   1      43.763  12.820   6.883  1.00  0.00    +0.000 H 
ATOM     95  H2  UNL A   1      45.409  13.159   6.403  1.00  0.00    +0.000 H 
ATOM     96  H3  UNL A   1      44.199  12.814   5.191  1.00  0.00    +0.000 H 
ENDBRANCH    2    1
ENDBRANCH    3    2
BRANCH   84   85
ATOM     85  C62 UNL A   1      45.780  19.128   4.196  1.00  0.00    +0.000 C 
ATOM     86  O3  UNL A   1      46.443  19.948   4.826  1.00  0.00    +0.000 O 
BRANCH   85   87
ATOM    131  H38 UNL A   1      45.252  21.651   3.543  1.00  0.00    +0.000 H 
ATOM    132  H39 UNL A   1      43.773  22.492   1.810  1.00  0.00    +0.000 H 
ATOM    133  H40 UNL A   1      42.494  20.945   0.448  1.00  0.00    +0.000 H 
ATOM    134  H41 UNL A   1      42.659  18.556   0.838  1.00  0.00    +0.000 H 
ATOM    135  H42 UNL A   1      44.138  17.707   2.569  1.00  0.00    +0.000 H 
ATOM     87  C63 UNL A   1      44.839  19.614   3.157  1.00  0.00    +0.000 C 
ATOM     88  C64 UNL A   1      44.713  20.992   2.958  1.00  0.00    +0.000 C 
ATOM     89  C65 UNL A   1      43.857  21.476   1.967  1.00  0.00    +0.000 C 
ATOM     90  C66 UNL A   1      43.117  20.585   1.188  1.00  0.00    +0.000 C 
ATOM     91  C67 UNL A   1      43.217  19.211   1.408  1.00  0.00    +0.000 C 
ATOM     92  C68 UNL A   1      44.072  18.722   2.398  1.00  0.00    +0.000 C 
ENDBRANCH   85   87
ENDBRANCH   84   85
ENDBRANCH    6    5
ENDBRANCH    7    6
ENDBRANCH    8    7
ENDBRANCH   10    8
ENDBRANCH   11   10
ENDBRANCH   12   11
ENDBRANCH   13   12
ENDBRANCH   14   13
ENDBRANCH   15   14
ENDBRANCH   16   15
ENDBRANCH   17   16
ENDBRANCH   18   17
ENDBRANCH   20   18
ENDBRANCH   24   23
BRANCH   28   29
ATOM     33  F2  UNL A   1      59.381  13.790  10.260  1.00  0.00    +0.000 F 
ATOM     34  C27 UNL A   1      60.081  15.746   9.137  1.00  0.00    +0.000 C 
ATOM     35  F3  UNL A   1      60.840  15.015   8.308  1.00  0.00    +0.000 F 
ATOM     36  C28 UNL A   1      60.050  17.127   9.014  1.00  0.00    +0.000 C 
ATOM     37  F4  UNL A   1      60.766  17.729   8.054  1.00  0.00    +0.000 F 
ATOM     38  C29 UNL A   1      59.282  17.889   9.890  1.00  0.00    +0.000 C 
ATOM     39  F5  UNL A   1      59.287  19.224   9.757  1.00  0.00    +0.000 F 
ATOM     29  C24 UNL A   1      58.512  17.280  10.892  1.00  0.00    +0.000 C 
ATOM     30  C25 UNL A   1      58.539  15.881  10.982  1.00  0.00    +0.000 C 
ATOM     31  F1  UNL A   1      57.830  15.250  11.931  1.00  0.00    +0.000 F 
ATOM     32  C26 UNL A   1      59.331  15.123  10.123  1.00  0.00    +0.000 C 
ENDBRANCH   28   29
BRANCH   45   46
ATOM     46  C35 UNL A   1      59.006  20.244  17.449  1.00  0.00    +0.000 C 
ATOM     47  C36 UNL A   1      59.685  21.450  17.681  1.00  0.00    +0.000 C 
ATOM     48  F6  UNL A   1      59.470  22.509  16.886  1.00  0.00    +0.000 F 
ATOM     49  C37 UNL A   1      60.617  21.558  18.709  1.00  0.00    +0.000 C 
ATOM     50  F7  UNL A   1      61.286  22.706  18.887  1.00  0.00    +0.000 F 
ATOM     51  C38 UNL A   1      60.865  20.477  19.542  1.00  0.00    +0.000 C 
ATOM     52  F8  UNL A   1      61.758  20.584  20.535  1.00  0.00    +0.000 F 
ATOM     53  C39 UNL A   1      60.192  19.280  19.340  1.00  0.00    +0.000 C 
ATOM     54  F9  UNL A   1      60.423  18.238  20.151  1.00  0.00    +0.000 F 
ATOM     55  C40 UNL A   1      59.279  19.160  18.297  1.00  0.00    +0.000 C 
ATOM     56  F10 UNL A   1      58.652  17.988  18.119  1.00  0.00    +0.000 F 
ENDBRANCH   45   46
BRANCH   60   61
ATOM     65  F12 UNL A   1      50.194  21.901  19.666  1.00  0.00    +0.000 F 
ATOM     66  C47 UNL A   1      50.745  23.928  18.587  1.00  0.00    +0.000 C 
ATOM     67  F13 UNL A   1      49.932  24.604  19.409  1.00  0.00    +0.000 F 
ATOM     68  C48 UNL A   1      51.445  24.597  17.594  1.00  0.00    +0.000 C 
ATOM     69  F14 UNL A   1      51.321  25.926  17.468  1.00  0.00    +0.000 F 
ATOM     70  C49 UNL A   1      52.279  23.892  16.728  1.00  0.00    +0.000 C 
ATOM     71  F15 UNL A   1      52.938  24.563  15.773  1.00  0.00    +0.000 F 
ATOM     61  C44 UNL A   1      52.446  22.506  16.855  1.00  0.00    +0.000 C 
ATOM     62  C45 UNL A   1      51.737  21.853  17.873  1.00  0.00    +0.000 C 
ATOM     63  F11 UNL A   1      51.851  20.524  18.020  1.00  0.00    +0.000 F 
ATOM     64  C46 UNL A   1      50.886  22.555  18.723  1.00  0.00    +0.000 C 
ENDBRANCH   60   61
TORSDOF 21
ENDMDL
MODEL 4
REMARK VINA RESULT:      -8.4     40.700     46.065
ROOT
ATOM     24  C20 UNL A   1      26.090  35.196  45.646  1.00  0.00    +0.000 C 
ATOM     25  C21 UNL A   1      27.398  35.222  44.908  1.00  0.00    +0.000 C 
ATOM     26  N3  UNL A   1      28.404  36.051  45.034  1.00  0.00    +0.000 N 
ATOM     27  C22 UNL A   1      29.377  35.600  44.153  1.00  0.00    +0.000 C 
ATOM     28  C23 UNL A   1      30.584  36.149  43.874  1.00  0.00    +0.000 C 
ATOM     40  C30 UNL A   1      31.081  37.359  44.472  1.00  0.00    +0.000 C 
ATOM     41  C31 UNL A   1      32.258  38.035  44.206  1.00  0.00    +0.000 C 
ATOM     42  C32 UNL A   1      32.334  39.138  45.065  1.00  0.00    +0.000 C 
ATOM     43  C33 UNL A   1      31.185  39.172  45.838  1.00  0.00    +0.000 C 
ATOM     44  N4  UNL A   1      30.426  38.073  45.466  1.00  0.00    +0.000 N 
ATOM     45  C34 UNL A   1      30.806  40.133  46.842  1.00  0.00    +0.000 C 
ATOM     57  C41 UNL A   1      29.648  40.108  47.546  1.00  0.00    +0.000 C 
ATOM     58  N5  UNL A   1      28.601  39.201  47.472  1.00  0.00    +0.000 N 
ATOM     59  C42 UNL A   1      27.719  39.595  48.357  1.00  0.00    +0.000 C 
ATOM     60  C43 UNL A   1      26.379  39.000  48.690  1.00  0.00    +0.000 C 
ATOM     72  C50 UNL A   1      25.952  37.917  48.013  1.00  0.00    +0.000 C 
ATOM     73  C51 UNL A   1      24.677  37.236  48.220  1.00  0.00    +0.000 C 
ATOM     74  C52 UNL A   1      24.608  36.178  47.396  1.00  0.00    +0.000 C 
ATOM     75  C53 UNL A   1      25.821  36.127  46.581  1.00  0.00    +0.000 C 
ATOM     76  N6  UNL A   1      26.558  37.201  47.011  1.00  0.00    +0.000 N 
ATOM     77  C54 UNL A   1      28.118  40.789  49.113  1.00  0.00    +0.000 C 
ATOM     78  C55 UNL A   1      29.285  41.082  48.554  1.00  0.00    +0.000 C 
ATOM     79  C56 UNL A   1      28.861  34.400  43.530  1.00  0.00    +0.000 C 
ATOM     80  C57 UNL A   1      27.615  34.161  43.913  1.00  0.00    +0.000 C 
ATOM    118  H25 UNL A   1      32.959  37.773  43.496  1.00  0.00    +0.000 H 
ATOM    119  H26 UNL A   1      33.114  39.811  45.114  1.00  0.00    +0.000 H 
ATOM    120  H27 UNL A   1      29.552  37.834  45.850  1.00  0.00    +0.000 H 
ATOM    121  H28 UNL A   1      23.947  37.522  48.891  1.00  0.00    +0.000 H 
ATOM    122  H29 UNL A   1      23.824  35.508  47.347  1.00  0.00    +0.000 H 
ATOM    123  H30 UNL A   1      27.439  37.435  46.637  1.00  0.00    +0.000 H 
ATOM    124  H31 UNL A   1      27.622  41.273  49.877  1.00  0.00    +0.000 H 
ATOM    125  H32 UNL A   1      29.861  41.901  48.807  1.00  0.00    +0.000 H 
ATOM    126  H33 UNL A   1      29.393  33.808  42.873  1.00  0.00    +0.000 H 
ATOM    127  H34 UNL A   1      26.967  33.422  43.598  1.00  0.00    +0.000 H 
ENDROOT
BRANCH   24   23
ATOM    129  H36 UNL A   1      24.325  31.045  46.546  1.00  0.00    +0.000 H 
ATOM     81  C58 UNL A   1      25.149  32.957  46.214  1.00  0.00    +0.000 C 
ATOM     82  C59 UNL A   1      24.254  31.914  45.992  1.00  0.00    +0.000 C 
ATOM     20  C16 UNL A   1      23.261  32.043  45.017  1.00  0.00    +0.000 C 
ATOM     21  C17 UNL A   1      23.233  33.169  44.188  1.00  0.00    +0.000 C 
ATOM    116  H23 UNL A   1      22.523  33.246  43.444  1.00  0.00    +0.000 H 
ATOM     22  C18 UNL A   1      24.170  34.188  44.372  1.00  0.00    +0.000 C 
ATOM    117  H24 UNL A   1      24.165  35.009  43.745  1.00  0.00    +0.000 H 
ATOM     23  C19 UNL A   1      25.119  34.102  45.403  1.00  0.00    +0.000 C 
ATOM    128  H35 UNL A   1      25.837  32.889  46.980  1.00  0.00    +0.000 H 
BRANCH   20   18
ATOM     18  C15 UNL A   1      22.246  30.984  44.817  1.00  0.00    +0.000 C 
ATOM     19  O2  UNL A   1      22.571  29.808  44.891  1.00  0.00    +0.000 O 
BRANCH   18   17
ATOM     17  N2  UNL A   1      20.942  31.326  44.550  1.00  0.00    +0.000 N 
ATOM    115  H22 UNL A   1      20.711  31.401  43.596  1.00  0.00    +0.000 H 
BRANCH   17   16
ATOM    113  H20 UNL A   1      18.999  31.026  45.184  1.00  0.00    +0.000 H 
ATOM    114  H21 UNL A   1      20.184  31.309  46.459  1.00  0.00    +0.000 H 
ATOM     16  C14 UNL A   1      19.857  31.591  45.481  1.00  0.00    +0.000 C 
BRANCH   16   15
ATOM    111  H18 UNL A   1      18.428  33.146  45.660  1.00  0.00    +0.000 H 
ATOM     15  C13 UNL A   1      19.485  33.071  45.514  1.00  0.00    +0.000 C 
ATOM    112  H19 UNL A   1      20.051  33.508  46.310  1.00  0.00    +0.000 H 
BRANCH   15   14
ATOM    110  H17 UNL A   1      18.967  33.859  43.641  1.00  0.00    +0.000 H 
ATOM    109  H16 UNL A   1      20.678  33.355  43.783  1.00  0.00    +0.000 H 
ATOM     14  C12 UNL A   1      19.849  33.848  44.245  1.00  0.00    +0.000 C 
BRANCH   14   13
ATOM    107  H14 UNL A   1      21.187  35.482  44.009  1.00  0.00    +0.000 H 
ATOM    108  H15 UNL A   1      19.445  35.897  44.029  1.00  0.00    +0.000 H 
ATOM     13  C11 UNL A   1      20.232  35.316  44.464  1.00  0.00    +0.000 C 
BRANCH   13   12
ATOM    105  H12 UNL A   1      20.204  34.893  46.552  1.00  0.00    +0.000 H 
ATOM    106  H13 UNL A   1      21.278  36.223  46.059  1.00  0.00    +0.000 H 
ATOM     12  C10 UNL A   1      20.324  35.756  45.932  1.00  0.00    +0.000 C 
BRANCH   12   11
ATOM     11  C9  UNL A   1      19.267  36.787  46.334  1.00  0.00    +0.000 C 
ATOM    103  H10 UNL A   1      19.630  37.358  47.164  1.00  0.00    +0.000 H 
ATOM    104  H11 UNL A   1      19.075  37.429  45.500  1.00  0.00    +0.000 H 
BRANCH   11   10
ATOM     10  N1  UNL A   1      18.031  36.128  46.713  1.00  0.00    +0.000 N 
ATOM    102  H9  UNL A   1      18.084  35.618  47.553  1.00  0.00    +0.000 H 
BRANCH   10    8
ATOM      9  O1  UNL A   1      15.857  36.640  46.653  1.00  0.00    +0.000 O 
ATOM      8  C8  UNL A   1      16.817  36.095  46.109  1.00  0.00    +0.000 C 
BRANCH    8    7
ATOM    101  H8  UNL A   1      17.069  35.696  44.004  1.00  0.00    +0.000 H 
ATOM      7  C7  UNL A   1      16.594  35.347  44.851  1.00  0.00    +0.000 C 
BRANCH    7    6
ATOM    100  H7  UNL A   1      15.103  34.075  45.432  1.00  0.00    +0.000 H 
ATOM      6  C6  UNL A   1      15.827  34.255  44.719  1.00  0.00    +0.000 C 
BRANCH    6    5
ATOM    130  H37 UNL A   1      16.576  31.703  44.848  1.00  0.00    +0.000 H 
ATOM      3  C3  UNL A   1      15.931  32.784  41.221  1.00  0.00    +0.000 C 
ATOM      4  C4  UNL A   1      15.750  33.687  42.280  1.00  0.00    +0.000 C 
ATOM      5  C5  UNL A   1      15.967  33.301  43.609  1.00  0.00    +0.000 C 
ATOM     99  H6  UNL A   1      15.450  34.654  42.075  1.00  0.00    +0.000 H 
ATOM    136  H43 UNL A   1      16.449  30.794  40.740  1.00  0.00    +0.000 H 
ATOM     83  C60 UNL A   1      16.402  31.997  43.874  1.00  0.00    +0.000 C 
ATOM     84  C61 UNL A   1      16.602  31.086  42.827  1.00  0.00    +0.000 C 
ATOM     93  C69 UNL A   1      16.340  31.476  41.508  1.00  0.00    +0.000 C 
BRANCH    3    2
ATOM     97  H4  UNL A   1      14.776  33.728  39.729  1.00  0.00    +0.000 H 
ATOM      2  C2  UNL A   1      15.720  33.227  39.794  1.00  0.00    +0.000 C 
ATOM     98  H5  UNL A   1      16.531  33.874  39.535  1.00  0.00    +0.000 H 
BRANCH    2    1
ATOM      1  C1  UNL A   1      15.725  32.070  38.809  1.00  0.00    +0.000 C 
ATOM     94  H1  UNL A   1      16.068  32.415  37.855  1.00  0.00    +0.000 H 
ATOM     95  H2  UNL A   1      14.733  31.680  38.711  1.00  0.00    +0.000 H 
ATOM     96  H3  UNL A   1      16.377  31.300  39.166  1.00  0.00    +0.000 H 
ENDBRANCH    2    1
ENDBRANCH    3    2
BRANCH   84   85
ATOM     85  C62 UNL A   1      17.072  29.712  43.160  1.00  0.00    +0.000 C 
ATOM     86  O3  UNL A   1      18.209  29.543  43.594  1.00  0.00    +0.000 O 
BRANCH   85   87
ATOM    131  H38 UNL A   1      16.000  28.208  45.072  1.00  0.00    +0.000 H 
ATOM    132  H39 UNL A   1      14.493  26.317  44.849  1.00  0.00    +0.000 H 
ATOM    133  H40 UNL A   1      13.836  25.540  42.647  1.00  0.00    +0.000 H 
ATOM    134  H41 UNL A   1      14.710  26.627  40.662  1.00  0.00    +0.000 H 
ATOM    135  H42 UNL A   1      16.216  28.521  40.877  1.00  0.00    +0.000 H 
ATOM     87  C63 UNL A   1      16.187  28.534  42.992  1.00  0.00    +0.000 C 
ATOM     88  C64 UNL A   1      15.713  27.882  44.135  1.00  0.00    +0.000 C 
ATOM     89  C65 UNL A   1      14.854  26.790  44.007  1.00  0.00    +0.000 C 
ATOM     90  C66 UNL A   1      14.481  26.341  42.739  1.00  0.00    +0.000 C 
ATOM     91  C67 UNL A   1      14.978  26.970  41.597  1.00  0.00    +0.000 C 
ATOM     92  C68 UNL A   1      15.838  28.063  41.720  1.00  0.00    +0.000 C 
ENDBRANCH   85   87
ENDBRANCH   84   85
ENDBRANCH    6    5
ENDBRANCH    7    6
ENDBRANCH    8    7
ENDBRANCH   10    8
ENDBRANCH   11   10
ENDBRANCH   12   11
ENDBRANCH   13   12
ENDBRANCH   14   13
ENDBRANCH   15   14
ENDBRANCH   16   15
ENDBRANCH   17   16
ENDBRANCH   18   17
ENDBRANCH   20   18
ENDBRANCH   24   23
BRANCH   28   29
ATOM     33  F2  UNL A   1      32.214  35.480  39.300  1.00  0.00    +0.000 F 
ATOM     34  C27 UNL A   1      33.092  34.116  41.016  1.00  0.00    +0.000 C 
ATOM     35  F3  UNL A   1      33.866  33.474  40.129  1.00  0.00    +0.000 F 
ATOM     36  C28 UNL A   1      33.118  33.750  42.353  1.00  0.00    +0.000 C 
ATOM     37  F4  UNL A   1      33.931  32.765  42.761  1.00  0.00    +0.000 F 
ATOM     38  C29 UNL A   1      32.296  34.398  43.271  1.00  0.00    +0.000 C 
ATOM     39  F5  UNL A   1      32.331  34.009  44.554  1.00  0.00    +0.000 F 
ATOM     29  C24 UNL A   1      31.449  35.442  42.870  1.00  0.00    +0.000 C 
ATOM     30  C25 UNL A   1      31.458  35.813  41.518  1.00  0.00    +0.000 C 
ATOM     31  F1  UNL A   1      30.658  36.797  41.080  1.00  0.00    +0.000 F 
ATOM     32  C26 UNL A   1      32.260  35.142  40.597  1.00  0.00    +0.000 C 
ENDBRANCH   28   29
BRANCH   45   46
ATOM     46  C35 UNL A   1      31.752  41.263  47.119  1.00  0.00    +0.000 C 
ATOM     47  C36 UNL A   1      31.527  42.550  46.607  1.00  0.00    +0.000 C 
ATOM     48  F6  UNL A   1      30.476  42.783  45.806  1.00  0.00    +0.000 F 
ATOM     49  C37 UNL A   1      32.405  43.593  46.887  1.00  0.00    +0.000 C 
ATOM     50  F7  UNL A   1      32.195  44.804  46.353  1.00  0.00    +0.000 F 
ATOM     51  C38 UNL A   1      33.504  43.378  47.706  1.00  0.00    +0.000 C 
ATOM     52  F8  UNL A   1      34.344  44.385  47.979  1.00  0.00    +0.000 F 
ATOM     53  C39 UNL A   1      33.735  42.117  48.236  1.00  0.00    +0.000 C 
ATOM     54  F9  UNL A   1      34.791  41.911  49.036  1.00  0.00    +0.000 F 
ATOM     55  C40 UNL A   1      32.874  41.065  47.936  1.00  0.00    +0.000 C 
ATOM     56  F10 UNL A   1      33.130  39.854  48.454  1.00  0.00    +0.000 F 
ENDBRANCH   45   46
BRANCH   60   61
ATOM     65  F12 UNL A   1      24.904  39.377  53.320  1.00  0.00    +0.000 F 
ATOM     66  C47 UNL A   1      23.889  40.774  51.710  1.00  0.00    +0.000 C 
ATOM     67  F13 UNL A   1      23.115  41.325  52.653  1.00  0.00    +0.000 F 
ATOM     68  C48 UNL A   1      23.773  41.182  50.389  1.00  0.00    +0.000 C 
ATOM     69  F14 UNL A   1      22.898  42.142  50.059  1.00  0.00    +0.000 F 
ATOM     70  C49 UNL A   1      24.567  40.597  49.404  1.00  0.00    +0.000 C 
ATOM     71  F15 UNL A   1      24.430  41.005  48.134  1.00  0.00    +0.000 F 
ATOM     61  C44 UNL A   1      25.509  39.609  49.727  1.00  0.00    +0.000 C 
ATOM     62  C45 UNL A   1      25.616  39.222  51.069  1.00  0.00    +0.000 C 
ATOM     63  F11 UNL A   1      26.489  38.267  51.422  1.00  0.00    +0.000 F 
ATOM     64  C46 UNL A   1      24.806  39.790  52.049  1.00  0.00    +0.000 C 
ENDBRANCH   60   61
TORSDOF 21
ENDMDL
MODEL 5
REMARK VINA RESULT:      -8.4     45.738     50.758
ROOT
ATOM     24  C20 UNL A   1      53.827  19.563  11.806  1.00  0.00    +0.000 C 
ATOM     25  C21 UNL A   1      55.210  18.982  11.726  1.00  0.00    +0.000 C 
ATOM     26  N3  UNL A   1      56.177  19.019  12.608  1.00  0.00    +0.000 N 
ATOM     27  C22 UNL A   1      57.220  18.289  12.056  1.00  0.00    +0.000 C 
ATOM     28  C23 UNL A   1      58.461  18.078  12.556  1.00  0.00    +0.000 C 
ATOM     40  C30 UNL A   1      58.931  18.609  13.808  1.00  0.00    +0.000 C 
ATOM     41  C31 UNL A   1      60.191  18.512  14.370  1.00  0.00    +0.000 C 
ATOM     42  C32 UNL A   1      60.165  19.148  15.617  1.00  0.00    +0.000 C 
ATOM     43  C33 UNL A   1      58.900  19.677  15.813  1.00  0.00    +0.000 C 
ATOM     44  N4  UNL A   1      58.151  19.336  14.697  1.00  0.00    +0.000 N 
ATOM     45  C34 UNL A   1      58.407  20.435  16.934  1.00  0.00    +0.000 C 
ATOM     57  C41 UNL A   1      57.153  20.938  17.044  1.00  0.00    +0.000 C 
ATOM     58  N5  UNL A   1      56.097  20.850  16.150  1.00  0.00    +0.000 N 
ATOM     59  C42 UNL A   1      55.095  21.483  16.710  1.00  0.00    +0.000 C 
ATOM     60  C43 UNL A   1      53.709  21.723  16.180  1.00  0.00    +0.000 C 
ATOM     72  C50 UNL A   1      53.384  21.269  14.955  1.00  0.00    +0.000 C 
ATOM     73  C51 UNL A   1      52.086  21.431  14.308  1.00  0.00    +0.000 C 
ATOM     74  C52 UNL A   1      52.113  20.819  13.113  1.00  0.00    +0.000 C 
ATOM     75  C53 UNL A   1      53.443  20.248  12.899  1.00  0.00    +0.000 C 
ATOM     76  N6  UNL A   1      54.132  20.570  14.041  1.00  0.00    +0.000 N 
ATOM     77  C54 UNL A   1      55.397  22.025  18.042  1.00  0.00    +0.000 C 
ATOM     78  C55 UNL A   1      56.674  21.696  18.182  1.00  0.00    +0.000 C 
ATOM     79  C56 UNL A   1      56.754  17.782  10.782  1.00  0.00    +0.000 C 
ATOM     80  C57 UNL A   1      55.542  18.236  10.502  1.00  0.00    +0.000 C 
ATOM    118  H25 UNL A   1      61.010  18.051  13.944  1.00  0.00    +0.000 H 
ATOM    119  H26 UNL A   1      60.954  19.212  16.278  1.00  0.00    +0.000 H 
ATOM    120  H27 UNL A   1      57.207  19.575  14.555  1.00  0.00    +0.000 H 
ATOM    121  H28 UNL A   1      51.277  21.935  14.704  1.00  0.00    +0.000 H 
ATOM    122  H29 UNL A   1      51.322  20.759  12.453  1.00  0.00    +0.000 H 
ATOM    123  H30 UNL A   1      55.073  20.321  14.191  1.00  0.00    +0.000 H 
ATOM    124  H31 UNL A   1      54.779  22.528  18.696  1.00  0.00    +0.000 H 
ATOM    125  H32 UNL A   1      57.253  21.949  18.999  1.00  0.00    +0.000 H 
ATOM    126  H33 UNL A   1      57.296  17.150  10.173  1.00  0.00    +0.000 H 
ATOM    127  H34 UNL A   1      54.977  18.102   9.649  1.00  0.00    +0.000 H 
ENDROOT
BRANCH   24   23
ATOM    129  H36 UNL A   1      50.542  17.081   9.756  1.00  0.00    +0.000 H 
ATOM     81  C58 UNL A   1      52.017  18.196  10.769  1.00  0.00    +0.000 C 
ATOM     82  C59 UNL A   1      51.106  17.946   9.746  1.00  0.00    +0.000 C 
ATOM     20  C16 UNL A   1      50.957  18.866   8.705  1.00  0.00    +0.000 C 
ATOM     21  C17 UNL A   1      51.797  19.981   8.627  1.00  0.00    +0.000 C 
ATOM    116  H23 UNL A   1      51.712  20.640   7.838  1.00  0.00    +0.000 H 
ATOM     22  C18 UNL A   1      52.754  20.198   9.622  1.00  0.00    +0.000 C 
ATOM    117  H24 UNL A   1      53.390  21.008   9.553  1.00  0.00    +0.000 H 
ATOM     23  C19 UNL A   1      52.853  19.322  10.714  1.00  0.00    +0.000 C 
ATOM    128  H35 UNL A   1      52.077  17.551  11.572  1.00  0.00    +0.000 H 
BRANCH   20   18
ATOM     18  C15 UNL A   1      49.938  18.666   7.650  1.00  0.00    +0.000 C 
ATOM     19  O2  UNL A   1      49.534  17.539   7.399  1.00  0.00    +0.000 O 
BRANCH   18   17
ATOM     17  N2  UNL A   1      49.448  19.746   6.955  1.00  0.00    +0.000 N 
ATOM    115  H22 UNL A   1      50.042  20.105   6.257  1.00  0.00    +0.000 H 
BRANCH   17   16
ATOM    113  H20 UNL A   1      47.405  19.702   7.253  1.00  0.00    +0.000 H 
ATOM    114  H21 UNL A   1      48.249  21.085   7.952  1.00  0.00    +0.000 H 
ATOM     16  C14 UNL A   1      48.174  20.430   7.109  1.00  0.00    +0.000 C 
BRANCH   16   15
ATOM    111  H18 UNL A   1      47.300  22.142   6.215  1.00  0.00    +0.000 H 
ATOM     15  C13 UNL A   1      47.831  21.274   5.884  1.00  0.00    +0.000 C 
ATOM    112  H19 UNL A   1      48.760  21.506   5.406  1.00  0.00    +0.000 H 
BRANCH   15   14
ATOM    110  H17 UNL A   1      47.086  21.111   3.930  1.00  0.00    +0.000 H 
ATOM    109  H16 UNL A   1      45.964  20.533   5.200  1.00  0.00    +0.000 H 
ATOM     14  C12 UNL A   1      46.971  20.558   4.838  1.00  0.00    +0.000 C 
BRANCH   14   13
ATOM    107  H14 UNL A   1      47.930  19.131   3.588  1.00  0.00    +0.000 H 
ATOM    108  H15 UNL A   1      47.987  18.792   5.345  1.00  0.00    +0.000 H 
ATOM     13  C11 UNL A   1      47.395  19.120   4.516  1.00  0.00    +0.000 C 
BRANCH   13   12
ATOM    105  H12 UNL A   1      46.620  17.138   4.626  1.00  0.00    +0.000 H 
ATOM    106  H13 UNL A   1      45.476  18.429   5.063  1.00  0.00    +0.000 H 
ATOM     12  C10 UNL A   1      46.245  18.112   4.390  1.00  0.00    +0.000 C 
BRANCH   12   11
ATOM     11  C9  UNL A   1      45.620  18.060   2.994  1.00  0.00    +0.000 C 
ATOM    103  H10 UNL A   1      45.956  18.903   2.427  1.00  0.00    +0.000 H 
ATOM    104  H11 UNL A   1      45.917  17.151   2.515  1.00  0.00    +0.000 H 
BRANCH   11   10
ATOM     10  N1  UNL A   1      44.172  18.092   3.083  1.00  0.00    +0.000 N 
ATOM    102  H9  UNL A   1      43.745  17.204   3.079  1.00  0.00    +0.000 H 
BRANCH   10    8
ATOM      9  O1  UNL A   1      43.714  20.276   2.975  1.00  0.00    +0.000 O 
ATOM      8  C8  UNL A   1      43.306  19.132   3.174  1.00  0.00    +0.000 C 
BRANCH    8    7
ATOM    101  H8  UNL A   1      41.670  19.109   4.579  1.00  0.00    +0.000 H 
ATOM      7  C7  UNL A   1      41.898  18.938   3.587  1.00  0.00    +0.000 C 
BRANCH    7    6
ATOM    100  H7  UNL A   1      40.946  17.629   2.339  1.00  0.00    +0.000 H 
ATOM      6  C6  UNL A   1      40.895  18.560   2.782  1.00  0.00    +0.000 C 
BRANCH    6    5
ATOM    130  H37 UNL A   1      40.465  20.085   0.642  1.00  0.00    +0.000 H 
ATOM      3  C3  UNL A   1      37.584  20.377   3.162  1.00  0.00    +0.000 C 
ATOM      4  C4  UNL A   1      38.674  19.532   3.418  1.00  0.00    +0.000 C 
ATOM      5  C5  UNL A   1      39.725  19.405   2.499  1.00  0.00    +0.000 C 
ATOM     99  H6  UNL A   1      38.703  18.993   4.298  1.00  0.00    +0.000 H 
ATOM    136  H43 UNL A   1      36.744  21.708   1.754  1.00  0.00    +0.000 H 
ATOM     83  C60 UNL A   1      39.692  20.162   1.322  1.00  0.00    +0.000 C 
ATOM     84  C61 UNL A   1      38.617  21.022   1.058  1.00  0.00    +0.000 C 
ATOM     93  C69 UNL A   1      37.555  21.105   1.967  1.00  0.00    +0.000 C 
BRANCH    3    2
ATOM     97  H4  UNL A   1      35.559  20.202   3.727  1.00  0.00    +0.000 H 
ATOM      2  C2  UNL A   1      36.476  20.521   4.176  1.00  0.00    +0.000 C 
ATOM     98  H5  UNL A   1      36.734  19.919   5.022  1.00  0.00    +0.000 H 
BRANCH    2    1
ATOM      1  C1  UNL A   1      36.306  21.950   4.666  1.00  0.00    +0.000 C 
ATOM     94  H1  UNL A   1      35.707  21.954   5.554  1.00  0.00    +0.000 H 
ATOM     95  H2  UNL A   1      35.825  22.533   3.909  1.00  0.00    +0.000 H 
ATOM     96  H3  UNL A   1      37.266  22.370   4.882  1.00  0.00    +0.000 H 
ENDBRANCH    2    1
ENDBRANCH    3    2
BRANCH   84   85
ATOM     85  C62 UNL A   1      38.632  21.811  -0.206  1.00  0.00    +0.000 C 
ATOM     86  O3  UNL A   1      39.703  22.113  -0.726  1.00  0.00    +0.000 O 
BRANCH   85   87
ATOM    131  H38 UNL A   1      37.855  24.290  -0.774  1.00  0.00    +0.000 H 
ATOM    132  H39 UNL A   1      35.838  25.025  -1.908  1.00  0.00    +0.000 H 
ATOM    133  H40 UNL A   1      34.186  23.399  -2.625  1.00  0.00    +0.000 H 
ATOM    134  H41 UNL A   1      34.527  21.039  -2.179  1.00  0.00    +0.000 H 
ATOM    135  H42 UNL A   1      36.544  20.296  -1.047  1.00  0.00    +0.000 H 
ATOM     87  C63 UNL A   1      37.372  22.233  -0.864  1.00  0.00    +0.000 C 
ATOM     88  C64 UNL A   1      37.155  23.597  -1.087  1.00  0.00    +0.000 C 
ATOM     89  C65 UNL A   1      35.992  24.021  -1.731  1.00  0.00    +0.000 C 
ATOM     90  C66 UNL A   1      35.040  23.085  -2.138  1.00  0.00    +0.000 C 
ATOM     91  C67 UNL A   1      35.238  21.727  -1.887  1.00  0.00    +0.000 C 
ATOM     92  C68 UNL A   1      36.401  21.298  -1.243  1.00  0.00    +0.000 C 
ENDBRANCH   85   87
ENDBRANCH   84   85
ENDBRANCH    6    5
ENDBRANCH    7    6
ENDBRANCH    8    7
ENDBRANCH   10    8
ENDBRANCH   11   10
ENDBRANCH   12   11
ENDBRANCH   13   12
ENDBRANCH   14   13
ENDBRANCH   15   14
ENDBRANCH   16   15
ENDBRANCH   17   16
ENDBRANCH   18   17
ENDBRANCH   20   18
ENDBRANCH   24   23
BRANCH   28   29
ATOM     33  F2  UNL A   1      61.866  17.565   9.068  1.00  0.00    +0.000 F 
ATOM     34  C27 UNL A   1      61.165  15.641  10.244  1.00  0.00    +0.000 C 
ATOM     35  F3  UNL A   1      61.995  14.878   9.520  1.00  0.00    +0.000 F 
ATOM     36  C28 UNL A   1      60.356  15.063  11.212  1.00  0.00    +0.000 C 
ATOM     37  F4  UNL A   1      60.421  13.742  11.435  1.00  0.00    +0.000 F 
ATOM     38  C29 UNL A   1      59.474  15.850  11.946  1.00  0.00    +0.000 C 
ATOM     39  F5  UNL A   1      58.693  15.259  12.863  1.00  0.00    +0.000 F 
ATOM     29  C24 UNL A   1      59.401  17.236  11.742  1.00  0.00    +0.000 C 
ATOM     30  C25 UNL A   1      60.245  17.802  10.775  1.00  0.00    +0.000 C 
ATOM     31  F1  UNL A   1      60.205  19.121  10.532  1.00  0.00    +0.000 F 
ATOM     32  C26 UNL A   1      61.105  17.008  10.022  1.00  0.00    +0.000 C 
ENDBRANCH   28   29
BRANCH   45   46
ATOM     46  C35 UNL A   1      59.357  20.712  18.061  1.00  0.00    +0.000 C 
ATOM     47  C36 UNL A   1      60.094  21.904  18.123  1.00  0.00    +0.000 C 
ATOM     48  F6  UNL A   1      60.001  22.806  17.135  1.00  0.00    +0.000 F 
ATOM     49  C37 UNL A   1      60.959  22.154  19.184  1.00  0.00    +0.000 C 
ATOM     50  F7  UNL A   1      61.686  23.280  19.203  1.00  0.00    +0.000 F 
ATOM     51  C38 UNL A   1      61.081  21.235  20.216  1.00  0.00    +0.000 C 
ATOM     52  F8  UNL A   1      61.909  21.480  21.240  1.00  0.00    +0.000 F 
ATOM     53  C39 UNL A   1      60.348  20.057  20.183  1.00  0.00    +0.000 C 
ATOM     54  F9  UNL A   1      60.456  19.173  21.185  1.00  0.00    +0.000 F 
ATOM     55  C40 UNL A   1      59.502  19.792  19.110  1.00  0.00    +0.000 C 
ATOM     56  F10 UNL A   1      58.815  18.640  19.100  1.00  0.00    +0.000 F 
ENDBRANCH   45   46
BRANCH   60   61
ATOM     65  F12 UNL A   1      51.461  25.900  17.301  1.00  0.00    +0.000 F 
ATOM     66  C47 UNL A   1      50.803  23.939  18.440  1.00  0.00    +0.000 C 
ATOM     67  F13 UNL A   1      49.897  24.633  19.142  1.00  0.00    +0.000 F 
ATOM     68  C48 UNL A   1      50.957  22.578  18.657  1.00  0.00    +0.000 C 
ATOM     69  F14 UNL A   1      50.187  21.952  19.558  1.00  0.00    +0.000 F 
ATOM     70  C49 UNL A   1      51.910  21.859  17.938  1.00  0.00    +0.000 C 
ATOM     71  F15 UNL A   1      52.044  20.545  18.173  1.00  0.00    +0.000 F 
ATOM     61  C44 UNL A   1      52.710  22.485  16.971  1.00  0.00    +0.000 C 
ATOM     62  C45 UNL A   1      52.528  23.858  16.762  1.00  0.00    +0.000 C 
ATOM     63  F11 UNL A   1      53.284  24.503  15.861  1.00  0.00    +0.000 F 
ATOM     64  C46 UNL A   1      51.592  24.580  17.497  1.00  0.00    +0.000 C 
ENDBRANCH   60   61
TORSDOF 21
ENDMDL
MODEL 6
REMARK VINA RESULT:      -8.3     34.528     38.257
ROOT
ATOM     24  C20 UNL A   1      46.521  50.569  18.137  1.00  0.00    +0.000 C 
ATOM     25  C21 UNL A   1      47.468  50.010  19.160  1.00  0.00    +0.000 C 
ATOM     26  N3  UNL A   1      48.558  50.540  19.656  1.00  0.00    +0.000 N 
ATOM     27  C22 UNL A   1      49.025  49.632  20.597  1.00  0.00    +0.000 C 
ATOM     28  C23 UNL A   1      50.152  49.695  21.346  1.00  0.00    +0.000 C 
ATOM     40  C30 UNL A   1      51.107  50.769  21.282  1.00  0.00    +0.000 C 
ATOM     41  C31 UNL A   1      52.315  50.892  21.945  1.00  0.00    +0.000 C 
ATOM     42  C32 UNL A   1      52.879  52.127  21.602  1.00  0.00    +0.000 C 
ATOM     43  C33 UNL A   1      52.043  52.753  20.693  1.00  0.00    +0.000 C 
ATOM     44  N4  UNL A   1      50.958  51.911  20.507  1.00  0.00    +0.000 N 
ATOM     45  C34 UNL A   1      52.218  54.026  20.041  1.00  0.00    +0.000 C 
ATOM     57  C41 UNL A   1      51.359  54.566  19.143  1.00  0.00    +0.000 C 
ATOM     58  N5  UNL A   1      50.167  54.049  18.656  1.00  0.00    +0.000 N 
ATOM     59  C42 UNL A   1      49.699  54.945  17.821  1.00  0.00    +0.000 C 
ATOM     60  C43 UNL A   1      48.450  54.902  16.987  1.00  0.00    +0.000 C 
ATOM     72  C50 UNL A   1      47.659  53.813  17.039  1.00  0.00    +0.000 C 
ATOM     73  C51 UNL A   1      46.423  53.626  16.285  1.00  0.00    +0.000 C 
ATOM     74  C52 UNL A   1      45.883  52.443  16.618  1.00  0.00    +0.000 C 
ATOM     75  C53 UNL A   1      46.753  51.775  17.586  1.00  0.00    +0.000 C 
ATOM     76  N6  UNL A   1      47.785  52.660  17.772  1.00  0.00    +0.000 N 
ATOM     77  C54 UNL A   1      50.534  56.148  17.701  1.00  0.00    +0.000 C 
ATOM     78  C55 UNL A   1      51.550  55.850  18.499  1.00  0.00    +0.000 C 
ATOM     79  C56 UNL A   1      48.077  48.539  20.636  1.00  0.00    +0.000 C 
ATOM     80  C57 UNL A   1      47.132  48.693  19.720  1.00  0.00    +0.000 C 
ATOM    118  H25 UNL A   1      52.729  50.195  22.584  1.00  0.00    +0.000 H 
ATOM    119  H26 UNL A   1      53.767  52.505  21.965  1.00  0.00    +0.000 H 
ATOM    120  H27 UNL A   1      50.195  52.095  19.914  1.00  0.00    +0.000 H 
ATOM    121  H28 UNL A   1      46.028  54.295  15.606  1.00  0.00    +0.000 H 
ATOM    122  H29 UNL A   1      44.995  52.065  16.250  1.00  0.00    +0.000 H 
ATOM    123  H30 UNL A   1      48.544  52.484  18.375  1.00  0.00    +0.000 H 
ATOM    124  H31 UNL A   1      50.372  57.000  17.143  1.00  0.00    +0.000 H 
ATOM    125  H32 UNL A   1      52.373  56.457  18.643  1.00  0.00    +0.000 H 
ATOM    126  H33 UNL A   1      48.130  47.744  21.291  1.00  0.00    +0.000 H 
ATOM    127  H34 UNL A   1      46.361  48.056  19.467  1.00  0.00    +0.000 H 
ENDROOT
BRANCH   24   23
ATOM    129  H36 UNL A   1      42.052  49.618  18.662  1.00  0.00    +0.000 H 
ATOM     81  C58 UNL A   1      44.084  50.133  18.438  1.00  0.00    +0.000 C 
ATOM     82  C59 UNL A   1      42.918  49.439  18.129  1.00  0.00    +0.000 C 
ATOM     20  C16 UNL A   1      42.921  48.497  17.095  1.00  0.00    +0.000 C 
ATOM     21  C17 UNL A   1      44.115  48.170  16.447  1.00  0.00    +0.000 C 
ATOM    116  H23 UNL A   1      44.124  47.448  15.711  1.00  0.00    +0.000 H 
ATOM     22  C18 UNL A   1      45.298  48.823  16.802  1.00  0.00    +0.000 C 
ATOM    117  H24 UNL A   1      46.185  48.566  16.340  1.00  0.00    +0.000 H 
ATOM     23  C19 UNL A   1      45.286  49.828  17.782  1.00  0.00    +0.000 C 
ATOM    128  H35 UNL A   1      44.064  50.876  19.154  1.00  0.00    +0.000 H 
BRANCH   20   18
ATOM     18  C15 UNL A   1      41.676  47.806  16.690  1.00  0.00    +0.000 C 
ATOM     19  O2  UNL A   1      40.595  48.355  16.850  1.00  0.00    +0.000 O 
BRANCH   18   17
ATOM     17  N2  UNL A   1      41.739  46.550  16.135  1.00  0.00    +0.000 N 
ATOM    115  H22 UNL A   1      41.709  46.519  15.152  1.00  0.00    +0.000 H 
BRANCH   17   16
ATOM    113  H20 UNL A   1      41.299  44.534  16.237  1.00  0.00    +0.000 H 
ATOM    114  H21 UNL A   1      42.881  45.004  16.861  1.00  0.00    +0.000 H 
ATOM     16  C14 UNL A   1      41.845  45.262  16.800  1.00  0.00    +0.000 C 
BRANCH   16   15
ATOM    111  H18 UNL A   1      41.975  45.847  18.834  1.00  0.00    +0.000 H 
ATOM     15  C13 UNL A   1      41.285  45.307  18.220  1.00  0.00    +0.000 C 
ATOM    112  H19 UNL A   1      40.326  45.776  18.153  1.00  0.00    +0.000 H 
BRANCH   15   14
ATOM    110  H17 UNL A   1      40.405  43.404  18.192  1.00  0.00    +0.000 H 
ATOM    109  H16 UNL A   1      40.635  44.087  19.830  1.00  0.00    +0.000 H 
ATOM     14  C12 UNL A   1      41.053  43.933  18.857  1.00  0.00    +0.000 C 
BRANCH   14   13
ATOM    107  H14 UNL A   1      42.173  42.180  18.423  1.00  0.00    +0.000 H 
ATOM    108  H15 UNL A   1      43.130  43.669  18.693  1.00  0.00    +0.000 H 
ATOM     13  C11 UNL A   1      42.307  43.063  19.012  1.00  0.00    +0.000 C 
BRANCH   13   12
ATOM    105  H12 UNL A   1      41.959  43.137  21.113  1.00  0.00    +0.000 H 
ATOM    106  H13 UNL A   1      42.518  41.568  20.488  1.00  0.00    +0.000 H 
ATOM     12  C10 UNL A   1      42.629  42.632  20.449  1.00  0.00    +0.000 C 
BRANCH   12   11
ATOM     11  C9  UNL A   1      44.063  42.946  20.882  1.00  0.00    +0.000 C 
ATOM    103  H10 UNL A   1      44.359  42.257  21.644  1.00  0.00    +0.000 H 
ATOM    104  H11 UNL A   1      44.707  42.857  20.032  1.00  0.00    +0.000 H 
BRANCH   11   10
ATOM     10  N1  UNL A   1      44.153  44.298  21.400  1.00  0.00    +0.000 N 
ATOM    102  H9  UNL A   1      43.600  44.466  22.198  1.00  0.00    +0.000 H 
BRANCH   10    8
ATOM      9  O1  UNL A   1      45.583  45.974  21.774  1.00  0.00    +0.000 O 
ATOM      8  C8  UNL A   1      44.867  45.371  20.975  1.00  0.00    +0.000 C 
BRANCH    8    7
ATOM    101  H8  UNL A   1      44.157  46.724  19.453  1.00  0.00    +0.000 H 
ATOM      7  C7  UNL A   1      44.746  45.888  19.594  1.00  0.00    +0.000 C 
BRANCH    7    6
ATOM    100  H7  UNL A   1      44.737  44.964  17.771  1.00  0.00    +0.000 H 
ATOM      6  C6  UNL A   1      45.336  45.364  18.510  1.00  0.00    +0.000 C 
BRANCH    6    5
ATOM    130  H37 UNL A   1      46.750  46.426  16.519  1.00  0.00    +0.000 H 
ATOM      3  C3  UNL A   1      49.016  44.573  19.005  1.00  0.00    +0.000 C 
ATOM      4  C4  UNL A   1      47.630  44.643  19.215  1.00  0.00    +0.000 C 
ATOM      5  C5  UNL A   1      46.794  45.329  18.323  1.00  0.00    +0.000 C 
ATOM     99  H6  UNL A   1      47.220  44.181  20.042  1.00  0.00    +0.000 H 
ATOM    136  H43 UNL A   1      50.585  45.182  17.729  1.00  0.00    +0.000 H 
ATOM     83  C60 UNL A   1      47.357  45.927  17.189  1.00  0.00    +0.000 C 
ATOM     84  C61 UNL A   1      48.738  45.854  16.956  1.00  0.00    +0.000 C 
ATOM     93  C69 UNL A   1      49.564  45.201  17.879  1.00  0.00    +0.000 C 
BRANCH    3    2
ATOM     97  H4  UNL A   1      49.962  44.354  20.877  1.00  0.00    +0.000 H 
ATOM      2  C2  UNL A   1      49.896  43.806  19.961  1.00  0.00    +0.000 C 
ATOM     98  H5  UNL A   1      49.451  42.844  20.105  1.00  0.00    +0.000 H 
BRANCH    2    1
ATOM      1  C1  UNL A   1      51.300  43.585  19.424  1.00  0.00    +0.000 C 
ATOM     94  H1  UNL A   1      52.012  44.016  20.097  1.00  0.00    +0.000 H 
ATOM     95  H2  UNL A   1      51.392  44.047  18.463  1.00  0.00    +0.000 H 
ATOM     96  H3  UNL A   1      51.487  42.535  19.333  1.00  0.00    +0.000 H 
ENDBRANCH    2    1
ENDBRANCH    3    2
BRANCH   84   85
ATOM     85  C62 UNL A   1      49.287  46.501  15.732  1.00  0.00    +0.000 C 
ATOM     86  O3  UNL A   1      49.826  45.815  14.868  1.00  0.00    +0.000 O 
BRANCH   85   87
ATOM    131  H38 UNL A   1      50.430  48.423  17.170  1.00  0.00    +0.000 H 
ATOM    132  H39 UNL A   1      50.347  50.826  16.829  1.00  0.00    +0.000 H 
ATOM    133  H40 UNL A   1      49.036  51.750  15.009  1.00  0.00    +0.000 H 
ATOM    134  H41 UNL A   1      47.776  50.281  13.548  1.00  0.00    +0.000 H 
ATOM    135  H42 UNL A   1      47.856  47.876  13.881  1.00  0.00    +0.000 H 
ATOM     87  C63 UNL A   1      49.184  47.966  15.524  1.00  0.00    +0.000 C 
ATOM     88  C64 UNL A   1      49.879  48.817  16.390  1.00  0.00    +0.000 C 
ATOM     89  C65 UNL A   1      49.825  50.198  16.200  1.00  0.00    +0.000 C 
ATOM     90  C66 UNL A   1      49.065  50.729  15.156  1.00  0.00    +0.000 C 
ATOM     91  C67 UNL A   1      48.345  49.884  14.311  1.00  0.00    +0.000 C 
ATOM     92  C68 UNL A   1      48.397  48.501  14.497  1.00  0.00    +0.000 C 
ENDBRANCH   85   87
ENDBRANCH   84   85
ENDBRANCH    6    5
ENDBRANCH    7    6
ENDBRANCH    8    7
ENDBRANCH   10    8
ENDBRANCH   11   10
ENDBRANCH   12   11
ENDBRANCH   13   12
ENDBRANCH   14   13
ENDBRANCH   15   14
ENDBRANCH   16   15
ENDBRANCH   17   16
ENDBRANCH   18   17
ENDBRANCH   20   18
ENDBRANCH   24   23
BRANCH   28   29
ATOM     33  F2  UNL A   1      51.787  45.181  22.332  1.00  0.00    +0.000 F 
ATOM     34  C27 UNL A   1      50.909  46.470  24.105  1.00  0.00    +0.000 C 
ATOM     35  F3  UNL A   1      51.132  45.465  24.965  1.00  0.00    +0.000 F 
ATOM     36  C28 UNL A   1      50.328  47.648  24.550  1.00  0.00    +0.000 C 
ATOM     37  F4  UNL A   1      50.008  47.789  25.844  1.00  0.00    +0.000 F 
ATOM     38  C29 UNL A   1      50.072  48.682  23.654  1.00  0.00    +0.000 C 
ATOM     39  F5  UNL A   1      49.494  49.803  24.111  1.00  0.00    +0.000 F 
ATOM     29  C24 UNL A   1      50.413  48.564  22.298  1.00  0.00    +0.000 C 
ATOM     30  C25 UNL A   1      51.022  47.374  21.876  1.00  0.00    +0.000 C 
ATOM     31  F1  UNL A   1      51.357  47.205  20.587  1.00  0.00    +0.000 F 
ATOM     32  C26 UNL A   1      51.250  46.330  22.769  1.00  0.00    +0.000 C 
ENDBRANCH   28   29
BRANCH   45   46
ATOM     46  C35 UNL A   1      53.456  54.810  20.361  1.00  0.00    +0.000 C 
ATOM     47  C36 UNL A   1      54.619  54.692  19.587  1.00  0.00    +0.000 C 
ATOM     48  F6  UNL A   1      54.664  53.825  18.564  1.00  0.00    +0.000 F 
ATOM     49  C37 UNL A   1      55.755  55.439  19.886  1.00  0.00    +0.000 C 
ATOM     50  F7  UNL A   1      56.871  55.280  19.160  1.00  0.00    +0.000 F 
ATOM     51  C38 UNL A   1      55.740  56.338  20.943  1.00  0.00    +0.000 C 
ATOM     52  F8  UNL A   1      56.831  57.062  21.226  1.00  0.00    +0.000 F 
ATOM     53  C39 UNL A   1      54.593  56.483  21.711  1.00  0.00    +0.000 C 
ATOM     54  F9  UNL A   1      54.573  57.359  22.725  1.00  0.00    +0.000 F 
ATOM     55  C40 UNL A   1      53.465  55.718  21.431  1.00  0.00    +0.000 C 
ATOM     56  F10 UNL A   1      52.374  55.871  22.198  1.00  0.00    +0.000 F 
ENDBRANCH   45   46
BRANCH   60   61
ATOM     65  F12 UNL A   1      48.191  56.843  12.523  1.00  0.00    +0.000 F 
ATOM     66  C47 UNL A   1      47.410  58.127  14.344  1.00  0.00    +0.000 C 
ATOM     67  F13 UNL A   1      47.086  59.130  13.518  1.00  0.00    +0.000 F 
ATOM     68  C48 UNL A   1      47.197  58.254  15.709  1.00  0.00    +0.000 C 
ATOM     69  F14 UNL A   1      46.650  59.375  16.200  1.00  0.00    +0.000 F 
ATOM     70  C49 UNL A   1      47.548  57.217  16.571  1.00  0.00    +0.000 C 
ATOM     71  F15 UNL A   1      47.338  57.369  17.887  1.00  0.00    +0.000 F 
ATOM     61  C44 UNL A   1      48.098  56.024  16.081  1.00  0.00    +0.000 C 
ATOM     62  C45 UNL A   1      48.292  55.915  14.697  1.00  0.00    +0.000 C 
ATOM     63  F11 UNL A   1      48.833  54.799  14.184  1.00  0.00    +0.000 F 
ATOM     64  C46 UNL A   1      47.963  56.960  13.839  1.00  0.00    +0.000 C 
ENDBRANCH   60   61
TORSDOF 21
ENDMDL
MODEL 7
REMARK VINA RESULT:      -8.3     38.053     42.301
ROOT
ATOM     24  C20 UNL A   1      41.407  26.600  27.617  1.00  0.00    +0.000 C 
ATOM     25  C21 UNL A   1      42.832  26.871  27.224  1.00  0.00    +0.000 C 
ATOM     26  N3  UNL A   1      43.584  27.908  27.498  1.00  0.00    +0.000 N 
ATOM     27  C22 UNL A   1      44.825  27.631  26.941  1.00  0.00    +0.000 C 
ATOM     28  C23 UNL A   1      45.928  28.416  26.905  1.00  0.00    +0.000 C 
ATOM     40  C30 UNL A   1      45.999  29.740  27.464  1.00  0.00    +0.000 C 
ATOM     41  C31 UNL A   1      47.046  30.642  27.418  1.00  0.00    +0.000 C 
ATOM     42  C32 UNL A   1      46.672  31.785  28.136  1.00  0.00    +0.000 C 
ATOM     43  C33 UNL A   1      45.376  31.610  28.593  1.00  0.00    +0.000 C 
ATOM     44  N4  UNL A   1      44.976  30.349  28.177  1.00  0.00    +0.000 N 
ATOM     45  C34 UNL A   1      44.562  32.522  29.356  1.00  0.00    +0.000 C 
ATOM     57  C41 UNL A   1      43.287  32.283  29.751  1.00  0.00    +0.000 C 
ATOM     58  N5  UNL A   1      42.499  31.164  29.528  1.00  0.00    +0.000 N 
ATOM     59  C42 UNL A   1      41.354  31.406  30.117  1.00  0.00    +0.000 C 
ATOM     60  C43 UNL A   1      40.119  30.550  30.178  1.00  0.00    +0.000 C 
ATOM     72  C50 UNL A   1      40.110  29.361  29.546  1.00  0.00    +0.000 C 
ATOM     73  C51 UNL A   1      38.987  28.428  29.510  1.00  0.00    +0.000 C 
ATOM     74  C52 UNL A   1      39.351  27.333  28.823  1.00  0.00    +0.000 C 
ATOM     75  C53 UNL A   1      40.722  27.503  28.343  1.00  0.00    +0.000 C 
ATOM     76  N6  UNL A   1      41.090  28.738  28.813  1.00  0.00    +0.000 N 
ATOM     77  C54 UNL A   1      41.294  32.702  30.805  1.00  0.00    +0.000 C 
ATOM     78  C55 UNL A   1      42.484  33.212  30.520  1.00  0.00    +0.000 C 
ATOM     79  C56 UNL A   1      44.740  26.311  26.353  1.00  0.00    +0.000 C 
ATOM     80  C57 UNL A   1      43.511  25.825  26.444  1.00  0.00    +0.000 C 
ATOM    118  H25 UNL A   1      47.948  30.500  26.937  1.00  0.00    +0.000 H 
ATOM    119  H26 UNL A   1      47.261  32.616  28.297  1.00  0.00    +0.000 H 
ATOM    120  H27 UNL A   1      44.097  29.947  28.359  1.00  0.00    +0.000 H 
ATOM    121  H28 UNL A   1      38.065  28.585  29.944  1.00  0.00    +0.000 H 
ATOM    122  H29 UNL A   1      38.757  26.504  28.661  1.00  0.00    +0.000 H 
ATOM    123  H30 UNL A   1      41.974  29.138  28.643  1.00  0.00    +0.000 H 
ATOM    124  H31 UNL A   1      40.527  33.110  31.362  1.00  0.00    +0.000 H 
ATOM    125  H32 UNL A   1      42.798  34.152  30.811  1.00  0.00    +0.000 H 
ATOM    126  H33 UNL A   1      45.534  25.813  25.920  1.00  0.00    +0.000 H 
ATOM    127  H34 UNL A   1      43.129  24.944  26.066  1.00  0.00    +0.000 H 
ENDROOT
BRANCH   24   23
ATOM    129  H36 UNL A   1      38.232  24.074  25.451  1.00  0.00    +0.000 H 
ATOM     81  C58 UNL A   1      39.689  25.282  26.379  1.00  0.00    +0.000 C 
ATOM     82  C59 UNL A   1      39.072  24.078  26.052  1.00  0.00    +0.000 C 
ATOM     20  C16 UNL A   1      39.588  22.875  26.542  1.00  0.00    +0.000 C 
ATOM     21  C17 UNL A   1      40.654  22.885  27.447  1.00  0.00    +0.000 C 
ATOM    116  H23 UNL A   1      41.010  21.999  27.837  1.00  0.00    +0.000 H 
ATOM     22  C18 UNL A   1      41.233  24.099  27.822  1.00  0.00    +0.000 C 
ATOM    117  H24 UNL A   1      42.004  24.109  28.508  1.00  0.00    +0.000 H 
ATOM     23  C19 UNL A   1      40.772  25.305  27.270  1.00  0.00    +0.000 C 
ATOM    128  H35 UNL A   1      39.349  26.163  25.962  1.00  0.00    +0.000 H 
BRANCH   20   18
ATOM     18  C15 UNL A   1      39.002  21.575  26.143  1.00  0.00    +0.000 C 
ATOM     19  O2  UNL A   1      39.696  20.568  26.144  1.00  0.00    +0.000 O 
BRANCH   18   17
ATOM     17  N2  UNL A   1      37.680  21.504  25.775  1.00  0.00    +0.000 N 
ATOM    115  H22 UNL A   1      37.030  21.718  26.483  1.00  0.00    +0.000 H 
BRANCH   17   16
ATOM    113  H20 UNL A   1      37.809  20.556  23.944  1.00  0.00    +0.000 H 
ATOM    114  H21 UNL A   1      36.196  20.628  24.655  1.00  0.00    +0.000 H 
ATOM     16  C14 UNL A   1      37.109  21.158  24.483  1.00  0.00    +0.000 C 
BRANCH   16   15
ATOM    111  H18 UNL A   1      37.477  23.169  23.922  1.00  0.00    +0.000 H 
ATOM     15  C13 UNL A   1      36.785  22.399  23.654  1.00  0.00    +0.000 C 
ATOM    112  H19 UNL A   1      36.859  22.106  22.628  1.00  0.00    +0.000 H 
BRANCH   15   14
ATOM    110  H17 UNL A   1      34.897  22.298  24.562  1.00  0.00    +0.000 H 
ATOM    109  H16 UNL A   1      34.882  22.950  22.895  1.00  0.00    +0.000 H 
ATOM     14  C12 UNL A   1      35.366  22.943  23.849  1.00  0.00    +0.000 C 
BRANCH   14   13
ATOM    107  H14 UNL A   1      36.275  24.753  24.491  1.00  0.00    +0.000 H 
ATOM    108  H15 UNL A   1      34.638  24.911  23.783  1.00  0.00    +0.000 H 
ATOM     13  C11 UNL A   1      35.282  24.357  24.435  1.00  0.00    +0.000 C 
BRANCH   13   12
ATOM    105  H12 UNL A   1      35.264  25.089  26.436  1.00  0.00    +0.000 H 
ATOM    106  H13 UNL A   1      33.663  24.831  25.705  1.00  0.00    +0.000 H 
ATOM     12  C10 UNL A   1      34.654  24.450  25.832  1.00  0.00    +0.000 C 
BRANCH   12   11
ATOM     11  C9  UNL A   1      34.523  23.100  26.540  1.00  0.00    +0.000 C 
ATOM    103  H10 UNL A   1      34.686  22.314  25.833  1.00  0.00    +0.000 H 
ATOM    104  H11 UNL A   1      35.251  23.048  27.323  1.00  0.00    +0.000 H 
BRANCH   11   10
ATOM     10  N1  UNL A   1      33.201  22.955  27.119  1.00  0.00    +0.000 N 
ATOM    102  H9  UNL A   1      33.175  23.036  28.100  1.00  0.00    +0.000 H 
BRANCH   10    8
ATOM      9  O1  UNL A   1      31.874  21.803  25.738  1.00  0.00    +0.000 O 
ATOM      8  C8  UNL A   1      31.994  22.728  26.541  1.00  0.00    +0.000 C 
BRANCH    8    7
ATOM    101  H8  UNL A   1      30.505  23.702  27.760  1.00  0.00    +0.000 H 
ATOM      7  C7  UNL A   1      30.836  23.616  26.786  1.00  0.00    +0.000 C 
BRANCH    7    6
ATOM    100  H7  UNL A   1      29.150  24.251  25.821  1.00  0.00    +0.000 H 
ATOM      6  C6  UNL A   1      30.179  24.317  25.851  1.00  0.00    +0.000 C 
BRANCH    6    5
ATOM    130  H37 UNL A   1      30.238  26.979  25.777  1.00  0.00    +0.000 H 
ATOM      3  C3  UNL A   1      32.137  25.459  22.806  1.00  0.00    +0.000 C 
ATOM      4  C4  UNL A   1      31.537  24.634  23.769  1.00  0.00    +0.000 C 
ATOM      5  C5  UNL A   1      30.853  25.176  24.866  1.00  0.00    +0.000 C 
ATOM     99  H6  UNL A   1      31.600  23.608  23.667  1.00  0.00    +0.000 H 
ATOM    136  H43 UNL A   1      32.506  27.467  22.266  1.00  0.00    +0.000 H 
ATOM     83  C60 UNL A   1      30.748  26.567  24.979  1.00  0.00    +0.000 C 
ATOM     84  C61 UNL A   1      31.329  27.406  24.018  1.00  0.00    +0.000 C 
ATOM     93  C69 UNL A   1      32.044  26.849  22.951  1.00  0.00    +0.000 C 
BRANCH    3    2
ATOM     97  H4  UNL A   1      33.897  24.861  21.808  1.00  0.00    +0.000 H 
ATOM      2  C2  UNL A   1      32.844  24.857  21.617  1.00  0.00    +0.000 C 
ATOM     98  H5  UNL A   1      32.468  23.863  21.490  1.00  0.00    +0.000 H 
BRANCH    2    1
ATOM      1  C1  UNL A   1      32.581  25.615  20.327  1.00  0.00    +0.000 C 
ATOM     94  H1  UNL A   1      33.268  25.287  19.574  1.00  0.00    +0.000 H 
ATOM     95  H2  UNL A   1      32.710  26.664  20.495  1.00  0.00    +0.000 H 
ATOM     96  H3  UNL A   1      31.579  25.428  20.000  1.00  0.00    +0.000 H 
ENDBRANCH    2    1
ENDBRANCH    3    2
BRANCH   84   85
ATOM     85  C62 UNL A   1      31.183  28.880  24.180  1.00  0.00    +0.000 C 
ATOM     86  O3  UNL A   1      32.097  29.535  24.673  1.00  0.00    +0.000 O 
BRANCH   85   87
ATOM    131  H38 UNL A   1      29.188  27.896  22.724  1.00  0.00    +0.000 H 
ATOM    132  H39 UNL A   1      27.126  28.984  22.042  1.00  0.00    +0.000 H 
ATOM    133  H40 UNL A   1      26.717  31.297  22.646  1.00  0.00    +0.000 H 
ATOM    134  H41 UNL A   1      28.380  32.542  23.899  1.00  0.00    +0.000 H 
ATOM    135  H42 UNL A   1      30.443  31.459  24.587  1.00  0.00    +0.000 H 
ATOM     87  C63 UNL A   1      29.952  29.583  23.744  1.00  0.00    +0.000 C 
ATOM     88  C64 UNL A   1      29.009  28.879  22.987  1.00  0.00    +0.000 C 
ATOM     89  C65 UNL A   1      27.828  29.506  22.589  1.00  0.00    +0.000 C 
ATOM     90  C66 UNL A   1      27.596  30.839  22.931  1.00  0.00    +0.000 C 
ATOM     91  C67 UNL A   1      28.550  31.553  23.658  1.00  0.00    +0.000 C 
ATOM     92  C68 UNL A   1      29.733  30.929  24.060  1.00  0.00    +0.000 C 
ENDBRANCH   85   87
ENDBRANCH   84   85
ENDBRANCH    6    5
ENDBRANCH    7    6
ENDBRANCH    8    7
ENDBRANCH   10    8
ENDBRANCH   11   10
ENDBRANCH   12   11
ENDBRANCH   13   12
ENDBRANCH   14   13
ENDBRANCH   15   14
ENDBRANCH   16   15
ENDBRANCH   17   16
ENDBRANCH   18   17
ENDBRANCH   20   18
ENDBRANCH   24   23
BRANCH   28   29
ATOM     33  F2  UNL A   1      50.343  26.292  27.063  1.00  0.00    +0.000 F 
ATOM     34  C27 UNL A   1      49.420  26.808  24.952  1.00  0.00    +0.000 C 
ATOM     35  F3  UNL A   1      50.508  26.319  24.340  1.00  0.00    +0.000 F 
ATOM     36  C28 UNL A   1      48.384  27.344  24.201  1.00  0.00    +0.000 C 
ATOM     37  F4  UNL A   1      48.464  27.356  22.863  1.00  0.00    +0.000 F 
ATOM     38  C29 UNL A   1      47.265  27.876  24.835  1.00  0.00    +0.000 C 
ATOM     39  F5  UNL A   1      46.287  28.403  24.083  1.00  0.00    +0.000 F 
ATOM     29  C24 UNL A   1      47.151  27.859  26.234  1.00  0.00    +0.000 C 
ATOM     30  C25 UNL A   1      48.199  27.290  26.971  1.00  0.00    +0.000 C 
ATOM     31  F1  UNL A   1      48.145  27.260  28.311  1.00  0.00    +0.000 F 
ATOM     32  C26 UNL A   1      49.331  26.785  26.335  1.00  0.00    +0.000 C 
ENDBRANCH   28   29
BRANCH   45   46
ATOM     46  C35 UNL A   1      45.157  33.848  29.724  1.00  0.00    +0.000 C 
ATOM     47  C36 UNL A   1      45.003  34.974  28.902  1.00  0.00    +0.000 C 
ATOM     48  F6  UNL A   1      44.359  34.871  27.730  1.00  0.00    +0.000 F 
ATOM     49  C37 UNL A   1      45.547  36.203  29.265  1.00  0.00    +0.000 C 
ATOM     50  F7  UNL A   1      45.426  37.256  28.445  1.00  0.00    +0.000 F 
ATOM     51  C38 UNL A   1      46.225  36.336  30.468  1.00  0.00    +0.000 C 
ATOM     52  F8  UNL A   1      46.743  37.521  30.820  1.00  0.00    +0.000 F 
ATOM     53  C39 UNL A   1      46.374  35.239  31.304  1.00  0.00    +0.000 C 
ATOM     54  F9  UNL A   1      47.020  35.369  32.471  1.00  0.00    +0.000 F 
ATOM     55  C40 UNL A   1      45.854  34.003  30.931  1.00  0.00    +0.000 C 
ATOM     56  F10 UNL A   1      46.023  32.957  31.754  1.00  0.00    +0.000 F 
ENDBRANCH   45   46
BRANCH   60   61
ATOM     65  F12 UNL A   1      37.471  30.953  34.249  1.00  0.00    +0.000 F 
ATOM     66  C47 UNL A   1      36.618  31.909  32.266  1.00  0.00    +0.000 C 
ATOM     67  F13 UNL A   1      35.528  32.331  32.919  1.00  0.00    +0.000 F 
ATOM     68  C48 UNL A   1      36.755  32.158  30.908  1.00  0.00    +0.000 C 
ATOM     69  F14 UNL A   1      35.805  32.839  30.253  1.00  0.00    +0.000 F 
ATOM     70  C49 UNL A   1      37.881  31.705  30.223  1.00  0.00    +0.000 C 
ATOM     71  F15 UNL A   1      37.986  31.953  28.910  1.00  0.00    +0.000 F 
ATOM     61  C44 UNL A   1      38.903  31.013  30.891  1.00  0.00    +0.000 C 
ATOM     62  C45 UNL A   1      38.747  30.783  32.264  1.00  0.00    +0.000 C 
ATOM     63  F11 UNL A   1      39.689  30.109  32.940  1.00  0.00    +0.000 F 
ATOM     64  C46 UNL A   1      37.611  31.216  32.942  1.00  0.00    +0.000 C 
ENDBRANCH   60   61
TORSDOF 21
ENDMDL
MODEL 8
REMARK VINA RESULT:      -8.3      1.230      2.749
ROOT
ATOM     24  C20 UNL A   1      14.022  53.856   4.916  1.00  0.00    +0.000 C 
ATOM     25  C21 UNL A   1      14.953  54.317   3.831  1.00  0.00    +0.000 C 
ATOM     26  N3  UNL A   1      15.445  53.643   2.821  1.00  0.00    +0.000 N 
ATOM     27  C22 UNL A   1      16.206  54.552   2.097  1.00  0.00    +0.000 C 
ATOM     28  C23 UNL A   1      16.961  54.332   0.995  1.00  0.00    +0.000 C 
ATOM     40  C30 UNL A   1      17.112  53.050   0.360  1.00  0.00    +0.000 C 
ATOM     41  C31 UNL A   1      17.909  52.708  -0.718  1.00  0.00    +0.000 C 
ATOM     42  C32 UNL A   1      17.696  51.355  -1.009  1.00  0.00    +0.000 C 
ATOM     43  C33 UNL A   1      16.798  50.844  -0.086  1.00  0.00    +0.000 C 
ATOM     44  N4  UNL A   1      16.445  51.895   0.746  1.00  0.00    +0.000 N 
ATOM     45  C34 UNL A   1      16.296  49.499   0.029  1.00  0.00    +0.000 C 
ATOM     57  C41 UNL A   1      15.428  49.070   0.978  1.00  0.00    +0.000 C 
ATOM     58  N5  UNL A   1      14.845  49.785   2.014  1.00  0.00    +0.000 N 
ATOM     59  C42 UNL A   1      14.075  48.936   2.650  1.00  0.00    +0.000 C 
ATOM     60  C43 UNL A   1      13.222  49.157   3.868  1.00  0.00    +0.000 C 
ATOM     72  C50 UNL A   1      13.213  50.369   4.455  1.00  0.00    +0.000 C 
ATOM     73  C51 UNL A   1      12.444  50.731   5.642  1.00  0.00    +0.000 C 
ATOM     74  C52 UNL A   1      12.649  52.029   5.916  1.00  0.00    +0.000 C 
ATOM     75  C53 UNL A   1      13.589  52.582   4.942  1.00  0.00    +0.000 C 
ATOM     76  N6  UNL A   1      13.875  51.523   4.117  1.00  0.00    +0.000 N 
ATOM     77  C54 UNL A   1      14.062  47.586   2.071  1.00  0.00    +0.000 C 
ATOM     78  C55 UNL A   1      14.931  47.713   1.077  1.00  0.00    +0.000 C 
ATOM     79  C56 UNL A   1      16.075  55.834   2.757  1.00  0.00    +0.000 C 
ATOM     80  C57 UNL A   1      15.365  55.728   3.870  1.00  0.00    +0.000 C 
ATOM    118  H25 UNL A   1      18.551  53.340  -1.221  1.00  0.00    +0.000 H 
ATOM    119  H26 UNL A   1      18.134  50.827  -1.779  1.00  0.00    +0.000 H 
ATOM    120  H27 UNL A   1      15.816  51.833   1.499  1.00  0.00    +0.000 H 
ATOM    121  H28 UNL A   1      11.840  50.092   6.182  1.00  0.00    +0.000 H 
ATOM    122  H29 UNL A   1      12.211  52.553   6.691  1.00  0.00    +0.000 H 
ATOM    123  H30 UNL A   1      14.496  51.586   3.355  1.00  0.00    +0.000 H 
ATOM    124  H31 UNL A   1      13.521  46.757   2.361  1.00  0.00    +0.000 H 
ATOM    125  H32 UNL A   1      15.216  46.941   0.452  1.00  0.00    +0.000 H 
ATOM    126  H33 UNL A   1      16.482  56.715   2.406  1.00  0.00    +0.000 H 
ATOM    127  H34 UNL A   1      15.155  56.447   4.580  1.00  0.00    +0.000 H 
ENDROOT
BRANCH   24   23
ATOM    129  H36 UNL A   1      14.487  56.374   8.737  1.00  0.00    +0.000 H 
ATOM     81  C58 UNL A   1      14.353  55.233   6.969  1.00  0.00    +0.000 C 
ATOM     82  C59 UNL A   1      13.891  56.127   7.931  1.00  0.00    +0.000 C 
ATOM     20  C16 UNL A   1      12.618  56.690   7.804  1.00  0.00    +0.000 C 
ATOM     21  C17 UNL A   1      11.765  56.274   6.778  1.00  0.00    +0.000 C 
ATOM    116  H23 UNL A   1      10.812  56.661   6.707  1.00  0.00    +0.000 H 
ATOM     22  C18 UNL A   1      12.208  55.329   5.849  1.00  0.00    +0.000 C 
ATOM    117  H24 UNL A   1      11.571  55.003   5.104  1.00  0.00    +0.000 H 
ATOM     23  C19 UNL A   1      13.515  54.821   5.923  1.00  0.00    +0.000 C 
ATOM    128  H35 UNL A   1      15.318  54.871   7.026  1.00  0.00    +0.000 H 
BRANCH   20   18
ATOM     18  C15 UNL A   1      12.134  57.706   8.766  1.00  0.00    +0.000 C 
ATOM     19  O2  UNL A   1      12.378  58.889   8.576  1.00  0.00    +0.000 O 
BRANCH   18   17
ATOM     17  N2  UNL A   1      11.412  57.317   9.869  1.00  0.00    +0.000 N 
ATOM    115  H22 UNL A   1      11.232  58.024  10.529  1.00  0.00    +0.000 H 
BRANCH   17   16
ATOM    113  H20 UNL A   1       9.874  56.118  10.549  1.00  0.00    +0.000 H 
ATOM    114  H21 UNL A   1      10.907  55.406   9.308  1.00  0.00    +0.000 H 
ATOM     16  C14 UNL A   1      10.876  56.005  10.194  1.00  0.00    +0.000 C 
BRANCH   16   15
ATOM    111  H18 UNL A   1      12.188  56.052  11.859  1.00  0.00    +0.000 H 
ATOM     15  C13 UNL A   1      11.704  55.303  11.268  1.00  0.00    +0.000 C 
ATOM    112  H19 UNL A   1      11.021  54.700  11.830  1.00  0.00    +0.000 H 
BRANCH   15   14
ATOM    110  H17 UNL A   1      13.376  54.074  11.567  1.00  0.00    +0.000 H 
ATOM    109  H16 UNL A   1      13.322  54.872   9.965  1.00  0.00    +0.000 H 
ATOM     14  C12 UNL A   1      12.777  54.354  10.727  1.00  0.00    +0.000 C 
BRANCH   14   13
ATOM    107  H14 UNL A   1      11.999  52.387  10.932  1.00  0.00    +0.000 H 
ATOM    108  H15 UNL A   1      11.411  53.314   9.518  1.00  0.00    +0.000 H 
ATOM     13  C11 UNL A   1      12.250  53.045  10.126  1.00  0.00    +0.000 C 
BRANCH   13   12
ATOM    105  H12 UNL A   1      13.159  51.261   9.396  1.00  0.00    +0.000 H 
ATOM    106  H13 UNL A   1      12.954  52.558   8.195  1.00  0.00    +0.000 H 
ATOM     12  C10 UNL A   1      13.229  52.311   9.199  1.00  0.00    +0.000 C 
BRANCH   12   11
ATOM     11  C9  UNL A   1      14.687  52.737   9.379  1.00  0.00    +0.000 C 
ATOM    103  H10 UNL A   1      14.744  53.806   9.379  1.00  0.00    +0.000 H 
ATOM    104  H11 UNL A   1      15.049  52.349  10.308  1.00  0.00    +0.000 H 
BRANCH   11   10
ATOM     10  N1  UNL A   1      15.507  52.216   8.302  1.00  0.00    +0.000 N 
ATOM    102  H9  UNL A   1      15.752  52.882   7.619  1.00  0.00    +0.000 H 
BRANCH   10    8
ATOM      9  O1  UNL A   1      15.492  50.279   7.188  1.00  0.00    +0.000 O 
ATOM      8  C8  UNL A   1      15.993  50.970   8.074  1.00  0.00    +0.000 C 
BRANCH    8    7
ATOM    101  H8  UNL A   1      18.036  50.591   8.655  1.00  0.00    +0.000 H 
ATOM      7  C7  UNL A   1      17.059  50.385   8.918  1.00  0.00    +0.000 C 
BRANCH    7    6
ATOM    100  H7  UNL A   1      17.666  49.080  10.369  1.00  0.00    +0.000 H 
ATOM      6  C6  UNL A   1      16.863  49.610   9.994  1.00  0.00    +0.000 C 
BRANCH    6    5
ATOM    130  H37 UNL A   1      14.972  47.791   9.542  1.00  0.00    +0.000 H 
ATOM      3  C3  UNL A   1      13.887  50.286  12.251  1.00  0.00    +0.000 C 
ATOM      4  C4  UNL A   1      15.149  50.391  11.647  1.00  0.00    +0.000 C 
ATOM      5  C5  UNL A   1      15.563  49.478  10.667  1.00  0.00    +0.000 C 
ATOM     99  H6  UNL A   1      15.784  51.154  11.929  1.00  0.00    +0.000 H 
ATOM    136  H43 UNL A   1      12.111  49.144  12.318  1.00  0.00    +0.000 H 
ATOM     83  C60 UNL A   1      14.683  48.463  10.270  1.00  0.00    +0.000 C 
ATOM     84  C61 UNL A   1      13.412  48.354  10.854  1.00  0.00    +0.000 C 
ATOM     93  C69 UNL A   1      13.031  49.249  11.860  1.00  0.00    +0.000 C 
BRANCH    3    2
ATOM     97  H4  UNL A   1      12.492  51.682  12.997  1.00  0.00    +0.000 H 
ATOM      2  C2  UNL A   1      13.449  51.296  13.283  1.00  0.00    +0.000 C 
ATOM     98  H5  UNL A   1      13.408  50.794  14.227  1.00  0.00    +0.000 H 
BRANCH    2    1
ATOM      1  C1  UNL A   1      14.419  52.457  13.424  1.00  0.00    +0.000 C 
ATOM     94  H1  UNL A   1      13.875  53.379  13.422  1.00  0.00    +0.000 H 
ATOM     95  H2  UNL A   1      15.109  52.448  12.605  1.00  0.00    +0.000 H 
ATOM     96  H3  UNL A   1      14.958  52.362  14.344  1.00  0.00    +0.000 H 
ENDBRANCH    2    1
ENDBRANCH    3    2
BRANCH   84   85
ATOM     85  C62 UNL A   1      12.511  47.262  10.391  1.00  0.00    +0.000 C 
ATOM     86  O3  UNL A   1      12.732  46.102  10.729  1.00  0.00    +0.000 O 
BRANCH   85   87
ATOM    131  H38 UNL A   1      12.118  49.381   8.834  1.00  0.00    +0.000 H 
ATOM    132  H39 UNL A   1      10.243  49.859   7.367  1.00  0.00    +0.000 H 
ATOM    133  H40 UNL A   1       8.373  48.318   7.244  1.00  0.00    +0.000 H 
ATOM    134  H41 UNL A   1       8.353  46.316   8.613  1.00  0.00    +0.000 H 
ATOM    135  H42 UNL A   1      10.227  45.829  10.081  1.00  0.00    +0.000 H 
ATOM     87  C63 UNL A   1      11.333  47.547   9.536  1.00  0.00    +0.000 C 
ATOM     88  C64 UNL A   1      11.325  48.721   8.776  1.00  0.00    +0.000 C 
ATOM     89  C65 UNL A   1      10.244  49.000   7.938  1.00  0.00    +0.000 C 
ATOM     90  C66 UNL A   1       9.166  48.116   7.873  1.00  0.00    +0.000 C 
ATOM     91  C67 UNL A   1       9.157  46.961   8.655  1.00  0.00    +0.000 C 
ATOM     92  C68 UNL A   1      10.237  46.677   9.494  1.00  0.00    +0.000 C 
ENDBRANCH   85   87
ENDBRANCH   84   85
ENDBRANCH    6    5
ENDBRANCH    7    6
ENDBRANCH    8    7
ENDBRANCH   10    8
ENDBRANCH   11   10
ENDBRANCH   12   11
ENDBRANCH   13   12
ENDBRANCH   14   13
ENDBRANCH   15   14
ENDBRANCH   16   15
ENDBRANCH   17   16
ENDBRANCH   18   17
ENDBRANCH   20   18
ENDBRANCH   24   23
BRANCH   28   29
ATOM     33  F2  UNL A   1      20.801  57.371   0.801  1.00  0.00    +0.000 F 
ATOM     34  C27 UNL A   1      19.029  57.703  -0.723  1.00  0.00    +0.000 C 
ATOM     35  F3  UNL A   1      19.663  58.759  -1.253  1.00  0.00    +0.000 F 
ATOM     36  C28 UNL A   1      17.785  57.325  -1.207  1.00  0.00    +0.000 C 
ATOM     37  F4  UNL A   1      17.226  58.005  -2.218  1.00  0.00    +0.000 F 
ATOM     38  C29 UNL A   1      17.113  56.245  -0.641  1.00  0.00    +0.000 C 
ATOM     39  F5  UNL A   1      15.904  55.915  -1.119  1.00  0.00    +0.000 F 
ATOM     29  C24 UNL A   1      17.685  55.508   0.407  1.00  0.00    +0.000 C 
ATOM     30  C25 UNL A   1      18.955  55.893   0.863  1.00  0.00    +0.000 C 
ATOM     31  F1  UNL A   1      19.541  55.229   1.871  1.00  0.00    +0.000 F 
ATOM     32  C26 UNL A   1      19.611  56.992   0.314  1.00  0.00    +0.000 C 
ENDBRANCH   28   29
BRANCH   45   46
ATOM     46  C35 UNL A   1      16.785  48.484  -0.961  1.00  0.00    +0.000 C 
ATOM     47  C36 UNL A   1      17.970  47.765  -0.748  1.00  0.00    +0.000 C 
ATOM     48  F6  UNL A   1      18.726  48.013   0.332  1.00  0.00    +0.000 F 
ATOM     49  C37 UNL A   1      18.402  46.813  -1.668  1.00  0.00    +0.000 C 
ATOM     50  F7  UNL A   1      19.559  46.168  -1.469  1.00  0.00    +0.000 F 
ATOM     51  C38 UNL A   1      17.644  46.542  -2.798  1.00  0.00    +0.000 C 
ATOM     52  F8  UNL A   1      18.058  45.621  -3.679  1.00  0.00    +0.000 F 
ATOM     53  C39 UNL A   1      16.460  47.230  -3.018  1.00  0.00    +0.000 C 
ATOM     54  F9  UNL A   1      15.721  46.961  -4.104  1.00  0.00    +0.000 F 
ATOM     55  C40 UNL A   1      16.039  48.201  -2.114  1.00  0.00    +0.000 C 
ATOM     56  F10 UNL A   1      14.895  48.858  -2.359  1.00  0.00    +0.000 F 
ENDBRANCH   45   46
BRANCH   60   61
ATOM     65  F12 UNL A   1      12.634  45.622   7.171  1.00  0.00    +0.000 F 
ATOM     66  C47 UNL A   1      10.912  45.971   5.593  1.00  0.00    +0.000 C 
ATOM     67  F13 UNL A   1      10.194  44.978   6.133  1.00  0.00    +0.000 F 
ATOM     68  C48 UNL A   1      10.424  46.666   4.496  1.00  0.00    +0.000 C 
ATOM     69  F14 UNL A   1       9.223  46.354   3.987  1.00  0.00    +0.000 F 
ATOM     70  C49 UNL A   1      11.177  47.688   3.923  1.00  0.00    +0.000 C 
ATOM     71  F15 UNL A   1      10.684  48.339   2.859  1.00  0.00    +0.000 F 
ATOM     61  C44 UNL A   1      12.424  48.051   4.453  1.00  0.00    +0.000 C 
ATOM     62  C45 UNL A   1      12.891  47.343   5.568  1.00  0.00    +0.000 C 
ATOM     63  F11 UNL A   1      14.087  47.642   6.097  1.00  0.00    +0.000 F 
ATOM     64  C46 UNL A   1      12.148  46.306   6.125  1.00  0.00    +0.000 C 
ENDBRANCH   60   61
TORSDOF 21
ENDMDL
MODEL 9
REMARK VINA RESULT:      -8.3     47.971     52.709
ROOT
ATOM     24  C20 UNL A   1      53.308  19.660  11.596  1.00  0.00    +0.000 C 
ATOM     25  C21 UNL A   1      54.664  19.029  11.448  1.00  0.00    +0.000 C 
ATOM     26  N3  UNL A   1      55.670  19.023  12.286  1.00  0.00    +0.000 N 
ATOM     27  C22 UNL A   1      56.660  18.260  11.681  1.00  0.00    +0.000 C 
ATOM     28  C23 UNL A   1      57.913  17.999  12.122  1.00  0.00    +0.000 C 
ATOM     40  C30 UNL A   1      58.459  18.500  13.355  1.00  0.00    +0.000 C 
ATOM     41  C31 UNL A   1      59.739  18.352  13.858  1.00  0.00    +0.000 C 
ATOM     42  C32 UNL A   1      59.793  18.977  15.110  1.00  0.00    +0.000 C 
ATOM     43  C33 UNL A   1      58.558  19.550  15.368  1.00  0.00    +0.000 C 
ATOM     44  N4  UNL A   1      57.748  19.247  14.285  1.00  0.00    +0.000 N 
ATOM     45  C34 UNL A   1      58.146  20.315  16.516  1.00  0.00    +0.000 C 
ATOM     57  C41 UNL A   1      56.918  20.862  16.688  1.00  0.00    +0.000 C 
ATOM     58  N5  UNL A   1      55.819  20.822  15.841  1.00  0.00    +0.000 N 
ATOM     59  C42 UNL A   1      54.868  21.486  16.452  1.00  0.00    +0.000 C 
ATOM     60  C43 UNL A   1      53.470  21.782  15.988  1.00  0.00    +0.000 C 
ATOM     72  C50 UNL A   1      53.072  21.351  14.776  1.00  0.00    +0.000 C 
ATOM     73  C51 UNL A   1      51.753  21.568  14.189  1.00  0.00    +0.000 C 
ATOM     74  C52 UNL A   1      51.704  20.966  12.990  1.00  0.00    +0.000 C 
ATOM     75  C53 UNL A   1      53.000  20.349  12.711  1.00  0.00    +0.000 C 
ATOM     76  N6  UNL A   1      53.752  20.634  13.823  1.00  0.00    +0.000 N 
ATOM     77  C54 UNL A   1      55.250  22.004  17.773  1.00  0.00    +0.000 C 
ATOM     78  C55 UNL A   1      56.520  21.627  17.852  1.00  0.00    +0.000 C 
ATOM     79  C56 UNL A   1      56.118  17.783  10.426  1.00  0.00    +0.000 C 
ATOM     80  C57 UNL A   1      54.912  18.284  10.205  1.00  0.00    +0.000 C 
ATOM    118  H25 UNL A   1      60.520  17.866  13.391  1.00  0.00    +0.000 H 
ATOM    119  H26 UNL A   1      60.614  19.006  15.734  1.00  0.00    +0.000 H 
ATOM    120  H27 UNL A   1      56.808  19.522  14.188  1.00  0.00    +0.000 H 
ATOM    121  H28 UNL A   1      50.983  22.097  14.626  1.00  0.00    +0.000 H 
ATOM    122  H29 UNL A   1      50.882  20.942  12.366  1.00  0.00    +0.000 H 
ATOM    123  H30 UNL A   1      54.689  20.350  13.927  1.00  0.00    +0.000 H 
ATOM    124  H31 UNL A   1      54.682  22.524  18.459  1.00  0.00    +0.000 H 
ATOM    125  H32 UNL A   1      57.144  21.851  18.643  1.00  0.00    +0.000 H 
ATOM    126  H33 UNL A   1      56.608  17.137   9.787  1.00  0.00    +0.000 H 
ATOM    127  H34 UNL A   1      54.304  18.178   9.378  1.00  0.00    +0.000 H 
ENDROOT
BRANCH   24   23
ATOM    129  H36 UNL A   1      50.861  21.097   7.977  1.00  0.00    +0.000 H 
ATOM     81  C58 UNL A   1      52.047  20.480   9.607  1.00  0.00    +0.000 C 
ATOM     82  C59 UNL A   1      51.075  20.321   8.624  1.00  0.00    +0.000 C 
ATOM     20  C16 UNL A   1      50.386  19.109   8.515  1.00  0.00    +0.000 C 
ATOM     21  C17 UNL A   1      50.590  18.098   9.458  1.00  0.00    +0.000 C 
ATOM    116  H23 UNL A   1      50.054  17.219   9.400  1.00  0.00    +0.000 H 
ATOM     22  C18 UNL A   1      51.523  18.283  10.482  1.00  0.00    +0.000 C 
ATOM    117  H24 UNL A   1      51.658  17.547  11.193  1.00  0.00    +0.000 H 
ATOM     23  C19 UNL A   1      52.277  19.465  10.548  1.00  0.00    +0.000 C 
ATOM    128  H35 UNL A   1      52.603  21.349   9.643  1.00  0.00    +0.000 H 
BRANCH   20   18
ATOM     18  C15 UNL A   1      49.406  18.884   7.428  1.00  0.00    +0.000 C 
ATOM     19  O2  UNL A   1      48.555  19.730   7.190  1.00  0.00    +0.000 O 
BRANCH   18   17
ATOM     17  N2  UNL A   1      49.456  17.726   6.689  1.00  0.00    +0.000 N 
ATOM    115  H22 UNL A   1      49.038  16.939   7.107  1.00  0.00    +0.000 H 
BRANCH   17   16
ATOM    113  H20 UNL A   1      50.049  16.454   5.174  1.00  0.00    +0.000 H 
ATOM    114  H21 UNL A   1      49.448  18.031   4.658  1.00  0.00    +0.000 H 
ATOM     16  C14 UNL A   1      50.039  17.504   5.376  1.00  0.00    +0.000 C 
BRANCH   16   15
ATOM    111  H18 UNL A   1      51.713  18.174   4.261  1.00  0.00    +0.000 H 
ATOM     15  C13 UNL A   1      51.469  18.035   5.292  1.00  0.00    +0.000 C 
ATOM    112  H19 UNL A   1      51.488  18.945   5.855  1.00  0.00    +0.000 H 
BRANCH   15   14
ATOM    110  H17 UNL A   1      53.192  16.852   5.121  1.00  0.00    +0.000 H 
ATOM    109  H16 UNL A   1      52.022  16.279   6.347  1.00  0.00    +0.000 H 
ATOM     14  C12 UNL A   1      52.526  17.117   5.914  1.00  0.00    +0.000 C 
BRANCH   14   13
ATOM    107  H14 UNL A   1      52.744  18.200   7.730  1.00  0.00    +0.000 H 
ATOM    108  H15 UNL A   1      54.009  16.979   7.394  1.00  0.00    +0.000 H 
ATOM     13  C11 UNL A   1      53.394  17.762   7.001  1.00  0.00    +0.000 C 
BRANCH   13   12
ATOM    105  H12 UNL A   1      54.107  19.091   5.496  1.00  0.00    +0.000 H 
ATOM    106  H13 UNL A   1      54.245  19.688   7.167  1.00  0.00    +0.000 H 
ATOM     12  C10 UNL A   1      54.357  18.851   6.508  1.00  0.00    +0.000 C 
BRANCH   12   11
ATOM     11  C9  UNL A   1      55.830  18.441   6.556  1.00  0.00    +0.000 C 
ATOM    103  H10 UNL A   1      56.061  18.070   7.533  1.00  0.00    +0.000 H 
ATOM    104  H11 UNL A   1      56.001  17.681   5.823  1.00  0.00    +0.000 H 
BRANCH   11   10
ATOM     10  N1  UNL A   1      56.684  19.577   6.264  1.00  0.00    +0.000 N 
ATOM    102  H9  UNL A   1      56.730  19.816   5.310  1.00  0.00    +0.000 H 
BRANCH   10    8
ATOM      9  O1  UNL A   1      58.558  20.704   6.724  1.00  0.00    +0.000 O 
ATOM      8  C8  UNL A   1      57.429  20.366   7.078  1.00  0.00    +0.000 C 
BRANCH    8    7
ATOM    101  H8  UNL A   1      57.475  20.402   9.235  1.00  0.00    +0.000 H 
ATOM      7  C7  UNL A   1      56.953  20.766   8.421  1.00  0.00    +0.000 C 
BRANCH    7    6
ATOM    100  H7  UNL A   1      55.244  21.760   7.903  1.00  0.00    +0.000 H 
ATOM      6  C6  UNL A   1      55.903  21.561   8.672  1.00  0.00    +0.000 C 
BRANCH    6    5
ATOM    130  H37 UNL A   1      53.760  22.944   9.437  1.00  0.00    +0.000 H 
ATOM      3  C3  UNL A   1      56.356  22.723  12.257  1.00  0.00    +0.000 C 
ATOM      4  C4  UNL A   1      56.590  22.104  11.020  1.00  0.00    +0.000 C 
ATOM      5  C5  UNL A   1      55.644  22.165   9.987  1.00  0.00    +0.000 C 
ATOM     99  H6  UNL A   1      57.475  21.594  10.867  1.00  0.00    +0.000 H 
ATOM    136  H43 UNL A   1      54.957  23.849  13.369  1.00  0.00    +0.000 H 
ATOM     83  C60 UNL A   1      54.460  22.883  10.193  1.00  0.00    +0.000 C 
ATOM     84  C61 UNL A   1      54.217  23.520  11.418  1.00  0.00    +0.000 C 
ATOM     93  C69 UNL A   1      55.154  23.414  12.454  1.00  0.00    +0.000 C 
BRANCH    3    2
ATOM     97  H4  UNL A   1      57.297  21.744  13.871  1.00  0.00    +0.000 H 
ATOM      2  C2  UNL A   1      57.398  22.670  13.346  1.00  0.00    +0.000 C 
ATOM     98  H5  UNL A   1      58.356  22.758  12.879  1.00  0.00    +0.000 H 
BRANCH    2    1
ATOM      1  C1  UNL A   1      57.270  23.810  14.343  1.00  0.00    +0.000 C 
ATOM     94  H1  UNL A   1      56.911  23.429  15.277  1.00  0.00    +0.000 H 
ATOM     95  H2  UNL A   1      56.582  24.538  13.967  1.00  0.00    +0.000 H 
ATOM     96  H3  UNL A   1      58.227  24.267  14.489  1.00  0.00    +0.000 H 
ENDBRANCH    2    1
ENDBRANCH    3    2
BRANCH   84   85
ATOM     85  C62 UNL A   1      52.945  24.278  11.585  1.00  0.00    +0.000 C 
ATOM     86  O3  UNL A   1      52.556  24.579  12.710  1.00  0.00    +0.000 O 
BRANCH   85   87
ATOM    131  H38 UNL A   1      53.197  26.502  10.150  1.00  0.00    +0.000 H 
ATOM    132  H39 UNL A   1      51.946  27.190   8.186  1.00  0.00    +0.000 H 
ATOM    133  H40 UNL A   1      50.155  25.792   7.335  1.00  0.00    +0.000 H 
ATOM    134  H41 UNL A   1      49.583  23.723   8.465  1.00  0.00    +0.000 H 
ATOM    135  H42 UNL A   1      50.832  23.027  10.430  1.00  0.00    +0.000 H 
ATOM     87  C63 UNL A   1      52.137  24.691  10.412  1.00  0.00    +0.000 C 
ATOM     88  C64 UNL A   1      52.439  25.903   9.783  1.00  0.00    +0.000 C 
ATOM     89  C65 UNL A   1      51.715  26.303   8.659  1.00  0.00    +0.000 C 
ATOM     90  C66 UNL A   1      50.681  25.501   8.173  1.00  0.00    +0.000 C 
ATOM     91  C67 UNL A   1      50.356  24.307   8.820  1.00  0.00    +0.000 C 
ATOM     92  C68 UNL A   1      51.079  23.903   9.945  1.00  0.00    +0.000 C 
ENDBRANCH   85   87
ENDBRANCH   84   85
ENDBRANCH    6    5
ENDBRANCH    7    6
ENDBRANCH    8    7
ENDBRANCH   10    8
ENDBRANCH   11   10
ENDBRANCH   12   11
ENDBRANCH   13   12
ENDBRANCH   14   13
ENDBRANCH   15   14
ENDBRANCH   16   15
ENDBRANCH   17   16
ENDBRANCH   18   17
ENDBRANCH   20   18
ENDBRANCH   24   23
BRANCH   28   29
ATOM     33  F2  UNL A   1      59.740  13.630  10.857  1.00  0.00    +0.000 F 
ATOM     34  C27 UNL A   1      60.406  15.527   9.618  1.00  0.00    +0.000 C 
ATOM     35  F3  UNL A   1      61.191  14.764   8.844  1.00  0.00    +0.000 F 
ATOM     36  C28 UNL A   1      60.343  16.897   9.408  1.00  0.00    +0.000 C 
ATOM     37  F4  UNL A   1      61.055  17.454   8.417  1.00  0.00    +0.000 F 
ATOM     38  C29 UNL A   1      59.549  17.694  10.227  1.00  0.00    +0.000 C 
ATOM     39  F5  UNL A   1      59.524  19.017  10.009  1.00  0.00    +0.000 F 
ATOM     29  C24 UNL A   1      58.784  17.131  11.259  1.00  0.00    +0.000 C 
ATOM     30  C25 UNL A   1      58.843  15.741  11.437  1.00  0.00    +0.000 C 
ATOM     31  F1  UNL A   1      58.139  15.155  12.418  1.00  0.00    +0.000 F 
ATOM     32  C26 UNL A   1      59.661  14.950  10.635  1.00  0.00    +0.000 C 
ENDBRANCH   28   29
BRANCH   45   46
ATOM     46  C35 UNL A   1      59.156  20.546  17.601  1.00  0.00    +0.000 C 
ATOM     47  C36 UNL A   1      59.333  19.628  18.646  1.00  0.00    +0.000 C 
ATOM     48  F6  UNL A   1      58.556  18.537  18.725  1.00  0.00    +0.000 F 
ATOM     49  C37 UNL A   1      60.287  19.848  19.635  1.00  0.00    +0.000 C 
ATOM     50  F7  UNL A   1      60.411  18.980  20.649  1.00  0.00    +0.000 F 
ATOM     51  C38 UNL A   1      61.099  20.971  19.584  1.00  0.00    +0.000 C 
ATOM     52  F8  UNL A   1      62.020  21.179  20.534  1.00  0.00    +0.000 F 
ATOM     53  C39 UNL A   1      60.951  21.884  18.549  1.00  0.00    +0.000 C 
ATOM     54  F9  UNL A   1      61.742  22.965  18.492  1.00  0.00    +0.000 F 
ATOM     55  C40 UNL A   1      59.981  21.680  17.572  1.00  0.00    +0.000 C 
ATOM     56  F10 UNL A   1      59.853  22.586  16.590  1.00  0.00    +0.000 F 
ENDBRANCH   45   46
BRANCH   60   61
ATOM     65  F12 UNL A   1      50.165  22.064  19.560  1.00  0.00    +0.000 F 
ATOM     66  C47 UNL A   1      50.785  24.057  18.454  1.00  0.00    +0.000 C 
ATOM     67  F13 UNL A   1      49.948  24.763  19.225  1.00  0.00    +0.000 F 
ATOM     68  C48 UNL A   1      51.533  24.693  17.474  1.00  0.00    +0.000 C 
ATOM     69  F14 UNL A   1      51.431  26.020  17.310  1.00  0.00    +0.000 F 
ATOM     70  C49 UNL A   1      52.392  23.957  16.661  1.00  0.00    +0.000 C 
ATOM     71  F15 UNL A   1      53.098  24.596  15.718  1.00  0.00    +0.000 F 
ATOM     61  C44 UNL A   1      52.537  22.572  16.830  1.00  0.00    +0.000 C 
ATOM     62  C45 UNL A   1      51.779  21.954  17.834  1.00  0.00    +0.000 C 
ATOM     63  F11 UNL A   1      51.870  20.628  18.018  1.00  0.00    +0.000 F 
ATOM     64  C46 UNL A   1      50.903  22.686  18.630  1.00  0.00    +0.000 C 
ENDBRANCH   60   61
TORSDOF 21
ENDMDL
MODEL 10
REMARK VINA RESULT:      -8.3     45.863     52.935
ROOT
ATOM     24  C20 UNL A   1       7.389   3.037  25.920  1.00  0.00    +0.000 C 
ATOM     25  C21 UNL A   1       8.546   3.358  26.824  1.00  0.00    +0.000 C 
ATOM     26  N3  UNL A   1       9.004   4.525  27.201  1.00  0.00    +0.000 N 
ATOM     27  C22 UNL A   1      10.051   4.256  28.073  1.00  0.00    +0.000 C 
ATOM     28  C23 UNL A   1      10.881   5.129  28.691  1.00  0.00    +0.000 C 
ATOM     40  C30 UNL A   1      10.816   6.558  28.534  1.00  0.00    +0.000 C 
ATOM     41  C31 UNL A   1      11.654   7.524  29.060  1.00  0.00    +0.000 C 
ATOM     42  C32 UNL A   1      11.173   8.780  28.672  1.00  0.00    +0.000 C 
ATOM     43  C33 UNL A   1      10.059   8.594  27.869  1.00  0.00    +0.000 C 
ATOM     44  N4  UNL A   1       9.849   7.226  27.796  1.00  0.00    +0.000 N 
ATOM     45  C34 UNL A   1       9.245   9.588  27.218  1.00  0.00    +0.000 C 
ATOM     57  C41 UNL A   1       8.176   9.324  26.428  1.00  0.00    +0.000 C 
ATOM     58  N5  UNL A   1       7.637   8.096  26.072  1.00  0.00    +0.000 N 
ATOM     59  C42 UNL A   1       6.608   8.363  25.305  1.00  0.00    +0.000 C 
ATOM     60  C43 UNL A   1       5.668   7.414  24.615  1.00  0.00    +0.000 C 
ATOM     72  C50 UNL A   1       5.860   6.087  24.743  1.00  0.00    +0.000 C 
ATOM     73  C51 UNL A   1       5.037   5.049  24.129  1.00  0.00    +0.000 C 
ATOM     74  C52 UNL A   1       5.500   3.846  24.506  1.00  0.00    +0.000 C 
ATOM     75  C53 UNL A   1       6.671   4.030  25.362  1.00  0.00    +0.000 C 
ATOM     76  N6  UNL A   1       6.815   5.392  25.442  1.00  0.00    +0.000 N 
ATOM     77  C54 UNL A   1       6.361   9.798  25.108  1.00  0.00    +0.000 C 
ATOM     78  C55 UNL A   1       7.366  10.338  25.783  1.00  0.00    +0.000 C 
ATOM     79  C56 UNL A   1      10.132   2.816  28.204  1.00  0.00    +0.000 C 
ATOM     80  C57 UNL A   1       9.267   2.213  27.402  1.00  0.00    +0.000 C 
ATOM    118  H25 UNL A   1      12.490   7.350  29.639  1.00  0.00    +0.000 H 
ATOM    119  H26 UNL A   1      11.579   9.690  28.937  1.00  0.00    +0.000 H 
ATOM    120  H27 UNL A   1       9.123   6.792  27.293  1.00  0.00    +0.000 H 
ATOM    121  H28 UNL A   1       4.231   5.213  23.507  1.00  0.00    +0.000 H 
ATOM    122  H29 UNL A   1       5.093   2.936  24.235  1.00  0.00    +0.000 H 
ATOM    123  H30 UNL A   1       7.534   5.829  25.954  1.00  0.00    +0.000 H 
ATOM    124  H31 UNL A   1       5.605  10.263  24.582  1.00  0.00    +0.000 H 
ATOM    125  H32 UNL A   1       7.548  11.352  25.842  1.00  0.00    +0.000 H 
ATOM    126  H33 UNL A   1      10.780   2.324  28.839  1.00  0.00    +0.000 H 
ATOM    127  H34 UNL A   1       9.134   1.205  27.228  1.00  0.00    +0.000 H 
ENDROOT
BRANCH   24   23
ATOM    129  H36 UNL A   1       5.154  -0.797  27.124  1.00  0.00    +0.000 H 
ATOM     81  C58 UNL A   1       6.116   1.005  26.603  1.00  0.00    +0.000 C 
ATOM     82  C59 UNL A   1       5.738  -0.322  26.418  1.00  0.00    +0.000 C 
ATOM     20  C16 UNL A   1       6.151  -1.011  25.274  1.00  0.00    +0.000 C 
ATOM     21  C17 UNL A   1       7.035  -0.409  24.373  1.00  0.00    +0.000 C 
ATOM    116  H23 UNL A   1       7.369  -0.931  23.549  1.00  0.00    +0.000 H 
ATOM     22  C18 UNL A   1       7.463   0.902  24.593  1.00  0.00    +0.000 C 
ATOM    117  H24 UNL A   1       8.134   1.339  23.941  1.00  0.00    +0.000 H 
ATOM     23  C19 UNL A   1       6.986   1.628  25.696  1.00  0.00    +0.000 C 
ATOM    128  H35 UNL A   1       5.754   1.534  27.413  1.00  0.00    +0.000 H 
BRANCH   20   18
ATOM     18  C15 UNL A   1       5.695  -2.395  25.011  1.00  0.00    +0.000 C 
ATOM     19  O2  UNL A   1       4.648  -2.794  25.499  1.00  0.00    +0.000 O 
BRANCH   18   17
ATOM     17  N2  UNL A   1       6.450  -3.226  24.218  1.00  0.00    +0.000 N 
ATOM    115  H22 UNL A   1       6.510  -2.968  23.270  1.00  0.00    +0.000 H 
BRANCH   17   16
ATOM    113  H20 UNL A   1       6.473  -5.223  24.743  1.00  0.00    +0.000 H 
ATOM    114  H21 UNL A   1       7.852  -4.667  23.795  1.00  0.00    +0.000 H 
ATOM     16  C14 UNL A   1       7.174  -4.431  24.587  1.00  0.00    +0.000 C 
BRANCH   16   15
ATOM    111  H18 UNL A   1       7.371  -3.740  26.582  1.00  0.00    +0.000 H 
ATOM     15  C13 UNL A   1       7.989  -4.236  25.864  1.00  0.00    +0.000 C 
ATOM    112  H19 UNL A   1       8.298  -5.211  26.178  1.00  0.00    +0.000 H 
BRANCH   15   14
ATOM    110  H17 UNL A   1       9.227  -3.015  24.692  1.00  0.00    +0.000 H 
ATOM    109  H16 UNL A   1      10.104  -4.059  25.851  1.00  0.00    +0.000 H 
ATOM     14  C12 UNL A   1       9.268  -3.413  25.683  1.00  0.00    +0.000 C 
BRANCH   14   13
ATOM    107  H14 UNL A   1       8.452  -1.727  26.688  1.00  0.00    +0.000 H 
ATOM    108  H15 UNL A   1       9.757  -2.594  27.554  1.00  0.00    +0.000 H 
ATOM     13  C11 UNL A   1       9.407  -2.206  26.620  1.00  0.00    +0.000 C 
BRANCH   13   12
ATOM    105  H12 UNL A   1      11.023  -1.565  25.388  1.00  0.00    +0.000 H 
ATOM    106  H13 UNL A   1       9.887  -0.287  25.881  1.00  0.00    +0.000 H 
ATOM     12  C10 UNL A   1      10.436  -1.155  26.183  1.00  0.00    +0.000 C 
BRANCH   12   11
ATOM     11  C9  UNL A   1      11.382  -0.715  27.302  1.00  0.00    +0.000 C 
ATOM    103  H10 UNL A   1      11.381   0.353  27.365  1.00  0.00    +0.000 H 
ATOM    104  H11 UNL A   1      11.047  -1.139  28.225  1.00  0.00    +0.000 H 
BRANCH   11   10
ATOM     10  N1  UNL A   1      12.732  -1.176  27.038  1.00  0.00    +0.000 N 
ATOM    102  H9  UNL A   1      12.902  -2.110  27.301  1.00  0.00    +0.000 H 
BRANCH   10    8
ATOM      9  O1  UNL A   1      14.264   0.450  27.048  1.00  0.00    +0.000 O 
ATOM      8  C8  UNL A   1      13.800  -0.543  26.490  1.00  0.00    +0.000 C 
BRANCH    8    7
ATOM    101  H8  UNL A   1      15.253  -0.516  24.896  1.00  0.00    +0.000 H 
ATOM      7  C7  UNL A   1      14.372  -0.965  25.192  1.00  0.00    +0.000 C 
BRANCH    7    6
ATOM    100  H7  UNL A   1      14.221  -2.841  24.394  1.00  0.00    +0.000 H 
ATOM      6  C6  UNL A   1      13.843  -1.881  24.367  1.00  0.00    +0.000 C 
BRANCH    6    5
ATOM    130  H37 UNL A   1      13.358   0.412  23.102  1.00  0.00    +0.000 H 
ATOM      3  C3  UNL A   1      10.704  -2.233  22.262  1.00  0.00    +0.000 C 
ATOM      4  C4  UNL A   1      11.769  -2.537  23.124  1.00  0.00    +0.000 C 
ATOM      5  C5  UNL A   1      12.753  -1.585  23.427  1.00  0.00    +0.000 C 
ATOM     99  H6  UNL A   1      11.829  -3.479  23.542  1.00  0.00    +0.000 H 
ATOM    136  H43 UNL A   1       9.867  -0.724  21.044  1.00  0.00    +0.000 H 
ATOM     83  C60 UNL A   1      12.646  -0.301  22.878  1.00  0.00    +0.000 C 
ATOM     84  C61 UNL A   1      11.580   0.024  22.027  1.00  0.00    +0.000 C 
ATOM     93  C69 UNL A   1      10.629  -0.952  21.702  1.00  0.00    +0.000 C 
BRANCH    3    2
ATOM     97  H4  UNL A   1       8.813  -3.093  22.629  1.00  0.00    +0.000 H 
ATOM      2  C2  UNL A   1       9.640  -3.262  21.971  1.00  0.00    +0.000 C 
ATOM     98  H5  UNL A   1       9.359  -3.152  20.945  1.00  0.00    +0.000 H 
BRANCH    2    1
ATOM      1  C1  UNL A   1      10.129  -4.688  22.161  1.00  0.00    +0.000 C 
ATOM     94  H1  UNL A   1      10.184  -4.910  23.207  1.00  0.00    +0.000 H 
ATOM     95  H2  UNL A   1      11.099  -4.795  21.722  1.00  0.00    +0.000 H 
ATOM     96  H3  UNL A   1       9.449  -5.365  21.688  1.00  0.00    +0.000 H 
ENDBRANCH    2    1
ENDBRANCH    3    2
BRANCH   84   85
ATOM     85  C62 UNL A   1      11.508   1.405  21.475  1.00  0.00    +0.000 C 
ATOM     86  O3  UNL A   1      12.469   1.872  20.869  1.00  0.00    +0.000 O 
BRANCH   85   87
ATOM    131  H38 UNL A   1      11.103   3.383  23.205  1.00  0.00    +0.000 H 
ATOM    132  H39 UNL A   1       9.151   4.808  23.451  1.00  0.00    +0.000 H 
ATOM    133  H40 UNL A   1       7.209   4.461  22.040  1.00  0.00    +0.000 H 
ATOM    134  H41 UNL A   1       7.195   2.668  20.406  1.00  0.00    +0.000 H 
ATOM    135  H42 UNL A   1       9.145   1.241  20.152  1.00  0.00    +0.000 H 
ATOM     87  C63 UNL A   1      10.287   2.233  21.630  1.00  0.00    +0.000 C 
ATOM     88  C64 UNL A   1      10.278   3.241  22.599  1.00  0.00    +0.000 C 
ATOM     89  C65 UNL A   1       9.154   4.055  22.746  1.00  0.00    +0.000 C 
ATOM     90  C66 UNL A   1       8.034   3.851  21.938  1.00  0.00    +0.000 C 
ATOM     91  C67 UNL A   1       8.029   2.824  20.993  1.00  0.00    +0.000 C 
ATOM     92  C68 UNL A   1       9.152   2.008  20.842  1.00  0.00    +0.000 C 
ENDBRANCH   85   87
ENDBRANCH   84   85
ENDBRANCH    6    5
ENDBRANCH    7    6
ENDBRANCH    8    7
ENDBRANCH   10    8
ENDBRANCH   11   10
ENDBRANCH   12   11
ENDBRANCH   13   12
ENDBRANCH   14   13
ENDBRANCH   15   14
ENDBRANCH   16   15
ENDBRANCH   17   16
ENDBRANCH   18   17
ENDBRANCH   20   18
ENDBRANCH   24   23
BRANCH   28   29
ATOM     33  F2  UNL A   1      12.734   4.262  33.145  1.00  0.00    +0.000 F 
ATOM     34  C27 UNL A   1      13.916   3.466  31.263  1.00  0.00    +0.000 C 
ATOM     35  F3  UNL A   1      14.868   2.957  32.058  1.00  0.00    +0.000 F 
ATOM     36  C28 UNL A   1      14.024   3.345  29.885  1.00  0.00    +0.000 C 
ATOM     37  F4  UNL A   1      15.072   2.702  29.350  1.00  0.00    +0.000 F 
ATOM     38  C29 UNL A   1      13.050   3.896  29.057  1.00  0.00    +0.000 C 
ATOM     39  F5  UNL A   1      13.192   3.778  27.728  1.00  0.00    +0.000 F 
ATOM     29  C24 UNL A   1      11.936   4.559  29.594  1.00  0.00    +0.000 C 
ATOM     30  C25 UNL A   1      11.835   4.647  30.990  1.00  0.00    +0.000 C 
ATOM     31  F1  UNL A   1      10.796   5.281  31.554  1.00  0.00    +0.000 F 
ATOM     32  C26 UNL A   1      12.826   4.121  31.815  1.00  0.00    +0.000 C 
ENDBRANCH   28   29
BRANCH   45   46
ATOM     46  C35 UNL A   1       9.617  11.029  27.407  1.00  0.00    +0.000 C 
ATOM     47  C36 UNL A   1       8.962  11.838  28.347  1.00  0.00    +0.000 C 
ATOM     48  F6  UNL A   1       7.941  11.347  29.066  1.00  0.00    +0.000 F 
ATOM     49  C37 UNL A   1       9.330  13.168  28.523  1.00  0.00    +0.000 C 
ATOM     50  F7  UNL A   1       8.662  13.937  29.395  1.00  0.00    +0.000 F 
ATOM     51  C38 UNL A   1      10.377  13.705  27.788  1.00  0.00    +0.000 C 
ATOM     52  F8  UNL A   1      10.734  14.985  27.964  1.00  0.00    +0.000 F 
ATOM     53  C39 UNL A   1      11.049  12.917  26.866  1.00  0.00    +0.000 C 
ATOM     54  F9  UNL A   1      12.068  13.432  26.163  1.00  0.00    +0.000 F 
ATOM     55  C40 UNL A   1      10.666  11.594  26.668  1.00  0.00    +0.000 C 
ATOM     56  F10 UNL A   1      11.328  10.859  25.761  1.00  0.00    +0.000 F 
ENDBRANCH   45   46
BRANCH   60   61
ATOM     65  F12 UNL A   1       1.075   8.962  24.102  1.00  0.00    +0.000 F 
ATOM     66  C47 UNL A   1       2.452   8.903  22.185  1.00  0.00    +0.000 C 
ATOM     67  F13 UNL A   1       1.448   9.367  21.430  1.00  0.00    +0.000 F 
ATOM     68  C48 UNL A   1       3.680   8.613  21.608  1.00  0.00    +0.000 C 
ATOM     69  F14 UNL A   1       3.867   8.815  20.296  1.00  0.00    +0.000 F 
ATOM     70  C49 UNL A   1       4.720   8.114  22.389  1.00  0.00    +0.000 C 
ATOM     71  F15 UNL A   1       5.894   7.836  21.805  1.00  0.00    +0.000 F 
ATOM     61  C44 UNL A   1       4.558   7.918  23.769  1.00  0.00    +0.000 C 
ATOM     62  C45 UNL A   1       3.312   8.229  24.331  1.00  0.00    +0.000 C 
ATOM     63  F11 UNL A   1       3.106   8.039  25.642  1.00  0.00    +0.000 F 
ATOM     64  C46 UNL A   1       2.267   8.705  23.545  1.00  0.00    +0.000 C 
ENDBRANCH   60   61
TORSDOF 21
ENDMDL
