MODEL 1
REMARK VINA RESULT:      -9.1      0.000      0.000
ROOT
ATOM    129  H36 UNL A   1      44.308  16.201  47.537  1.00  0.00    +0.000 H 
ATOM    130  H37 UNL A   1      43.719  14.620  49.462  1.00  0.00    +0.000 H 
ATOM     29  C25 UNL A   1      45.932  13.103  50.417  1.00  0.00    +0.000 C 
ATOM     30  C26 UNL A   1      45.945  14.198  49.388  1.00  0.00    +0.000 C 
ATOM     31  N3  UNL A   1      46.955  14.692  48.716  1.00  0.00    +0.000 N 
ATOM     32  C27 UNL A   1      46.413  15.651  47.870  1.00  0.00    +0.000 C 
ATOM     33  C28 UNL A   1      47.054  16.481  47.014  1.00  0.00    +0.000 C 
ATOM     45  C35 UNL A   1      48.481  16.513  46.828  1.00  0.00    +0.000 C 
ATOM     46  C36 UNL A   1      49.229  17.350  46.018  1.00  0.00    +0.000 C 
ATOM     47  C37 UNL A   1      50.576  16.989  46.141  1.00  0.00    +0.000 C 
ATOM     48  C38 UNL A   1      50.671  15.955  47.058  1.00  0.00    +0.000 C 
ATOM     49  N4  UNL A   1      49.377  15.668  47.466  1.00  0.00    +0.000 N 
ATOM     50  C39 UNL A   1      51.851  15.277  47.527  1.00  0.00    +0.000 C 
ATOM     62  C46 UNL A   1      51.861  14.267  48.431  1.00  0.00    +0.000 C 
ATOM     63  N5  UNL A   1      50.793  13.682  49.097  1.00  0.00    +0.000 N 
ATOM     64  C47 UNL A   1      51.310  12.746  49.856  1.00  0.00    +0.000 C 
ATOM     65  C48 UNL A   1      50.624  11.814  50.816  1.00  0.00    +0.000 C 
ATOM     77  C55 UNL A   1      49.291  11.905  50.984  1.00  0.00    +0.000 C 
ATOM     78  C56 UNL A   1      48.491  11.075  51.878  1.00  0.00    +0.000 C 
ATOM     79  C57 UNL A   1      47.198  11.415  51.751  1.00  0.00    +0.000 C 
ATOM     80  C58 UNL A   1      47.084  12.511  50.789  1.00  0.00    +0.000 C 
ATOM     81  N6  UNL A   1      48.376  12.743  50.392  1.00  0.00    +0.000 N 
ATOM     82  C59 UNL A   1      52.769  12.612  49.731  1.00  0.00    +0.000 C 
ATOM     83  C60 UNL A   1      53.057  13.587  48.881  1.00  0.00    +0.000 C 
ATOM     84  C61 UNL A   1      44.980  15.636  48.076  1.00  0.00    +0.000 C 
ATOM     85  C62 UNL A   1      44.647  14.800  49.049  1.00  0.00    +0.000 C 
ATOM    121  H28 UNL A   1      48.858  18.109  45.427  1.00  0.00    +0.000 H 
ATOM    122  H29 UNL A   1      51.365  17.420  45.634  1.00  0.00    +0.000 H 
ATOM    123  H30 UNL A   1      49.130  14.968  48.114  1.00  0.00    +0.000 H 
ATOM    124  H31 UNL A   1      48.859  10.345  52.508  1.00  0.00    +0.000 H 
ATOM    125  H32 UNL A   1      46.411  10.973  52.252  1.00  0.00    +0.000 H 
ATOM    126  H33 UNL A   1      48.626  13.441  49.745  1.00  0.00    +0.000 H 
ATOM    127  H34 UNL A   1      53.402  11.936  50.186  1.00  0.00    +0.000 H 
ATOM    128  H35 UNL A   1      54.013  13.832  48.580  1.00  0.00    +0.000 H 
ENDROOT
BRANCH   29   28
ATOM    131  H38 UNL A   1      44.256  11.281  49.394  1.00  0.00    +0.000 H 
ATOM    132  H39 UNL A   1      42.103  10.558  50.238  1.00  0.00    +0.000 H 
ATOM    120  H27 UNL A   1      44.671  13.863  52.697  1.00  0.00    +0.000 H 
ATOM     86  C63 UNL A   1      43.899  11.662  50.284  1.00  0.00    +0.000 C 
ATOM     87  C64 UNL A   1      42.678  11.214  50.787  1.00  0.00    +0.000 C 
ATOM    119  H26 UNL A   1      42.610  12.987  53.635  1.00  0.00    +0.000 H 
ATOM     25  C21 UNL A   1      42.235  11.655  52.038  1.00  0.00    +0.000 C 
ATOM     26  C22 UNL A   1      42.958  12.632  52.730  1.00  0.00    +0.000 C 
ATOM     27  C23 UNL A   1      44.151  13.126  52.196  1.00  0.00    +0.000 C 
ATOM     28  C24 UNL A   1      44.644  12.624  50.981  1.00  0.00    +0.000 C 
BRANCH   25   23
ATOM     23  C20 UNL A   1      40.975  11.147  52.627  1.00  0.00    +0.000 C 
ATOM     24  O2  UNL A   1      39.967  11.843  52.596  1.00  0.00    +0.000 O 
BRANCH   23   22
ATOM    118  H25 UNL A   1      40.029   9.571  53.423  1.00  0.00    +0.000 H 
ATOM     22  N2  UNL A   1      40.931   9.901  53.205  1.00  0.00    +0.000 N 
BRANCH   22   21
ATOM    117  H24 UNL A   1      41.991   8.825  54.598  1.00  0.00    +0.000 H 
ATOM    116  H23 UNL A   1      42.946   9.452  53.251  1.00  0.00    +0.000 H 
ATOM     21  C19 UNL A   1      42.021   9.000  53.542  1.00  0.00    +0.000 C 
BRANCH   21   20
ATOM    114  H21 UNL A   1      42.408   6.920  53.422  1.00  0.00    +0.000 H 
ATOM    115  H22 UNL A   1      40.839   7.458  52.754  1.00  0.00    +0.000 H 
ATOM     20  C18 UNL A   1      41.888   7.651  52.839  1.00  0.00    +0.000 C 
BRANCH   20   19
ATOM    113  H20 UNL A   1      43.488   7.851  51.501  1.00  0.00    +0.000 H 
ATOM     19  C17 UNL A   1      42.449   7.608  51.413  1.00  0.00    +0.000 C 
ATOM    112  H19 UNL A   1      41.890   8.301  50.819  1.00  0.00    +0.000 H 
BRANCH   19   18
ATOM     18  C16 UNL A   1      42.398   6.241  50.718  1.00  0.00    +0.000 C 
ATOM    110  H17 UNL A   1      41.371   5.960  50.617  1.00  0.00    +0.000 H 
ATOM    111  H18 UNL A   1      42.903   6.366  49.783  1.00  0.00    +0.000 H 
BRANCH   18   17
ATOM     17  C15 UNL A   1      43.129   5.108  51.446  1.00  0.00    +0.000 C 
ATOM    108  H15 UNL A   1      43.318   5.420  52.451  1.00  0.00    +0.000 H 
ATOM    109  H16 UNL A   1      42.496   4.247  51.393  1.00  0.00    +0.000 H 
BRANCH   17   16
ATOM    106  H13 UNL A   1      44.534   3.649  50.782  1.00  0.00    +0.000 H 
ATOM    107  H14 UNL A   1      44.491   5.128  49.819  1.00  0.00    +0.000 H 
ATOM     16  C14 UNL A   1      44.463   4.716  50.806  1.00  0.00    +0.000 C 
BRANCH   16   15
ATOM    105  H12 UNL A   1      46.039   4.588  52.126  1.00  0.00    +0.000 H 
ATOM     15  N1  UNL A   1      45.595   5.243  51.541  1.00  0.00    +0.000 N 
BRANCH   15   13
ATOM     13  C13 UNL A   1      46.152   6.485  51.564  1.00  0.00    +0.000 C 
ATOM     14  O1  UNL A   1      45.810   7.224  52.497  1.00  0.00    +0.000 O 
BRANCH   13   11
ATOM     11  C11 UNL A   1      47.135   7.000  50.502  1.00  0.00    +0.000 C 
ATOM    101  H8  UNL A   1      47.360   6.156  49.884  1.00  0.00    +0.000 H 
BRANCH   11   10
ATOM     99  H6  UNL A   1      43.789   8.542  47.656  1.00  0.00    +0.000 H 
ATOM    100  H7  UNL A   1      44.639   7.051  49.344  1.00  0.00    +0.000 H 
ATOM    133  H40 UNL A   1      48.203   9.253  49.478  1.00  0.00    +0.000 H 
ATOM    134  H41 UNL A   1      47.284  10.843  47.908  1.00  0.00    +0.000 H 
ATOM      7  C7  UNL A   1      45.452   9.836  47.624  1.00  0.00    +0.000 C 
ATOM      8  C8  UNL A   1      44.724   8.716  48.057  1.00  0.00    +0.000 C 
ATOM      9  C9  UNL A   1      45.227   7.832  49.014  1.00  0.00    +0.000 C 
ATOM     10  C10 UNL A   1      46.513   7.991  49.532  1.00  0.00    +0.000 C 
ATOM     88  C65 UNL A   1      47.253   9.104  49.105  1.00  0.00    +0.000 C 
ATOM     89  C66 UNL A   1      46.724  10.020  48.182  1.00  0.00    +0.000 C 
BRANCH    7    6
ATOM     97  H4  UNL A   1      42.058  10.046  43.348  1.00  0.00    +0.000 H 
ATOM      2  C2  UNL A   1      42.454  12.112  42.886  1.00  0.00    +0.000 C 
ATOM      3  C3  UNL A   1      42.548  10.925  43.579  1.00  0.00    +0.000 C 
ATOM      4  C4  UNL A   1      43.439  11.124  44.665  1.00  0.00    +0.000 C 
ATOM      5  C5  UNL A   1      43.928  10.290  45.687  1.00  0.00    +0.000 C 
ATOM     98  H5  UNL A   1      43.588   9.318  45.756  1.00  0.00    +0.000 H 
ATOM      6  C6  UNL A   1      44.875  10.760  46.622  1.00  0.00    +0.000 C 
ATOM    136  H43 UNL A   1      45.065  13.961  45.502  1.00  0.00    +0.000 H 
ATOM    137  H44 UNL A   1      43.356  13.969  43.264  1.00  0.00    +0.000 H 
ATOM    135  H42 UNL A   1      45.951  12.472  47.216  1.00  0.00    +0.000 H 
ATOM     90  C67 UNL A   1      45.270  12.106  46.531  1.00  0.00    +0.000 C 
ATOM     91  C68 UNL A   1      44.774  12.972  45.543  1.00  0.00    +0.000 C 
ATOM     92  C69 UNL A   1      43.871  12.445  44.614  1.00  0.00    +0.000 C 
ATOM     93  N7  UNL A   1      43.248  13.028  43.535  1.00  0.00    +0.000 N 
BRANCH    2    1
ATOM      1  C1  UNL A   1      41.681  12.459  41.669  1.00  0.00    +0.000 C 
ATOM     94  H1  UNL A   1      40.847  13.073  41.939  1.00  0.00    +0.000 H 
ATOM     95  H2  UNL A   1      41.328  11.563  41.203  1.00  0.00    +0.000 H 
ATOM     96  H3  UNL A   1      42.309  12.992  40.987  1.00  0.00    +0.000 H 
ENDBRANCH    2    1
ENDBRANCH    7    6
ENDBRANCH   11   10
BRANCH   11   12
ATOM     12  C12 UNL A   1      48.511   7.378  51.053  1.00  0.00    +0.000 C 
ATOM    102  H9  UNL A   1      49.125   7.749  50.258  1.00  0.00    +0.000 H 
ATOM    103  H10 UNL A   1      48.973   6.514  51.485  1.00  0.00    +0.000 H 
ATOM    104  H11 UNL A   1      48.402   8.136  51.801  1.00  0.00    +0.000 H 
ENDBRANCH   11   12
ENDBRANCH   13   11
ENDBRANCH   15   13
ENDBRANCH   16   15
ENDBRANCH   17   16
ENDBRANCH   18   17
ENDBRANCH   19   18
ENDBRANCH   20   19
ENDBRANCH   21   20
ENDBRANCH   22   21
ENDBRANCH   23   22
ENDBRANCH   25   23
ENDBRANCH   29   28
BRANCH   33   34
ATOM     34  C29 UNL A   1      46.213  17.434  46.214  1.00  0.00    +0.000 C 
ATOM     35  C30 UNL A   1      45.882  18.706  46.704  1.00  0.00    +0.000 C 
ATOM     36  F1  UNL A   1      46.278  19.082  47.928  1.00  0.00    +0.000 F 
ATOM     37  C31 UNL A   1      45.107  19.584  45.950  1.00  0.00    +0.000 C 
ATOM     38  F2  UNL A   1      44.763  20.776  46.458  1.00  0.00    +0.000 F 
ATOM     39  C32 UNL A   1      44.678  19.222  44.683  1.00  0.00    +0.000 C 
ATOM     40  F3  UNL A   1      43.937  20.070  43.956  1.00  0.00    +0.000 F 
ATOM     41  C33 UNL A   1      45.011  17.977  44.170  1.00  0.00    +0.000 C 
ATOM     42  F4  UNL A   1      44.608  17.631  42.940  1.00  0.00    +0.000 F 
ATOM     43  C34 UNL A   1      45.763  17.086  44.931  1.00  0.00    +0.000 C 
ATOM     44  F5  UNL A   1      46.057  15.884  44.414  1.00  0.00    +0.000 F 
ENDBRANCH   33   34
BRANCH   50   51
ATOM     51  C40 UNL A   1      53.176  15.733  46.994  1.00  0.00    +0.000 C 
ATOM     52  C41 UNL A   1      53.784  15.103  45.898  1.00  0.00    +0.000 C 
ATOM     53  F6  UNL A   1      53.208  14.032  45.330  1.00  0.00    +0.000 F 
ATOM     54  C42 UNL A   1      55.008  15.550  45.407  1.00  0.00    +0.000 C 
ATOM     55  F7  UNL A   1      55.592  14.907  44.387  1.00  0.00    +0.000 F 
ATOM     56  C43 UNL A   1      55.628  16.650  45.978  1.00  0.00    +0.000 C 
ATOM     57  F8  UNL A   1      56.804  17.081  45.500  1.00  0.00    +0.000 F 
ATOM     58  C44 UNL A   1      55.036  17.298  47.052  1.00  0.00    +0.000 C 
ATOM     59  F9  UNL A   1      55.630  18.368  47.599  1.00  0.00    +0.000 F 
ATOM     60  C45 UNL A   1      53.827  16.838  47.563  1.00  0.00    +0.000 C 
ATOM     61  F10 UNL A   1      53.283  17.478  48.610  1.00  0.00    +0.000 F 
ENDBRANCH   50   51
BRANCH   65   66
ATOM     66  C49 UNL A   1      51.404  10.822  51.600  1.00  0.00    +0.000 C 
ATOM     67  C50 UNL A   1      51.543   9.503  51.147  1.00  0.00    +0.000 C 
ATOM     68  F11 UNL A   1      50.954   9.122  50.004  1.00  0.00    +0.000 F 
ATOM     69  C51 UNL A   1      52.250   8.559  51.888  1.00  0.00    +0.000 C 
ATOM     70  F12 UNL A   1      52.332   7.294  51.455  1.00  0.00    +0.000 F 
ATOM     71  C52 UNL A   1      52.857   8.924  53.080  1.00  0.00    +0.000 C 
ATOM     72  F13 UNL A   1      53.540   8.017  53.792  1.00  0.00    +0.000 F 
ATOM     73  C53 UNL A   1      52.747  10.228  53.539  1.00  0.00    +0.000 C 
ATOM     74  F14 UNL A   1      53.343  10.588  54.685  1.00  0.00    +0.000 F 
ATOM     75  C54 UNL A   1      52.018  11.167  52.812  1.00  0.00    +0.000 C 
ATOM     76  F15 UNL A   1      51.918  12.418  53.284  1.00  0.00    +0.000 F 
ENDBRANCH   65   66
TORSDOF 19
ENDMDL
MODEL 2
REMARK VINA RESULT:      -9.1     24.196     29.031
ROOT
ATOM    129  H36 UNL A   1      45.075  26.972  28.773  1.00  0.00    +0.000 H 
ATOM    130  H37 UNL A   1      42.829  26.173  27.838  1.00  0.00    +0.000 H 
ATOM     29  C25 UNL A   1      40.661  27.930  28.407  1.00  0.00    +0.000 C 
ATOM     30  C26 UNL A   1      42.119  28.146  28.701  1.00  0.00    +0.000 C 
ATOM     31  N3  UNL A   1      42.708  29.169  29.267  1.00  0.00    +0.000 N 
ATOM     32  C27 UNL A   1      44.055  28.841  29.334  1.00  0.00    +0.000 C 
ATOM     33  C28 UNL A   1      45.088  29.593  29.784  1.00  0.00    +0.000 C 
ATOM     45  C35 UNL A   1      44.954  30.932  30.296  1.00  0.00    +0.000 C 
ATOM     46  C36 UNL A   1      45.945  31.793  30.734  1.00  0.00    +0.000 C 
ATOM     47  C37 UNL A   1      45.336  32.975  31.172  1.00  0.00    +0.000 C 
ATOM     48  C38 UNL A   1      43.970  32.866  30.968  1.00  0.00    +0.000 C 
ATOM     49  N4  UNL A   1      43.749  31.604  30.437  1.00  0.00    +0.000 N 
ATOM     50  C39 UNL A   1      42.943  33.837  31.238  1.00  0.00    +0.000 C 
ATOM     62  C46 UNL A   1      41.619  33.653  31.011  1.00  0.00    +0.000 C 
ATOM     63  N5  UNL A   1      40.971  32.547  30.479  1.00  0.00    +0.000 N 
ATOM     64  C47 UNL A   1      39.695  32.849  30.467  1.00  0.00    +0.000 C 
ATOM     65  C48 UNL A   1      38.532  32.036  29.971  1.00  0.00    +0.000 C 
ATOM     77  C55 UNL A   1      38.757  30.820  29.435  1.00  0.00    +0.000 C 
ATOM     78  C56 UNL A   1      37.733  29.922  28.911  1.00  0.00    +0.000 C 
ATOM     79  C57 UNL A   1      38.317  28.784  28.502  1.00  0.00    +0.000 C 
ATOM     80  C58 UNL A   1      39.762  28.888  28.706  1.00  0.00    +0.000 C 
ATOM     81  N6  UNL A   1      39.933  30.134  29.255  1.00  0.00    +0.000 N 
ATOM     82  C59 UNL A   1      39.387  34.174  31.022  1.00  0.00    +0.000 C 
ATOM     83  C60 UNL A   1      40.597  34.637  31.301  1.00  0.00    +0.000 C 
ATOM     84  C61 UNL A   1      44.192  27.504  28.794  1.00  0.00    +0.000 C 
ATOM     85  C62 UNL A   1      43.034  27.056  28.331  1.00  0.00    +0.000 C 
ATOM    121  H28 UNL A   1      46.958  31.597  30.737  1.00  0.00    +0.000 H 
ATOM    122  H29 UNL A   1      45.823  33.790  31.577  1.00  0.00    +0.000 H 
ATOM    123  H30 UNL A   1      42.867  31.239  30.196  1.00  0.00    +0.000 H 
ATOM    124  H31 UNL A   1      36.723  30.129  28.861  1.00  0.00    +0.000 H 
ATOM    125  H32 UNL A   1      37.825  27.967  28.108  1.00  0.00    +0.000 H 
ATOM    126  H33 UNL A   1      40.813  30.501  29.498  1.00  0.00    +0.000 H 
ATOM    127  H34 UNL A   1      38.469  34.627  31.158  1.00  0.00    +0.000 H 
ATOM    128  H35 UNL A   1      40.787  35.579  31.676  1.00  0.00    +0.000 H 
ENDROOT
BRANCH   29   28
ATOM    131  H38 UNL A   1      41.050  26.962  25.940  1.00  0.00    +0.000 H 
ATOM    132  H39 UNL A   1      40.216  24.904  24.970  1.00  0.00    +0.000 H 
ATOM    120  H27 UNL A   1      39.190  25.980  29.591  1.00  0.00    +0.000 H 
ATOM     86  C63 UNL A   1      40.496  26.309  26.517  1.00  0.00    +0.000 C 
ATOM     87  C64 UNL A   1      40.052  25.107  25.967  1.00  0.00    +0.000 C 
ATOM    119  H26 UNL A   1      38.530  23.833  28.672  1.00  0.00    +0.000 H 
ATOM     25  C21 UNL A   1      39.384  24.178  26.770  1.00  0.00    +0.000 C 
ATOM     26  C22 UNL A   1      39.058  24.503  28.091  1.00  0.00    +0.000 C 
ATOM     27  C23 UNL A   1      39.450  25.734  28.623  1.00  0.00    +0.000 C 
ATOM     28  C24 UNL A   1      40.196  26.635  27.848  1.00  0.00    +0.000 C 
BRANCH   25   23
ATOM     23  C20 UNL A   1      38.958  22.866  26.231  1.00  0.00    +0.000 C 
ATOM     24  O2  UNL A   1      39.754  21.934  26.203  1.00  0.00    +0.000 O 
BRANCH   23   22
ATOM    118  H25 UNL A   1      37.231  21.864  26.069  1.00  0.00    +0.000 H 
ATOM     22  N2  UNL A   1      37.678  22.688  25.766  1.00  0.00    +0.000 N 
BRANCH   22   21
ATOM    117  H24 UNL A   1      36.461  22.921  24.128  1.00  0.00    +0.000 H 
ATOM    116  H23 UNL A   1      37.521  24.291  24.473  1.00  0.00    +0.000 H 
ATOM     21  C19 UNL A   1      36.886  23.539  24.892  1.00  0.00    +0.000 C 
BRANCH   21   20
ATOM    114  H21 UNL A   1      35.214  23.471  26.192  1.00  0.00    +0.000 H 
ATOM    115  H22 UNL A   1      36.187  24.969  26.255  1.00  0.00    +0.000 H 
ATOM     20  C18 UNL A   1      35.740  24.219  25.637  1.00  0.00    +0.000 C 
BRANCH   20   19
ATOM    113  H20 UNL A   1      33.961  24.232  24.531  1.00  0.00    +0.000 H 
ATOM     19  C17 UNL A   1      34.729  24.946  24.743  1.00  0.00    +0.000 C 
ATOM    112  H19 UNL A   1      35.250  25.294  23.875  1.00  0.00    +0.000 H 
BRANCH   19   18
ATOM     18  C16 UNL A   1      34.018  26.147  25.380  1.00  0.00    +0.000 C 
ATOM    110  H17 UNL A   1      33.044  25.829  25.688  1.00  0.00    +0.000 H 
ATOM    111  H18 UNL A   1      34.642  26.465  26.189  1.00  0.00    +0.000 H 
BRANCH   18   17
ATOM     17  C15 UNL A   1      33.851  27.369  24.470  1.00  0.00    +0.000 C 
ATOM    108  H15 UNL A   1      34.775  27.907  24.457  1.00  0.00    +0.000 H 
ATOM    109  H16 UNL A   1      33.574  27.000  23.505  1.00  0.00    +0.000 H 
BRANCH   17   16
ATOM    106  H13 UNL A   1      32.126  27.833  25.633  1.00  0.00    +0.000 H 
ATOM    107  H14 UNL A   1      33.205  29.197  25.330  1.00  0.00    +0.000 H 
ATOM     16  C14 UNL A   1      32.743  28.327  24.912  1.00  0.00    +0.000 C 
BRANCH   16   15
ATOM    105  H12 UNL A   1      32.418  29.099  23.031  1.00  0.00    +0.000 H 
ATOM     15  N1  UNL A   1      31.915  28.752  23.802  1.00  0.00    +0.000 N 
BRANCH   15   13
ATOM     13  C13 UNL A   1      30.563  28.753  23.638  1.00  0.00    +0.000 C 
ATOM     14  O1  UNL A   1      29.977  29.809  23.909  1.00  0.00    +0.000 O 
BRANCH   13   11
ATOM     11  C11 UNL A   1      29.758  27.531  23.170  1.00  0.00    +0.000 C 
ATOM    101  H8  UNL A   1      29.794  27.555  22.101  1.00  0.00    +0.000 H 
BRANCH   11   10
ATOM     99  H6  UNL A   1      32.225  23.701  22.212  1.00  0.00    +0.000 H 
ATOM    100  H7  UNL A   1      31.381  25.889  21.671  1.00  0.00    +0.000 H 
ATOM    133  H40 UNL A   1      29.675  26.163  25.491  1.00  0.00    +0.000 H 
ATOM    134  H41 UNL A   1      30.664  24.041  26.088  1.00  0.00    +0.000 H 
ATOM      7  C7  UNL A   1      31.529  23.664  24.201  1.00  0.00    +0.000 C 
ATOM      8  C8  UNL A   1      31.701  24.230  22.928  1.00  0.00    +0.000 C 
ATOM      9  C9  UNL A   1      31.187  25.487  22.602  1.00  0.00    +0.000 C 
ATOM     10  C10 UNL A   1      30.416  26.205  23.515  1.00  0.00    +0.000 C 
ATOM     88  C65 UNL A   1      30.233  25.650  24.791  1.00  0.00    +0.000 C 
ATOM     89  C66 UNL A   1      30.795  24.410  25.133  1.00  0.00    +0.000 C 
BRANCH    7    6
ATOM     97  H4  UNL A   1      32.273  18.653  22.154  1.00  0.00    +0.000 H 
ATOM      2  C2  UNL A   1      33.126  17.832  23.953  1.00  0.00    +0.000 C 
ATOM      3  C3  UNL A   1      32.586  18.794  23.127  1.00  0.00    +0.000 C 
ATOM      4  C4  UNL A   1      32.537  20.013  23.853  1.00  0.00    +0.000 C 
ATOM      5  C5  UNL A   1      32.083  21.309  23.547  1.00  0.00    +0.000 C 
ATOM     98  H5  UNL A   1      31.726  21.512  22.600  1.00  0.00    +0.000 H 
ATOM      6  C6  UNL A   1      32.107  22.337  24.514  1.00  0.00    +0.000 C 
ATOM    136  H43 UNL A   1      33.556  20.566  27.023  1.00  0.00    +0.000 H 
ATOM    137  H44 UNL A   1      33.836  17.989  25.922  1.00  0.00    +0.000 H 
ATOM    135  H42 UNL A   1      32.694  22.782  26.488  1.00  0.00    +0.000 H 
ATOM     90  C67 UNL A   1      32.653  22.037  25.773  1.00  0.00    +0.000 C 
ATOM     91  C68 UNL A   1      33.145  20.762  26.096  1.00  0.00    +0.000 C 
ATOM     92  C69 UNL A   1      33.058  19.767  25.118  1.00  0.00    +0.000 C 
ATOM     93  N7  UNL A   1      33.422  18.440  25.150  1.00  0.00    +0.000 N 
BRANCH    2    1
ATOM      1  C1  UNL A   1      33.389  16.393  23.712  1.00  0.00    +0.000 C 
ATOM     94  H1  UNL A   1      32.918  15.811  24.477  1.00  0.00    +0.000 H 
ATOM     95  H2  UNL A   1      34.443  16.215  23.728  1.00  0.00    +0.000 H 
ATOM     96  H3  UNL A   1      32.994  16.113  22.758  1.00  0.00    +0.000 H 
ENDBRANCH    2    1
ENDBRANCH    7    6
ENDBRANCH   11   10
BRANCH   11   12
ATOM     12  C12 UNL A   1      28.257  27.625  23.449  1.00  0.00    +0.000 C 
ATOM    102  H9  UNL A   1      27.883  26.660  23.720  1.00  0.00    +0.000 H 
ATOM    103  H10 UNL A   1      27.751  27.969  22.571  1.00  0.00    +0.000 H 
ATOM    104  H11 UNL A   1      28.084  28.312  24.251  1.00  0.00    +0.000 H 
ENDBRANCH   11   12
ENDBRANCH   13   11
ENDBRANCH   15   13
ENDBRANCH   16   15
ENDBRANCH   17   16
ENDBRANCH   18   17
ENDBRANCH   19   18
ENDBRANCH   20   19
ENDBRANCH   21   20
ENDBRANCH   22   21
ENDBRANCH   23   22
ENDBRANCH   25   23
ENDBRANCH   29   28
BRANCH   33   34
ATOM     34  C29 UNL A   1      46.460  28.985  29.735  1.00  0.00    +0.000 C 
ATOM     35  C30 UNL A   1      47.281  29.122  28.606  1.00  0.00    +0.000 C 
ATOM     36  F1  UNL A   1      46.833  29.768  27.521  1.00  0.00    +0.000 F 
ATOM     37  C31 UNL A   1      48.555  28.560  28.576  1.00  0.00    +0.000 C 
ATOM     38  F2  UNL A   1      49.304  28.663  27.469  1.00  0.00    +0.000 F 
ATOM     39  C32 UNL A   1      49.044  27.882  29.682  1.00  0.00    +0.000 C 
ATOM     40  F3  UNL A   1      50.272  27.346  29.653  1.00  0.00    +0.000 F 
ATOM     41  C33 UNL A   1      48.257  27.753  30.817  1.00  0.00    +0.000 C 
ATOM     42  F4  UNL A   1      48.732  27.108  31.890  1.00  0.00    +0.000 F 
ATOM     43  C34 UNL A   1      46.972  28.290  30.841  1.00  0.00    +0.000 C 
ATOM     44  F5  UNL A   1      46.230  28.136  31.947  1.00  0.00    +0.000 F 
ENDBRANCH   33   34
BRANCH   50   51
ATOM     51  C40 UNL A   1      43.365  35.164  31.794  1.00  0.00    +0.000 C 
ATOM     52  C41 UNL A   1      43.732  36.228  30.957  1.00  0.00    +0.000 C 
ATOM     53  F6  UNL A   1      43.763  36.060  29.626  1.00  0.00    +0.000 F 
ATOM     54  C42 UNL A   1      44.108  37.458  31.489  1.00  0.00    +0.000 C 
ATOM     55  F7  UNL A   1      44.497  38.448  30.674  1.00  0.00    +0.000 F 
ATOM     56  C43 UNL A   1      44.092  37.658  32.861  1.00  0.00    +0.000 C 
ATOM     57  F8  UNL A   1      44.448  38.845  33.371  1.00  0.00    +0.000 F 
ATOM     58  C44 UNL A   1      43.715  36.624  33.706  1.00  0.00    +0.000 C 
ATOM     59  F9  UNL A   1      43.690  36.819  35.032  1.00  0.00    +0.000 F 
ATOM     60  C45 UNL A   1      43.366  35.385  33.179  1.00  0.00    +0.000 C 
ATOM     61  F10 UNL A   1      43.017  34.400  34.021  1.00  0.00    +0.000 F 
ENDBRANCH   50   51
BRANCH   65   66
ATOM     66  C49 UNL A   1      37.147  32.572  30.036  1.00  0.00    +0.000 C 
ATOM     67  C50 UNL A   1      36.639  33.368  29.000  1.00  0.00    +0.000 C 
ATOM     68  F11 UNL A   1      37.411  33.665  27.944  1.00  0.00    +0.000 F 
ATOM     69  C51 UNL A   1      35.351  33.895  29.064  1.00  0.00    +0.000 C 
ATOM     70  F12 UNL A   1      34.905  34.688  28.081  1.00  0.00    +0.000 F 
ATOM     71  C52 UNL A   1      34.538  33.613  30.151  1.00  0.00    +0.000 C 
ATOM     72  F13 UNL A   1      33.298  34.119  30.212  1.00  0.00    +0.000 F 
ATOM     73  C53 UNL A   1      35.014  32.813  31.179  1.00  0.00    +0.000 C 
ATOM     74  F14 UNL A   1      34.225  32.529  32.226  1.00  0.00    +0.000 F 
ATOM     75  C54 UNL A   1      36.311  32.306  31.129  1.00  0.00    +0.000 C 
ATOM     76  F15 UNL A   1      36.749  31.546  32.143  1.00  0.00    +0.000 F 
ENDBRANCH   65   66
TORSDOF 19
ENDMDL
MODEL 3
REMARK VINA RESULT:      -9.1      0.659      2.024
ROOT
ATOM    129  H36 UNL A   1      44.521  16.678  47.164  1.00  0.00    +0.000 H 
ATOM    130  H37 UNL A   1      43.812  15.145  49.088  1.00  0.00    +0.000 H 
ATOM     29  C25 UNL A   1      45.934  13.556  50.129  1.00  0.00    +0.000 C 
ATOM     30  C26 UNL A   1      46.022  14.636  49.088  1.00  0.00    +0.000 C 
ATOM     31  N3  UNL A   1      47.070  15.084  48.443  1.00  0.00    +0.000 N 
ATOM     32  C27 UNL A   1      46.593  16.051  47.570  1.00  0.00    +0.000 C 
ATOM     33  C28 UNL A   1      47.291  16.846  46.725  1.00  0.00    +0.000 C 
ATOM     45  C35 UNL A   1      48.724  16.821  46.585  1.00  0.00    +0.000 C 
ATOM     46  C36 UNL A   1      49.529  17.618  45.789  1.00  0.00    +0.000 C 
ATOM     47  C37 UNL A   1      50.856  17.207  45.958  1.00  0.00    +0.000 C 
ATOM     48  C38 UNL A   1      50.882  16.182  46.889  1.00  0.00    +0.000 C 
ATOM     49  N4  UNL A   1      49.565  15.950  47.260  1.00  0.00    +0.000 N 
ATOM     50  C39 UNL A   1      52.020  15.465  47.403  1.00  0.00    +0.000 C 
ATOM     62  C46 UNL A   1      51.962  14.467  48.318  1.00  0.00    +0.000 C 
ATOM     63  N5  UNL A   1      50.852  13.931  48.956  1.00  0.00    +0.000 N 
ATOM     64  C47 UNL A   1      51.309  12.986  49.741  1.00  0.00    +0.000 C 
ATOM     65  C48 UNL A   1      50.558  12.093  50.690  1.00  0.00    +0.000 C 
ATOM     77  C55 UNL A   1      49.225  12.237  50.814  1.00  0.00    +0.000 C 
ATOM     78  C56 UNL A   1      48.366  11.449  51.692  1.00  0.00    +0.000 C 
ATOM     79  C57 UNL A   1      47.092  11.836  51.521  1.00  0.00    +0.000 C 
ATOM     80  C58 UNL A   1      47.050  12.925  50.544  1.00  0.00    +0.000 C 
ATOM     81  N6  UNL A   1      48.362  13.101  50.185  1.00  0.00    +0.000 N 
ATOM     82  C59 UNL A   1      52.765  12.795  49.664  1.00  0.00    +0.000 C 
ATOM     83  C60 UNL A   1      53.117  13.747  48.813  1.00  0.00    +0.000 C 
ATOM     84  C61 UNL A   1      45.154  16.094  47.731  1.00  0.00    +0.000 C 
ATOM     85  C62 UNL A   1      44.759  15.283  48.703  1.00  0.00    +0.000 C 
ATOM    121  H28 UNL A   1      49.206  18.384  45.178  1.00  0.00    +0.000 H 
ATOM    122  H29 UNL A   1      51.676  17.601  45.472  1.00  0.00    +0.000 H 
ATOM    123  H30 UNL A   1      49.272  15.268  47.907  1.00  0.00    +0.000 H 
ATOM    124  H31 UNL A   1      48.686  10.714  52.342  1.00  0.00    +0.000 H 
ATOM    125  H32 UNL A   1      46.273  11.432  52.002  1.00  0.00    +0.000 H 
ATOM    126  H33 UNL A   1      48.659  13.782  49.538  1.00  0.00    +0.000 H 
ATOM    127  H34 UNL A   1      53.357  12.100  50.147  1.00  0.00    +0.000 H 
ATOM    128  H35 UNL A   1      54.091  13.951  48.540  1.00  0.00    +0.000 H 
ENDROOT
BRANCH   29   28
ATOM    131  H38 UNL A   1      44.236  11.764  49.091  1.00  0.00    +0.000 H 
ATOM    132  H39 UNL A   1      42.031  11.133  49.873  1.00  0.00    +0.000 H 
ATOM    120  H27 UNL A   1      44.620  14.414  52.343  1.00  0.00    +0.000 H 
ATOM     86  C63 UNL A   1      43.861  12.178  49.958  1.00  0.00    +0.000 C 
ATOM     87  C64 UNL A   1      42.608  11.783  50.427  1.00  0.00    +0.000 C 
ATOM    119  H26 UNL A   1      42.499  13.630  53.226  1.00  0.00    +0.000 H 
ATOM     25  C21 UNL A   1      42.136  12.270  51.650  1.00  0.00    +0.000 C 
ATOM     26  C22 UNL A   1      42.866  13.241  52.344  1.00  0.00    +0.000 C 
ATOM     27  C23 UNL A   1      44.093  13.682  51.841  1.00  0.00    +0.000 C 
ATOM     28  C24 UNL A   1      44.612  13.134  50.658  1.00  0.00    +0.000 C 
BRANCH   25   23
ATOM     23  C20 UNL A   1      40.840  11.819  52.205  1.00  0.00    +0.000 C 
ATOM     24  O2  UNL A   1      39.835  12.499  52.031  1.00  0.00    +0.000 O 
BRANCH   23   22
ATOM    118  H25 UNL A   1      39.845  10.308  53.066  1.00  0.00    +0.000 H 
ATOM     22  N2  UNL A   1      40.758  10.644  52.912  1.00  0.00    +0.000 N 
BRANCH   22   21
ATOM    117  H24 UNL A   1      41.671   9.754  54.522  1.00  0.00    +0.000 H 
ATOM    116  H23 UNL A   1      42.764  10.277  53.237  1.00  0.00    +0.000 H 
ATOM     21  C19 UNL A   1      41.823   9.822  53.465  1.00  0.00    +0.000 C 
BRANCH   21   20
ATOM    114  H21 UNL A   1      42.247   7.752  53.621  1.00  0.00    +0.000 H 
ATOM    115  H22 UNL A   1      40.785   8.177  52.682  1.00  0.00    +0.000 H 
ATOM     20  C18 UNL A   1      41.809   8.405  52.896  1.00  0.00    +0.000 C 
BRANCH   20   19
ATOM    113  H20 UNL A   1      43.610   8.231  51.839  1.00  0.00    +0.000 H 
ATOM     19  C17 UNL A   1      42.572   8.231  51.577  1.00  0.00    +0.000 C 
ATOM    112  H19 UNL A   1      42.289   9.033  50.927  1.00  0.00    +0.000 H 
BRANCH   19   18
ATOM     18  C16 UNL A   1      42.327   6.911  50.835  1.00  0.00    +0.000 C 
ATOM    110  H17 UNL A   1      41.270   6.779  50.735  1.00  0.00    +0.000 H 
ATOM    111  H18 UNL A   1      42.840   6.998  49.900  1.00  0.00    +0.000 H 
BRANCH   18   17
ATOM     17  C15 UNL A   1      42.897   5.661  51.516  1.00  0.00    +0.000 C 
ATOM    108  H15 UNL A   1      43.126   5.906  52.532  1.00  0.00    +0.000 H 
ATOM    109  H16 UNL A   1      42.153   4.897  51.433  1.00  0.00    +0.000 H 
BRANCH   17   16
ATOM    106  H13 UNL A   1      44.099   4.050  50.807  1.00  0.00    +0.000 H 
ATOM    107  H14 UNL A   1      44.240   5.545  49.878  1.00  0.00    +0.000 H 
ATOM     16  C14 UNL A   1      44.166   5.117  50.855  1.00  0.00    +0.000 C 
BRANCH   16   15
ATOM    105  H12 UNL A   1      45.713   4.762  52.167  1.00  0.00    +0.000 H 
ATOM     15  N1  UNL A   1      45.360   5.477  51.591  1.00  0.00    +0.000 N 
BRANCH   15   13
ATOM     13  C13 UNL A   1      46.081   6.633  51.625  1.00  0.00    +0.000 C 
ATOM     14  O1  UNL A   1      45.821   7.416  52.548  1.00  0.00    +0.000 O 
BRANCH   13   11
ATOM     11  C11 UNL A   1      47.150   7.003  50.586  1.00  0.00    +0.000 C 
ATOM    101  H8  UNL A   1      47.226   6.156  49.937  1.00  0.00    +0.000 H 
BRANCH   11   10
ATOM     99  H6  UNL A   1      44.155   9.231  47.804  1.00  0.00    +0.000 H 
ATOM    100  H7  UNL A   1      44.711   7.550  49.435  1.00  0.00    +0.000 H 
ATOM    133  H40 UNL A   1      48.616   9.059  49.643  1.00  0.00    +0.000 H 
ATOM    134  H41 UNL A   1      48.010  10.846  48.134  1.00  0.00    +0.000 H 
ATOM      7  C7  UNL A   1      46.026  10.200  47.817  1.00  0.00    +0.000 C 
ATOM      8  C8  UNL A   1      45.104   9.217  48.210  1.00  0.00    +0.000 C 
ATOM      9  C9  UNL A   1      45.433   8.222  49.133  1.00  0.00    +0.000 C 
ATOM     10  C10 UNL A   1      46.724   8.125  49.654  1.00  0.00    +0.000 C 
ATOM     88  C65 UNL A   1      47.657   9.099  49.267  1.00  0.00    +0.000 C 
ATOM     89  C66 UNL A   1      47.308  10.129  48.379  1.00  0.00    +0.000 C 
BRANCH    7    6
ATOM     97  H4  UNL A   1      41.840  11.974  44.788  1.00  0.00    +0.000 H 
ATOM      2  C2  UNL A   1      42.962  13.516  43.786  1.00  0.00    +0.000 C 
ATOM      3  C3  UNL A   1      42.731  12.479  44.665  1.00  0.00    +0.000 C 
ATOM      4  C4  UNL A   1      43.937  12.230  45.370  1.00  0.00    +0.000 C 
ATOM      5  C5  UNL A   1      44.310  11.303  46.362  1.00  0.00    +0.000 C 
ATOM     98  H5  UNL A   1      43.604  10.652  46.739  1.00  0.00    +0.000 H 
ATOM      6  C6  UNL A   1      45.633  11.250  46.849  1.00  0.00    +0.000 C 
ATOM    136  H43 UNL A   1      46.885  13.842  45.048  1.00  0.00    +0.000 H 
ATOM    137  H44 UNL A   1      44.699  14.649  43.464  1.00  0.00    +0.000 H 
ATOM    135  H42 UNL A   1      47.520  12.177  46.710  1.00  0.00    +0.000 H 
ATOM     90  C67 UNL A   1      46.551  12.191  46.353  1.00  0.00    +0.000 C 
ATOM     91  C68 UNL A   1      46.199  13.150  45.388  1.00  0.00    +0.000 C 
ATOM     92  C69 UNL A   1      44.887  13.132  44.906  1.00  0.00    +0.000 C 
ATOM     93  N7  UNL A   1      44.268  13.911  43.955  1.00  0.00    +0.000 N 
BRANCH    2    1
ATOM      1  C1  UNL A   1      42.061  14.165  42.805  1.00  0.00    +0.000 C 
ATOM     94  H1  UNL A   1      42.351  15.188  42.677  1.00  0.00    +0.000 H 
ATOM     95  H2  UNL A   1      41.054  14.122  43.162  1.00  0.00    +0.000 H 
ATOM     96  H3  UNL A   1      42.129  13.656  41.866  1.00  0.00    +0.000 H 
ENDBRANCH    2    1
ENDBRANCH    7    6
ENDBRANCH   11   10
BRANCH   11   12
ATOM     12  C12 UNL A   1      48.566   7.108  51.155  1.00  0.00    +0.000 C 
ATOM    102  H9  UNL A   1      49.021   6.140  51.160  1.00  0.00    +0.000 H 
ATOM    103  H10 UNL A   1      48.523   7.486  52.155  1.00  0.00    +0.000 H 
ATOM    104  H11 UNL A   1      49.147   7.771  50.548  1.00  0.00    +0.000 H 
ENDBRANCH   11   12
ENDBRANCH   13   11
ENDBRANCH   15   13
ENDBRANCH   16   15
ENDBRANCH   17   16
ENDBRANCH   18   17
ENDBRANCH   19   18
ENDBRANCH   20   19
ENDBRANCH   21   20
ENDBRANCH   22   21
ENDBRANCH   23   22
ENDBRANCH   25   23
ENDBRANCH   29   28
BRANCH   33   34
ATOM     34  C29 UNL A   1      46.513  17.821  45.889  1.00  0.00    +0.000 C 
ATOM     35  C30 UNL A   1      46.092  17.498  44.591  1.00  0.00    +0.000 C 
ATOM     36  F1  UNL A   1      46.418  16.315  44.050  1.00  0.00    +0.000 F 
ATOM     37  C31 UNL A   1      45.365  18.407  43.827  1.00  0.00    +0.000 C 
ATOM     38  F2  UNL A   1      45.013  18.095  42.572  1.00  0.00    +0.000 F 
ATOM     39  C32 UNL A   1      45.016  19.640  44.357  1.00  0.00    +0.000 C 
ATOM     40  F3  UNL A   1      44.311  20.512  43.623  1.00  0.00    +0.000 F 
ATOM     41  C33 UNL A   1      45.403  19.972  45.647  1.00  0.00    +0.000 C 
ATOM     42  F4  UNL A   1      45.057  21.158  46.165  1.00  0.00    +0.000 F 
ATOM     43  C34 UNL A   1      46.155  19.076  46.404  1.00  0.00    +0.000 C 
ATOM     44  F5  UNL A   1      46.527  19.431  47.642  1.00  0.00    +0.000 F 
ENDBRANCH   33   34
BRANCH   50   51
ATOM     51  C40 UNL A   1      53.377  15.864  46.907  1.00  0.00    +0.000 C 
ATOM     52  C41 UNL A   1      54.175  16.781  47.606  1.00  0.00    +0.000 C 
ATOM     53  F6  UNL A   1      53.711  17.367  48.720  1.00  0.00    +0.000 F 
ATOM     54  C42 UNL A   1      55.440  17.128  47.139  1.00  0.00    +0.000 C 
ATOM     55  F7  UNL A   1      56.168  18.040  47.798  1.00  0.00    +0.000 F 
ATOM     56  C43 UNL A   1      55.942  16.543  45.986  1.00  0.00    +0.000 C 
ATOM     57  F8  UNL A   1      57.162  16.875  45.542  1.00  0.00    +0.000 F 
ATOM     58  C44 UNL A   1      55.177  15.620  45.289  1.00  0.00    +0.000 C 
ATOM     59  F9  UNL A   1      55.665  15.046  44.180  1.00  0.00    +0.000 F 
ATOM     60  C45 UNL A   1      53.902  15.291  45.738  1.00  0.00    +0.000 C 
ATOM     61  F10 UNL A   1      53.179  14.404  45.036  1.00  0.00    +0.000 F 
ENDBRANCH   50   51
BRANCH   65   66
ATOM     66  C49 UNL A   1      51.274  11.081  51.509  1.00  0.00    +0.000 C 
ATOM     67  C50 UNL A   1      51.845  11.432  52.740  1.00  0.00    +0.000 C 
ATOM     68  F11 UNL A   1      51.761  12.696  53.181  1.00  0.00    +0.000 F 
ATOM     69  C51 UNL A   1      52.540  10.496  53.503  1.00  0.00    +0.000 C 
ATOM     70  F12 UNL A   1      53.113  10.867  54.656  1.00  0.00    +0.000 F 
ATOM     71  C52 UNL A   1      52.652   9.186  53.063  1.00  0.00    +0.000 C 
ATOM     72  F13 UNL A   1      53.319   8.285  53.799  1.00  0.00    +0.000 F 
ATOM     73  C53 UNL A   1      52.080   8.812  51.856  1.00  0.00    +0.000 C 
ATOM     74  F14 UNL A   1      52.176   7.544  51.434  1.00  0.00    +0.000 F 
ATOM     75  C54 UNL A   1      51.407   9.754  51.080  1.00  0.00    +0.000 C 
ATOM     76  F15 UNL A   1      50.875   9.368  49.911  1.00  0.00    +0.000 F 
ENDBRANCH   65   66
TORSDOF 19
ENDMDL
MODEL 4
REMARK VINA RESULT:      -9.0     43.551     51.859
ROOT
ATOM    129  H36 UNL A   1      22.382  21.707   2.216  1.00  0.00    +0.000 H 
ATOM    130  H37 UNL A   1      23.292  19.877   3.758  1.00  0.00    +0.000 H 
ATOM     29  C25 UNL A   1      21.425  18.999   5.722  1.00  0.00    +0.000 C 
ATOM     30  C26 UNL A   1      21.186  19.965   4.595  1.00  0.00    +0.000 C 
ATOM     31  N3  UNL A   1      20.091  20.603   4.267  1.00  0.00    +0.000 N 
ATOM     32  C27 UNL A   1      20.426  21.396   3.178  1.00  0.00    +0.000 C 
ATOM     33  C28 UNL A   1      19.625  22.200   2.440  1.00  0.00    +0.000 C 
ATOM     45  C35 UNL A   1      18.215  22.377   2.672  1.00  0.00    +0.000 C 
ATOM     46  C36 UNL A   1      17.308  23.135   1.951  1.00  0.00    +0.000 C 
ATOM     47  C37 UNL A   1      16.058  23.026   2.571  1.00  0.00    +0.000 C 
ATOM     48  C38 UNL A   1      16.177  22.169   3.652  1.00  0.00    +0.000 C 
ATOM     49  N4  UNL A   1      17.508  21.784   3.708  1.00  0.00    +0.000 N 
ATOM     50  C39 UNL A   1      15.155  21.734   4.568  1.00  0.00    +0.000 C 
ATOM     62  C46 UNL A   1      15.353  20.889   5.609  1.00  0.00    +0.000 C 
ATOM     63  N5  UNL A   1      16.523  20.262   6.014  1.00  0.00    +0.000 N 
ATOM     64  C47 UNL A   1      16.206  19.555   7.072  1.00  0.00    +0.000 C 
ATOM     65  C48 UNL A   1      17.072  18.652   7.906  1.00  0.00    +0.000 C 
ATOM     77  C55 UNL A   1      18.366  18.486   7.570  1.00  0.00    +0.000 C 
ATOM     78  C56 UNL A   1      19.324  17.644   8.280  1.00  0.00    +0.000 C 
ATOM     79  C57 UNL A   1      20.526  17.757   7.692  1.00  0.00    +0.000 C 
ATOM     80  C58 UNL A   1      20.413  18.656   6.543  1.00  0.00    +0.000 C 
ATOM     81  N6  UNL A   1      19.094  19.033   6.542  1.00  0.00    +0.000 N 
ATOM     82  C59 UNL A   1      14.798  19.680   7.476  1.00  0.00    +0.000 C 
ATOM     83  C60 UNL A   1      14.315  20.472   6.529  1.00  0.00    +0.000 C 
ATOM     84  C61 UNL A   1      21.838  21.197   2.929  1.00  0.00    +0.000 C 
ATOM     85  C62 UNL A   1      22.340  20.275   3.738  1.00  0.00    +0.000 C 
ATOM    121  H28 UNL A   1      17.518  23.684   1.104  1.00  0.00    +0.000 H 
ATOM    122  H29 UNL A   1      15.193  23.504   2.272  1.00  0.00    +0.000 H 
ATOM    123  H30 UNL A   1      17.893  21.178   4.381  1.00  0.00    +0.000 H 
ATOM    124  H31 UNL A   1      19.111  17.055   9.100  1.00  0.00    +0.000 H 
ATOM    125  H32 UNL A   1      21.390  17.286   8.001  1.00  0.00    +0.000 H 
ATOM    126  H33 UNL A   1      18.706  19.639   5.870  1.00  0.00    +0.000 H 
ATOM    127  H34 UNL A   1      14.313  19.261   8.285  1.00  0.00    +0.000 H 
ATOM    128  H35 UNL A   1      13.325  20.754   6.456  1.00  0.00    +0.000 H 
ENDROOT
BRANCH   29   28
ATOM    131  H38 UNL A   1      23.481  20.233   6.914  1.00  0.00    +0.000 H 
ATOM    132  H39 UNL A   1      25.744  19.433   7.246  1.00  0.00    +0.000 H 
ATOM    120  H27 UNL A   1      22.472  16.581   5.073  1.00  0.00    +0.000 H 
ATOM     86  C63 UNL A   1      23.739  19.281   6.612  1.00  0.00    +0.000 C 
ATOM     87  C64 UNL A   1      25.030  18.809   6.841  1.00  0.00    +0.000 C 
ATOM    119  H26 UNL A   1      24.680  15.715   5.589  1.00  0.00    +0.000 H 
ATOM     25  C21 UNL A   1      25.358  17.488   6.519  1.00  0.00    +0.000 C 
ATOM     26  C22 UNL A   1      24.426  16.677   5.862  1.00  0.00    +0.000 C 
ATOM     27  C23 UNL A   1      23.151  17.172   5.578  1.00  0.00    +0.000 C 
ATOM     28  C24 UNL A   1      22.789  18.469   5.975  1.00  0.00    +0.000 C 
BRANCH   25   23
ATOM     23  C20 UNL A   1      26.702  16.939   6.811  1.00  0.00    +0.000 C 
ATOM     24  O2  UNL A   1      26.897  15.732   6.722  1.00  0.00    +0.000 O 
BRANCH   23   22
ATOM    118  H25 UNL A   1      27.993  18.438   6.500  1.00  0.00    +0.000 H 
ATOM     22  N2  UNL A   1      27.729  17.774   7.178  1.00  0.00    +0.000 N 
BRANCH   22   21
ATOM    117  H24 UNL A   1      29.375  18.384   8.243  1.00  0.00    +0.000 H 
ATOM    116  H23 UNL A   1      28.708  16.822   8.726  1.00  0.00    +0.000 H 
ATOM     21  C19 UNL A   1      28.482  17.822   8.421  1.00  0.00    +0.000 C 
BRANCH   21   20
ATOM    114  H21 UNL A   1      26.675  18.240   9.445  1.00  0.00    +0.000 H 
ATOM    115  H22 UNL A   1      28.149  18.195  10.457  1.00  0.00    +0.000 H 
ATOM     20  C18 UNL A   1      27.704  18.515   9.537  1.00  0.00    +0.000 C 
BRANCH   20   19
ATOM    113  H20 UNL A   1      28.494  20.294   8.763  1.00  0.00    +0.000 H 
ATOM     19  C17 UNL A   1      27.790  20.046   9.530  1.00  0.00    +0.000 C 
ATOM    112  H19 UNL A   1      28.084  20.363  10.508  1.00  0.00    +0.000 H 
BRANCH   19   18
ATOM     18  C16 UNL A   1      26.496  20.783   9.162  1.00  0.00    +0.000 C 
ATOM    110  H17 UNL A   1      26.692  21.385   8.299  1.00  0.00    +0.000 H 
ATOM    111  H18 UNL A   1      25.759  20.025   8.998  1.00  0.00    +0.000 H 
BRANCH   18   17
ATOM     17  C15 UNL A   1      25.928  21.695  10.255  1.00  0.00    +0.000 C 
ATOM    108  H15 UNL A   1      26.206  22.704  10.029  1.00  0.00    +0.000 H 
ATOM    109  H16 UNL A   1      24.868  21.551  10.259  1.00  0.00    +0.000 H 
BRANCH   17   16
ATOM    106  H13 UNL A   1      26.925  20.418  11.639  1.00  0.00    +0.000 H 
ATOM    107  H14 UNL A   1      27.089  22.144  11.972  1.00  0.00    +0.000 H 
ATOM     16  C14 UNL A   1      26.426  21.363  11.664  1.00  0.00    +0.000 C 
BRANCH   16   15
ATOM    105  H12 UNL A   1      25.322  22.037  13.267  1.00  0.00    +0.000 H 
ATOM     15  N1  UNL A   1      25.342  21.294  12.621  1.00  0.00    +0.000 N 
BRANCH   15   13
ATOM     13  C13 UNL A   1      24.344  20.381  12.785  1.00  0.00    +0.000 C 
ATOM     14  O1  UNL A   1      23.193  20.781  12.568  1.00  0.00    +0.000 O 
BRANCH   13   11
ATOM     11  C11 UNL A   1      24.577  18.932  13.238  1.00  0.00    +0.000 C 
ATOM    101  H8  UNL A   1      23.890  18.767  14.041  1.00  0.00    +0.000 H 
BRANCH   11   10
ATOM     99  H6  UNL A   1      22.931  14.801  11.860  1.00  0.00    +0.000 H 
ATOM    100  H7  UNL A   1      23.375  16.474  13.533  1.00  0.00    +0.000 H 
ATOM    133  H40 UNL A   1      24.792  19.061  10.554  1.00  0.00    +0.000 H 
ATOM    134  H41 UNL A   1      24.189  17.446   8.861  1.00  0.00    +0.000 H 
ATOM      7  C7  UNL A   1      23.513  15.964  10.202  1.00  0.00    +0.000 C 
ATOM      8  C8  UNL A   1      23.306  15.718  11.569  1.00  0.00    +0.000 C 
ATOM      9  C9  UNL A   1      23.591  16.676  12.544  1.00  0.00    +0.000 C 
ATOM     10  C10 UNL A   1      24.163  17.901  12.201  1.00  0.00    +0.000 C 
ATOM     88  C65 UNL A   1      24.379  18.159  10.839  1.00  0.00    +0.000 C 
ATOM     89  C66 UNL A   1      24.043  17.215   9.856  1.00  0.00    +0.000 C 
BRANCH    7    6
ATOM     97  H4  UNL A   1      19.777  14.577   6.465  1.00  0.00    +0.000 H 
ATOM      2  C2  UNL A   1      20.672  12.677   5.989  1.00  0.00    +0.000 C 
ATOM      3  C3  UNL A   1      20.541  13.899   6.612  1.00  0.00    +0.000 C 
ATOM      4  C4  UNL A   1      21.642  14.060   7.493  1.00  0.00    +0.000 C 
ATOM      5  C5  UNL A   1      22.033  15.074   8.386  1.00  0.00    +0.000 C 
ATOM     98  H5  UNL A   1      21.473  15.938   8.450  1.00  0.00    +0.000 H 
ATOM      6  C6  UNL A   1      23.180  14.930   9.197  1.00  0.00    +0.000 C 
ATOM    136  H43 UNL A   1      24.190  11.909   8.020  1.00  0.00    +0.000 H 
ATOM    137  H44 UNL A   1      22.183  11.230   6.164  1.00  0.00    +0.000 H 
ATOM    135  H42 UNL A   1      24.800  13.649   9.613  1.00  0.00    +0.000 H 
ATOM     90  C67 UNL A   1      23.949  13.764   9.039  1.00  0.00    +0.000 C 
ATOM     91  C68 UNL A   1      23.603  12.750   8.131  1.00  0.00    +0.000 C 
ATOM     92  C69 UNL A   1      22.434  12.922   7.384  1.00  0.00    +0.000 C 
ATOM     93  N7  UNL A   1      21.833  12.103   6.455  1.00  0.00    +0.000 N 
BRANCH    2    1
ATOM      1  C1  UNL A   1      19.803  12.004   4.995  1.00  0.00    +0.000 C 
ATOM     94  H1  UNL A   1      19.040  12.681   4.672  1.00  0.00    +0.000 H 
ATOM     95  H2  UNL A   1      19.352  11.143   5.440  1.00  0.00    +0.000 H 
ATOM     96  H3  UNL A   1      20.391  11.703   4.153  1.00  0.00    +0.000 H 
ENDBRANCH    2    1
ENDBRANCH    7    6
ENDBRANCH   11   10
BRANCH   11   12
ATOM     12  C12 UNL A   1      25.930  18.696  13.911  1.00  0.00    +0.000 C 
ATOM    102  H9  UNL A   1      26.376  17.808  13.516  1.00  0.00    +0.000 H 
ATOM    103  H10 UNL A   1      25.789  18.584  14.967  1.00  0.00    +0.000 H 
ATOM    104  H11 UNL A   1      26.573  19.531  13.725  1.00  0.00    +0.000 H 
ENDBRANCH   11   12
ENDBRANCH   13   11
ENDBRANCH   15   13
ENDBRANCH   16   15
ENDBRANCH   17   16
ENDBRANCH   18   17
ENDBRANCH   19   18
ENDBRANCH   20   19
ENDBRANCH   21   20
ENDBRANCH   22   21
ENDBRANCH   23   22
ENDBRANCH   25   23
ENDBRANCH   29   28
BRANCH   33   34
ATOM     34  C29 UNL A   1      20.256  22.949   1.301  1.00  0.00    +0.000 C 
ATOM     35  C30 UNL A   1      20.154  22.491  -0.021  1.00  0.00    +0.000 C 
ATOM     36  F1  UNL A   1      19.521  21.340  -0.290  1.00  0.00    +0.000 F 
ATOM     37  C31 UNL A   1      20.737  23.197  -1.070  1.00  0.00    +0.000 C 
ATOM     38  F2  UNL A   1      20.667  22.717  -2.319  1.00  0.00    +0.000 F 
ATOM     39  C32 UNL A   1      21.402  24.388  -0.823  1.00  0.00    +0.000 C 
ATOM     40  F3  UNL A   1      21.959  25.070  -1.834  1.00  0.00    +0.000 F 
ATOM     41  C33 UNL A   1      21.497  24.871   0.475  1.00  0.00    +0.000 C 
ATOM     42  F4  UNL A   1      22.129  26.027   0.713  1.00  0.00    +0.000 F 
ATOM     43  C34 UNL A   1      20.939  24.153   1.530  1.00  0.00    +0.000 C 
ATOM     44  F5  UNL A   1      21.059  24.637   2.774  1.00  0.00    +0.000 F 
ENDBRANCH   33   34
BRANCH   50   51
ATOM     51  C40 UNL A   1      13.759  22.234   4.346  1.00  0.00    +0.000 C 
ATOM     52  C41 UNL A   1      12.879  21.589   3.464  1.00  0.00    +0.000 C 
ATOM     53  F6  UNL A   1      13.293  20.529   2.754  1.00  0.00    +0.000 F 
ATOM     54  C42 UNL A   1      11.581  22.058   3.281  1.00  0.00    +0.000 C 
ATOM     55  F7  UNL A   1      10.771  21.454   2.402  1.00  0.00    +0.000 F 
ATOM     56  C43 UNL A   1      11.130  23.156   3.998  1.00  0.00    +0.000 C 
ATOM     57  F8  UNL A   1       9.878  23.603   3.824  1.00  0.00    +0.000 F 
ATOM     58  C44 UNL A   1      11.978  23.798   4.888  1.00  0.00    +0.000 C 
ATOM     59  F9  UNL A   1      11.540  24.854   5.588  1.00  0.00    +0.000 F 
ATOM     60  C45 UNL A   1      13.284  23.349   5.053  1.00  0.00    +0.000 C 
ATOM     61  F10 UNL A   1      14.087  23.997   5.912  1.00  0.00    +0.000 F 
ENDBRANCH   50   51
BRANCH   65   66
ATOM     66  C49 UNL A   1      16.509  17.922   9.071  1.00  0.00    +0.000 C 
ATOM     67  C50 UNL A   1      16.251  16.546   8.996  1.00  0.00    +0.000 C 
ATOM     68  F11 UNL A   1      16.499  15.880   7.859  1.00  0.00    +0.000 F 
ATOM     69  C51 UNL A   1      15.700  15.858  10.074  1.00  0.00    +0.000 C 
ATOM     70  F12 UNL A   1      15.423  14.552   9.963  1.00  0.00    +0.000 F 
ATOM     71  C52 UNL A   1      15.422  16.527  11.257  1.00  0.00    +0.000 C 
ATOM     72  F13 UNL A   1      14.894  15.864  12.296  1.00  0.00    +0.000 F 
ATOM     73  C53 UNL A   1      15.685  17.885  11.360  1.00  0.00    +0.000 C 
ATOM     74  F14 UNL A   1      15.430  18.532  12.506  1.00  0.00    +0.000 F 
ATOM     75  C54 UNL A   1      16.213  18.579  10.273  1.00  0.00    +0.000 C 
ATOM     76  F15 UNL A   1      16.445  19.895  10.395  1.00  0.00    +0.000 F 
ENDBRANCH   65   66
TORSDOF 19
ENDMDL
MODEL 5
REMARK VINA RESULT:      -8.9     40.191     47.499
ROOT
ATOM    129  H36 UNL A   1      13.217   3.019  17.471  1.00  0.00    +0.000 H 
ATOM    130  H37 UNL A   1      12.499   1.623  19.493  1.00  0.00    +0.000 H 
ATOM     29  C25 UNL A   1      10.757   3.001  21.277  1.00  0.00    +0.000 C 
ATOM     30  C26 UNL A   1      11.271   3.474  19.946  1.00  0.00    +0.000 C 
ATOM     31  N3  UNL A   1      11.036   4.600  19.320  1.00  0.00    +0.000 N 
ATOM     32  C27 UNL A   1      11.788   4.548  18.154  1.00  0.00    +0.000 C 
ATOM     33  C28 UNL A   1      11.843   5.447  17.143  1.00  0.00    +0.000 C 
ATOM     45  C35 UNL A   1      11.090   6.674  17.105  1.00  0.00    +0.000 C 
ATOM     46  C36 UNL A   1      11.043   7.628  16.103  1.00  0.00    +0.000 C 
ATOM     47  C37 UNL A   1      10.199   8.662  16.524  1.00  0.00    +0.000 C 
ATOM     48  C38 UNL A   1       9.688   8.332  17.769  1.00  0.00    +0.000 C 
ATOM     49  N4  UNL A   1      10.250   7.113  18.117  1.00  0.00    +0.000 N 
ATOM     50  C39 UNL A   1       8.760   9.072  18.583  1.00  0.00    +0.000 C 
ATOM     62  C46 UNL A   1       8.306   8.680  19.798  1.00  0.00    +0.000 C 
ATOM     63  N5  UNL A   1       8.602   7.525  20.509  1.00  0.00    +0.000 N 
ATOM     64  C47 UNL A   1       7.926   7.608  21.629  1.00  0.00    +0.000 C 
ATOM     65  C48 UNL A   1       7.844   6.625  22.764  1.00  0.00    +0.000 C 
ATOM     77  C55 UNL A   1       8.523   5.465  22.682  1.00  0.00    +0.000 C 
ATOM     78  C56 UNL A   1       8.538   4.418  23.698  1.00  0.00    +0.000 C 
ATOM     79  C57 UNL A   1       9.357   3.432  23.298  1.00  0.00    +0.000 C 
ATOM     80  C58 UNL A   1       9.899   3.765  21.981  1.00  0.00    +0.000 C 
ATOM     81  N6  UNL A   1       9.343   4.985  21.690  1.00  0.00    +0.000 N 
ATOM     82  C59 UNL A   1       7.146   8.846  21.768  1.00  0.00    +0.000 C 
ATOM     83  C60 UNL A   1       7.382   9.445  20.609  1.00  0.00    +0.000 C 
ATOM     84  C61 UNL A   1      12.525   3.302  18.181  1.00  0.00    +0.000 C 
ATOM     85  C62 UNL A   1      12.192   2.574  19.237  1.00  0.00    +0.000 C 
ATOM    121  H28 UNL A   1      11.544   7.585  15.203  1.00  0.00    +0.000 H 
ATOM    122  H29 UNL A   1       9.992   9.524  15.996  1.00  0.00    +0.000 H 
ATOM    123  H30 UNL A   1      10.076   6.630  18.957  1.00  0.00    +0.000 H 
ATOM    124  H31 UNL A   1       8.004   4.432  24.581  1.00  0.00    +0.000 H 
ATOM    125  H32 UNL A   1       9.570   2.576  23.835  1.00  0.00    +0.000 H 
ATOM    126  H33 UNL A   1       9.514   5.470  20.851  1.00  0.00    +0.000 H 
ATOM    127  H34 UNL A   1       6.566   9.166  22.560  1.00  0.00    +0.000 H 
ATOM    128  H35 UNL A   1       6.959  10.341  20.321  1.00  0.00    +0.000 H 
ENDROOT
BRANCH   29   28
ATOM    131  H38 UNL A   1      12.797   2.616  22.969  1.00  0.00    +0.000 H 
ATOM    132  H39 UNL A   1      13.674   0.531  23.839  1.00  0.00    +0.000 H 
ATOM    120  H27 UNL A   1       9.840   0.480  20.860  1.00  0.00    +0.000 H 
ATOM     86  C63 UNL A   1      12.341   1.724  22.721  1.00  0.00    +0.000 C 
ATOM     87  C64 UNL A   1      12.823   0.530  23.255  1.00  0.00    +0.000 C 
ATOM    119  H26 UNL A   1      10.599  -1.581  21.893  1.00  0.00    +0.000 H 
ATOM     25  C21 UNL A   1      12.153  -0.670  22.999  1.00  0.00    +0.000 C 
ATOM     26  C22 UNL A   1      11.070  -0.690  22.114  1.00  0.00    +0.000 C 
ATOM     27  C23 UNL A   1      10.625   0.500  21.530  1.00  0.00    +0.000 C 
ATOM     28  C24 UNL A   1      11.241   1.720  21.851  1.00  0.00    +0.000 C 
BRANCH   25   23
ATOM     23  C20 UNL A   1      12.603  -1.944  23.605  1.00  0.00    +0.000 C 
ATOM     24  O2  UNL A   1      12.195  -3.008  23.154  1.00  0.00    +0.000 O 
BRANCH   23   22
ATOM    118  H25 UNL A   1      14.394  -2.225  24.456  1.00  0.00    +0.000 H 
ATOM     22  N2  UNL A   1      13.475  -1.938  24.666  1.00  0.00    +0.000 N 
BRANCH   22   21
ATOM    117  H24 UNL A   1      12.792  -0.600  26.066  1.00  0.00    +0.000 H 
ATOM    116  H23 UNL A   1      14.176  -1.572  26.574  1.00  0.00    +0.000 H 
ATOM     21  C19 UNL A   1      13.241  -1.571  26.054  1.00  0.00    +0.000 C 
BRANCH   21   20
ATOM    114  H21 UNL A   1      12.280  -3.454  26.196  1.00  0.00    +0.000 H 
ATOM    115  H22 UNL A   1      12.652  -2.651  27.751  1.00  0.00    +0.000 H 
ATOM     20  C18 UNL A   1      12.288  -2.539  26.750  1.00  0.00    +0.000 C 
BRANCH   20   19
ATOM    113  H20 UNL A   1      10.252  -2.722  26.289  1.00  0.00    +0.000 H 
ATOM     19  C17 UNL A   1      10.842  -2.045  26.872  1.00  0.00    +0.000 C 
ATOM    112  H19 UNL A   1      10.810  -1.033  26.526  1.00  0.00    +0.000 H 
BRANCH   19   18
ATOM     18  C16 UNL A   1      10.243  -2.081  28.285  1.00  0.00    +0.000 C 
ATOM    110  H17 UNL A   1       9.793  -3.041  28.428  1.00  0.00    +0.000 H 
ATOM    111  H18 UNL A   1      11.053  -1.881  28.955  1.00  0.00    +0.000 H 
BRANCH   18   17
ATOM     17  C15 UNL A   1       9.181  -1.014  28.574  1.00  0.00    +0.000 C 
ATOM    108  H15 UNL A   1       9.325  -0.658  29.573  1.00  0.00    +0.000 H 
ATOM    109  H16 UNL A   1       9.307  -0.246  27.840  1.00  0.00    +0.000 H 
BRANCH   17   16
ATOM    106  H13 UNL A   1       7.709  -2.546  28.736  1.00  0.00    +0.000 H 
ATOM    107  H14 UNL A   1       7.124  -0.916  29.079  1.00  0.00    +0.000 H 
ATOM     16  C14 UNL A   1       7.742  -1.517  28.446  1.00  0.00    +0.000 C 
BRANCH   16   15
ATOM    105  H12 UNL A   1       7.163  -2.253  26.611  1.00  0.00    +0.000 H 
ATOM     15  N1  UNL A   1       7.242  -1.398  27.092  1.00  0.00    +0.000 N 
BRANCH   15   13
ATOM     13  C13 UNL A   1       6.861  -0.309  26.366  1.00  0.00    +0.000 C 
ATOM     14  O1  UNL A   1       5.687   0.057  26.502  1.00  0.00    +0.000 O 
BRANCH   13   11
ATOM     11  C11 UNL A   1       7.791   0.442  25.402  1.00  0.00    +0.000 C 
ATOM    101  H8  UNL A   1       7.183   1.195  24.944  1.00  0.00    +0.000 H 
BRANCH   11   10
ATOM     99  H6  UNL A   1       9.353   3.793  28.231  1.00  0.00    +0.000 H 
ATOM    100  H7  UNL A   1       7.605   2.422  27.305  1.00  0.00    +0.000 H 
ATOM    133  H40 UNL A   1      10.466   0.256  25.139  1.00  0.00    +0.000 H 
ATOM    134  H41 UNL A   1      12.231   1.523  26.197  1.00  0.00    +0.000 H 
ATOM      7  C7  UNL A   1      10.957   2.787  27.307  1.00  0.00    +0.000 C 
ATOM      8  C8  UNL A   1       9.603   3.024  27.590  1.00  0.00    +0.000 C 
ATOM      9  C9  UNL A   1       8.584   2.249  27.030  1.00  0.00    +0.000 C 
ATOM     10  C10 UNL A   1       8.873   1.244  26.106  1.00  0.00    +0.000 C 
ATOM     88  C65 UNL A   1      10.222   0.999  25.811  1.00  0.00    +0.000 C 
ATOM     89  C66 UNL A   1      11.247   1.745  26.415  1.00  0.00    +0.000 C 
BRANCH    7    6
ATOM     97  H4  UNL A   1      11.920   7.754  29.370  1.00  0.00    +0.000 H 
ATOM      2  C2  UNL A   1      14.021   7.421  29.708  1.00  0.00    +0.000 C 
ATOM      3  C3  UNL A   1      12.731   7.116  29.331  1.00  0.00    +0.000 C 
ATOM      4  C4  UNL A   1      12.715   5.771  28.879  1.00  0.00    +0.000 C 
ATOM      5  C5  UNL A   1      11.711   4.928  28.368  1.00  0.00    +0.000 C 
ATOM     98  H5  UNL A   1      10.740   5.273  28.310  1.00  0.00    +0.000 H 
ATOM      6  C6  UNL A   1      12.009   3.618  27.935  1.00  0.00    +0.000 C 
ATOM    136  H43 UNL A   1      15.308   3.615  28.739  1.00  0.00    +0.000 H 
ATOM    137  H44 UNL A   1      15.742   6.219  29.719  1.00  0.00    +0.000 H 
ATOM    135  H42 UNL A   1      13.563   2.204  27.788  1.00  0.00    +0.000 H 
ATOM     90  C67 UNL A   1      13.331   3.165  28.085  1.00  0.00    +0.000 C 
ATOM     91  C68 UNL A   1      14.347   3.972  28.623  1.00  0.00    +0.000 C 
ATOM     92  C69 UNL A   1      14.009   5.276  28.996  1.00  0.00    +0.000 C 
ATOM     93  N7  UNL A   1      14.781   6.291  29.515  1.00  0.00    +0.000 N 
BRANCH    2    1
ATOM      1  C1  UNL A   1      14.599   8.680  30.235  1.00  0.00    +0.000 C 
ATOM     94  H1  UNL A   1      15.638   8.729  29.984  1.00  0.00    +0.000 H 
ATOM     95  H2  UNL A   1      14.486   8.707  31.298  1.00  0.00    +0.000 H 
ATOM     96  H3  UNL A   1      14.089   9.515  29.802  1.00  0.00    +0.000 H 
ENDBRANCH    2    1
ENDBRANCH    7    6
ENDBRANCH   11   10
BRANCH   11   12
ATOM     12  C12 UNL A   1       8.248  -0.386  24.199  1.00  0.00    +0.000 C 
ATOM    102  H9  UNL A   1       9.009   0.147  23.668  1.00  0.00    +0.000 H 
ATOM    103  H10 UNL A   1       7.416  -0.561  23.549  1.00  0.00    +0.000 H 
ATOM    104  H11 UNL A   1       8.638  -1.323  24.538  1.00  0.00    +0.000 H 
ENDBRANCH   11   12
ENDBRANCH   13   11
ENDBRANCH   15   13
ENDBRANCH   16   15
ENDBRANCH   17   16
ENDBRANCH   18   17
ENDBRANCH   19   18
ENDBRANCH   20   19
ENDBRANCH   21   20
ENDBRANCH   22   21
ENDBRANCH   23   22
ENDBRANCH   25   23
ENDBRANCH   29   28
BRANCH   33   34
ATOM     34  C29 UNL A   1      12.747   5.133  15.985  1.00  0.00    +0.000 C 
ATOM     35  C30 UNL A   1      12.272   4.465  14.847  1.00  0.00    +0.000 C 
ATOM     36  F1  UNL A   1      10.998   4.052  14.789  1.00  0.00    +0.000 F 
ATOM     37  C31 UNL A   1      13.118   4.185  13.777  1.00  0.00    +0.000 C 
ATOM     38  F2  UNL A   1      12.655   3.505  12.719  1.00  0.00    +0.000 F 
ATOM     39  C32 UNL A   1      14.442   4.596  13.809  1.00  0.00    +0.000 C 
ATOM     40  F3  UNL A   1      15.253   4.331  12.776  1.00  0.00    +0.000 F 
ATOM     41  C33 UNL A   1      14.927   5.276  14.916  1.00  0.00    +0.000 C 
ATOM     42  F4  UNL A   1      16.203   5.684  14.944  1.00  0.00    +0.000 F 
ATOM     43  C34 UNL A   1      14.091   5.534  16.000  1.00  0.00    +0.000 C 
ATOM     44  F5  UNL A   1      14.593   6.181  17.062  1.00  0.00    +0.000 F 
ENDBRANCH   33   34
BRANCH   50   51
ATOM     51  C40 UNL A   1       8.234  10.367  18.040  1.00  0.00    +0.000 C 
ATOM     52  C41 UNL A   1       7.053  10.422  17.285  1.00  0.00    +0.000 C 
ATOM     53  F6  UNL A   1       6.389   9.294  16.987  1.00  0.00    +0.000 F 
ATOM     54  C42 UNL A   1       6.571  11.636  16.801  1.00  0.00    +0.000 C 
ATOM     55  F7  UNL A   1       5.464  11.661  16.045  1.00  0.00    +0.000 F 
ATOM     56  C43 UNL A   1       7.240  12.815  17.088  1.00  0.00    +0.000 C 
ATOM     57  F8  UNL A   1       6.771  13.983  16.626  1.00  0.00    +0.000 F 
ATOM     58  C44 UNL A   1       8.400  12.786  17.848  1.00  0.00    +0.000 C 
ATOM     59  F9  UNL A   1       9.043  13.927  18.134  1.00  0.00    +0.000 F 
ATOM     60  C45 UNL A   1       8.900  11.572  18.310  1.00  0.00    +0.000 C 
ATOM     61  F10 UNL A   1      10.031  11.572  19.032  1.00  0.00    +0.000 F 
ENDBRANCH   50   51
BRANCH   65   66
ATOM     66  C49 UNL A   1       6.999   6.907  23.953  1.00  0.00    +0.000 C 
ATOM     67  C50 UNL A   1       5.692   6.407  24.037  1.00  0.00    +0.000 C 
ATOM     68  F11 UNL A   1       5.188   5.679  23.029  1.00  0.00    +0.000 F 
ATOM     69  C51 UNL A   1       4.884   6.686  25.136  1.00  0.00    +0.000 C 
ATOM     70  F12 UNL A   1       3.624   6.232  25.172  1.00  0.00    +0.000 F 
ATOM     71  C52 UNL A   1       5.377   7.446  26.186  1.00  0.00    +0.000 C 
ATOM     72  F13 UNL A   1       4.600   7.714  27.245  1.00  0.00    +0.000 F 
ATOM     73  C53 UNL A   1       6.673   7.937  26.133  1.00  0.00    +0.000 C 
ATOM     74  F14 UNL A   1       7.157   8.662  27.151  1.00  0.00    +0.000 F 
ATOM     75  C54 UNL A   1       7.474   7.680  25.022  1.00  0.00    +0.000 C 
ATOM     76  F15 UNL A   1       8.719   8.177  24.991  1.00  0.00    +0.000 F 
ENDBRANCH   65   66
TORSDOF 19
ENDMDL
MODEL 6
REMARK VINA RESULT:      -8.9     42.258     48.939
ROOT
ATOM    129  H36 UNL A   1      45.800  54.035  15.132  1.00  0.00    +0.000 H 
ATOM    130  H37 UNL A   1      44.772  51.948  16.199  1.00  0.00    +0.000 H 
ATOM     29  C25 UNL A   1      46.435  50.727  18.163  1.00  0.00    +0.000 C 
ATOM     30  C26 UNL A   1      46.674  52.018  17.432  1.00  0.00    +0.000 C 
ATOM     31  N3  UNL A   1      47.675  52.856  17.534  1.00  0.00    +0.000 N 
ATOM     32  C27 UNL A   1      47.424  53.860  16.609  1.00  0.00    +0.000 C 
ATOM     33  C28 UNL A   1      48.136  54.987  16.370  1.00  0.00    +0.000 C 
ATOM     45  C35 UNL A   1      49.338  55.352  17.074  1.00  0.00    +0.000 C 
ATOM     46  C36 UNL A   1      50.107  56.495  16.936  1.00  0.00    +0.000 C 
ATOM     47  C37 UNL A   1      51.197  56.396  17.807  1.00  0.00    +0.000 C 
ATOM     48  C38 UNL A   1      51.086  55.212  18.517  1.00  0.00    +0.000 C 
ATOM     49  N4  UNL A   1      49.944  54.577  18.051  1.00  0.00    +0.000 N 
ATOM     50  C39 UNL A   1      51.954  54.695  19.542  1.00  0.00    +0.000 C 
ATOM     62  C46 UNL A   1      51.776  53.520  20.193  1.00  0.00    +0.000 C 
ATOM     63  N5  UNL A   1      50.761  52.586  20.045  1.00  0.00    +0.000 N 
ATOM     64  C47 UNL A   1      51.034  51.619  20.887  1.00  0.00    +0.000 C 
ATOM     65  C48 UNL A   1      50.260  50.362  21.175  1.00  0.00    +0.000 C 
ATOM     77  C55 UNL A   1      49.104  50.137  20.523  1.00  0.00    +0.000 C 
ATOM     78  C56 UNL A   1      48.246  48.969  20.698  1.00  0.00    +0.000 C 
ATOM     79  C57 UNL A   1      47.206  49.059  19.853  1.00  0.00    +0.000 C 
ATOM     80  C58 UNL A   1      47.308  50.310  19.100  1.00  0.00    +0.000 C 
ATOM     81  N6  UNL A   1      48.460  50.888  19.570  1.00  0.00    +0.000 N 
ATOM     82  C59 UNL A   1      52.278  51.819  21.645  1.00  0.00    +0.000 C 
ATOM     83  C60 UNL A   1      52.668  53.009  21.213  1.00  0.00    +0.000 C 
ATOM     84  C61 UNL A   1      46.201  53.504  15.920  1.00  0.00    +0.000 C 
ATOM     85  C62 UNL A   1      45.665  52.407  16.435  1.00  0.00    +0.000 C 
ATOM    121  H28 UNL A   1      49.910  57.283  16.300  1.00  0.00    +0.000 H 
ATOM    122  H29 UNL A   1      51.956  57.089  17.905  1.00  0.00    +0.000 H 
ATOM    123  H30 UNL A   1      49.612  53.707  18.369  1.00  0.00    +0.000 H 
ATOM    124  H31 UNL A   1      48.412  48.199  21.364  1.00  0.00    +0.000 H 
ATOM    125  H32 UNL A   1      46.456  48.358  19.751  1.00  0.00    +0.000 H 
ATOM    126  H33 UNL A   1      48.794  51.759  19.255  1.00  0.00    +0.000 H 
ATOM    127  H34 UNL A   1      52.728  51.196  22.334  1.00  0.00    +0.000 H 
ATOM    128  H35 UNL A   1      53.502  53.509  21.560  1.00  0.00    +0.000 H 
ENDROOT
BRANCH   29   28
ATOM    131  H38 UNL A   1      43.929  50.884  19.095  1.00  0.00    +0.000 H 
ATOM    132  H39 UNL A   1      42.040  49.443  18.617  1.00  0.00    +0.000 H 
ATOM    120  H27 UNL A   1      46.311  48.616  16.462  1.00  0.00    +0.000 H 
ATOM     86  C63 UNL A   1      44.030  50.111  18.419  1.00  0.00    +0.000 C 
ATOM     87  C64 UNL A   1      42.931  49.308  18.116  1.00  0.00    +0.000 C 
ATOM    119  H26 UNL A   1      44.365  47.304  15.839  1.00  0.00    +0.000 H 
ATOM     25  C21 UNL A   1      43.038  48.321  17.132  1.00  0.00    +0.000 C 
ATOM     26  C22 UNL A   1      44.277  48.060  16.536  1.00  0.00    +0.000 C 
ATOM     27  C23 UNL A   1      45.393  48.825  16.886  1.00  0.00    +0.000 C 
ATOM     28  C24 UNL A   1      45.272  49.874  17.811  1.00  0.00    +0.000 C 
BRANCH   25   23
ATOM     23  C20 UNL A   1      41.871  47.497  16.743  1.00  0.00    +0.000 C 
ATOM     24  O2  UNL A   1      41.183  47.834  15.786  1.00  0.00    +0.000 O 
BRANCH   23   22
ATOM    118  H25 UNL A   1      41.182  46.512  18.346  1.00  0.00    +0.000 H 
ATOM     22  N2  UNL A   1      41.557  46.360  17.447  1.00  0.00    +0.000 N 
BRANCH   22   21
ATOM    117  H24 UNL A   1      41.161  44.822  16.145  1.00  0.00    +0.000 H 
ATOM    116  H23 UNL A   1      41.303  44.349  17.841  1.00  0.00    +0.000 H 
ATOM     21  C19 UNL A   1      41.697  44.965  17.060  1.00  0.00    +0.000 C 
BRANCH   21   20
ATOM    114  H21 UNL A   1      43.172  43.776  16.112  1.00  0.00    +0.000 H 
ATOM    115  H22 UNL A   1      43.643  45.465  16.462  1.00  0.00    +0.000 H 
ATOM     20  C18 UNL A   1      43.155  44.581  16.816  1.00  0.00    +0.000 C 
BRANCH   20   19
ATOM    113  H20 UNL A   1      44.853  43.743  17.712  1.00  0.00    +0.000 H 
ATOM     19  C17 UNL A   1      43.923  44.137  18.066  1.00  0.00    +0.000 C 
ATOM    112  H19 UNL A   1      43.319  43.423  18.586  1.00  0.00    +0.000 H 
BRANCH   19   18
ATOM     18  C16 UNL A   1      44.292  45.253  19.053  1.00  0.00    +0.000 C 
ATOM    110  H17 UNL A   1      45.118  45.796  18.643  1.00  0.00    +0.000 H 
ATOM    111  H18 UNL A   1      43.408  45.843  19.175  1.00  0.00    +0.000 H 
BRANCH   18   17
ATOM     17  C15 UNL A   1      44.685  44.783  20.457  1.00  0.00    +0.000 C 
ATOM    108  H15 UNL A   1      45.531  45.354  20.779  1.00  0.00    +0.000 H 
ATOM    109  H16 UNL A   1      43.829  44.925  21.082  1.00  0.00    +0.000 H 
BRANCH   17   16
ATOM    106  H13 UNL A   1      44.248  42.771  21.011  1.00  0.00    +0.000 H 
ATOM    107  H14 UNL A   1      45.212  42.944  19.541  1.00  0.00    +0.000 H 
ATOM     16  C14 UNL A   1      45.050  43.299  20.537  1.00  0.00    +0.000 C 
BRANCH   16   15
ATOM    105  H12 UNL A   1      46.215  42.331  21.933  1.00  0.00    +0.000 H 
ATOM     15  N1  UNL A   1      46.265  43.077  21.293  1.00  0.00    +0.000 N 
BRANCH   15   13
ATOM     13  C13 UNL A   1      47.467  43.719  21.272  1.00  0.00    +0.000 C 
ATOM     14  O1  UNL A   1      47.699  44.479  22.222  1.00  0.00    +0.000 O 
BRANCH   13   11
ATOM     11  C11 UNL A   1      48.499  43.565  20.145  1.00  0.00    +0.000 C 
ATOM    101  H8  UNL A   1      48.088  42.836  19.477  1.00  0.00    +0.000 H 
BRANCH   11   10
ATOM     99  H6  UNL A   1      47.195  46.459  16.740  1.00  0.00    +0.000 H 
ATOM    100  H7  UNL A   1      46.822  44.602  18.225  1.00  0.00    +0.000 H 
ATOM    133  H40 UNL A   1      50.478  45.394  20.118  1.00  0.00    +0.000 H 
ATOM    134  H41 UNL A   1      50.770  47.357  18.738  1.00  0.00    +0.000 H 
ATOM      7  C7  UNL A   1      49.014  47.087  17.600  1.00  0.00    +0.000 C 
ATOM      8  C8  UNL A   1      47.891  46.254  17.475  1.00  0.00    +0.000 C 
ATOM      9  C9  UNL A   1      47.687  45.157  18.316  1.00  0.00    +0.000 C 
ATOM     10  C10 UNL A   1      48.635  44.804  19.276  1.00  0.00    +0.000 C 
ATOM     88  C65 UNL A   1      49.764  45.625  19.409  1.00  0.00    +0.000 C 
ATOM     89  C66 UNL A   1      49.941  46.757  18.598  1.00  0.00    +0.000 C 
BRANCH    7    6
ATOM     97  H4  UNL A   1      51.892  51.684  16.939  1.00  0.00    +0.000 H 
ATOM      2  C2  UNL A   1      50.790  52.358  15.215  1.00  0.00    +0.000 C 
ATOM      3  C3  UNL A   1      51.145  51.516  16.247  1.00  0.00    +0.000 C 
ATOM      4  C4  UNL A   1      50.301  50.376  16.188  1.00  0.00    +0.000 C 
ATOM      5  C5  UNL A   1      50.182  49.213  16.970  1.00  0.00    +0.000 C 
ATOM     98  H5  UNL A   1      50.836  49.059  17.754  1.00  0.00    +0.000 H 
ATOM      6  C6  UNL A   1      49.184  48.252  16.701  1.00  0.00    +0.000 C 
ATOM    136  H43 UNL A   1      47.854  49.737  13.953  1.00  0.00    +0.000 H 
ATOM    137  H44 UNL A   1      49.332  52.124  13.724  1.00  0.00    +0.000 H 
ATOM    135  H42 UNL A   1      47.625  47.768  15.370  1.00  0.00    +0.000 H 
ATOM     90  C67 UNL A   1      48.350  48.469  15.591  1.00  0.00    +0.000 C 
ATOM     91  C68 UNL A   1      48.467  49.604  14.772  1.00  0.00    +0.000 C 
ATOM     92  C69 UNL A   1      49.443  50.547  15.108  1.00  0.00    +0.000 C 
ATOM     93  N7  UNL A   1      49.769  51.750  14.524  1.00  0.00    +0.000 N 
BRANCH    2    1
ATOM      1  C1  UNL A   1      51.330  53.681  14.823  1.00  0.00    +0.000 C 
ATOM     94  H1  UNL A   1      50.563  54.252  14.343  1.00  0.00    +0.000 H 
ATOM     95  H2  UNL A   1      52.150  53.547  14.149  1.00  0.00    +0.000 H 
ATOM     96  H3  UNL A   1      51.668  54.202  15.695  1.00  0.00    +0.000 H 
ENDBRANCH    2    1
ENDBRANCH    7    6
ENDBRANCH   11   10
BRANCH   11   12
ATOM     12  C12 UNL A   1      49.809  42.907  20.582  1.00  0.00    +0.000 C 
ATOM    102  H9  UNL A   1      50.163  42.265  19.803  1.00  0.00    +0.000 H 
ATOM    103  H10 UNL A   1      49.642  42.331  21.469  1.00  0.00    +0.000 H 
ATOM    104  H11 UNL A   1      50.540  43.663  20.780  1.00  0.00    +0.000 H 
ENDBRANCH   11   12
ENDBRANCH   13   11
ENDBRANCH   15   13
ENDBRANCH   16   15
ENDBRANCH   17   16
ENDBRANCH   18   17
ENDBRANCH   19   18
ENDBRANCH   20   19
ENDBRANCH   21   20
ENDBRANCH   22   21
ENDBRANCH   23   22
ENDBRANCH   25   23
ENDBRANCH   29   28
BRANCH   33   34
ATOM     34  C29 UNL A   1      47.628  55.914  15.304  1.00  0.00    +0.000 C 
ATOM     35  C30 UNL A   1      46.965  57.106  15.627  1.00  0.00    +0.000 C 
ATOM     36  F1  UNL A   1      46.731  57.423  16.908  1.00  0.00    +0.000 F 
ATOM     37  C31 UNL A   1      46.504  57.962  14.629  1.00  0.00    +0.000 C 
ATOM     38  F2  UNL A   1      45.832  59.073  14.959  1.00  0.00    +0.000 F 
ATOM     39  C32 UNL A   1      46.727  57.660  13.294  1.00  0.00    +0.000 C 
ATOM     40  F3  UNL A   1      46.288  58.486  12.335  1.00  0.00    +0.000 F 
ATOM     41  C33 UNL A   1      47.400  56.495  12.952  1.00  0.00    +0.000 C 
ATOM     42  F4  UNL A   1      47.626  56.208  11.664  1.00  0.00    +0.000 F 
ATOM     43  C34 UNL A   1      47.838  55.624  13.947  1.00  0.00    +0.000 C 
ATOM     44  F5  UNL A   1      48.472  54.499  13.585  1.00  0.00    +0.000 F 
ENDBRANCH   33   34
BRANCH   50   51
ATOM     51  C40 UNL A   1      53.137  55.527  19.940  1.00  0.00    +0.000 C 
ATOM     52  C41 UNL A   1      54.400  55.334  19.360  1.00  0.00    +0.000 C 
ATOM     53  F6  UNL A   1      54.588  54.353  18.465  1.00  0.00    +0.000 F 
ATOM     54  C42 UNL A   1      55.483  56.126  19.731  1.00  0.00    +0.000 C 
ATOM     55  F7  UNL A   1      56.691  55.897  19.197  1.00  0.00    +0.000 F 
ATOM     56  C43 UNL A   1      55.318  57.143  20.659  1.00  0.00    +0.000 C 
ATOM     57  F8  UNL A   1      56.362  57.907  21.010  1.00  0.00    +0.000 F 
ATOM     58  C44 UNL A   1      54.074  57.362  21.232  1.00  0.00    +0.000 C 
ATOM     59  F9  UNL A   1      53.911  58.351  22.122  1.00  0.00    +0.000 F 
ATOM     60  C45 UNL A   1      52.995  56.555  20.884  1.00  0.00    +0.000 C 
ATOM     61  F10 UNL A   1      51.806  56.782  21.463  1.00  0.00    +0.000 F 
ENDBRANCH   50   51
BRANCH   65   66
ATOM     66  C49 UNL A   1      50.741  49.389  22.189  1.00  0.00    +0.000 C 
ATOM     67  C50 UNL A   1      51.620  48.357  21.831  1.00  0.00    +0.000 C 
ATOM     68  F11 UNL A   1      52.021  48.232  20.557  1.00  0.00    +0.000 F 
ATOM     69  C51 UNL A   1      52.056  47.425  22.769  1.00  0.00    +0.000 C 
ATOM     70  F12 UNL A   1      52.861  46.423  22.392  1.00  0.00    +0.000 F 
ATOM     71  C52 UNL A   1      51.645  47.525  24.090  1.00  0.00    +0.000 C 
ATOM     72  F13 UNL A   1      52.067  46.629  24.994  1.00  0.00    +0.000 F 
ATOM     73  C53 UNL A   1      50.790  48.548  24.471  1.00  0.00    +0.000 C 
ATOM     74  F14 UNL A   1      50.401  48.654  25.750  1.00  0.00    +0.000 F 
ATOM     75  C54 UNL A   1      50.333  49.466  23.528  1.00  0.00    +0.000 C 
ATOM     76  F15 UNL A   1      49.497  50.437  23.921  1.00  0.00    +0.000 F 
ENDBRANCH   65   66
TORSDOF 19
ENDMDL
MODEL 7
REMARK VINA RESULT:      -8.9     27.606     33.483
ROOT
ATOM    129  H36 UNL A   1      29.107  34.126  42.851  1.00  0.00    +0.000 H 
ATOM    130  H37 UNL A   1      26.665  33.852  43.568  1.00  0.00    +0.000 H 
ATOM     29  C25 UNL A   1      25.862  35.661  45.616  1.00  0.00    +0.000 C 
ATOM     30  C26 UNL A   1      27.175  35.624  44.887  1.00  0.00    +0.000 C 
ATOM     31  N3  UNL A   1      28.221  36.400  45.023  1.00  0.00    +0.000 N 
ATOM     32  C27 UNL A   1      29.174  35.909  44.141  1.00  0.00    +0.000 C 
ATOM     33  C28 UNL A   1      30.406  36.400  43.868  1.00  0.00    +0.000 C 
ATOM     45  C35 UNL A   1      30.964  37.579  44.477  1.00  0.00    +0.000 C 
ATOM     46  C36 UNL A   1      32.185  38.183  44.233  1.00  0.00    +0.000 C 
ATOM     47  C37 UNL A   1      32.306  39.286  45.087  1.00  0.00    +0.000 C 
ATOM     48  C38 UNL A   1      31.144  39.392  45.833  1.00  0.00    +0.000 C 
ATOM     49  N4  UNL A   1      30.332  38.334  45.454  1.00  0.00    +0.000 N 
ATOM     50  C39 UNL A   1      30.798  40.383  46.818  1.00  0.00    +0.000 C 
ATOM     62  C46 UNL A   1      29.634  40.419  47.510  1.00  0.00    +0.000 C 
ATOM     63  N5  UNL A   1      28.545  39.561  47.431  1.00  0.00    +0.000 N 
ATOM     64  C47 UNL A   1      27.672  40.006  48.303  1.00  0.00    +0.000 C 
ATOM     65  C48 UNL A   1      26.299  39.483  48.623  1.00  0.00    +0.000 C 
ATOM     77  C55 UNL A   1      25.826  38.417  47.948  1.00  0.00    +0.000 C 
ATOM     78  C56 UNL A   1      24.517  37.802  48.146  1.00  0.00    +0.000 C 
ATOM     79  C57 UNL A   1      24.406  36.738  47.335  1.00  0.00    +0.000 C 
ATOM     80  C58 UNL A   1      25.626  36.617  46.536  1.00  0.00    +0.000 C 
ATOM     81  N6  UNL A   1      26.408  37.661  46.961  1.00  0.00    +0.000 N 
ATOM     82  C59 UNL A   1      28.125  41.182  49.058  1.00  0.00    +0.000 C 
ATOM     83  C60 UNL A   1      29.308  41.416  48.509  1.00  0.00    +0.000 C 
ATOM     84  C61 UNL A   1      28.602  34.738  43.510  1.00  0.00    +0.000 C 
ATOM     85  C62 UNL A   1      27.346  34.557  43.890  1.00  0.00    +0.000 C 
ATOM    121  H28 UNL A   1      32.885  37.874  43.541  1.00  0.00    +0.000 H 
ATOM    122  H29 UNL A   1      33.123  39.913  45.149  1.00  0.00    +0.000 H 
ATOM    123  H30 UNL A   1      29.438  38.147  45.823  1.00  0.00    +0.000 H 
ATOM    124  H31 UNL A   1      23.793  38.133  48.803  1.00  0.00    +0.000 H 
ATOM    125  H32 UNL A   1      23.592  36.106  47.284  1.00  0.00    +0.000 H 
ATOM    126  H33 UNL A   1      27.302  37.850  46.594  1.00  0.00    +0.000 H 
ATOM    127  H34 UNL A   1      27.646  41.693  49.816  1.00  0.00    +0.000 H 
ATOM    128  H35 UNL A   1      29.920  42.209  48.760  1.00  0.00    +0.000 H 
ENDROOT
BRANCH   29   28
ATOM    131  H38 UNL A   1      25.735  33.210  46.689  1.00  0.00    +0.000 H 
ATOM    132  H39 UNL A   1      24.148  31.436  46.234  1.00  0.00    +0.000 H 
ATOM    120  H27 UNL A   1      23.703  35.708  43.972  1.00  0.00    +0.000 H 
ATOM     86  C63 UNL A   1      24.957  33.373  46.031  1.00  0.00    +0.000 C 
ATOM     87  C64 UNL A   1      24.022  32.364  45.803  1.00  0.00    +0.000 C 
ATOM    119  H26 UNL A   1      22.006  33.997  43.675  1.00  0.00    +0.000 H 
ATOM     25  C21 UNL A   1      22.914  32.611  44.987  1.00  0.00    +0.000 C 
ATOM     26  C22 UNL A   1      22.804  33.829  44.308  1.00  0.00    +0.000 C 
ATOM     27  C23 UNL A   1      23.774  34.818  44.490  1.00  0.00    +0.000 C 
ATOM     28  C24 UNL A   1      24.844  34.607  45.375  1.00  0.00    +0.000 C 
BRANCH   25   23
ATOM     23  C20 UNL A   1      21.871  31.580  44.778  1.00  0.00    +0.000 C 
ATOM     24  O2  UNL A   1      22.188  30.397  44.733  1.00  0.00    +0.000 O 
BRANCH   23   22
ATOM    118  H25 UNL A   1      20.102  32.217  45.470  1.00  0.00    +0.000 H 
ATOM     22  N2  UNL A   1      20.554  31.944  44.638  1.00  0.00    +0.000 N 
BRANCH   22   21
ATOM    117  H24 UNL A   1      19.069  31.141  43.467  1.00  0.00    +0.000 H 
ATOM    116  H23 UNL A   1      20.364  31.952  42.582  1.00  0.00    +0.000 H 
ATOM     21  C19 UNL A   1      19.728  31.984  43.441  1.00  0.00    +0.000 C 
BRANCH   21   20
ATOM    114  H21 UNL A   1      19.371  33.953  42.746  1.00  0.00    +0.000 H 
ATOM    115  H22 UNL A   1      17.917  32.944  43.002  1.00  0.00    +0.000 H 
ATOM     20  C18 UNL A   1      18.873  33.248  43.376  1.00  0.00    +0.000 C 
BRANCH   20   19
ATOM    113  H20 UNL A   1      19.376  34.660  44.839  1.00  0.00    +0.000 H 
ATOM     19  C17 UNL A   1      18.611  33.920  44.729  1.00  0.00    +0.000 C 
ATOM    112  H19 UNL A   1      18.630  33.160  45.482  1.00  0.00    +0.000 H 
BRANCH   19   18
ATOM     18  C16 UNL A   1      17.280  34.673  44.851  1.00  0.00    +0.000 C 
ATOM    110  H17 UNL A   1      16.883  34.485  45.827  1.00  0.00    +0.000 H 
ATOM    111  H18 UNL A   1      17.506  35.703  44.670  1.00  0.00    +0.000 H 
BRANCH   18   17
ATOM     17  C15 UNL A   1      16.211  34.287  43.823  1.00  0.00    +0.000 C 
ATOM    108  H15 UNL A   1      15.811  35.185  43.400  1.00  0.00    +0.000 H 
ATOM    109  H16 UNL A   1      16.691  33.667  43.096  1.00  0.00    +0.000 H 
BRANCH   17   16
ATOM    106  H13 UNL A   1      15.144  33.456  45.470  1.00  0.00    +0.000 H 
ATOM    107  H14 UNL A   1      14.138  33.937  44.102  1.00  0.00    +0.000 H 
ATOM     16  C14 UNL A   1      15.053  33.473  44.405  1.00  0.00    +0.000 C 
BRANCH   16   15
ATOM    105  H12 UNL A   1      14.171  31.802  43.587  1.00  0.00    +0.000 H 
ATOM     15  N1  UNL A   1      15.046  32.110  43.915  1.00  0.00    +0.000 N 
BRANCH   15   13
ATOM     13  C13 UNL A   1      16.038  31.181  43.827  1.00  0.00    +0.000 C 
ATOM     14  O1  UNL A   1      16.622  30.900  44.881  1.00  0.00    +0.000 O 
BRANCH   13   11
ATOM     11  C11 UNL A   1      16.465  30.509  42.513  1.00  0.00    +0.000 C 
ATOM    101  H8  UNL A   1      17.525  30.380  42.587  1.00  0.00    +0.000 H 
BRANCH   11   10
ATOM     99  H6  UNL A   1      15.052  26.374  44.117  1.00  0.00    +0.000 H 
ATOM    100  H7  UNL A   1      15.673  28.681  44.412  1.00  0.00    +0.000 H 
ATOM    133  H40 UNL A   1      16.022  29.105  40.256  1.00  0.00    +0.000 H 
ATOM    134  H41 UNL A   1      15.237  26.840  39.955  1.00  0.00    +0.000 H 
ATOM      7  C7  UNL A   1      15.081  26.388  42.010  1.00  0.00    +0.000 C 
ATOM      8  C8  UNL A   1      15.234  26.956  43.285  1.00  0.00    +0.000 C 
ATOM      9  C9  UNL A   1      15.623  28.286  43.459  1.00  0.00    +0.000 C 
ATOM     10  C10 UNL A   1      15.945  29.089  42.365  1.00  0.00    +0.000 C 
ATOM     88  C65 UNL A   1      15.801  28.532  41.085  1.00  0.00    +0.000 C 
ATOM     89  C66 UNL A   1      15.359  27.212  40.911  1.00  0.00    +0.000 C 
BRANCH    7    6
ATOM     97  H4  UNL A   1      14.026  22.520  38.299  1.00  0.00    +0.000 H 
ATOM      2  C2  UNL A   1      13.314  21.070  39.724  1.00  0.00    +0.000 C 
ATOM      3  C3  UNL A   1      13.839  22.265  39.282  1.00  0.00    +0.000 C 
ATOM      4  C4  UNL A   1      14.076  23.084  40.417  1.00  0.00    +0.000 C 
ATOM      5  C5  UNL A   1      14.576  24.387  40.588  1.00  0.00    +0.000 C 
ATOM     98  H5  UNL A   1      14.898  24.920  39.764  1.00  0.00    +0.000 H 
ATOM      6  C6  UNL A   1      14.647  24.979  41.867  1.00  0.00    +0.000 C 
ATOM    136  H43 UNL A   1      13.513  22.326  43.657  1.00  0.00    +0.000 H 
ATOM    137  H44 UNL A   1      12.922  20.411  41.678  1.00  0.00    +0.000 H 
ATOM    135  H42 UNL A   1      14.315  24.613  43.915  1.00  0.00    +0.000 H 
ATOM     90  C67 UNL A   1      14.255  24.202  42.970  1.00  0.00    +0.000 C 
ATOM     91  C68 UNL A   1      13.783  22.886  42.833  1.00  0.00    +0.000 C 
ATOM     92  C69 UNL A   1      13.690  22.362  41.540  1.00  0.00    +0.000 C 
ATOM     93  N7  UNL A   1      13.245  21.137  41.096  1.00  0.00    +0.000 N 
BRANCH    2    1
ATOM      1  C1  UNL A   1      12.875  19.873  38.970  1.00  0.00    +0.000 C 
ATOM     94  H1  UNL A   1      12.211  20.169  38.184  1.00  0.00    +0.000 H 
ATOM     95  H2  UNL A   1      12.368  19.201  39.630  1.00  0.00    +0.000 H 
ATOM     96  H3  UNL A   1      13.728  19.383  38.549  1.00  0.00    +0.000 H 
ENDBRANCH    2    1
ENDBRANCH    7    6
ENDBRANCH   11   10
BRANCH   11   12
ATOM     12  C12 UNL A   1      16.330  31.403  41.279  1.00  0.00    +0.000 C 
ATOM    102  H9  UNL A   1      17.090  31.150  40.570  1.00  0.00    +0.000 H 
ATOM    103  H10 UNL A   1      16.440  32.428  41.567  1.00  0.00    +0.000 H 
ATOM    104  H11 UNL A   1      15.367  31.258  40.836  1.00  0.00    +0.000 H 
ENDBRANCH   11   12
ENDBRANCH   13   11
ENDBRANCH   15   13
ENDBRANCH   16   15
ENDBRANCH   17   16
ENDBRANCH   18   17
ENDBRANCH   19   18
ENDBRANCH   20   19
ENDBRANCH   21   20
ENDBRANCH   22   21
ENDBRANCH   23   22
ENDBRANCH   25   23
ENDBRANCH   29   28
BRANCH   33   34
ATOM     34  C29 UNL A   1      31.236  35.664  42.855  1.00  0.00    +0.000 C 
ATOM     35  C30 UNL A   1      31.954  34.509  43.198  1.00  0.00    +0.000 C 
ATOM     36  F1  UNL A   1      31.947  34.060  44.461  1.00  0.00    +0.000 F 
ATOM     37  C31 UNL A   1      32.714  33.831  42.248  1.00  0.00    +0.000 C 
ATOM     38  F2  UNL A   1      33.429  32.756  42.608  1.00  0.00    +0.000 F 
ATOM     39  C32 UNL A   1      32.744  34.274  40.935  1.00  0.00    +0.000 C 
ATOM     40  F3  UNL A   1      33.472  33.617  40.021  1.00  0.00    +0.000 F 
ATOM     41  C33 UNL A   1      32.025  35.402  40.569  1.00  0.00    +0.000 C 
ATOM     42  F4  UNL A   1      32.044  35.824  39.298  1.00  0.00    +0.000 F 
ATOM     43  C34 UNL A   1      31.285  36.099  41.522  1.00  0.00    +0.000 C 
ATOM     44  F5  UNL A   1      30.612  37.194  41.141  1.00  0.00    +0.000 F 
ENDBRANCH   33   34
BRANCH   50   51
ATOM     51  C40 UNL A   1      31.791  41.474  47.089  1.00  0.00    +0.000 C 
ATOM     52  C41 UNL A   1      31.589  42.782  46.624  1.00  0.00    +0.000 C 
ATOM     53  F6  UNL A   1      30.516  43.074  45.873  1.00  0.00    +0.000 F 
ATOM     54  C42 UNL A   1      32.514  43.787  46.897  1.00  0.00    +0.000 C 
ATOM     55  F7  UNL A   1      32.325  45.019  46.406  1.00  0.00    +0.000 F 
ATOM     56  C43 UNL A   1      33.635  43.512  47.664  1.00  0.00    +0.000 C 
ATOM     57  F8  UNL A   1      34.521  44.482  47.930  1.00  0.00    +0.000 F 
ATOM     58  C44 UNL A   1      33.845  42.229  48.149  1.00  0.00    +0.000 C 
ATOM     59  F9  UNL A   1      34.923  41.964  48.899  1.00  0.00    +0.000 F 
ATOM     60  C45 UNL A   1      32.937  41.216  47.855  1.00  0.00    +0.000 C 
ATOM     61  F10 UNL A   1      33.171  39.982  48.327  1.00  0.00    +0.000 F 
ENDBRANCH   50   51
BRANCH   65   66
ATOM     66  C49 UNL A   1      25.453  40.147  49.648  1.00  0.00    +0.000 C 
ATOM     67  C50 UNL A   1      25.484  39.724  50.984  1.00  0.00    +0.000 C 
ATOM     68  F11 UNL A   1      26.272  38.699  51.344  1.00  0.00    +0.000 F 
ATOM     69  C51 UNL A   1      24.676  40.324  51.947  1.00  0.00    +0.000 C 
ATOM     70  F12 UNL A   1      24.692  39.872  53.208  1.00  0.00    +0.000 F 
ATOM     71  C52 UNL A   1      23.844  41.376  51.598  1.00  0.00    +0.000 C 
ATOM     72  F13 UNL A   1      23.067  41.955  52.525  1.00  0.00    +0.000 F 
ATOM     73  C53 UNL A   1      23.809  41.823  50.285  1.00  0.00    +0.000 C 
ATOM     74  F14 UNL A   1      23.015  42.849  49.947  1.00  0.00    +0.000 F 
ATOM     75  C54 UNL A   1      24.598  41.207  49.316  1.00  0.00    +0.000 C 
ATOM     76  F15 UNL A   1      24.536  41.650  48.052  1.00  0.00    +0.000 F 
ENDBRANCH   65   66
TORSDOF 19
ENDMDL
MODEL 8
REMARK VINA RESULT:      -8.9      3.106      7.461
ROOT
ATOM    129  H36 UNL A   1      47.783  15.820  45.368  1.00  0.00    +0.000 H 
ATOM    130  H37 UNL A   1      46.171  13.843  45.159  1.00  0.00    +0.000 H 
ATOM     29  C25 UNL A   1      46.639  11.776  47.063  1.00  0.00    +0.000 C 
ATOM     30  C26 UNL A   1      47.315  13.116  46.977  1.00  0.00    +0.000 C 
ATOM     31  N3  UNL A   1      48.247  13.625  47.743  1.00  0.00    +0.000 N 
ATOM     32  C27 UNL A   1      48.545  14.868  47.202  1.00  0.00    +0.000 C 
ATOM     33  C28 UNL A   1      49.404  15.807  47.663  1.00  0.00    +0.000 C 
ATOM     45  C35 UNL A   1      50.195  15.667  48.858  1.00  0.00    +0.000 C 
ATOM     46  C36 UNL A   1      51.060  16.581  49.434  1.00  0.00    +0.000 C 
ATOM     47  C37 UNL A   1      51.628  15.991  50.569  1.00  0.00    +0.000 C 
ATOM     48  C38 UNL A   1      51.085  14.726  50.723  1.00  0.00    +0.000 C 
ATOM     49  N4  UNL A   1      50.213  14.537  49.662  1.00  0.00    +0.000 N 
ATOM     50  C39 UNL A   1      51.342  13.760  51.759  1.00  0.00    +0.000 C 
ATOM     62  C46 UNL A   1      50.768  12.535  51.840  1.00  0.00    +0.000 C 
ATOM     63  N5  UNL A   1      49.834  11.951  50.996  1.00  0.00    +0.000 N 
ATOM     64  C47 UNL A   1      49.597  10.760  51.488  1.00  0.00    +0.000 C 
ATOM     65  C48 UNL A   1      48.648   9.701  50.999  1.00  0.00    +0.000 C 
ATOM     77  C55 UNL A   1      47.889   9.947  49.914  1.00  0.00    +0.000 C 
ATOM     78  C56 UNL A   1      46.926   9.021  49.326  1.00  0.00    +0.000 C 
ATOM     79  C57 UNL A   1      46.390   9.584  48.231  1.00  0.00    +0.000 C 
ATOM     80  C58 UNL A   1      46.950  10.925  48.059  1.00  0.00    +0.000 C 
ATOM     81  N6  UNL A   1      47.824  11.058  49.109  1.00  0.00    +0.000 N 
ATOM     82  C59 UNL A   1      50.383  10.441  52.689  1.00  0.00    +0.000 C 
ATOM     83  C60 UNL A   1      51.049  11.569  52.882  1.00  0.00    +0.000 C 
ATOM     84  C61 UNL A   1      47.730  15.018  46.014  1.00  0.00    +0.000 C 
ATOM     85  C62 UNL A   1      46.907  13.990  45.867  1.00  0.00    +0.000 C 
ATOM    121  H28 UNL A   1      51.253  17.533  49.087  1.00  0.00    +0.000 H 
ATOM    122  H29 UNL A   1      52.331  16.425  51.187  1.00  0.00    +0.000 H 
ATOM    123  H30 UNL A   1      49.684  13.722  49.503  1.00  0.00    +0.000 H 
ATOM    124  H31 UNL A   1      46.692   8.086  49.695  1.00  0.00    +0.000 H 
ATOM    125  H32 UNL A   1      45.695   9.141  47.610  1.00  0.00    +0.000 H 
ATOM    126  H33 UNL A   1      48.354  11.872  49.270  1.00  0.00    +0.000 H 
ATOM    127  H34 UNL A   1      50.408   9.567  53.238  1.00  0.00    +0.000 H 
ATOM    128  H35 UNL A   1      51.687  11.740  53.676  1.00  0.00    +0.000 H 
ENDROOT
BRANCH   29   28
ATOM    131  H38 UNL A   1      43.980  12.101  47.042  1.00  0.00    +0.000 H 
ATOM    132  H39 UNL A   1      42.372  11.339  45.397  1.00  0.00    +0.000 H 
ATOM    120  H27 UNL A   1      47.102  10.476  44.726  1.00  0.00    +0.000 H 
ATOM     86  C63 UNL A   1      44.305  11.613  46.193  1.00  0.00    +0.000 C 
ATOM     87  C64 UNL A   1      43.381  11.212  45.229  1.00  0.00    +0.000 C 
ATOM    119  H26 UNL A   1      45.506   9.894  42.991  1.00  0.00    +0.000 H 
ATOM     25  C21 UNL A   1      43.825  10.636  44.035  1.00  0.00    +0.000 C 
ATOM     26  C22 UNL A   1      45.184  10.356  43.856  1.00  0.00    +0.000 C 
ATOM     27  C23 UNL A   1      46.102  10.703  44.850  1.00  0.00    +0.000 C 
ATOM     28  C24 UNL A   1      45.673  11.359  46.015  1.00  0.00    +0.000 C 
BRANCH   25   23
ATOM     23  C20 UNL A   1      42.871  10.260  42.966  1.00  0.00    +0.000 C 
ATOM     24  O2  UNL A   1      42.826   9.100  42.574  1.00  0.00    +0.000 O 
BRANCH   23   22
ATOM    118  H25 UNL A   1      42.212  11.415  41.468  1.00  0.00    +0.000 H 
ATOM     22  N2  UNL A   1      42.039  11.203  42.414  1.00  0.00    +0.000 N 
BRANCH   22   21
ATOM    117  H24 UNL A   1      40.811  11.567  44.020  1.00  0.00    +0.000 H 
ATOM    116  H23 UNL A   1      40.057  11.783  42.437  1.00  0.00    +0.000 H 
ATOM     21  C19 UNL A   1      40.939  11.935  43.023  1.00  0.00    +0.000 C 
BRANCH   21   20
ATOM    114  H21 UNL A   1      40.309  13.955  42.921  1.00  0.00    +0.000 H 
ATOM    115  H22 UNL A   1      41.621  13.608  44.085  1.00  0.00    +0.000 H 
ATOM     20  C18 UNL A   1      41.224  13.433  43.107  1.00  0.00    +0.000 C 
BRANCH   20   19
ATOM    113  H20 UNL A   1      42.454  13.140  41.437  1.00  0.00    +0.000 H 
ATOM     19  C17 UNL A   1      42.276  13.947  42.117  1.00  0.00    +0.000 C 
ATOM    112  H19 UNL A   1      43.139  14.240  42.678  1.00  0.00    +0.000 H 
BRANCH   19   18
ATOM     18  C16 UNL A   1      41.848  15.138  41.250  1.00  0.00    +0.000 C 
ATOM    110  H17 UNL A   1      40.836  14.976  40.943  1.00  0.00    +0.000 H 
ATOM    111  H18 UNL A   1      41.979  16.008  41.857  1.00  0.00    +0.000 H 
BRANCH   18   17
ATOM     17  C15 UNL A   1      42.692  15.368  39.991  1.00  0.00    +0.000 C 
ATOM    108  H15 UNL A   1      43.343  14.529  39.865  1.00  0.00    +0.000 H 
ATOM    109  H16 UNL A   1      42.008  15.486  39.177  1.00  0.00    +0.000 H 
BRANCH   17   16
ATOM    106  H13 UNL A   1      44.494  16.432  39.587  1.00  0.00    +0.000 H 
ATOM    107  H14 UNL A   1      43.025  17.407  39.511  1.00  0.00    +0.000 H 
ATOM     16  C14 UNL A   1      43.547  16.637  40.039  1.00  0.00    +0.000 C 
BRANCH   16   15
ATOM    105  H12 UNL A   1      42.988  17.538  41.804  1.00  0.00    +0.000 H 
ATOM     15  N1  UNL A   1      43.766  17.095  41.395  1.00  0.00    +0.000 N 
BRANCH   15   13
ATOM     13  C13 UNL A   1      44.859  17.019  42.204  1.00  0.00    +0.000 C 
ATOM     14  O1  UNL A   1      45.767  16.265  41.831  1.00  0.00    +0.000 O 
BRANCH   13   11
ATOM     11  C11 UNL A   1      44.996  17.784  43.529  1.00  0.00    +0.000 C 
ATOM    101  H8  UNL A   1      44.249  18.549  43.498  1.00  0.00    +0.000 H 
BRANCH   11   10
ATOM     99  H6  UNL A   1      42.985  14.180  45.682  1.00  0.00    +0.000 H 
ATOM    100  H7  UNL A   1      43.755  15.334  43.716  1.00  0.00    +0.000 H 
ATOM    133  H40 UNL A   1      45.397  18.338  46.136  1.00  0.00    +0.000 H 
ATOM    134  H41 UNL A   1      44.771  17.094  48.110  1.00  0.00    +0.000 H 
ATOM      7  C7  UNL A   1      43.807  15.523  47.083  1.00  0.00    +0.000 C 
ATOM      8  C8  UNL A   1      43.521  15.055  45.790  1.00  0.00    +0.000 C 
ATOM      9  C9  UNL A   1      43.941  15.739  44.647  1.00  0.00    +0.000 C 
ATOM     10  C10 UNL A   1      44.607  16.961  44.746  1.00  0.00    +0.000 C 
ATOM     88  C65 UNL A   1      44.897  17.442  46.032  1.00  0.00    +0.000 C 
ATOM     89  C66 UNL A   1      44.520  16.726  47.179  1.00  0.00    +0.000 C 
BRANCH    7    6
ATOM     97  H4  UNL A   1      45.089  11.248  50.234  1.00  0.00    +0.000 H 
ATOM      2  C2  UNL A   1      43.310  11.357  51.444  1.00  0.00    +0.000 C 
ATOM      3  C3  UNL A   1      44.202  11.726  50.461  1.00  0.00    +0.000 C 
ATOM      4  C4  UNL A   1      43.686  12.879  49.814  1.00  0.00    +0.000 C 
ATOM      5  C5  UNL A   1      44.135  13.680  48.748  1.00  0.00    +0.000 C 
ATOM     98  H5  UNL A   1      45.047  13.475  48.309  1.00  0.00    +0.000 H 
ATOM      6  C6  UNL A   1      43.362  14.759  48.270  1.00  0.00    +0.000 C 
ATOM    136  H43 UNL A   1      40.814  14.513  50.501  1.00  0.00    +0.000 H 
ATOM    137  H44 UNL A   1      41.506  12.253  52.033  1.00  0.00    +0.000 H 
ATOM    135  H42 UNL A   1      41.583  15.837  48.605  1.00  0.00    +0.000 H 
ATOM     90  C67 UNL A   1      42.154  15.041  48.931  1.00  0.00    +0.000 C 
ATOM     91  C68 UNL A   1      41.696  14.280  50.019  1.00  0.00    +0.000 C 
ATOM     92  C69 UNL A   1      42.478  13.195  50.426  1.00  0.00    +0.000 C 
ATOM     93  N7  UNL A   1      42.278  12.266  51.422  1.00  0.00    +0.000 N 
BRANCH    2    1
ATOM      1  C1  UNL A   1      43.345  10.226  52.402  1.00  0.00    +0.000 C 
ATOM     94  H1  UNL A   1      44.343   9.846  52.468  1.00  0.00    +0.000 H 
ATOM     95  H2  UNL A   1      42.690   9.452  52.064  1.00  0.00    +0.000 H 
ATOM     96  H3  UNL A   1      43.029  10.565  53.366  1.00  0.00    +0.000 H 
ENDBRANCH    2    1
ENDBRANCH    7    6
ENDBRANCH   11   10
BRANCH   11   12
ATOM     12  C12 UNL A   1      46.289  18.593  43.654  1.00  0.00    +0.000 C 
ATOM    102  H9  UNL A   1      47.095  18.048  43.210  1.00  0.00    +0.000 H 
ATOM    103  H10 UNL A   1      46.503  18.766  44.689  1.00  0.00    +0.000 H 
ATOM    104  H11 UNL A   1      46.173  19.531  43.152  1.00  0.00    +0.000 H 
ENDBRANCH   11   12
ENDBRANCH   13   11
ENDBRANCH   15   13
ENDBRANCH   16   15
ENDBRANCH   17   16
ENDBRANCH   18   17
ENDBRANCH   19   18
ENDBRANCH   20   19
ENDBRANCH   21   20
ENDBRANCH   22   21
ENDBRANCH   23   22
ENDBRANCH   25   23
ENDBRANCH   29   28
BRANCH   33   34
ATOM     34  C29 UNL A   1      49.529  17.079  46.874  1.00  0.00    +0.000 C 
ATOM     35  C30 UNL A   1      50.565  17.266  45.948  1.00  0.00    +0.000 C 
ATOM     36  F1  UNL A   1      51.499  16.319  45.779  1.00  0.00    +0.000 F 
ATOM     37  C31 UNL A   1      50.666  18.447  45.217  1.00  0.00    +0.000 C 
ATOM     38  F2  UNL A   1      51.690  18.624  44.371  1.00  0.00    +0.000 F 
ATOM     39  C32 UNL A   1      49.718  19.446  45.372  1.00  0.00    +0.000 C 
ATOM     40  F3  UNL A   1      49.814  20.580  44.665  1.00  0.00    +0.000 F 
ATOM     41  C33 UNL A   1      48.673  19.274  46.269  1.00  0.00    +0.000 C 
ATOM     42  F4  UNL A   1      47.749  20.233  46.412  1.00  0.00    +0.000 F 
ATOM     43  C34 UNL A   1      48.584  18.105  47.021  1.00  0.00    +0.000 C 
ATOM     44  F5  UNL A   1      47.570  17.973  47.890  1.00  0.00    +0.000 F 
ENDBRANCH   33   34
BRANCH   50   51
ATOM     51  C40 UNL A   1      52.302  14.141  52.846  1.00  0.00    +0.000 C 
ATOM     52  C41 UNL A   1      53.676  13.878  52.739  1.00  0.00    +0.000 C 
ATOM     53  F6  UNL A   1      54.157  13.225  51.670  1.00  0.00    +0.000 F 
ATOM     54  C42 UNL A   1      54.555  14.252  53.752  1.00  0.00    +0.000 C 
ATOM     55  F7  UNL A   1      55.857  13.953  53.649  1.00  0.00    +0.000 F 
ATOM     56  C43 UNL A   1      54.085  14.922  54.871  1.00  0.00    +0.000 C 
ATOM     57  F8  UNL A   1      54.934  15.286  55.841  1.00  0.00    +0.000 F 
ATOM     58  C44 UNL A   1      52.732  15.207  54.989  1.00  0.00    +0.000 C 
ATOM     59  F9  UNL A   1      52.278  15.863  56.065  1.00  0.00    +0.000 F 
ATOM     60  C45 UNL A   1      51.847  14.811  53.992  1.00  0.00    +0.000 C 
ATOM     61  F10 UNL A   1      50.542  15.089  54.138  1.00  0.00    +0.000 F 
ENDBRANCH   50   51
BRANCH   65   66
ATOM     66  C49 UNL A   1      48.518   8.407  51.717  1.00  0.00    +0.000 C 
ATOM     67  C50 UNL A   1      49.443   7.375  51.506  1.00  0.00    +0.000 C 
ATOM     68  F11 UNL A   1      50.449   7.547  50.636  1.00  0.00    +0.000 F 
ATOM     69  C51 UNL A   1      49.314   6.150  52.156  1.00  0.00    +0.000 C 
ATOM     70  F12 UNL A   1      50.187   5.165  51.903  1.00  0.00    +0.000 F 
ATOM     71  C52 UNL A   1      48.275   5.943  53.050  1.00  0.00    +0.000 C 
ATOM     72  F13 UNL A   1      48.153   4.764  53.677  1.00  0.00    +0.000 F 
ATOM     73  C53 UNL A   1      47.358   6.956  53.288  1.00  0.00    +0.000 C 
ATOM     74  F14 UNL A   1      46.359   6.763  54.161  1.00  0.00    +0.000 F 
ATOM     75  C54 UNL A   1      47.470   8.173  52.619  1.00  0.00    +0.000 C 
ATOM     76  F15 UNL A   1      46.562   9.130  52.858  1.00  0.00    +0.000 F 
ENDBRANCH   65   66
TORSDOF 19
ENDMDL
MODEL 9
REMARK VINA RESULT:      -8.8     39.935     47.670
ROOT
ATOM    129  H36 UNL A   1       7.812   4.281  24.552  1.00  0.00    +0.000 H 
ATOM    130  H37 UNL A   1       9.502   2.463  23.925  1.00  0.00    +0.000 H 
ATOM     29  C25 UNL A   1      10.743   2.877  21.394  1.00  0.00    +0.000 C 
ATOM     30  C26 UNL A   1       9.801   3.798  22.116  1.00  0.00    +0.000 C 
ATOM     31  N3  UNL A   1       9.351   4.974  21.755  1.00  0.00    +0.000 N 
ATOM     32  C27 UNL A   1       8.482   5.372  22.761  1.00  0.00    +0.000 C 
ATOM     33  C28 UNL A   1       7.806   6.539  22.882  1.00  0.00    +0.000 C 
ATOM     45  C35 UNL A   1       7.880   7.622  21.935  1.00  0.00    +0.000 C 
ATOM     46  C36 UNL A   1       7.269   8.863  21.992  1.00  0.00    +0.000 C 
ATOM     47  C37 UNL A   1       7.608   9.570  20.832  1.00  0.00    +0.000 C 
ATOM     48  C38 UNL A   1       8.462   8.787  20.075  1.00  0.00    +0.000 C 
ATOM     49  N4  UNL A   1       8.615   7.590  20.760  1.00  0.00    +0.000 N 
ATOM     50  C39 UNL A   1       9.092   9.102  18.819  1.00  0.00    +0.000 C 
ATOM     62  C46 UNL A   1       9.921   8.276  18.135  1.00  0.00    +0.000 C 
ATOM     63  N5  UNL A   1      10.349   6.998  18.468  1.00  0.00    +0.000 N 
ATOM     64  C47 UNL A   1      11.130   6.613  17.488  1.00  0.00    +0.000 C 
ATOM     65  C48 UNL A   1      11.894   5.328  17.332  1.00  0.00    +0.000 C 
ATOM     77  C55 UNL A   1      11.826   4.398  18.304  1.00  0.00    +0.000 C 
ATOM     78  C56 UNL A   1      12.512   3.110  18.294  1.00  0.00    +0.000 C 
ATOM     79  C57 UNL A   1      12.177   2.427  19.400  1.00  0.00    +0.000 C 
ATOM     80  C58 UNL A   1      11.278   3.246  20.214  1.00  0.00    +0.000 C 
ATOM     81  N6  UNL A   1      11.133   4.402  19.490  1.00  0.00    +0.000 N 
ATOM     82  C59 UNL A   1      11.259   7.596  16.403  1.00  0.00    +0.000 C 
ATOM     83  C60 UNL A   1      10.536   8.605  16.866  1.00  0.00    +0.000 C 
ATOM     84  C61 UNL A   1       8.428   4.293  23.725  1.00  0.00    +0.000 C 
ATOM     85  C62 UNL A   1       9.273   3.324  23.404  1.00  0.00    +0.000 C 
ATOM    121  H28 UNL A   1       6.668   9.206  22.756  1.00  0.00    +0.000 H 
ATOM    122  H29 UNL A   1       7.277  10.516  20.585  1.00  0.00    +0.000 H 
ATOM    123  H30 UNL A   1       9.165   6.832  20.457  1.00  0.00    +0.000 H 
ATOM    124  H31 UNL A   1      13.152   2.777  17.556  1.00  0.00    +0.000 H 
ATOM    125  H32 UNL A   1      12.501   1.477  19.639  1.00  0.00    +0.000 H 
ATOM    126  H33 UNL A   1      10.584   5.162  19.790  1.00  0.00    +0.000 H 
ATOM    127  H34 UNL A   1      11.779   7.521  15.514  1.00  0.00    +0.000 H 
ATOM    128  H35 UNL A   1      10.425   9.511  16.384  1.00  0.00    +0.000 H 
ENDROOT
BRANCH   29   28
ATOM    131  H38 UNL A   1      12.864   2.112  22.840  1.00  0.00    +0.000 H 
ATOM    132  H39 UNL A   1      13.422  -0.099  23.662  1.00  0.00    +0.000 H 
ATOM    120  H27 UNL A   1       9.312   0.582  21.169  1.00  0.00    +0.000 H 
ATOM     86  C63 UNL A   1      12.218   1.324  22.677  1.00  0.00    +0.000 C 
ATOM     87  C64 UNL A   1      12.522   0.062  23.185  1.00  0.00    +0.000 C 
ATOM    119  H26 UNL A   1       9.780  -1.582  22.165  1.00  0.00    +0.000 H 
ATOM     25  C21 UNL A   1      11.605  -0.985  23.048  1.00  0.00    +0.000 C 
ATOM     26  C22 UNL A   1      10.438  -0.798  22.301  1.00  0.00    +0.000 C 
ATOM     27  C23 UNL A   1      10.163   0.452  21.739  1.00  0.00    +0.000 C 
ATOM     28  C24 UNL A   1      11.038   1.530  21.945  1.00  0.00    +0.000 C 
BRANCH   25   23
ATOM     23  C20 UNL A   1      11.872  -2.318  23.635  1.00  0.00    +0.000 C 
ATOM     24  O2  UNL A   1      12.002  -3.290  22.899  1.00  0.00    +0.000 O 
BRANCH   23   22
ATOM    118  H25 UNL A   1      12.896  -2.504  25.347  1.00  0.00    +0.000 H 
ATOM     22  N2  UNL A   1      11.975  -2.470  24.996  1.00  0.00    +0.000 N 
BRANCH   22   21
ATOM    117  H24 UNL A   1      10.496  -1.617  26.138  1.00  0.00    +0.000 H 
ATOM    116  H23 UNL A   1      11.353  -2.958  26.903  1.00  0.00    +0.000 H 
ATOM     21  C19 UNL A   1      10.926  -2.587  25.996  1.00  0.00    +0.000 C 
BRANCH   21   20
ATOM    114  H21 UNL A   1      10.188  -4.132  24.747  1.00  0.00    +0.000 H 
ATOM    115  H22 UNL A   1       9.541  -4.104  26.414  1.00  0.00    +0.000 H 
ATOM     20  C18 UNL A   1       9.813  -3.533  25.551  1.00  0.00    +0.000 C 
BRANCH   20   19
ATOM    113  H20 UNL A   1       8.215  -3.384  24.204  1.00  0.00    +0.000 H 
ATOM     19  C17 UNL A   1       8.531  -2.842  25.072  1.00  0.00    +0.000 C 
ATOM    112  H19 UNL A   1       8.763  -1.815  24.881  1.00  0.00    +0.000 H 
BRANCH   19   18
ATOM     18  C16 UNL A   1       7.347  -2.887  26.046  1.00  0.00    +0.000 C 
ATOM    110  H17 UNL A   1       6.497  -2.463  25.552  1.00  0.00    +0.000 H 
ATOM    111  H18 UNL A   1       7.221  -3.915  26.312  1.00  0.00    +0.000 H 
BRANCH   18   17
ATOM     17  C15 UNL A   1       7.553  -2.131  27.363  1.00  0.00    +0.000 C 
ATOM    108  H15 UNL A   1       7.878  -2.830  28.105  1.00  0.00    +0.000 H 
ATOM    109  H16 UNL A   1       8.276  -1.366  27.171  1.00  0.00    +0.000 H 
BRANCH   17   16
ATOM    106  H13 UNL A   1       5.686  -2.147  28.393  1.00  0.00    +0.000 H 
ATOM    107  H14 UNL A   1       6.602  -0.645  28.540  1.00  0.00    +0.000 H 
ATOM     16  C14 UNL A   1       6.295  -1.430  27.883  1.00  0.00    +0.000 C 
BRANCH   16   15
ATOM    105  H12 UNL A   1       4.898  -1.459  26.369  1.00  0.00    +0.000 H 
ATOM     15  N1  UNL A   1       5.521  -0.838  26.812  1.00  0.00    +0.000 N 
BRANCH   15   13
ATOM     13  C13 UNL A   1       5.501   0.428  26.310  1.00  0.00    +0.000 C 
ATOM     14  O1  UNL A   1       4.597   1.168  26.721  1.00  0.00    +0.000 O 
BRANCH   13   11
ATOM     11  C11 UNL A   1       6.505   0.952  25.272  1.00  0.00    +0.000 C 
ATOM    101  H8  UNL A   1       6.129   1.904  24.962  1.00  0.00    +0.000 H 
BRANCH   11   10
ATOM     99  H6  UNL A   1       9.439   3.433  27.901  1.00  0.00    +0.000 H 
ATOM    100  H7  UNL A   1       7.233   2.818  27.160  1.00  0.00    +0.000 H 
ATOM    133  H40 UNL A   1       8.891  -0.195  24.762  1.00  0.00    +0.000 H 
ATOM    134  H41 UNL A   1      11.086   0.314  25.635  1.00  0.00    +0.000 H 
ATOM      7  C7  UNL A   1      10.471   1.931  26.843  1.00  0.00    +0.000 C 
ATOM      8  C8  UNL A   1       9.330   2.640  27.249  1.00  0.00    +0.000 C 
ATOM      9  C9  UNL A   1       8.051   2.305  26.797  1.00  0.00    +0.000 C 
ATOM     10  C10 UNL A   1       7.866   1.286  25.863  1.00  0.00    +0.000 C 
ATOM     88  C65 UNL A   1       8.998   0.571  25.445  1.00  0.00    +0.000 C 
ATOM     89  C66 UNL A   1      10.275   0.876  25.941  1.00  0.00    +0.000 C 
BRANCH    7    6
ATOM     97  H4  UNL A   1      15.738   0.484  26.734  1.00  0.00    +0.000 H 
ATOM      2  C2  UNL A   1      16.375   1.956  28.171  1.00  0.00    +0.000 C 
ATOM      3  C3  UNL A   1      15.500   1.275  27.353  1.00  0.00    +0.000 C 
ATOM      4  C4  UNL A   1      14.215   1.854  27.512  1.00  0.00    +0.000 C 
ATOM      5  C5  UNL A   1      12.950   1.580  26.961  1.00  0.00    +0.000 C 
ATOM     98  H5  UNL A   1      12.855   0.835  26.252  1.00  0.00    +0.000 H 
ATOM      6  C6  UNL A   1      11.807   2.306  27.360  1.00  0.00    +0.000 C 
ATOM    136  H43 UNL A   1      13.354   4.449  29.492  1.00  0.00    +0.000 H 
ATOM    137  H44 UNL A   1      16.038   3.594  29.439  1.00  0.00    +0.000 H 
ATOM    135  H42 UNL A   1      11.163   3.902  28.575  1.00  0.00    +0.000 H 
ATOM     90  C67 UNL A   1      11.986   3.350  28.284  1.00  0.00    +0.000 C 
ATOM     91  C68 UNL A   1      13.242   3.669  28.826  1.00  0.00    +0.000 C 
ATOM     92  C69 UNL A   1      14.334   2.891  28.431  1.00  0.00    +0.000 C 
ATOM     93  N7  UNL A   1      15.658   2.943  28.806  1.00  0.00    +0.000 N 
BRANCH    2    1
ATOM      1  C1  UNL A   1      17.826   1.760  28.406  1.00  0.00    +0.000 C 
ATOM     94  H1  UNL A   1      18.075   2.085  29.394  1.00  0.00    +0.000 H 
ATOM     95  H2  UNL A   1      18.383   2.330  27.692  1.00  0.00    +0.000 H 
ATOM     96  H3  UNL A   1      18.067   0.723  28.301  1.00  0.00    +0.000 H 
ENDBRANCH    2    1
ENDBRANCH    7    6
ENDBRANCH   11   10
BRANCH   11   12
ATOM     12  C12 UNL A   1       6.520   0.163  23.962  1.00  0.00    +0.000 C 
ATOM    102  H9  UNL A   1       5.533   0.136  23.550  1.00  0.00    +0.000 H 
ATOM    103  H10 UNL A   1       6.856  -0.836  24.150  1.00  0.00    +0.000 H 
ATOM    104  H11 UNL A   1       7.183   0.636  23.267  1.00  0.00    +0.000 H 
ENDBRANCH   11   12
ENDBRANCH   13   11
ENDBRANCH   15   13
ENDBRANCH   16   15
ENDBRANCH   17   16
ENDBRANCH   18   17
ENDBRANCH   19   18
ENDBRANCH   20   19
ENDBRANCH   21   20
ENDBRANCH   22   21
ENDBRANCH   23   22
ENDBRANCH   25   23
ENDBRANCH   29   28
BRANCH   33   34
ATOM     34  C29 UNL A   1       6.928   6.710  24.088  1.00  0.00    +0.000 C 
ATOM     35  C30 UNL A   1       7.381   7.382  25.233  1.00  0.00    +0.000 C 
ATOM     36  F1  UNL A   1       8.635   7.851  25.288  1.00  0.00    +0.000 F 
ATOM     37  C31 UNL A   1       6.555   7.540  26.343  1.00  0.00    +0.000 C 
ATOM     38  F2  UNL A   1       7.024   8.144  27.444  1.00  0.00    +0.000 F 
ATOM     39  C32 UNL A   1       5.254   7.061  26.318  1.00  0.00    +0.000 C 
ATOM     40  F3  UNL A   1       4.460   7.219  27.385  1.00  0.00    +0.000 F 
ATOM     41  C33 UNL A   1       4.779   6.412  25.188  1.00  0.00    +0.000 C 
ATOM     42  F4  UNL A   1       3.519   5.959  25.158  1.00  0.00    +0.000 F 
ATOM     43  C34 UNL A   1       5.610   6.228  24.086  1.00  0.00    +0.000 C 
ATOM     44  F5  UNL A   1       5.127   5.584  23.014  1.00  0.00    +0.000 F 
ENDBRANCH   33   34
BRANCH   50   51
ATOM     51  C40 UNL A   1       8.833  10.456  18.229  1.00  0.00    +0.000 C 
ATOM     52  C41 UNL A   1       7.745  10.689  17.375  1.00  0.00    +0.000 C 
ATOM     53  F6  UNL A   1       6.935   9.679  17.023  1.00  0.00    +0.000 F 
ATOM     54  C42 UNL A   1       7.511  11.956  16.848  1.00  0.00    +0.000 C 
ATOM     55  F7  UNL A   1       6.492  12.148  15.998  1.00  0.00    +0.000 F 
ATOM     56  C43 UNL A   1       8.336  13.017  17.189  1.00  0.00    +0.000 C 
ATOM     57  F8  UNL A   1       8.105  14.237  16.685  1.00  0.00    +0.000 F 
ATOM     58  C44 UNL A   1       9.408  12.812  18.046  1.00  0.00    +0.000 C 
ATOM     59  F9  UNL A   1      10.200  13.838  18.385  1.00  0.00    +0.000 F 
ATOM     60  C45 UNL A   1       9.661  11.541  18.553  1.00  0.00    +0.000 C 
ATOM     61  F10 UNL A   1      10.712  11.370  19.371  1.00  0.00    +0.000 F 
ENDBRANCH   50   51
BRANCH   65   66
ATOM     66  C49 UNL A   1      12.743   5.089  16.136  1.00  0.00    +0.000 C 
ATOM     67  C50 UNL A   1      12.226   4.430  15.012  1.00  0.00    +0.000 C 
ATOM     68  F11 UNL A   1      10.958   3.995  15.015  1.00  0.00    +0.000 F 
ATOM     69  C51 UNL A   1      13.022   4.180  13.896  1.00  0.00    +0.000 C 
ATOM     70  F12 UNL A   1      12.516   3.510  12.852  1.00  0.00    +0.000 F 
ATOM     71  C52 UNL A   1      14.340   4.608  13.872  1.00  0.00    +0.000 C 
ATOM     72  F13 UNL A   1      15.105   4.370  12.798  1.00  0.00    +0.000 F 
ATOM     73  C53 UNL A   1      14.868   5.278  14.967  1.00  0.00    +0.000 C 
ATOM     74  F14 UNL A   1      16.139   5.704  14.942  1.00  0.00    +0.000 F 
ATOM     75  C54 UNL A   1      14.080   5.506  16.093  1.00  0.00    +0.000 C 
ATOM     76  F15 UNL A   1      14.620   6.144  17.142  1.00  0.00    +0.000 F 
ENDBRANCH   65   66
TORSDOF 19
ENDMDL
MODEL 10
REMARK VINA RESULT:      -8.8     42.267     49.459
ROOT
ATOM    129  H36 UNL A   1      48.341  48.236  21.384  1.00  0.00    +0.000 H 
ATOM    130  H37 UNL A   1      46.602  48.233  19.506  1.00  0.00    +0.000 H 
ATOM     29  C25 UNL A   1      46.560  50.636  17.977  1.00  0.00    +0.000 C 
ATOM     30  C26 UNL A   1      47.524  50.257  19.066  1.00  0.00    +0.000 C 
ATOM     31  N3  UNL A   1      48.541  50.930  19.544  1.00  0.00    +0.000 N 
ATOM     32  C27 UNL A   1      49.067  50.146  20.563  1.00  0.00    +0.000 C 
ATOM     33  C28 UNL A   1      50.161  50.377  21.327  1.00  0.00    +0.000 C 
ATOM     45  C35 UNL A   1      51.008  51.534  21.204  1.00  0.00    +0.000 C 
ATOM     46  C36 UNL A   1      52.166  51.836  21.902  1.00  0.00    +0.000 C 
ATOM     47  C37 UNL A   1      52.627  53.083  21.464  1.00  0.00    +0.000 C 
ATOM     48  C38 UNL A   1      51.781  53.538  20.466  1.00  0.00    +0.000 C 
ATOM     49  N4  UNL A   1      50.787  52.581  20.322  1.00  0.00    +0.000 N 
ATOM     50  C39 UNL A   1      51.869  54.754  19.701  1.00  0.00    +0.000 C 
ATOM     62  C46 UNL A   1      50.995  55.131  18.736  1.00  0.00    +0.000 C 
ATOM     63  N5  UNL A   1      49.871  54.465  18.268  1.00  0.00    +0.000 N 
ATOM     64  C47 UNL A   1      49.354  55.236  17.342  1.00  0.00    +0.000 C 
ATOM     65  C48 UNL A   1      48.146  55.003  16.478  1.00  0.00    +0.000 C 
ATOM     77  C55 UNL A   1      47.454  53.855  16.607  1.00  0.00    +0.000 C 
ATOM     78  C56 UNL A   1      46.268  53.490  15.840  1.00  0.00    +0.000 C 
ATOM     79  C57 UNL A   1      45.819  52.299  16.269  1.00  0.00    +0.000 C 
ATOM     80  C58 UNL A   1      46.708  51.802  17.319  1.00  0.00    +0.000 C 
ATOM     81  N6  UNL A   1      47.655  52.787  17.448  1.00  0.00    +0.000 N 
ATOM     82  C59 UNL A   1      50.080  56.498  17.140  1.00  0.00    +0.000 C 
ATOM     83  C60 UNL A   1      51.092  56.365  17.985  1.00  0.00    +0.000 C 
ATOM     84  C61 UNL A   1      48.229  48.970  20.667  1.00  0.00    +0.000 C 
ATOM     85  C62 UNL A   1      47.299  48.961  19.723  1.00  0.00    +0.000 C 
ATOM    121  H28 UNL A   1      52.611  51.244  22.619  1.00  0.00    +0.000 H 
ATOM    122  H29 UNL A   1      53.458  53.579  21.823  1.00  0.00    +0.000 H 
ATOM    123  H30 UNL A   1      50.037  52.636  19.687  1.00  0.00    +0.000 H 
ATOM    124  H31 UNL A   1      45.843  54.054  15.088  1.00  0.00    +0.000 H 
ATOM    125  H32 UNL A   1      44.981  51.812  15.913  1.00  0.00    +0.000 H 
ATOM    126  H33 UNL A   1      48.406  52.735  18.082  1.00  0.00    +0.000 H 
ATOM    127  H34 UNL A   1      49.859  57.282  16.505  1.00  0.00    +0.000 H 
ATOM    128  H35 UNL A   1      51.853  57.054  18.093  1.00  0.00    +0.000 H 
ENDROOT
BRANCH   29   28
ATOM    131  H38 UNL A   1      46.502  48.487  16.379  1.00  0.00    +0.000 H 
ATOM    132  H39 UNL A   1      44.611  47.100  15.771  1.00  0.00    +0.000 H 
ATOM    120  H27 UNL A   1      43.992  50.813  18.837  1.00  0.00    +0.000 H 
ATOM     86  C63 UNL A   1      45.574  48.676  16.789  1.00  0.00    +0.000 C 
ATOM     87  C64 UNL A   1      44.496  47.851  16.468  1.00  0.00    +0.000 C 
ATOM    119  H26 UNL A   1      42.150  49.300  18.379  1.00  0.00    +0.000 H 
ATOM     25  C21 UNL A   1      43.260  48.044  17.092  1.00  0.00    +0.000 C 
ATOM     26  C22 UNL A   1      43.073  49.134  17.949  1.00  0.00    +0.000 C 
ATOM     27  C23 UNL A   1      44.138  49.997  18.222  1.00  0.00    +0.000 C 
ATOM     28  C24 UNL A   1      45.404  49.758  17.665  1.00  0.00    +0.000 C 
BRANCH   25   23
ATOM     23  C20 UNL A   1      42.116  47.145  16.820  1.00  0.00    +0.000 C 
ATOM     24  O2  UNL A   1      41.109  47.589  16.282  1.00  0.00    +0.000 O 
BRANCH   23   22
ATOM    118  H25 UNL A   1      42.317  45.193  16.417  1.00  0.00    +0.000 H 
ATOM     22  N2  UNL A   1      42.179  45.817  17.167  1.00  0.00    +0.000 N 
BRANCH   22   21
ATOM    117  H24 UNL A   1      41.186  44.597  18.488  1.00  0.00    +0.000 H 
ATOM    116  H23 UNL A   1      42.030  45.966  19.221  1.00  0.00    +0.000 H 
ATOM     21  C19 UNL A   1      42.073  45.197  18.478  1.00  0.00    +0.000 C 
BRANCH   21   20
ATOM    114  H21 UNL A   1      43.173  43.950  19.792  1.00  0.00    +0.000 H 
ATOM    115  H22 UNL A   1      43.218  43.490  18.064  1.00  0.00    +0.000 H 
ATOM     20  C18 UNL A   1      43.260  44.285  18.780  1.00  0.00    +0.000 C 
BRANCH   20   19
ATOM    113  H20 UNL A   1      44.603  45.451  17.672  1.00  0.00    +0.000 H 
ATOM     19  C17 UNL A   1      44.636  44.940  18.613  1.00  0.00    +0.000 C 
ATOM    112  H19 UNL A   1      45.376  44.169  18.662  1.00  0.00    +0.000 H 
BRANCH   19   18
ATOM     18  C16 UNL A   1      44.996  46.008  19.654  1.00  0.00    +0.000 C 
ATOM    110  H17 UNL A   1      45.932  46.443  19.371  1.00  0.00    +0.000 H 
ATOM    111  H18 UNL A   1      44.183  46.704  19.658  1.00  0.00    +0.000 H 
BRANCH   18   17
ATOM     17  C15 UNL A   1      45.126  45.501  21.095  1.00  0.00    +0.000 C 
ATOM    108  H15 UNL A   1      44.564  46.151  21.732  1.00  0.00    +0.000 H 
ATOM    109  H16 UNL A   1      44.760  44.496  21.103  1.00  0.00    +0.000 H 
BRANCH   17   16
ATOM    106  H13 UNL A   1      47.166  46.114  21.022  1.00  0.00    +0.000 H 
ATOM    107  H14 UNL A   1      46.560  45.744  22.638  1.00  0.00    +0.000 H 
ATOM     16  C14 UNL A   1      46.567  45.451  21.609  1.00  0.00    +0.000 C 
BRANCH   16   15
ATOM    105  H12 UNL A   1      47.205  43.657  22.394  1.00  0.00    +0.000 H 
ATOM     15  N1  UNL A   1      47.128  44.119  21.528  1.00  0.00    +0.000 N 
BRANCH   15   13
ATOM     13  C13 UNL A   1      47.567  43.392  20.463  1.00  0.00    +0.000 C 
ATOM     14  O1  UNL A   1      46.799  42.518  20.040  1.00  0.00    +0.000 O 
BRANCH   13   11
ATOM     11  C11 UNL A   1      48.940  43.588  19.803  1.00  0.00    +0.000 C 
ATOM    101  H8  UNL A   1      49.016  42.819  19.062  1.00  0.00    +0.000 H 
BRANCH   11   10
ATOM     99  H6  UNL A   1      47.679  46.516  16.410  1.00  0.00    +0.000 H 
ATOM    100  H7  UNL A   1      47.341  44.573  17.791  1.00  0.00    +0.000 H 
ATOM    133  H40 UNL A   1      50.761  45.565  20.003  1.00  0.00    +0.000 H 
ATOM    134  H41 UNL A   1      51.002  47.601  18.725  1.00  0.00    +0.000 H 
ATOM      7  C7  UNL A   1      49.368  47.245  17.437  1.00  0.00    +0.000 C 
ATOM      8  C8  UNL A   1      48.329  46.334  17.191  1.00  0.00    +0.000 C 
ATOM      9  C9  UNL A   1      48.149  45.190  17.972  1.00  0.00    +0.000 C 
ATOM     10  C10 UNL A   1      49.044  44.870  18.993  1.00  0.00    +0.000 C 
ATOM     88  C65 UNL A   1      50.090  45.770  19.248  1.00  0.00    +0.000 C 
ATOM     89  C66 UNL A   1      50.238  46.946  18.496  1.00  0.00    +0.000 C 
BRANCH    7    6
ATOM     97  H4  UNL A   1      52.185  51.904  16.984  1.00  0.00    +0.000 H 
ATOM      2  C2  UNL A   1      51.055  52.654  15.310  1.00  0.00    +0.000 C 
ATOM      3  C3  UNL A   1      51.432  51.764  16.292  1.00  0.00    +0.000 C 
ATOM      4  C4  UNL A   1      50.600  50.619  16.184  1.00  0.00    +0.000 C 
ATOM      5  C5  UNL A   1      50.504  49.415  16.906  1.00  0.00    +0.000 C 
ATOM     98  H5  UNL A   1      51.170  49.228  17.673  1.00  0.00    +0.000 H 
ATOM      6  C6  UNL A   1      49.515  48.457  16.599  1.00  0.00    +0.000 C 
ATOM    136  H43 UNL A   1      48.134  50.067  13.947  1.00  0.00    +0.000 H 
ATOM    137  H44 UNL A   1      49.581  52.480  13.826  1.00  0.00    +0.000 H 
ATOM    135  H42 UNL A   1      47.944  48.024  15.262  1.00  0.00    +0.000 H 
ATOM     90  C67 UNL A   1      48.664  48.721  15.512  1.00  0.00    +0.000 C 
ATOM     91  C68 UNL A   1      48.758  49.899  14.752  1.00  0.00    +0.000 C 
ATOM     92  C69 UNL A   1      49.727  50.835  15.124  1.00  0.00    +0.000 C 
ATOM     93  N7  UNL A   1      50.032  52.070  14.600  1.00  0.00    +0.000 N 
BRANCH    2    1
ATOM      1  C1  UNL A   1      51.575  54.002  14.982  1.00  0.00    +0.000 C 
ATOM     94  H1  UNL A   1      52.301  54.293  15.712  1.00  0.00    +0.000 H 
ATOM     95  H2  UNL A   1      50.769  54.705  14.980  1.00  0.00    +0.000 H 
ATOM     96  H3  UNL A   1      52.032  53.983  14.015  1.00  0.00    +0.000 H 
ENDBRANCH    2    1
ENDBRANCH    7    6
ENDBRANCH   11   10
BRANCH   11   12
ATOM     12  C12 UNL A   1      50.126  43.277  20.718  1.00  0.00    +0.000 C 
ATOM    102  H9  UNL A   1      50.775  44.126  20.761  1.00  0.00    +0.000 H 
ATOM    103  H10 UNL A   1      50.665  42.436  20.332  1.00  0.00    +0.000 H 
ATOM    104  H11 UNL A   1      49.769  43.051  21.701  1.00  0.00    +0.000 H 
ENDBRANCH   11   12
ENDBRANCH   13   11
ENDBRANCH   15   13
ENDBRANCH   16   15
ENDBRANCH   17   16
ENDBRANCH   18   17
ENDBRANCH   19   18
ENDBRANCH   20   19
ENDBRANCH   21   20
ENDBRANCH   22   21
ENDBRANCH   23   22
ENDBRANCH   25   23
ENDBRANCH   29   28
BRANCH   33   34
ATOM     34  C29 UNL A   1      50.510  49.348  22.364  1.00  0.00    +0.000 C 
ATOM     35  C30 UNL A   1      49.976  49.405  23.660  1.00  0.00    +0.000 C 
ATOM     36  F1  UNL A   1      49.170  50.416  24.014  1.00  0.00    +0.000 F 
ATOM     37  C31 UNL A   1      50.302  48.442  24.611  1.00  0.00    +0.000 C 
ATOM     38  F2  UNL A   1      49.818  48.542  25.857  1.00  0.00    +0.000 F 
ATOM     39  C32 UNL A   1      51.137  47.387  24.277  1.00  0.00    +0.000 C 
ATOM     40  F3  UNL A   1      51.446  46.457  25.191  1.00  0.00    +0.000 F 
ATOM     41  C33 UNL A   1      51.660  47.299  22.994  1.00  0.00    +0.000 C 
ATOM     42  F4  UNL A   1      52.457  46.274  22.666  1.00  0.00    +0.000 F 
ATOM     43  C34 UNL A   1      51.358  48.276  22.048  1.00  0.00    +0.000 C 
ATOM     44  F5  UNL A   1      51.890  48.172  20.822  1.00  0.00    +0.000 F 
ENDBRANCH   33   34
BRANCH   50   51
ATOM     51  C40 UNL A   1      53.026  55.668  19.973  1.00  0.00    +0.000 C 
ATOM     52  C41 UNL A   1      54.241  55.542  19.283  1.00  0.00    +0.000 C 
ATOM     53  F6  UNL A   1      54.410  54.554  18.390  1.00  0.00    +0.000 F 
ATOM     54  C42 UNL A   1      55.300  56.408  19.538  1.00  0.00    +0.000 C 
ATOM     55  F7  UNL A   1      56.466  56.243  18.899  1.00  0.00    +0.000 F 
ATOM     56  C43 UNL A   1      55.155  57.433  20.460  1.00  0.00    +0.000 C 
ATOM     57  F8  UNL A   1      56.175  58.270  20.699  1.00  0.00    +0.000 F 
ATOM     58  C44 UNL A   1      53.956  57.587  21.141  1.00  0.00    +0.000 C 
ATOM     59  F9  UNL A   1      53.812  58.584  22.025  1.00  0.00    +0.000 F 
ATOM     60  C45 UNL A   1      52.905  56.706  20.909  1.00  0.00    +0.000 C 
ATOM     61  F10 UNL A   1      51.761  56.871  21.591  1.00  0.00    +0.000 F 
ENDBRANCH   50   51
BRANCH   65   66
ATOM     66  C49 UNL A   1      47.731  56.009  15.466  1.00  0.00    +0.000 C 
ATOM     67  C50 UNL A   1      47.075  57.185  15.854  1.00  0.00    +0.000 C 
ATOM     68  F11 UNL A   1      46.802  57.403  17.149  1.00  0.00    +0.000 F 
ATOM     69  C51 UNL A   1      46.659  58.121  14.910  1.00  0.00    +0.000 C 
ATOM     70  F12 UNL A   1      45.996  59.217  15.303  1.00  0.00    +0.000 F 
ATOM     71  C52 UNL A   1      46.917  57.913  13.564  1.00  0.00    +0.000 C 
ATOM     72  F13 UNL A   1      46.520  58.816  12.655  1.00  0.00    +0.000 F 
ATOM     73  C53 UNL A   1      47.581  56.765  13.158  1.00  0.00    +0.000 C 
ATOM     74  F14 UNL A   1      47.843  56.566  11.858  1.00  0.00    +0.000 F 
ATOM     75  C54 UNL A   1      47.974  55.815  14.099  1.00  0.00    +0.000 C 
ATOM     76  F15 UNL A   1      48.603  54.708  13.678  1.00  0.00    +0.000 F 
ENDBRANCH   65   66
TORSDOF 19
ENDMDL
