MODEL 1
REMARK VINA RESULT:     -11.3      0.000      0.000
ROOT
ATOM    129  H38 UNL A   1      39.281  26.389  26.909  1.00  0.00    +0.000 H 
ATOM     33  C26 UNL A   1      40.731  27.683  29.072  1.00  0.00    +0.000 C 
ATOM     34  C27 UNL A   1      40.886  26.259  28.515  1.00  0.00    +0.000 C 
ATOM     35  N4  UNL A   1      41.655  25.285  28.904  1.00  0.00    +0.000 N 
ATOM     36  C28 UNL A   1      41.490  24.226  27.986  1.00  0.00    +0.000 C 
ATOM     37  C29 UNL A   1      42.343  23.165  27.893  1.00  0.00    +0.000 C 
ATOM     49  C36 UNL A   1      43.360  23.243  28.884  1.00  0.00    +0.000 C 
ATOM     50  C37 UNL A   1      43.392  22.975  30.226  1.00  0.00    +0.000 C 
ATOM     51  C38 UNL A   1      44.411  23.812  30.731  1.00  0.00    +0.000 C 
ATOM     52  C39 UNL A   1      45.001  24.507  29.670  1.00  0.00    +0.000 C 
ATOM     53  N5  UNL A   1      44.516  23.896  28.539  1.00  0.00    +0.000 N 
ATOM     54  C40 UNL A   1      45.754  25.729  29.499  1.00  0.00    +0.000 C 
ATOM     66  C47 UNL A   1      46.016  26.461  30.610  1.00  0.00    +0.000 C 
ATOM     67  N6  UNL A   1      45.861  27.829  30.578  1.00  0.00    +0.000 N 
ATOM     68  C48 UNL A   1      45.199  28.063  31.672  1.00  0.00    +0.000 C 
ATOM     69  C49 UNL A   1      44.460  29.305  31.966  1.00  0.00    +0.000 C 
ATOM     81  C56 UNL A   1      43.325  29.255  31.200  1.00  0.00    +0.000 C 
ATOM     82  C57 UNL A   1      42.278  30.252  31.089  1.00  0.00    +0.000 C 
ATOM     83  C58 UNL A   1      41.290  29.793  30.297  1.00  0.00    +0.000 C 
ATOM     84  C59 UNL A   1      41.587  28.428  29.829  1.00  0.00    +0.000 C 
ATOM     85  N7  UNL A   1      42.845  28.215  30.363  1.00  0.00    +0.000 N 
ATOM     86  C60 UNL A   1      45.136  26.961  32.642  1.00  0.00    +0.000 C 
ATOM     87  C61 UNL A   1      45.849  26.054  31.983  1.00  0.00    +0.000 C 
ATOM     88  C62 UNL A   1      40.392  24.585  27.140  1.00  0.00    +0.000 C 
ATOM     89  C63 UNL A   1      40.012  25.839  27.387  1.00  0.00    +0.000 C 
ATOM    120  H29 UNL A   1      42.804  22.310  30.751  1.00  0.00    +0.000 H 
ATOM    121  H30 UNL A   1      44.678  23.897  31.724  1.00  0.00    +0.000 H 
ATOM    122  H31 UNL A   1      44.924  23.922  27.644  1.00  0.00    +0.000 H 
ATOM    123  H32 UNL A   1      42.288  31.176  31.548  1.00  0.00    +0.000 H 
ATOM    124  H33 UNL A   1      40.440  30.325  30.052  1.00  0.00    +0.000 H 
ATOM    125  H34 UNL A   1      43.367  27.401  30.177  1.00  0.00    +0.000 H 
ATOM    126  H35 UNL A   1      44.673  26.908  33.563  1.00  0.00    +0.000 H 
ATOM    127  H36 UNL A   1      46.226  25.185  32.394  1.00  0.00    +0.000 H 
ATOM    128  H37 UNL A   1      39.959  23.963  26.440  1.00  0.00    +0.000 H 
ENDROOT
BRANCH   33   32
ATOM    130  H39 UNL A   1      38.409  27.689  30.468  1.00  0.00    +0.000 H 
ATOM    131  H40 UNL A   1      36.394  28.954  29.985  1.00  0.00    +0.000 H 
ATOM    118  H27 UNL A   1      38.122  30.336  26.402  1.00  0.00    +0.000 H 
ATOM    119  H28 UNL A   1      40.114  29.029  26.851  1.00  0.00    +0.000 H 
ATOM     90  C64 UNL A   1      38.352  28.262  29.612  1.00  0.00    +0.000 C 
ATOM     91  C65 UNL A   1      37.200  28.999  29.341  1.00  0.00    +0.000 C 
ATOM     29  C22 UNL A   1      37.137  29.799  28.196  1.00  0.00    +0.000 C 
ATOM     30  C23 UNL A   1      38.193  29.788  27.274  1.00  0.00    +0.000 C 
ATOM     31  C24 UNL A   1      39.338  29.040  27.531  1.00  0.00    +0.000 C 
ATOM     32  C25 UNL A   1      39.431  28.303  28.717  1.00  0.00    +0.000 C 
BRANCH   29   27
ATOM     27  C21 UNL A   1      35.948  30.617  27.857  1.00  0.00    +0.000 C 
ATOM     28  O4  UNL A   1      36.029  31.830  27.868  1.00  0.00    +0.000 O 
BRANCH   27   26
ATOM     26  N3  UNL A   1      34.741  30.026  27.552  1.00  0.00    +0.000 N 
ATOM    117  H26 UNL A   1      34.719  29.043  27.603  1.00  0.00    +0.000 H 
BRANCH   26   25
ATOM     25  C20 UNL A   1      33.496  30.669  27.168  1.00  0.00    +0.000 C 
ATOM    115  H24 UNL A   1      32.894  30.816  28.040  1.00  0.00    +0.000 H 
ATOM    116  H25 UNL A   1      33.726  31.607  26.708  1.00  0.00    +0.000 H 
BRANCH   25   24
ATOM    113  H22 UNL A   1      31.687  29.829  26.436  1.00  0.00    +0.000 H 
ATOM    114  H23 UNL A   1      32.903  30.236  25.197  1.00  0.00    +0.000 H 
ATOM     24  C19 UNL A   1      32.722  29.814  26.163  1.00  0.00    +0.000 C 
BRANCH   24   23
ATOM    111  H20 UNL A   1      33.899  28.191  26.868  1.00  0.00    +0.000 H 
ATOM     23  C18 UNL A   1      33.178  28.349  26.094  1.00  0.00    +0.000 C 
ATOM    112  H21 UNL A   1      32.292  27.759  26.204  1.00  0.00    +0.000 H 
BRANCH   23   22
ATOM    110  H19 UNL A   1      33.516  26.901  24.616  1.00  0.00    +0.000 H 
ATOM    109  H18 UNL A   1      34.866  28.057  24.842  1.00  0.00    +0.000 H 
ATOM     22  C17 UNL A   1      33.808  27.920  24.766  1.00  0.00    +0.000 C 
BRANCH   22   21
ATOM    107  H16 UNL A   1      32.263  28.817  23.613  1.00  0.00    +0.000 H 
ATOM    108  H17 UNL A   1      33.866  29.605  23.512  1.00  0.00    +0.000 H 
ATOM     21  C16 UNL A   1      33.322  28.684  23.527  1.00  0.00    +0.000 C 
BRANCH   21   20
ATOM    105  H14 UNL A   1      32.882  28.317  21.473  1.00  0.00    +0.000 H 
ATOM    106  H15 UNL A   1      34.597  28.263  21.883  1.00  0.00    +0.000 H 
ATOM     20  C15 UNL A   1      33.607  27.995  22.191  1.00  0.00    +0.000 C 
BRANCH   20   19
ATOM     19  N2  UNL A   1      33.544  26.553  22.308  1.00  0.00    +0.000 N 
ATOM    104  H13 UNL A   1      34.293  26.081  22.738  1.00  0.00    +0.000 H 
BRANCH   19    2
ATOM      1  O1  UNL A   1      31.780  26.159  20.890  1.00  0.00    +0.000 O 
ATOM      2  C1  UNL A   1      32.476  25.813  21.841  1.00  0.00    +0.000 C 
BRANCH    2    3
ATOM      3  C2  UNL A   1      32.156  24.569  22.664  1.00  0.00    +0.000 C 
ATOM     92  H1  UNL A   1      33.014  23.929  22.676  1.00  0.00    +0.000 H 
ATOM     93  H2  UNL A   1      31.320  24.075  22.216  1.00  0.00    +0.000 H 
BRANCH    3    4
ATOM      4  C3  UNL A   1      31.793  24.926  24.079  1.00  0.00    +0.000 C 
ATOM      5  C4  UNL A   1      30.674  25.619  24.514  1.00  0.00    +0.000 C 
ATOM      6  C5  UNL A   1      30.644  25.561  25.921  1.00  0.00    +0.000 C 
ATOM      7  C6  UNL A   1      31.746  24.840  26.318  1.00  0.00    +0.000 C 
ATOM      8  N1  UNL A   1      32.502  24.523  25.206  1.00  0.00    +0.000 N 
ATOM     94  H3  UNL A   1      29.984  26.095  23.912  1.00  0.00    +0.000 H 
ATOM     95  H4  UNL A   1      29.930  25.979  26.538  1.00  0.00    +0.000 H 
ATOM     96  H5  UNL A   1      31.972  24.579  27.290  1.00  0.00    +0.000 H 
BRANCH    8    9
ATOM     97  H6  UNL A   1      34.830  25.643  25.754  1.00  0.00    +0.000 H 
ATOM     98  H7  UNL A   1      36.988  24.536  25.914  1.00  0.00    +0.000 H 
ATOM     99  H8  UNL A   1      33.032  21.971  24.721  1.00  0.00    +0.000 H 
ATOM    100  H9  UNL A   1      36.496  19.019  24.598  1.00  0.00    +0.000 H 
ATOM    101  H10 UNL A   1      36.393  19.830  26.156  1.00  0.00    +0.000 H 
ATOM    102  H11 UNL A   1      37.556  21.031  23.668  1.00  0.00    +0.000 H 
ATOM    103  H12 UNL A   1      38.479  20.344  24.996  1.00  0.00    +0.000 H 
ATOM      9  C7  UNL A   1      33.765  23.881  25.261  1.00  0.00    +0.000 C 
ATOM     10  C8  UNL A   1      34.907  24.629  25.576  1.00  0.00    +0.000 C 
ATOM     11  C9  UNL A   1      36.150  23.997  25.647  1.00  0.00    +0.000 C 
ATOM     12  C10 UNL A   1      36.258  22.638  25.356  1.00  0.00    +0.000 C 
ATOM     13  C11 UNL A   1      35.121  21.898  25.021  1.00  0.00    +0.000 C 
ATOM     14  C12 UNL A   1      33.872  22.516  24.971  1.00  0.00    +0.000 C 
ATOM     15  O2  UNL A   1      35.155  20.563  24.709  1.00  0.00    +0.000 O 
ATOM     16  C13 UNL A   1      36.396  19.962  25.094  1.00  0.00    +0.000 C 
ATOM     17  C14 UNL A   1      37.575  20.846  24.722  1.00  0.00    +0.000 C 
ATOM     18  O3  UNL A   1      37.515  22.095  25.418  1.00  0.00    +0.000 O 
ENDBRANCH    8    9
ENDBRANCH    3    4
ENDBRANCH    2    3
ENDBRANCH   19    2
ENDBRANCH   20   19
ENDBRANCH   21   20
ENDBRANCH   22   21
ENDBRANCH   23   22
ENDBRANCH   24   23
ENDBRANCH   25   24
ENDBRANCH   26   25
ENDBRANCH   27   26
ENDBRANCH   29   27
ENDBRANCH   33   32
BRANCH   37   38
ATOM     38  C30 UNL A   1      42.512  22.111  26.831  1.00  0.00    +0.000 C 
ATOM     39  C31 UNL A   1      41.990  20.815  27.076  1.00  0.00    +0.000 C 
ATOM     40  F1  UNL A   1      41.066  20.617  28.030  1.00  0.00    +0.000 F 
ATOM     41  C32 UNL A   1      42.462  19.687  26.408  1.00  0.00    +0.000 C 
ATOM     42  F2  UNL A   1      42.037  18.468  26.771  1.00  0.00    +0.000 F 
ATOM     43  C33 UNL A   1      43.417  19.820  25.420  1.00  0.00    +0.000 C 
ATOM     44  F3  UNL A   1      43.924  18.734  24.822  1.00  0.00    +0.000 F 
ATOM     45  C34 UNL A   1      43.870  21.084  25.080  1.00  0.00    +0.000 C 
ATOM     46  F4  UNL A   1      44.793  21.218  24.117  1.00  0.00    +0.000 F 
ATOM     47  C35 UNL A   1      43.436  22.215  25.782  1.00  0.00    +0.000 C 
ATOM     48  F5  UNL A   1      44.013  23.385  25.482  1.00  0.00    +0.000 F 
ENDBRANCH   37   38
BRANCH   54   55
ATOM     65  F10 UNL A   1      43.543  26.827  27.944  1.00  0.00    +0.000 F 
ATOM     55  C41 UNL A   1      45.882  26.520  28.215  1.00  0.00    +0.000 C 
ATOM     56  C42 UNL A   1      47.151  26.845  27.717  1.00  0.00    +0.000 C 
ATOM     57  F6  UNL A   1      48.248  26.352  28.310  1.00  0.00    +0.000 F 
ATOM     58  C43 UNL A   1      47.307  27.682  26.609  1.00  0.00    +0.000 C 
ATOM     59  F7  UNL A   1      48.536  27.976  26.164  1.00  0.00    +0.000 F 
ATOM     60  C44 UNL A   1      46.199  28.208  25.963  1.00  0.00    +0.000 C 
ATOM     61  F8  UNL A   1      46.350  29.003  24.893  1.00  0.00    +0.000 F 
ATOM     62  C45 UNL A   1      44.935  27.901  26.423  1.00  0.00    +0.000 C 
ATOM     63  F9  UNL A   1      43.852  28.388  25.799  1.00  0.00    +0.000 F 
ATOM     64  C46 UNL A   1      44.786  27.075  27.537  1.00  0.00    +0.000 C 
ENDBRANCH   54   55
BRANCH   69   70
ATOM     70  C50 UNL A   1      45.044  30.217  33.030  1.00  0.00    +0.000 C 
ATOM     71  C51 UNL A   1      46.073  31.150  32.843  1.00  0.00    +0.000 C 
ATOM     72  F11 UNL A   1      46.795  31.175  31.720  1.00  0.00    +0.000 F 
ATOM     73  C52 UNL A   1      46.437  32.081  33.834  1.00  0.00    +0.000 C 
ATOM     74  F12 UNL A   1      47.411  32.967  33.584  1.00  0.00    +0.000 F 
ATOM     75  C53 UNL A   1      45.803  32.104  35.062  1.00  0.00    +0.000 C 
ATOM     76  F13 UNL A   1      46.120  33.022  35.985  1.00  0.00    +0.000 F 
ATOM     77  C54 UNL A   1      44.855  31.148  35.330  1.00  0.00    +0.000 C 
ATOM     78  F14 UNL A   1      44.241  31.120  36.522  1.00  0.00    +0.000 F 
ATOM     79  C55 UNL A   1      44.515  30.210  34.354  1.00  0.00    +0.000 C 
ATOM     80  F15 UNL A   1      43.642  29.279  34.760  1.00  0.00    +0.000 F 
ENDBRANCH   69   70
TORSDOF 17
ENDMDL
MODEL 2
REMARK VINA RESULT:     -11.3      1.233      3.129
ROOT
ATOM    129  H38 UNL A   1      39.367  26.322  26.913  1.00  0.00    +0.000 H 
ATOM     33  C26 UNL A   1      40.935  27.685  28.947  1.00  0.00    +0.000 C 
ATOM     34  C27 UNL A   1      41.056  26.243  28.434  1.00  0.00    +0.000 C 
ATOM     35  N4  UNL A   1      41.843  25.280  28.814  1.00  0.00    +0.000 N 
ATOM     36  C28 UNL A   1      41.626  24.189  27.945  1.00  0.00    +0.000 C 
ATOM     37  C29 UNL A   1      42.471  23.123  27.844  1.00  0.00    +0.000 C 
ATOM     49  C36 UNL A   1      43.540  23.231  28.775  1.00  0.00    +0.000 C 
ATOM     50  C37 UNL A   1      43.644  23.010  30.121  1.00  0.00    +0.000 C 
ATOM     51  C38 UNL A   1      44.691  23.860  30.541  1.00  0.00    +0.000 C 
ATOM     52  C39 UNL A   1      45.224  24.515  29.426  1.00  0.00    +0.000 C 
ATOM     53  N5  UNL A   1      44.677  23.867  28.345  1.00  0.00    +0.000 N 
ATOM     54  C40 UNL A   1      45.969  25.728  29.171  1.00  0.00    +0.000 C 
ATOM     66  C47 UNL A   1      46.292  26.497  30.240  1.00  0.00    +0.000 C 
ATOM     67  N6  UNL A   1      46.139  27.863  30.169  1.00  0.00    +0.000 N 
ATOM     68  C48 UNL A   1      45.537  28.138  31.288  1.00  0.00    +0.000 C 
ATOM     69  C49 UNL A   1      44.818  29.393  31.577  1.00  0.00    +0.000 C 
ATOM     81  C56 UNL A   1      43.643  29.321  30.876  1.00  0.00    +0.000 C 
ATOM     82  C57 UNL A   1      42.594  30.317  30.786  1.00  0.00    +0.000 C 
ATOM     83  C58 UNL A   1      41.563  29.835  30.065  1.00  0.00    +0.000 C 
ATOM     84  C59 UNL A   1      41.831  28.453  29.630  1.00  0.00    +0.000 C 
ATOM     85  N7  UNL A   1      43.116  28.254  30.103  1.00  0.00    +0.000 N 
ATOM     86  C60 UNL A   1      45.525  27.072  32.298  1.00  0.00    +0.000 C 
ATOM     87  C61 UNL A   1      46.199  26.139  31.633  1.00  0.00    +0.000 C 
ATOM     88  C62 UNL A   1      40.485  24.523  27.148  1.00  0.00    +0.000 C 
ATOM     89  C63 UNL A   1      40.121  25.786  27.370  1.00  0.00    +0.000 C 
ATOM    120  H29 UNL A   1      43.084  22.367  30.701  1.00  0.00    +0.000 H 
ATOM    121  H30 UNL A   1      45.011  23.980  31.515  1.00  0.00    +0.000 H 
ATOM    122  H31 UNL A   1      45.036  23.860  27.429  1.00  0.00    +0.000 H 
ATOM    123  H32 UNL A   1      42.631  31.257  31.212  1.00  0.00    +0.000 H 
ATOM    124  H33 UNL A   1      40.702  30.361  29.848  1.00  0.00    +0.000 H 
ATOM    125  H34 UNL A   1      43.626  27.432  29.918  1.00  0.00    +0.000 H 
ATOM    126  H35 UNL A   1      45.112  27.053  33.244  1.00  0.00    +0.000 H 
ATOM    127  H36 UNL A   1      46.596  25.284  32.054  1.00  0.00    +0.000 H 
ATOM    128  H37 UNL A   1      40.013  23.879  26.494  1.00  0.00    +0.000 H 
ENDROOT
BRANCH   33   32
ATOM    130  H39 UNL A   1      38.665  27.672  30.427  1.00  0.00    +0.000 H 
ATOM    131  H40 UNL A   1      36.625  28.926  30.020  1.00  0.00    +0.000 H 
ATOM    118  H27 UNL A   1      38.213  30.329  26.382  1.00  0.00    +0.000 H 
ATOM    119  H28 UNL A   1      40.229  29.034  26.755  1.00  0.00    +0.000 H 
ATOM     90  C64 UNL A   1      38.572  28.247  29.575  1.00  0.00    +0.000 C 
ATOM     91  C65 UNL A   1      37.407  28.978  29.348  1.00  0.00    +0.000 C 
ATOM     29  C22 UNL A   1      37.298  29.780  28.209  1.00  0.00    +0.000 C 
ATOM     30  C23 UNL A   1      38.320  29.779  27.249  1.00  0.00    +0.000 C 
ATOM     31  C24 UNL A   1      39.478  29.038  27.462  1.00  0.00    +0.000 C 
ATOM     32  C25 UNL A   1      39.618  28.298  28.641  1.00  0.00    +0.000 C 
BRANCH   29   27
ATOM     27  C21 UNL A   1      36.092  30.591  27.915  1.00  0.00    +0.000 C 
ATOM     28  O4  UNL A   1      36.184  31.800  27.837  1.00  0.00    +0.000 O 
BRANCH   27   26
ATOM     26  N3  UNL A   1      34.858  29.999  27.753  1.00  0.00    +0.000 N 
ATOM    117  H26 UNL A   1      34.168  30.257  28.406  1.00  0.00    +0.000 H 
BRANCH   26   25
ATOM     25  C20 UNL A   1      34.445  29.043  26.739  1.00  0.00    +0.000 C 
ATOM    115  H24 UNL A   1      34.490  29.511  25.778  1.00  0.00    +0.000 H 
ATOM    116  H25 UNL A   1      35.104  28.201  26.778  1.00  0.00    +0.000 H 
BRANCH   25   24
ATOM    113  H22 UNL A   1      32.829  28.599  28.044  1.00  0.00    +0.000 H 
ATOM    114  H23 UNL A   1      32.371  29.192  26.426  1.00  0.00    +0.000 H 
ATOM     24  C19 UNL A   1      33.018  28.555  26.992  1.00  0.00    +0.000 C 
BRANCH   24   23
ATOM    111  H20 UNL A   1      32.578  26.512  27.378  1.00  0.00    +0.000 H 
ATOM     23  C18 UNL A   1      32.745  27.121  26.514  1.00  0.00    +0.000 C 
ATOM    112  H21 UNL A   1      31.900  27.184  25.862  1.00  0.00    +0.000 H 
BRANCH   23   22
ATOM    110  H19 UNL A   1      34.779  26.907  26.051  1.00  0.00    +0.000 H 
ATOM    109  H18 UNL A   1      33.674  26.678  24.659  1.00  0.00    +0.000 H 
ATOM     22  C17 UNL A   1      33.866  26.478  25.692  1.00  0.00    +0.000 C 
BRANCH   22   21
ATOM    107  H16 UNL A   1      34.109  24.748  26.904  1.00  0.00    +0.000 H 
ATOM    108  H17 UNL A   1      33.156  24.521  25.407  1.00  0.00    +0.000 H 
ATOM     21  C16 UNL A   1      34.020  24.961  25.859  1.00  0.00    +0.000 C 
BRANCH   21   20
ATOM    105  H14 UNL A   1      34.936  24.040  24.167  1.00  0.00    +0.000 H 
ATOM    106  H15 UNL A   1      35.998  25.097  25.098  1.00  0.00    +0.000 H 
ATOM     20  C15 UNL A   1      35.231  24.353  25.147  1.00  0.00    +0.000 C 
BRANCH   20   19
ATOM     19  N2  UNL A   1      35.755  23.209  25.866  1.00  0.00    +0.000 N 
ATOM    104  H13 UNL A   1      36.307  23.367  26.665  1.00  0.00    +0.000 H 
BRANCH   19    2
ATOM      1  O1  UNL A   1      36.283  21.257  24.774  1.00  0.00    +0.000 O 
ATOM      2  C1  UNL A   1      35.512  21.908  25.475  1.00  0.00    +0.000 C 
BRANCH    2    3
ATOM      3  C2  UNL A   1      34.152  21.361  25.899  1.00  0.00    +0.000 C 
ATOM     92  H1  UNL A   1      33.491  22.180  26.089  1.00  0.00    +0.000 H 
ATOM     93  H2  UNL A   1      34.288  20.769  26.781  1.00  0.00    +0.000 H 
BRANCH    3    4
ATOM      4  C3  UNL A   1      33.555  20.488  24.830  1.00  0.00    +0.000 C 
ATOM      5  C4  UNL A   1      33.616  19.106  24.738  1.00  0.00    +0.000 C 
ATOM      6  C5  UNL A   1      32.765  18.701  23.690  1.00  0.00    +0.000 C 
ATOM      7  C6  UNL A   1      32.207  19.841  23.161  1.00  0.00    +0.000 C 
ATOM      8  N1  UNL A   1      32.750  20.944  23.792  1.00  0.00    +0.000 N 
ATOM     94  H3  UNL A   1      34.185  18.483  25.331  1.00  0.00    +0.000 H 
ATOM     95  H4  UNL A   1      32.592  17.732  23.379  1.00  0.00    +0.000 H 
ATOM     96  H5  UNL A   1      31.498  19.869  22.412  1.00  0.00    +0.000 H 
BRANCH    8    9
ATOM     97  H6  UNL A   1      34.010  22.358  21.951  1.00  0.00    +0.000 H 
ATOM     98  H7  UNL A   1      33.515  24.635  21.258  1.00  0.00    +0.000 H 
ATOM     99  H8  UNL A   1      30.933  22.573  24.827  1.00  0.00    +0.000 H 
ATOM    100  H9  UNL A   1      29.316  26.811  24.428  1.00  0.00    +0.000 H 
ATOM    101  H10 UNL A   1      29.254  25.948  22.895  1.00  0.00    +0.000 H 
ATOM    102  H11 UNL A   1      31.718  27.185  24.072  1.00  0.00    +0.000 H 
ATOM    103  H12 UNL A   1      30.737  27.885  22.792  1.00  0.00    +0.000 H 
ATOM      9  C7  UNL A   1      32.484  22.284  23.416  1.00  0.00    +0.000 C 
ATOM     10  C8  UNL A   1      33.249  22.885  22.408  1.00  0.00    +0.000 C 
ATOM     11  C9  UNL A   1      32.979  24.200  22.024  1.00  0.00    +0.000 C 
ATOM     12  C10 UNL A   1      31.984  24.926  22.679  1.00  0.00    +0.000 C 
ATOM     13  C11 UNL A   1      31.236  24.332  23.698  1.00  0.00    +0.000 C 
ATOM     14  C12 UNL A   1      31.483  23.011  24.072  1.00  0.00    +0.000 C 
ATOM     15  O2  UNL A   1      30.254  24.991  24.394  1.00  0.00    +0.000 O 
ATOM     16  C13 UNL A   1      29.862  26.201  23.738  1.00  0.00    +0.000 C 
ATOM     17  C14 UNL A   1      31.073  26.976  23.243  1.00  0.00    +0.000 C 
ATOM     18  O3  UNL A   1      31.797  26.220  22.266  1.00  0.00    +0.000 O 
ENDBRANCH    8    9
ENDBRANCH    3    4
ENDBRANCH    2    3
ENDBRANCH   19    2
ENDBRANCH   20   19
ENDBRANCH   21   20
ENDBRANCH   22   21
ENDBRANCH   23   22
ENDBRANCH   24   23
ENDBRANCH   25   24
ENDBRANCH   26   25
ENDBRANCH   27   26
ENDBRANCH   29   27
ENDBRANCH   33   32
BRANCH   37   38
ATOM     38  C30 UNL A   1      42.579  22.031  26.811  1.00  0.00    +0.000 C 
ATOM     39  C31 UNL A   1      42.022  20.762  27.110  1.00  0.00    +0.000 C 
ATOM     40  F1  UNL A   1      41.116  20.624  28.090  1.00  0.00    +0.000 F 
ATOM     41  C32 UNL A   1      42.441  19.598  26.467  1.00  0.00    +0.000 C 
ATOM     42  F2  UNL A   1      41.986  18.406  26.878  1.00  0.00    +0.000 F 
ATOM     43  C33 UNL A   1      43.375  19.669  25.454  1.00  0.00    +0.000 C 
ATOM     44  F3  UNL A   1      43.832  18.549  24.879  1.00  0.00    +0.000 F 
ATOM     45  C34 UNL A   1      43.862  20.907  25.064  1.00  0.00    +0.000 C 
ATOM     46  F4  UNL A   1      44.765  20.980  24.076  1.00  0.00    +0.000 F 
ATOM     47  C35 UNL A   1      43.481  22.072  25.739  1.00  0.00    +0.000 C 
ATOM     48  F5  UNL A   1      44.089  23.212  25.389  1.00  0.00    +0.000 F 
ENDBRANCH   37   38
BRANCH   54   55
ATOM     65  F10 UNL A   1      48.392  26.340  27.666  1.00  0.00    +0.000 F 
ATOM     55  C41 UNL A   1      46.029  26.472  27.856  1.00  0.00    +0.000 C 
ATOM     56  C42 UNL A   1      44.844  26.867  27.220  1.00  0.00    +0.000 C 
ATOM     57  F6  UNL A   1      43.665  26.694  27.837  1.00  0.00    +0.000 F 
ATOM     58  C43 UNL A   1      44.856  27.439  25.946  1.00  0.00    +0.000 C 
ATOM     59  F7  UNL A   1      43.702  27.800  25.366  1.00  0.00    +0.000 F 
ATOM     60  C44 UNL A   1      46.052  27.643  25.275  1.00  0.00    +0.000 C 
ATOM     61  F8  UNL A   1      46.062  28.202  24.057  1.00  0.00    +0.000 F 
ATOM     62  C45 UNL A   1      47.237  27.273  25.877  1.00  0.00    +0.000 C 
ATOM     63  F9  UNL A   1      48.406  27.478  25.250  1.00  0.00    +0.000 F 
ATOM     64  C46 UNL A   1      47.219  26.691  27.144  1.00  0.00    +0.000 C 
ENDBRANCH   54   55
BRANCH   69   70
ATOM     70  C50 UNL A   1      45.460  30.339  32.575  1.00  0.00    +0.000 C 
ATOM     71  C51 UNL A   1      46.599  31.125  32.352  1.00  0.00    +0.000 C 
ATOM     72  F11 UNL A   1      47.366  30.950  31.272  1.00  0.00    +0.000 F 
ATOM     73  C52 UNL A   1      47.029  32.108  33.264  1.00  0.00    +0.000 C 
ATOM     74  F12 UNL A   1      48.111  32.847  32.980  1.00  0.00    +0.000 F 
ATOM     75  C53 UNL A   1      46.352  32.331  34.448  1.00  0.00    +0.000 C 
ATOM     76  F13 UNL A   1      46.736  33.299  35.291  1.00  0.00    +0.000 F 
ATOM     77  C54 UNL A   1      45.287  31.522  34.758  1.00  0.00    +0.000 C 
ATOM     78  F14 UNL A   1      44.624  31.689  35.912  1.00  0.00    +0.000 F 
ATOM     79  C55 UNL A   1      44.880  30.532  33.863  1.00  0.00    +0.000 C 
ATOM     80  F15 UNL A   1      43.886  29.753  34.312  1.00  0.00    +0.000 F 
ENDBRANCH   69   70
TORSDOF 17
ENDMDL
MODEL 3
REMARK VINA RESULT:     -11.2      4.283      9.339
ROOT
ATOM    129  H38 UNL A   1      37.109  28.696  28.931  1.00  0.00    +0.000 H 
ATOM     33  C26 UNL A   1      39.905  29.312  29.436  1.00  0.00    +0.000 C 
ATOM     34  C27 UNL A   1      38.703  30.264  29.345  1.00  0.00    +0.000 C 
ATOM     35  N4  UNL A   1      38.653  31.561  29.419  1.00  0.00    +0.000 N 
ATOM     36  C28 UNL A   1      37.291  31.933  29.384  1.00  0.00    +0.000 C 
ATOM     37  C29 UNL A   1      36.835  33.169  29.736  1.00  0.00    +0.000 C 
ATOM     49  C36 UNL A   1      37.915  34.033  30.067  1.00  0.00    +0.000 C 
ATOM     50  C37 UNL A   1      38.825  34.734  29.323  1.00  0.00    +0.000 C 
ATOM     51  C38 UNL A   1      39.953  34.857  30.164  1.00  0.00    +0.000 C 
ATOM     52  C39 UNL A   1      39.661  34.285  31.407  1.00  0.00    +0.000 C 
ATOM     53  N5  UNL A   1      38.306  34.066  31.382  1.00  0.00    +0.000 N 
ATOM     54  C40 UNL A   1      40.408  33.728  32.513  1.00  0.00    +0.000 C 
ATOM     66  C47 UNL A   1      41.761  33.725  32.413  1.00  0.00    +0.000 C 
ATOM     67  N6  UNL A   1      42.469  32.603  32.782  1.00  0.00    +0.000 N 
ATOM     68  C48 UNL A   1      43.293  32.451  31.788  1.00  0.00    +0.000 C 
ATOM     69  C49 UNL A   1      44.038  31.215  31.486  1.00  0.00    +0.000 C 
ATOM     81  C56 UNL A   1      43.122  30.345  30.958  1.00  0.00    +0.000 C 
ATOM     82  C57 UNL A   1      43.332  28.975  30.532  1.00  0.00    +0.000 C 
ATOM     83  C58 UNL A   1      42.201  28.483  29.991  1.00  0.00    +0.000 C 
ATOM     84  C59 UNL A   1      41.137  29.502  29.989  1.00  0.00    +0.000 C 
ATOM     85  N7  UNL A   1      41.755  30.555  30.639  1.00  0.00    +0.000 N 
ATOM     86  C60 UNL A   1      43.416  33.589  30.866  1.00  0.00    +0.000 C 
ATOM     87  C61 UNL A   1      42.567  34.429  31.448  1.00  0.00    +0.000 C 
ATOM     88  C62 UNL A   1      36.552  30.749  29.067  1.00  0.00    +0.000 C 
ATOM     89  C63 UNL A   1      37.358  29.686  29.077  1.00  0.00    +0.000 C 
ATOM    120  H29 UNL A   1      38.713  35.091  28.362  1.00  0.00    +0.000 H 
ATOM    121  H30 UNL A   1      40.849  35.298  29.904  1.00  0.00    +0.000 H 
ATOM    122  H31 UNL A   1      37.720  33.952  32.165  1.00  0.00    +0.000 H 
ATOM    123  H32 UNL A   1      44.218  28.454  30.629  1.00  0.00    +0.000 H 
ATOM    124  H33 UNL A   1      42.094  27.523  29.628  1.00  0.00    +0.000 H 
ATOM    125  H34 UNL A   1      41.281  31.388  30.864  1.00  0.00    +0.000 H 
ATOM    126  H35 UNL A   1      43.993  33.701  30.017  1.00  0.00    +0.000 H 
ATOM    127  H36 UNL A   1      42.494  35.437  31.237  1.00  0.00    +0.000 H 
ATOM    128  H37 UNL A   1      35.542  30.721  28.861  1.00  0.00    +0.000 H 
ENDROOT
BRANCH   33   32
ATOM    130  H39 UNL A   1      40.360  28.533  26.881  1.00  0.00    +0.000 H 
ATOM    131  H40 UNL A   1      40.189  26.291  25.963  1.00  0.00    +0.000 H 
ATOM    118  H27 UNL A   1      38.710  24.895  29.650  1.00  0.00    +0.000 H 
ATOM    119  H28 UNL A   1      38.824  27.143  30.554  1.00  0.00    +0.000 H 
ATOM     90  C64 UNL A   1      40.022  27.757  27.471  1.00  0.00    +0.000 C 
ATOM     91  C65 UNL A   1      39.937  26.467  26.949  1.00  0.00    +0.000 C 
ATOM     29  C22 UNL A   1      39.510  25.413  27.760  1.00  0.00    +0.000 C 
ATOM     30  C23 UNL A   1      39.078  25.666  29.070  1.00  0.00    +0.000 C 
ATOM     31  C24 UNL A   1      39.144  26.955  29.591  1.00  0.00    +0.000 C 
ATOM     32  C25 UNL A   1      39.648  27.995  28.802  1.00  0.00    +0.000 C 
BRANCH   29   27
ATOM     27  C21 UNL A   1      39.409  24.017  27.271  1.00  0.00    +0.000 C 
ATOM     28  O4  UNL A   1      40.306  23.231  27.505  1.00  0.00    +0.000 O 
BRANCH   27   26
ATOM     26  N3  UNL A   1      38.325  23.599  26.530  1.00  0.00    +0.000 N 
ATOM    117  H26 UNL A   1      37.562  24.221  26.496  1.00  0.00    +0.000 H 
BRANCH   26   25
ATOM     25  C20 UNL A   1      38.164  22.358  25.792  1.00  0.00    +0.000 C 
ATOM    115  H24 UNL A   1      39.015  22.214  25.159  1.00  0.00    +0.000 H 
ATOM    116  H25 UNL A   1      38.078  21.554  26.493  1.00  0.00    +0.000 H 
BRANCH   25   24
ATOM    113  H22 UNL A   1      36.313  23.233  25.227  1.00  0.00    +0.000 H 
ATOM    114  H23 UNL A   1      37.223  22.443  23.913  1.00  0.00    +0.000 H 
ATOM     24  C19 UNL A   1      36.900  22.388  24.932  1.00  0.00    +0.000 C 
BRANCH   24   23
ATOM    111  H20 UNL A   1      36.035  20.635  24.100  1.00  0.00    +0.000 H 
ATOM     23  C18 UNL A   1      36.024  21.132  25.047  1.00  0.00    +0.000 C 
ATOM    112  H21 UNL A   1      36.445  20.553  25.842  1.00  0.00    +0.000 H 
BRANCH   23   22
ATOM    110  H19 UNL A   1      34.239  20.502  25.947  1.00  0.00    +0.000 H 
ATOM    109  H18 UNL A   1      34.015  21.585  24.538  1.00  0.00    +0.000 H 
ATOM     22  C17 UNL A   1      34.564  21.383  25.434  1.00  0.00    +0.000 C 
BRANCH   22   21
ATOM    107  H16 UNL A   1      35.147  22.575  27.094  1.00  0.00    +0.000 H 
ATOM    108  H17 UNL A   1      34.250  23.427  25.802  1.00  0.00    +0.000 H 
ATOM     21  C16 UNL A   1      34.329  22.547  26.405  1.00  0.00    +0.000 C 
BRANCH   21   20
ATOM    105  H14 UNL A   1      32.605  21.490  27.082  1.00  0.00    +0.000 H 
ATOM    106  H15 UNL A   1      33.265  22.645  28.240  1.00  0.00    +0.000 H 
ATOM     20  C15 UNL A   1      33.031  22.462  27.212  1.00  0.00    +0.000 C 
BRANCH   20   19
ATOM     19  N2  UNL A   1      32.070  23.457  26.782  1.00  0.00    +0.000 N 
ATOM    104  H13 UNL A   1      32.239  24.402  26.999  1.00  0.00    +0.000 H 
BRANCH   19    2
ATOM      1  O1  UNL A   1      30.160  22.233  26.418  1.00  0.00    +0.000 O 
ATOM      2  C1  UNL A   1      30.924  23.134  26.082  1.00  0.00    +0.000 C 
BRANCH    2    3
ATOM      3  C2  UNL A   1      30.727  23.919  24.790  1.00  0.00    +0.000 C 
ATOM     92  H1  UNL A   1      30.501  24.937  25.031  1.00  0.00    +0.000 H 
ATOM     93  H2  UNL A   1      29.923  23.471  24.244  1.00  0.00    +0.000 H 
BRANCH    3    4
ATOM      4  C3  UNL A   1      31.961  23.883  23.931  1.00  0.00    +0.000 C 
ATOM      5  C4  UNL A   1      32.353  22.878  23.061  1.00  0.00    +0.000 C 
ATOM      6  C5  UNL A   1      33.464  23.344  22.330  1.00  0.00    +0.000 C 
ATOM      7  C6  UNL A   1      33.731  24.618  22.772  1.00  0.00    +0.000 C 
ATOM      8  N1  UNL A   1      32.874  24.924  23.811  1.00  0.00    +0.000 N 
ATOM     94  H3  UNL A   1      31.910  21.951  22.965  1.00  0.00    +0.000 H 
ATOM     95  H4  UNL A   1      33.980  22.826  21.600  1.00  0.00    +0.000 H 
ATOM     96  H5  UNL A   1      34.456  25.245  22.389  1.00  0.00    +0.000 H 
BRANCH    8    9
ATOM     97  H6  UNL A   1      34.618  25.487  25.713  1.00  0.00    +0.000 H 
ATOM     98  H7  UNL A   1      34.789  27.554  26.981  1.00  0.00    +0.000 H 
ATOM     99  H8  UNL A   1      31.259  27.022  23.678  1.00  0.00    +0.000 H 
ATOM    100  H9  UNL A   1      30.592  31.122  25.543  1.00  0.00    +0.000 H 
ATOM    101  H10 UNL A   1      32.221  30.963  24.896  1.00  0.00    +0.000 H 
ATOM    102  H11 UNL A   1      31.288  29.818  27.504  1.00  0.00    +0.000 H 
ATOM    103  H12 UNL A   1      32.228  31.291  27.316  1.00  0.00    +0.000 H 
ATOM      9  C7  UNL A   1      32.947  26.116  24.575  1.00  0.00    +0.000 C 
ATOM     10  C8  UNL A   1      33.947  26.254  25.547  1.00  0.00    +0.000 C 
ATOM     11  C9  UNL A   1      34.032  27.433  26.290  1.00  0.00    +0.000 C 
ATOM     12  C10 UNL A   1      33.094  28.446  26.100  1.00  0.00    +0.000 C 
ATOM     13  C11 UNL A   1      32.084  28.298  25.144  1.00  0.00    +0.000 C 
ATOM     14  C12 UNL A   1      32.006  27.134  24.381  1.00  0.00    +0.000 C 
ATOM     15  O2  UNL A   1      31.119  29.246  24.914  1.00  0.00    +0.000 O 
ATOM     16  C13 UNL A   1      31.465  30.505  25.500  1.00  0.00    +0.000 C 
ATOM     17  C14 UNL A   1      32.015  30.326  26.906  1.00  0.00    +0.000 C 
ATOM     18  O3  UNL A   1      33.224  29.560  26.886  1.00  0.00    +0.000 O 
ENDBRANCH    8    9
ENDBRANCH    3    4
ENDBRANCH    2    3
ENDBRANCH   19    2
ENDBRANCH   20   19
ENDBRANCH   21   20
ENDBRANCH   22   21
ENDBRANCH   23   22
ENDBRANCH   24   23
ENDBRANCH   25   24
ENDBRANCH   26   25
ENDBRANCH   27   26
ENDBRANCH   29   27
ENDBRANCH   33   32
BRANCH   37   38
ATOM     38  C30 UNL A   1      35.448  33.671  30.040  1.00  0.00    +0.000 C 
ATOM     39  C31 UNL A   1      34.763  34.408  29.041  1.00  0.00    +0.000 C 
ATOM     40  F1  UNL A   1      35.154  34.351  27.757  1.00  0.00    +0.000 F 
ATOM     41  C32 UNL A   1      33.718  35.278  29.346  1.00  0.00    +0.000 C 
ATOM     42  F2  UNL A   1      33.193  36.056  28.388  1.00  0.00    +0.000 F 
ATOM     43  C33 UNL A   1      33.271  35.388  30.647  1.00  0.00    +0.000 C 
ATOM     44  F3  UNL A   1      32.314  36.272  30.959  1.00  0.00    +0.000 F 
ATOM     45  C34 UNL A   1      33.847  34.602  31.632  1.00  0.00    +0.000 C 
ATOM     46  F4  UNL A   1      33.412  34.702  32.896  1.00  0.00    +0.000 F 
ATOM     47  C35 UNL A   1      34.929  33.764  31.338  1.00  0.00    +0.000 C 
ATOM     48  F5  UNL A   1      35.514  33.132  32.364  1.00  0.00    +0.000 F 
ENDBRANCH   37   38
BRANCH   54   55
ATOM     65  F10 UNL A   1      40.370  34.130  35.403  1.00  0.00    +0.000 F 
ATOM     55  C41 UNL A   1      39.879  32.747  33.536  1.00  0.00    +0.000 C 
ATOM     56  C42 UNL A   1      39.279  31.552  33.115  1.00  0.00    +0.000 C 
ATOM     57  F6  UNL A   1      39.284  31.224  31.815  1.00  0.00    +0.000 F 
ATOM     58  C43 UNL A   1      38.665  30.686  34.023  1.00  0.00    +0.000 C 
ATOM     59  F7  UNL A   1      38.096  29.554  33.584  1.00  0.00    +0.000 F 
ATOM     60  C44 UNL A   1      38.643  30.983  35.376  1.00  0.00    +0.000 C 
ATOM     61  F8  UNL A   1      38.062  30.145  36.248  1.00  0.00    +0.000 F 
ATOM     62  C45 UNL A   1      39.232  32.147  35.825  1.00  0.00    +0.000 C 
ATOM     63  F9  UNL A   1      39.235  32.443  37.134  1.00  0.00    +0.000 F 
ATOM     64  C46 UNL A   1      39.832  33.015  34.913  1.00  0.00    +0.000 C 
ENDBRANCH   54   55
BRANCH   69   70
ATOM     70  C50 UNL A   1      45.537  31.240  31.728  1.00  0.00    +0.000 C 
ATOM     71  C51 UNL A   1      46.532  31.140  30.745  1.00  0.00    +0.000 C 
ATOM     72  F11 UNL A   1      46.240  30.796  29.489  1.00  0.00    +0.000 F 
ATOM     73  C52 UNL A   1      47.895  31.348  31.029  1.00  0.00    +0.000 C 
ATOM     74  F12 UNL A   1      48.797  31.266  30.040  1.00  0.00    +0.000 F 
ATOM     75  C53 UNL A   1      48.324  31.643  32.309  1.00  0.00    +0.000 C 
ATOM     76  F13 UNL A   1      49.615  31.889  32.566  1.00  0.00    +0.000 F 
ATOM     77  C54 UNL A   1      47.400  31.658  33.324  1.00  0.00    +0.000 C 
ATOM     78  F14 UNL A   1      47.783  31.910  34.584  1.00  0.00    +0.000 F 
ATOM     79  C55 UNL A   1      46.053  31.424  33.043  1.00  0.00    +0.000 C 
ATOM     80  F15 UNL A   1      45.261  31.380  34.124  1.00  0.00    +0.000 F 
ENDBRANCH   69   70
TORSDOF 17
ENDMDL
MODEL 4
REMARK VINA RESULT:     -11.0      4.139      9.110
ROOT
ATOM    129  H38 UNL A   1      37.433  28.248  29.135  1.00  0.00    +0.000 H 
ATOM     33  C26 UNL A   1      40.217  29.078  29.010  1.00  0.00    +0.000 C 
ATOM     34  C27 UNL A   1      38.957  29.935  29.204  1.00  0.00    +0.000 C 
ATOM     35  N4  UNL A   1      38.827  31.225  29.306  1.00  0.00    +0.000 N 
ATOM     36  C28 UNL A   1      37.469  31.491  29.582  1.00  0.00    +0.000 C 
ATOM     37  C29 UNL A   1      37.012  32.690  30.046  1.00  0.00    +0.000 C 
ATOM     49  C36 UNL A   1      38.070  33.635  30.140  1.00  0.00    +0.000 C 
ATOM     50  C37 UNL A   1      38.735  34.401  29.221  1.00  0.00    +0.000 C 
ATOM     51  C38 UNL A   1      40.009  34.612  29.790  1.00  0.00    +0.000 C 
ATOM     52  C39 UNL A   1      40.048  34.023  31.059  1.00  0.00    +0.000 C 
ATOM     53  N5  UNL A   1      38.742  33.701  31.334  1.00  0.00    +0.000 N 
ATOM     54  C40 UNL A   1      41.064  33.528  31.961  1.00  0.00    +0.000 C 
ATOM     66  C47 UNL A   1      42.356  33.628  31.561  1.00  0.00    +0.000 C 
ATOM     67  N6  UNL A   1      43.211  32.565  31.745  1.00  0.00    +0.000 N 
ATOM     68  C48 UNL A   1      43.800  32.474  30.590  1.00  0.00    +0.000 C 
ATOM     69  C49 UNL A   1      44.549  31.298  30.111  1.00  0.00    +0.000 C 
ATOM     81  C56 UNL A   1      43.606  30.359  29.789  1.00  0.00    +0.000 C 
ATOM     82  C57 UNL A   1      43.818  29.007  29.307  1.00  0.00    +0.000 C 
ATOM     83  C58 UNL A   1      42.635  28.429  29.025  1.00  0.00    +0.000 C 
ATOM     84  C59 UNL A   1      41.524  29.364  29.276  1.00  0.00    +0.000 C 
ATOM     85  N7  UNL A   1      42.191  30.463  29.787  1.00  0.00    +0.000 N 
ATOM     86  C60 UNL A   1      43.627  33.616  29.681  1.00  0.00    +0.000 C 
ATOM     87  C61 UNL A   1      42.869  34.389  30.450  1.00  0.00    +0.000 C 
ATOM     88  C62 UNL A   1      36.769  30.253  29.421  1.00  0.00    +0.000 C 
ATOM     89  C63 UNL A   1      37.634  29.255  29.235  1.00  0.00    +0.000 C 
ATOM    120  H29 UNL A   1      38.384  34.747  28.315  1.00  0.00    +0.000 H 
ATOM    121  H30 UNL A   1      40.789  35.120  29.343  1.00  0.00    +0.000 H 
ATOM    122  H31 UNL A   1      38.357  33.544  32.227  1.00  0.00    +0.000 H 
ATOM    123  H32 UNL A   1      44.740  28.556  29.195  1.00  0.00    +0.000 H 
ATOM    124  H33 UNL A   1      42.522  27.463  28.681  1.00  0.00    +0.000 H 
ATOM    125  H34 UNL A   1      41.718  31.258  30.124  1.00  0.00    +0.000 H 
ATOM    126  H35 UNL A   1      43.989  33.769  28.726  1.00  0.00    +0.000 H 
ATOM    127  H36 UNL A   1      42.676  35.388  30.276  1.00  0.00    +0.000 H 
ATOM    128  H37 UNL A   1      35.743  30.148  29.447  1.00  0.00    +0.000 H 
ENDROOT
BRANCH   33   32
ATOM    130  H39 UNL A   1      40.585  28.205  26.471  1.00  0.00    +0.000 H 
ATOM    131  H40 UNL A   1      40.359  25.935  25.638  1.00  0.00    +0.000 H 
ATOM    118  H27 UNL A   1      38.972  24.689  29.414  1.00  0.00    +0.000 H 
ATOM    119  H28 UNL A   1      39.142  26.965  30.234  1.00  0.00    +0.000 H 
ATOM     90  C64 UNL A   1      40.256  27.455  27.098  1.00  0.00    +0.000 C 
ATOM     91  C65 UNL A   1      40.138  26.149  26.624  1.00  0.00    +0.000 C 
ATOM     29  C22 UNL A   1      39.722  25.129  27.485  1.00  0.00    +0.000 C 
ATOM     30  C23 UNL A   1      39.332  25.434  28.797  1.00  0.00    +0.000 C 
ATOM     31  C24 UNL A   1      39.431  26.739  29.270  1.00  0.00    +0.000 C 
ATOM     32  C25 UNL A   1      39.924  27.744  28.430  1.00  0.00    +0.000 C 
BRANCH   29   27
ATOM     27  C21 UNL A   1      39.589  23.719  27.048  1.00  0.00    +0.000 C 
ATOM     28  O4  UNL A   1      40.318  22.870  27.522  1.00  0.00    +0.000 O 
BRANCH   27   26
ATOM     26  N3  UNL A   1      38.666  23.354  26.091  1.00  0.00    +0.000 N 
ATOM    117  H26 UNL A   1      38.948  22.643  25.471  1.00  0.00    +0.000 H 
BRANCH   26   25
ATOM     25  C20 UNL A   1      37.329  23.884  25.883  1.00  0.00    +0.000 C 
ATOM    115  H24 UNL A   1      36.708  23.602  26.708  1.00  0.00    +0.000 H 
ATOM    116  H25 UNL A   1      37.393  24.949  25.807  1.00  0.00    +0.000 H 
BRANCH   25   24
ATOM    113  H22 UNL A   1      36.309  24.165  24.041  1.00  0.00    +0.000 H 
ATOM    114  H23 UNL A   1      37.505  22.842  24.064  1.00  0.00    +0.000 H 
ATOM     24  C19 UNL A   1      36.718  23.342  24.589  1.00  0.00    +0.000 C 
BRANCH   24   23
ATOM    111  H20 UNL A   1      34.762  22.602  24.213  1.00  0.00    +0.000 H 
ATOM     23  C18 UNL A   1      35.605  22.305  24.800  1.00  0.00    +0.000 C 
ATOM    112  H21 UNL A   1      36.021  21.364  24.509  1.00  0.00    +0.000 H 
BRANCH   23   22
ATOM    110  H19 UNL A   1      36.012  22.219  26.855  1.00  0.00    +0.000 H 
ATOM    109  H18 UNL A   1      34.653  21.179  26.325  1.00  0.00    +0.000 H 
ATOM     22  C17 UNL A   1      35.136  22.131  26.248  1.00  0.00    +0.000 C 
BRANCH   22   21
ATOM    107  H16 UNL A   1      34.715  23.905  27.340  1.00  0.00    +0.000 H 
ATOM    108  H17 UNL A   1      33.704  23.626  25.890  1.00  0.00    +0.000 H 
ATOM     21  C16 UNL A   1      34.160  23.198  26.759  1.00  0.00    +0.000 C 
BRANCH   21   20
ATOM    105  H14 UNL A   1      33.157  21.617  27.779  1.00  0.00    +0.000 H 
ATOM    106  H15 UNL A   1      33.026  23.196  28.554  1.00  0.00    +0.000 H 
ATOM     20  C15 UNL A   1      33.016  22.666  27.624  1.00  0.00    +0.000 C 
BRANCH   20   19
ATOM     19  N2  UNL A   1      31.728  22.878  26.997  1.00  0.00    +0.000 N 
ATOM    104  H13 UNL A   1      31.061  23.432  27.463  1.00  0.00    +0.000 H 
BRANCH   19    2
ATOM      1  O1  UNL A   1      31.534  21.144  25.501  1.00  0.00    +0.000 O 
ATOM      2  C1  UNL A   1      31.397  22.335  25.771  1.00  0.00    +0.000 C 
BRANCH    2    3
ATOM      3  C2  UNL A   1      30.936  23.350  24.730  1.00  0.00    +0.000 C 
ATOM     92  H1  UNL A   1      30.710  24.274  25.219  1.00  0.00    +0.000 H 
ATOM     93  H2  UNL A   1      30.068  22.958  24.240  1.00  0.00    +0.000 H 
BRANCH    3    4
ATOM      4  C3  UNL A   1      31.997  23.592  23.693  1.00  0.00    +0.000 C 
ATOM      5  C4  UNL A   1      32.535  22.673  22.805  1.00  0.00    +0.000 C 
ATOM      6  C5  UNL A   1      33.354  23.372  21.897  1.00  0.00    +0.000 C 
ATOM      7  C6  UNL A   1      33.306  24.700  22.251  1.00  0.00    +0.000 C 
ATOM      8  N1  UNL A   1      32.551  24.833  23.399  1.00  0.00    +0.000 N 
ATOM     94  H3  UNL A   1      32.365  21.656  22.808  1.00  0.00    +0.000 H 
ATOM     95  H4  UNL A   1      33.889  22.965  21.113  1.00  0.00    +0.000 H 
ATOM     96  H5  UNL A   1      33.762  25.473  21.740  1.00  0.00    +0.000 H 
BRANCH    8    9
ATOM     97  H6  UNL A   1      30.543  26.535  23.186  1.00  0.00    +0.000 H 
ATOM     98  H7  UNL A   1      30.225  28.593  24.440  1.00  0.00    +0.000 H 
ATOM     99  H8  UNL A   1      34.218  25.912  25.156  1.00  0.00    +0.000 H 
ATOM    100  H9  UNL A   1      34.683  29.555  27.848  1.00  0.00    +0.000 H 
ATOM    101  H10 UNL A   1      33.174  28.707  28.162  1.00  0.00    +0.000 H 
ATOM    102  H11 UNL A   1      33.654  30.564  25.859  1.00  0.00    +0.000 H 
ATOM    103  H12 UNL A   1      32.792  30.972  27.335  1.00  0.00    +0.000 H 
ATOM      9  C7  UNL A   1      32.387  26.052  24.105  1.00  0.00    +0.000 C 
ATOM     10  C8  UNL A   1      31.250  26.837  23.874  1.00  0.00    +0.000 C 
ATOM     11  C9  UNL A   1      31.078  28.030  24.580  1.00  0.00    +0.000 C 
ATOM     12  C10 UNL A   1      32.060  28.461  25.470  1.00  0.00    +0.000 C 
ATOM     13  C11 UNL A   1      33.204  27.686  25.684  1.00  0.00    +0.000 C 
ATOM     14  C12 UNL A   1      33.372  26.482  25.002  1.00  0.00    +0.000 C 
ATOM     15  O2  UNL A   1      34.216  28.055  26.533  1.00  0.00    +0.000 O 
ATOM     16  C13 UNL A   1      33.813  29.115  27.407  1.00  0.00    +0.000 C 
ATOM     17  C14 UNL A   1      33.043  30.188  26.653  1.00  0.00    +0.000 C 
ATOM     18  O3  UNL A   1      31.833  29.655  26.103  1.00  0.00    +0.000 O 
ENDBRANCH    8    9
ENDBRANCH    3    4
ENDBRANCH    2    3
ENDBRANCH   19    2
ENDBRANCH   20   19
ENDBRANCH   21   20
ENDBRANCH   22   21
ENDBRANCH   23   22
ENDBRANCH   24   23
ENDBRANCH   25   24
ENDBRANCH   26   25
ENDBRANCH   27   26
ENDBRANCH   29   27
ENDBRANCH   33   32
BRANCH   37   38
ATOM     38  C30 UNL A   1      35.694  33.085  30.660  1.00  0.00    +0.000 C 
ATOM     39  C31 UNL A   1      34.958  34.137  30.059  1.00  0.00    +0.000 C 
ATOM     40  F1  UNL A   1      35.215  34.521  28.798  1.00  0.00    +0.000 F 
ATOM     41  C32 UNL A   1      34.002  34.869  30.762  1.00  0.00    +0.000 C 
ATOM     42  F2  UNL A   1      33.432  35.942  30.194  1.00  0.00    +0.000 F 
ATOM     43  C33 UNL A   1      33.695  34.530  32.063  1.00  0.00    +0.000 C 
ATOM     44  F3  UNL A   1      32.828  35.271  32.766  1.00  0.00    +0.000 F 
ATOM     45  C34 UNL A   1      34.319  33.439  32.646  1.00  0.00    +0.000 C 
ATOM     46  F4  UNL A   1      34.018  33.103  33.909  1.00  0.00    +0.000 F 
ATOM     47  C35 UNL A   1      35.314  32.732  31.962  1.00  0.00    +0.000 C 
ATOM     48  F5  UNL A   1      35.960  31.771  32.635  1.00  0.00    +0.000 F 
ENDBRANCH   37   38
BRANCH   54   55
ATOM     65  F10 UNL A   1      40.019  30.826  31.612  1.00  0.00    +0.000 F 
ATOM     55  C41 UNL A   1      40.853  32.512  33.062  1.00  0.00    +0.000 C 
ATOM     56  C42 UNL A   1      41.241  32.812  34.375  1.00  0.00    +0.000 C 
ATOM     57  F6  UNL A   1      41.683  34.042  34.676  1.00  0.00    +0.000 F 
ATOM     58  C43 UNL A   1      41.182  31.853  35.389  1.00  0.00    +0.000 C 
ATOM     59  F7  UNL A   1      41.566  32.174  36.633  1.00  0.00    +0.000 F 
ATOM     60  C44 UNL A   1      40.725  30.572  35.123  1.00  0.00    +0.000 C 
ATOM     61  F8  UNL A   1      40.659  29.656  36.100  1.00  0.00    +0.000 F 
ATOM     62  C45 UNL A   1      40.327  30.247  33.842  1.00  0.00    +0.000 C 
ATOM     63  F9  UNL A   1      39.866  29.016  33.570  1.00  0.00    +0.000 F 
ATOM     64  C46 UNL A   1      40.400  31.203  32.830  1.00  0.00    +0.000 C 
ENDBRANCH   54   55
BRANCH   69   70
ATOM     70  C50 UNL A   1      46.058  31.438  30.011  1.00  0.00    +0.000 C 
ATOM     71  C51 UNL A   1      46.962  31.409  31.082  1.00  0.00    +0.000 C 
ATOM     72  F11 UNL A   1      46.544  31.463  32.349  1.00  0.00    +0.000 F 
ATOM     73  C52 UNL A   1      48.356  31.368  30.892  1.00  0.00    +0.000 C 
ATOM     74  F12 UNL A   1      49.169  31.314  31.957  1.00  0.00    +0.000 F 
ATOM     75  C53 UNL A   1      48.907  31.377  29.624  1.00  0.00    +0.000 C 
ATOM     76  F13 UNL A   1      50.231  31.290  29.446  1.00  0.00    +0.000 F 
ATOM     77  C54 UNL A   1      48.068  31.502  28.544  1.00  0.00    +0.000 C 
ATOM     78  F14 UNL A   1      48.568  31.544  27.301  1.00  0.00    +0.000 F 
ATOM     79  C55 UNL A   1      46.687  31.568  28.739  1.00  0.00    +0.000 C 
ATOM     80  F15 UNL A   1      45.980  31.774  27.620  1.00  0.00    +0.000 F 
ENDBRANCH   69   70
TORSDOF 17
ENDMDL
MODEL 5
REMARK VINA RESULT:     -10.8      4.155      8.882
ROOT
ATOM    129  H38 UNL A   1      37.204  28.592  28.794  1.00  0.00    +0.000 H 
ATOM     33  C26 UNL A   1      40.003  29.246  29.235  1.00  0.00    +0.000 C 
ATOM     34  C27 UNL A   1      38.789  30.183  29.153  1.00  0.00    +0.000 C 
ATOM     35  N4  UNL A   1      38.726  31.481  29.207  1.00  0.00    +0.000 N 
ATOM     36  C28 UNL A   1      37.360  31.837  29.193  1.00  0.00    +0.000 C 
ATOM     37  C29 UNL A   1      36.897  33.074  29.535  1.00  0.00    +0.000 C 
ATOM     49  C36 UNL A   1      37.973  33.955  29.833  1.00  0.00    +0.000 C 
ATOM     50  C37 UNL A   1      38.861  34.653  29.060  1.00  0.00    +0.000 C 
ATOM     51  C38 UNL A   1      40.003  34.801  29.878  1.00  0.00    +0.000 C 
ATOM     52  C39 UNL A   1      39.742  34.246  31.135  1.00  0.00    +0.000 C 
ATOM     53  N5  UNL A   1      38.388  34.011  31.139  1.00  0.00    +0.000 N 
ATOM     54  C40 UNL A   1      40.515  33.714  32.234  1.00  0.00    +0.000 C 
ATOM     66  C47 UNL A   1      41.866  33.724  32.109  1.00  0.00    +0.000 C 
ATOM     67  N6  UNL A   1      42.594  32.616  32.481  1.00  0.00    +0.000 N 
ATOM     68  C48 UNL A   1      43.400  32.458  31.473  1.00  0.00    +0.000 C 
ATOM     69  C49 UNL A   1      44.153  31.225  31.176  1.00  0.00    +0.000 C 
ATOM     81  C56 UNL A   1      43.236  30.337  30.679  1.00  0.00    +0.000 C 
ATOM     82  C57 UNL A   1      43.454  28.963  30.270  1.00  0.00    +0.000 C 
ATOM     83  C58 UNL A   1      42.318  28.450  29.759  1.00  0.00    +0.000 C 
ATOM     84  C59 UNL A   1      41.243  29.458  29.761  1.00  0.00    +0.000 C 
ATOM     85  N7  UNL A   1      41.861  30.528  30.384  1.00  0.00    +0.000 N 
ATOM     86  C60 UNL A   1      43.493  33.582  30.532  1.00  0.00    +0.000 C 
ATOM     87  C61 UNL A   1      42.645  34.422  31.117  1.00  0.00    +0.000 C 
ATOM     88  C62 UNL A   1      36.628  30.640  28.908  1.00  0.00    +0.000 C 
ATOM     89  C63 UNL A   1      37.446  29.587  28.919  1.00  0.00    +0.000 C 
ATOM    120  H29 UNL A   1      38.727  34.995  28.097  1.00  0.00    +0.000 H 
ATOM    121  H30 UNL A   1      40.889  35.248  29.594  1.00  0.00    +0.000 H 
ATOM    122  H31 UNL A   1      37.819  33.904  31.935  1.00  0.00    +0.000 H 
ATOM    123  H32 UNL A   1      44.347  28.453  30.358  1.00  0.00    +0.000 H 
ATOM    124  H33 UNL A   1      42.215  27.484  29.412  1.00  0.00    +0.000 H 
ATOM    125  H34 UNL A   1      41.383  31.359  30.605  1.00  0.00    +0.000 H 
ATOM    126  H35 UNL A   1      44.052  33.688  29.671  1.00  0.00    +0.000 H 
ATOM    127  H36 UNL A   1      42.558  35.426  30.893  1.00  0.00    +0.000 H 
ATOM    128  H37 UNL A   1      35.614  30.599  28.723  1.00  0.00    +0.000 H 
ENDROOT
BRANCH   33   32
ATOM    130  H39 UNL A   1      40.510  28.403  26.710  1.00  0.00    +0.000 H 
ATOM    131  H40 UNL A   1      40.341  26.141  25.842  1.00  0.00    +0.000 H 
ATOM    118  H27 UNL A   1      38.762  24.846  29.524  1.00  0.00    +0.000 H 
ATOM    119  H28 UNL A   1      38.875  27.114  30.377  1.00  0.00    +0.000 H 
ATOM     90  C64 UNL A   1      40.152  27.644  27.310  1.00  0.00    +0.000 C 
ATOM     91  C65 UNL A   1      40.067  26.343  26.817  1.00  0.00    +0.000 C 
ATOM     29  C22 UNL A   1      39.610  25.312  27.642  1.00  0.00    +0.000 C 
ATOM     30  C23 UNL A   1      39.150  25.600  28.935  1.00  0.00    +0.000 C 
ATOM     31  C24 UNL A   1      39.217  26.900  29.427  1.00  0.00    +0.000 C 
ATOM     32  C25 UNL A   1      39.748  27.917  28.626  1.00  0.00    +0.000 C 
BRANCH   29   27
ATOM     27  C21 UNL A   1      39.508  23.906  27.184  1.00  0.00    +0.000 C 
ATOM     28  O4  UNL A   1      40.165  23.044  27.734  1.00  0.00    +0.000 O 
BRANCH   27   26
ATOM     26  N3  UNL A   1      38.698  23.560  26.124  1.00  0.00    +0.000 N 
ATOM    117  H26 UNL A   1      39.137  23.076  25.387  1.00  0.00    +0.000 H 
BRANCH   26   25
ATOM     25  C20 UNL A   1      37.278  23.818  25.955  1.00  0.00    +0.000 C 
ATOM    115  H24 UNL A   1      36.736  23.305  26.723  1.00  0.00    +0.000 H 
ATOM    116  H25 UNL A   1      37.114  24.873  26.020  1.00  0.00    +0.000 H 
BRANCH   25   24
ATOM    113  H22 UNL A   1      37.610  23.378  23.904  1.00  0.00    +0.000 H 
ATOM    114  H23 UNL A   1      36.418  22.340  24.730  1.00  0.00    +0.000 H 
ATOM     24  C19 UNL A   1      36.789  23.334  24.589  1.00  0.00    +0.000 C 
BRANCH   24   23
ATOM    111  H20 UNL A   1      34.999  24.457  24.812  1.00  0.00    +0.000 H 
ATOM     23  C18 UNL A   1      35.631  24.155  24.004  1.00  0.00    +0.000 C 
ATOM    112  H21 UNL A   1      36.083  24.972  23.482  1.00  0.00    +0.000 H 
BRANCH   23   22
ATOM    110  H19 UNL A   1      34.537  22.471  23.401  1.00  0.00    +0.000 H 
ATOM    109  H18 UNL A   1      35.317  23.366  22.060  1.00  0.00    +0.000 H 
ATOM     22  C17 UNL A   1      34.764  23.425  22.973  1.00  0.00    +0.000 C 
BRANCH   22   21
ATOM    107  H16 UNL A   1      32.877  23.441  21.994  1.00  0.00    +0.000 H 
ATOM    108  H17 UNL A   1      32.923  24.214  23.607  1.00  0.00    +0.000 H 
ATOM     21  C16 UNL A   1      33.412  24.081  22.665  1.00  0.00    +0.000 C 
BRANCH   21   20
ATOM    105  H14 UNL A   1      34.493  25.846  22.150  1.00  0.00    +0.000 H 
ATOM    106  H15 UNL A   1      33.247  25.378  20.992  1.00  0.00    +0.000 H 
ATOM     20  C15 UNL A   1      33.499  25.470  22.028  1.00  0.00    +0.000 C 
BRANCH   20   19
ATOM     19  N2  UNL A   1      32.569  26.397  22.640  1.00  0.00    +0.000 N 
ATOM    104  H13 UNL A   1      31.608  26.185  22.619  1.00  0.00    +0.000 H 
BRANCH   19    2
ATOM      1  O1  UNL A   1      32.792  28.681  22.765  1.00  0.00    +0.000 O 
ATOM      2  C1  UNL A   1      32.975  27.567  23.250  1.00  0.00    +0.000 C 
BRANCH    2    3
ATOM      3  C2  UNL A   1      33.767  27.370  24.538  1.00  0.00    +0.000 C 
ATOM     92  H1  UNL A   1      34.581  28.064  24.557  1.00  0.00    +0.000 H 
ATOM     93  H2  UNL A   1      34.128  26.362  24.560  1.00  0.00    +0.000 H 
BRANCH    3    4
ATOM      4  C3  UNL A   1      32.906  27.591  25.751  1.00  0.00    +0.000 C 
ATOM      5  C4  UNL A   1      32.694  28.782  26.429  1.00  0.00    +0.000 C 
ATOM      6  C5  UNL A   1      31.677  28.567  27.380  1.00  0.00    +0.000 C 
ATOM      7  C6  UNL A   1      31.293  27.251  27.269  1.00  0.00    +0.000 C 
ATOM      8  N1  UNL A   1      32.099  26.624  26.338  1.00  0.00    +0.000 N 
ATOM     94  H3  UNL A   1      33.193  29.670  26.266  1.00  0.00    +0.000 H 
ATOM     95  H4  UNL A   1      31.291  29.265  28.036  1.00  0.00    +0.000 H 
ATOM     96  H5  UNL A   1      30.527  26.804  27.796  1.00  0.00    +0.000 H 
BRANCH    8    9
ATOM     97  H6  UNL A   1      30.139  25.304  25.157  1.00  0.00    +0.000 H 
ATOM     98  H7  UNL A   1      30.085  22.935  24.614  1.00  0.00    +0.000 H 
ATOM     99  H8  UNL A   1      33.927  24.801  26.941  1.00  0.00    +0.000 H 
ATOM    100  H9  UNL A   1      34.766  20.342  26.557  1.00  0.00    +0.000 H 
ATOM    101  H10 UNL A   1      34.439  21.076  24.991  1.00  0.00    +0.000 H 
ATOM    102  H11 UNL A   1      32.352  20.331  27.009  1.00  0.00    +0.000 H 
ATOM    103  H12 UNL A   1      32.766  19.397  25.579  1.00  0.00    +0.000 H 
ATOM      9  C7  UNL A   1      32.054  25.235  26.057  1.00  0.00    +0.000 C 
ATOM     10  C8  UNL A   1      30.932  24.695  25.414  1.00  0.00    +0.000 C 
ATOM     11  C9  UNL A   1      30.892  23.331  25.120  1.00  0.00    +0.000 C 
ATOM     12  C10 UNL A   1      31.942  22.502  25.514  1.00  0.00    +0.000 C 
ATOM     13  C11 UNL A   1      33.051  23.039  26.175  1.00  0.00    +0.000 C 
ATOM     14  C12 UNL A   1      33.110  24.405  26.450  1.00  0.00    +0.000 C 
ATOM     15  O2  UNL A   1      34.111  22.282  26.604  1.00  0.00    +0.000 O 
ATOM     16  C13 UNL A   1      34.109  20.981  26.005  1.00  0.00    +0.000 C 
ATOM     17  C14 UNL A   1      32.714  20.378  26.003  1.00  0.00    +0.000 C 
ATOM     18  O3  UNL A   1      31.817  21.170  25.218  1.00  0.00    +0.000 O 
ENDBRANCH    8    9
ENDBRANCH    3    4
ENDBRANCH    2    3
ENDBRANCH   19    2
ENDBRANCH   20   19
ENDBRANCH   21   20
ENDBRANCH   22   21
ENDBRANCH   23   22
ENDBRANCH   24   23
ENDBRANCH   25   24
ENDBRANCH   26   25
ENDBRANCH   27   26
ENDBRANCH   29   27
ENDBRANCH   33   32
BRANCH   37   38
ATOM     38  C30 UNL A   1      35.510  33.565  29.858  1.00  0.00    +0.000 C 
ATOM     39  C31 UNL A   1      34.828  34.345  28.890  1.00  0.00    +0.000 C 
ATOM     40  F1  UNL A   1      35.221  34.342  27.606  1.00  0.00    +0.000 F 
ATOM     41  C32 UNL A   1      33.784  35.204  29.230  1.00  0.00    +0.000 C 
ATOM     42  F2  UNL A   1      33.263  36.022  28.305  1.00  0.00    +0.000 F 
ATOM     43  C33 UNL A   1      33.336  35.260  30.534  1.00  0.00    +0.000 C 
ATOM     44  F3  UNL A   1      32.380  36.132  30.881  1.00  0.00    +0.000 F 
ATOM     45  C34 UNL A   1      33.909  34.432  31.485  1.00  0.00    +0.000 C 
ATOM     46  F4  UNL A   1      33.472  34.479  32.752  1.00  0.00    +0.000 F 
ATOM     47  C35 UNL A   1      34.990  33.605  31.158  1.00  0.00    +0.000 C 
ATOM     48  F5  UNL A   1      35.572  32.929  32.157  1.00  0.00    +0.000 F 
ENDBRANCH   37   38
BRANCH   54   55
ATOM     65  F10 UNL A   1      39.367  31.083  31.714  1.00  0.00    +0.000 F 
ATOM     55  C41 UNL A   1      40.017  32.743  33.282  1.00  0.00    +0.000 C 
ATOM     56  C42 UNL A   1      40.157  33.049  34.643  1.00  0.00    +0.000 C 
ATOM     57  F6  UNL A   1      40.619  34.252  35.013  1.00  0.00    +0.000 F 
ATOM     58  C43 UNL A   1      39.829  32.123  35.636  1.00  0.00    +0.000 C 
ATOM     59  F7  UNL A   1      39.980  32.447  36.927  1.00  0.00    +0.000 F 
ATOM     60  C44 UNL A   1      39.341  30.870  35.297  1.00  0.00    +0.000 C 
ATOM     61  F8  UNL A   1      39.016  29.986  36.252  1.00  0.00    +0.000 F 
ATOM     62  C45 UNL A   1      39.184  30.540  33.967  1.00  0.00    +0.000 C 
ATOM     63  F9  UNL A   1      38.697  29.338  33.621  1.00  0.00    +0.000 F 
ATOM     64  C46 UNL A   1      39.525  31.464  32.979  1.00  0.00    +0.000 C 
ENDBRANCH   54   55
BRANCH   69   70
ATOM     70  C50 UNL A   1      45.656  31.270  31.388  1.00  0.00    +0.000 C 
ATOM     71  C51 UNL A   1      46.315  31.267  32.626  1.00  0.00    +0.000 C 
ATOM     72  F11 UNL A   1      45.649  31.437  33.771  1.00  0.00    +0.000 F 
ATOM     73  C52 UNL A   1      47.712  31.131  32.736  1.00  0.00    +0.000 C 
ATOM     74  F12 UNL A   1      48.281  31.107  33.950  1.00  0.00    +0.000 F 
ATOM     75  C53 UNL A   1      48.511  31.015  31.614  1.00  0.00    +0.000 C 
ATOM     76  F13 UNL A   1      49.834  30.839  31.725  1.00  0.00    +0.000 F 
ATOM     77  C54 UNL A   1      47.924  31.110  30.377  1.00  0.00    +0.000 C 
ATOM     78  F14 UNL A   1      48.672  31.033  29.266  1.00  0.00    +0.000 F 
ATOM     79  C55 UNL A   1      46.542  31.270  30.272  1.00  0.00    +0.000 C 
ATOM     80  F15 UNL A   1      46.097  31.434  29.019  1.00  0.00    +0.000 F 
ENDBRANCH   69   70
TORSDOF 17
ENDMDL
MODEL 6
REMARK VINA RESULT:     -10.8     21.543     26.485
ROOT
ATOM    129  H38 UNL A   1      23.500  36.757  47.132  1.00  0.00    +0.000 H 
ATOM     33  C26 UNL A   1      25.762  36.162  45.404  1.00  0.00    +0.000 C 
ATOM     34  C27 UNL A   1      25.413  37.471  46.129  1.00  0.00    +0.000 C 
ATOM     35  N4  UNL A   1      26.006  38.628  46.105  1.00  0.00    +0.000 N 
ATOM     36  C28 UNL A   1      25.344  39.460  47.032  1.00  0.00    +0.000 C 
ATOM     37  C29 UNL A   1      25.860  40.634  47.498  1.00  0.00    +0.000 C 
ATOM     49  C36 UNL A   1      27.102  40.927  46.870  1.00  0.00    +0.000 C 
ATOM     50  C37 UNL A   1      27.445  41.424  45.642  1.00  0.00    +0.000 C 
ATOM     51  C38 UNL A   1      28.732  40.901  45.394  1.00  0.00    +0.000 C 
ATOM     52  C39 UNL A   1      29.148  40.161  46.507  1.00  0.00    +0.000 C 
ATOM     53  N5  UNL A   1      28.236  40.462  47.488  1.00  0.00    +0.000 N 
ATOM     54  C40 UNL A   1      30.090  39.098  46.773  1.00  0.00    +0.000 C 
ATOM     66  C47 UNL A   1      30.819  38.633  45.728  1.00  0.00    +0.000 C 
ATOM     67  N6  UNL A   1      30.991  37.277  45.565  1.00  0.00    +0.000 N 
ATOM     68  C48 UNL A   1      30.737  37.111  44.301  1.00  0.00    +0.000 C 
ATOM     69  C49 UNL A   1      30.426  35.819  43.662  1.00  0.00    +0.000 C 
ATOM     81  C56 UNL A   1      29.144  35.514  44.036  1.00  0.00    +0.000 C 
ATOM     82  C57 UNL A   1      28.375  34.329  43.710  1.00  0.00    +0.000 C 
ATOM     83  C58 UNL A   1      27.125  34.444  44.198  1.00  0.00    +0.000 C 
ATOM     84  C59 UNL A   1      26.946  35.739  44.877  1.00  0.00    +0.000 C 
ATOM     85  N7  UNL A   1      28.216  36.281  44.787  1.00  0.00    +0.000 N 
ATOM     86  C60 UNL A   1      30.689  38.330  43.482  1.00  0.00    +0.000 C 
ATOM     87  C61 UNL A   1      30.952  39.230  44.423  1.00  0.00    +0.000 C 
ATOM     88  C62 UNL A   1      24.171  38.755  47.450  1.00  0.00    +0.000 C 
ATOM     89  C63 UNL A   1      24.183  37.512  46.966  1.00  0.00    +0.000 C 
ATOM    120  H29 UNL A   1      26.887  42.042  45.033  1.00  0.00    +0.000 H 
ATOM    121  H30 UNL A   1      29.280  41.041  44.531  1.00  0.00    +0.000 H 
ATOM    122  H31 UNL A   1      28.370  40.362  48.457  1.00  0.00    +0.000 H 
ATOM    123  H32 UNL A   1      28.733  33.518  43.181  1.00  0.00    +0.000 H 
ATOM    124  H33 UNL A   1      26.392  33.723  44.108  1.00  0.00    +0.000 H 
ATOM    125  H34 UNL A   1      28.457  37.136  45.212  1.00  0.00    +0.000 H 
ATOM    126  H35 UNL A   1      30.504  38.450  42.473  1.00  0.00    +0.000 H 
ATOM    127  H36 UNL A   1      31.213  40.213  44.244  1.00  0.00    +0.000 H 
ATOM    128  H37 UNL A   1      23.424  39.151  48.042  1.00  0.00    +0.000 H 
ENDROOT
BRANCH   33   32
ATOM    130  H39 UNL A   1      23.730  36.246  43.614  1.00  0.00    +0.000 H 
ATOM    131  H40 UNL A   1      22.008  34.573  43.248  1.00  0.00    +0.000 H 
ATOM    118  H27 UNL A   1      23.467  32.358  46.518  1.00  0.00    +0.000 H 
ATOM    119  H28 UNL A   1      25.153  34.054  46.923  1.00  0.00    +0.000 H 
ATOM     90  C64 UNL A   1      23.681  35.413  44.221  1.00  0.00    +0.000 C 
ATOM     91  C65 UNL A   1      22.701  34.446  44.003  1.00  0.00    +0.000 C 
ATOM     29  C22 UNL A   1      22.657  33.304  44.808  1.00  0.00    +0.000 C 
ATOM     30  C23 UNL A   1      23.538  33.175  45.892  1.00  0.00    +0.000 C 
ATOM     31  C24 UNL A   1      24.507  34.146  46.124  1.00  0.00    +0.000 C 
ATOM     32  C25 UNL A   1      24.600  35.249  45.269  1.00  0.00    +0.000 C 
BRANCH   29   27
ATOM     27  C21 UNL A   1      21.650  32.232  44.621  1.00  0.00    +0.000 C 
ATOM     28  O4  UNL A   1      21.912  31.094  44.956  1.00  0.00    +0.000 O 
BRANCH   27   26
ATOM     26  N3  UNL A   1      20.424  32.500  44.050  1.00  0.00    +0.000 N 
ATOM    117  H26 UNL A   1      20.407  32.533  43.066  1.00  0.00    +0.000 H 
BRANCH   26   25
ATOM     25  C20 UNL A   1      19.154  32.736  44.714  1.00  0.00    +0.000 C 
ATOM    115  H24 UNL A   1      19.332  33.242  45.640  1.00  0.00    +0.000 H 
ATOM    116  H25 UNL A   1      18.540  33.332  44.072  1.00  0.00    +0.000 H 
BRANCH   25   24
ATOM    113  H22 UNL A   1      18.968  30.893  45.754  1.00  0.00    +0.000 H 
ATOM    114  H23 UNL A   1      17.433  31.677  45.298  1.00  0.00    +0.000 H 
ATOM     24  C19 UNL A   1      18.427  31.420  44.996  1.00  0.00    +0.000 C 
BRANCH   24   23
ATOM    111  H20 UNL A   1      17.415  30.795  43.235  1.00  0.00    +0.000 H 
ATOM     23  C18 UNL A   1      18.289  30.498  43.775  1.00  0.00    +0.000 C 
ATOM    112  H21 UNL A   1      19.197  30.608  43.220  1.00  0.00    +0.000 H 
BRANCH   23   22
ATOM    110  H19 UNL A   1      17.963  28.940  45.140  1.00  0.00    +0.000 H 
ATOM    109  H18 UNL A   1      19.079  28.529  43.800  1.00  0.00    +0.000 H 
ATOM     22  C17 UNL A   1      18.166  29.005  44.091  1.00  0.00    +0.000 C 
BRANCH   22   21
ATOM    107  H16 UNL A   1      16.513  28.975  42.754  1.00  0.00    +0.000 H 
ATOM    108  H17 UNL A   1      17.450  27.455  42.866  1.00  0.00    +0.000 H 
ATOM     21  C16 UNL A   1      17.010  28.276  43.394  1.00  0.00    +0.000 C 
BRANCH   21   20
ATOM    105  H14 UNL A   1      16.317  27.757  45.342  1.00  0.00    +0.000 H 
ATOM    106  H15 UNL A   1      15.048  28.200  44.201  1.00  0.00    +0.000 H 
ATOM     20  C15 UNL A   1      15.967  27.670  44.335  1.00  0.00    +0.000 C 
BRANCH   20   19
ATOM     19  N2  UNL A   1      15.730  26.271  44.040  1.00  0.00    +0.000 N 
ATOM    104  H13 UNL A   1      16.449  25.623  44.214  1.00  0.00    +0.000 H 
BRANCH   19    2
ATOM      1  O1  UNL A   1      13.437  26.134  43.970  1.00  0.00    +0.000 O 
ATOM      2  C1  UNL A   1      14.535  25.811  43.523  1.00  0.00    +0.000 C 
BRANCH    2    3
ATOM      3  C2  UNL A   1      14.680  24.782  42.407  1.00  0.00    +0.000 C 
ATOM     92  H1  UNL A   1      13.868  24.087  42.465  1.00  0.00    +0.000 H 
ATOM     93  H2  UNL A   1      15.618  24.281  42.531  1.00  0.00    +0.000 H 
BRANCH    3    4
ATOM      4  C3  UNL A   1      14.668  25.435  41.052  1.00  0.00    +0.000 C 
ATOM      5  C4  UNL A   1      14.899  26.770  40.758  1.00  0.00    +0.000 C 
ATOM      6  C5  UNL A   1      14.976  26.900  39.357  1.00  0.00    +0.000 C 
ATOM      7  C6  UNL A   1      14.785  25.647  38.825  1.00  0.00    +0.000 C 
ATOM      8  N1  UNL A   1      14.508  24.760  39.847  1.00  0.00    +0.000 N 
ATOM     94  H3  UNL A   1      14.998  27.534  41.444  1.00  0.00    +0.000 H 
ATOM     95  H4  UNL A   1      15.144  27.772  38.830  1.00  0.00    +0.000 H 
ATOM     96  H5  UNL A   1      14.838  25.407  37.823  1.00  0.00    +0.000 H 
BRANCH    8    9
ATOM     97  H6  UNL A   1      14.971  23.296  37.699  1.00  0.00    +0.000 H 
ATOM     98  H7  UNL A   1      14.414  20.952  37.374  1.00  0.00    +0.000 H 
ATOM     99  H8  UNL A   1      13.179  23.185  41.514  1.00  0.00    +0.000 H 
ATOM    100  H9  UNL A   1      11.567  18.941  41.876  1.00  0.00    +0.000 H 
ATOM    101  H10 UNL A   1      13.293  18.950  41.533  1.00  0.00    +0.000 H 
ATOM    102  H11 UNL A   1      11.136  19.411  39.503  1.00  0.00    +0.000 H 
ATOM    103  H12 UNL A   1      12.012  17.905  39.736  1.00  0.00    +0.000 H 
ATOM      9  C7  UNL A   1      14.148  23.404  39.646  1.00  0.00    +0.000 C 
ATOM     10  C8  UNL A   1      14.479  22.772  38.440  1.00  0.00    +0.000 C 
ATOM     11  C9  UNL A   1      14.141  21.432  38.245  1.00  0.00    +0.000 C 
ATOM     12  C10 UNL A   1      13.431  20.742  39.227  1.00  0.00    +0.000 C 
ATOM     13  C11 UNL A   1      13.083  21.381  40.422  1.00  0.00    +0.000 C 
ATOM     14  C12 UNL A   1      13.439  22.712  40.635  1.00  0.00    +0.000 C 
ATOM     15  O2  UNL A   1      12.373  20.769  41.424  1.00  0.00    +0.000 O 
ATOM     16  C13 UNL A   1      12.339  19.348  41.256  1.00  0.00    +0.000 C 
ATOM     17  C14 UNL A   1      12.062  18.971  39.809  1.00  0.00    +0.000 C 
ATOM     18  O3  UNL A   1      13.109  19.439  38.952  1.00  0.00    +0.000 O 
ENDBRANCH    8    9
ENDBRANCH    3    4
ENDBRANCH    2    3
ENDBRANCH   19    2
ENDBRANCH   20   19
ENDBRANCH   21   20
ENDBRANCH   22   21
ENDBRANCH   23   22
ENDBRANCH   24   23
ENDBRANCH   25   24
ENDBRANCH   26   25
ENDBRANCH   27   26
ENDBRANCH   29   27
ENDBRANCH   33   32
BRANCH   37   38
ATOM     38  C30 UNL A   1      25.469  41.502  48.665  1.00  0.00    +0.000 C 
ATOM     39  C31 UNL A   1      25.033  42.826  48.406  1.00  0.00    +0.000 C 
ATOM     40  F1  UNL A   1      24.623  43.186  47.179  1.00  0.00    +0.000 F 
ATOM     41  C32 UNL A   1      25.084  43.827  49.375  1.00  0.00    +0.000 C 
ATOM     42  F2  UNL A   1      24.792  45.093  49.045  1.00  0.00    +0.000 F 
ATOM     43  C33 UNL A   1      25.502  43.525  50.655  1.00  0.00    +0.000 C 
ATOM     44  F3  UNL A   1      25.619  44.495  51.572  1.00  0.00    +0.000 F 
ATOM     45  C34 UNL A   1      25.833  42.218  50.971  1.00  0.00    +0.000 C 
ATOM     46  F4  UNL A   1      26.233  41.920  52.216  1.00  0.00    +0.000 F 
ATOM     47  C35 UNL A   1      25.830  41.220  49.990  1.00  0.00    +0.000 C 
ATOM     48  F5  UNL A   1      26.284  40.010  50.340  1.00  0.00    +0.000 F 
ENDBRANCH   37   38
BRANCH   54   55
ATOM     65  F10 UNL A   1      27.863  37.330  47.429  1.00  0.00    +0.000 F 
ATOM     55  C41 UNL A   1      30.037  38.138  47.941  1.00  0.00    +0.000 C 
ATOM     56  C42 UNL A   1      31.153  37.988  48.776  1.00  0.00    +0.000 C 
ATOM     57  F6  UNL A   1      32.220  38.785  48.614  1.00  0.00    +0.000 F 
ATOM     58  C43 UNL A   1      31.186  37.020  49.783  1.00  0.00    +0.000 C 
ATOM     59  F7  UNL A   1      32.272  36.902  50.559  1.00  0.00    +0.000 F 
ATOM     60  C44 UNL A   1      30.102  36.181  49.989  1.00  0.00    +0.000 C 
ATOM     61  F8  UNL A   1      30.131  35.259  50.962  1.00  0.00    +0.000 F 
ATOM     62  C45 UNL A   1      28.985  36.307  49.189  1.00  0.00    +0.000 C 
ATOM     63  F9  UNL A   1      27.920  35.514  49.386  1.00  0.00    +0.000 F 
ATOM     64  C46 UNL A   1      28.962  37.267  48.178  1.00  0.00    +0.000 C 
ENDBRANCH   54   55
BRANCH   69   70
ATOM     70  C50 UNL A   1      31.484  35.235  42.742  1.00  0.00    +0.000 C 
ATOM     71  C51 UNL A   1      32.428  34.258  43.086  1.00  0.00    +0.000 C 
ATOM     72  F11 UNL A   1      32.620  33.890  44.356  1.00  0.00    +0.000 F 
ATOM     73  C52 UNL A   1      33.258  33.641  42.131  1.00  0.00    +0.000 C 
ATOM     74  F12 UNL A   1      34.123  32.692  42.519  1.00  0.00    +0.000 F 
ATOM     75  C53 UNL A   1      33.196  33.990  40.796  1.00  0.00    +0.000 C 
ATOM     76  F13 UNL A   1      33.953  33.368  39.883  1.00  0.00    +0.000 F 
ATOM     77  C54 UNL A   1      32.356  35.010  40.422  1.00  0.00    +0.000 C 
ATOM     78  F14 UNL A   1      32.291  35.397  39.140  1.00  0.00    +0.000 F 
ATOM     79  C55 UNL A   1      31.553  35.636  41.376  1.00  0.00    +0.000 C 
ATOM     80  F15 UNL A   1      30.840  36.670  40.908  1.00  0.00    +0.000 F 
ENDBRANCH   69   70
TORSDOF 17
ENDMDL
MODEL 7
REMARK VINA RESULT:     -10.8      4.431      9.489
ROOT
ATOM    129  H38 UNL A   1      37.464  28.531  28.982  1.00  0.00    +0.000 H 
ATOM     33  C26 UNL A   1      40.218  29.275  29.546  1.00  0.00    +0.000 C 
ATOM     34  C27 UNL A   1      38.980  30.173  29.405  1.00  0.00    +0.000 C 
ATOM     35  N4  UNL A   1      38.873  31.468  29.451  1.00  0.00    +0.000 N 
ATOM     36  C28 UNL A   1      37.499  31.781  29.374  1.00  0.00    +0.000 C 
ATOM     37  C29 UNL A   1      36.983  33.004  29.689  1.00  0.00    +0.000 C 
ATOM     49  C36 UNL A   1      38.016  33.919  30.031  1.00  0.00    +0.000 C 
ATOM     50  C37 UNL A   1      38.916  34.643  29.296  1.00  0.00    +0.000 C 
ATOM     51  C38 UNL A   1      40.014  34.830  30.163  1.00  0.00    +0.000 C 
ATOM     52  C39 UNL A   1      39.714  34.270  31.410  1.00  0.00    +0.000 C 
ATOM     53  N5  UNL A   1      38.370  33.993  31.354  1.00  0.00    +0.000 N 
ATOM     54  C40 UNL A   1      40.454  33.767  32.545  1.00  0.00    +0.000 C 
ATOM     66  C47 UNL A   1      41.807  33.819  32.480  1.00  0.00    +0.000 C 
ATOM     67  N6  UNL A   1      42.552  32.736  32.890  1.00  0.00    +0.000 N 
ATOM     68  C48 UNL A   1      43.408  32.600  31.920  1.00  0.00    +0.000 C 
ATOM     69  C49 UNL A   1      44.211  31.390  31.663  1.00  0.00    +0.000 C 
ATOM     81  C56 UNL A   1      43.347  30.472  31.129  1.00  0.00    +0.000 C 
ATOM     82  C57 UNL A   1      43.625  29.104  30.737  1.00  0.00    +0.000 C 
ATOM     83  C58 UNL A   1      42.531  28.555  30.177  1.00  0.00    +0.000 C 
ATOM     84  C59 UNL A   1      41.426  29.528  30.126  1.00  0.00    +0.000 C 
ATOM     85  N7  UNL A   1      41.981  30.618  30.771  1.00  0.00    +0.000 N 
ATOM     86  C60 UNL A   1      43.508  33.724  30.979  1.00  0.00    +0.000 C 
ATOM     87  C61 UNL A   1      42.609  34.538  31.522  1.00  0.00    +0.000 C 
ATOM     88  C62 UNL A   1      36.819  30.561  29.062  1.00  0.00    +0.000 C 
ATOM     89  C63 UNL A   1      37.668  29.534  29.114  1.00  0.00    +0.000 C 
ATOM    120  H29 UNL A   1      38.814  34.977  28.326  1.00  0.00    +0.000 H 
ATOM    121  H30 UNL A   1      40.897  35.303  29.917  1.00  0.00    +0.000 H 
ATOM    122  H31 UNL A   1      37.769  33.870  32.124  1.00  0.00    +0.000 H 
ATOM    123  H32 UNL A   1      44.530  28.623  30.867  1.00  0.00    +0.000 H 
ATOM    124  H33 UNL A   1      42.474  27.584  29.830  1.00  0.00    +0.000 H 
ATOM    125  H34 UNL A   1      41.467  31.435  30.967  1.00  0.00    +0.000 H 
ATOM    126  H35 UNL A   1      44.101  33.844  30.143  1.00  0.00    +0.000 H 
ATOM    127  H36 UNL A   1      42.500  35.538  31.289  1.00  0.00    +0.000 H 
ATOM    128  H37 UNL A   1      35.816  30.487  28.831  1.00  0.00    +0.000 H 
ENDROOT
BRANCH   33   32
ATOM    130  H39 UNL A   1      39.131  27.041  30.628  1.00  0.00    +0.000 H 
ATOM    131  H40 UNL A   1      38.590  24.960  29.497  1.00  0.00    +0.000 H 
ATOM    118  H27 UNL A   1      40.341  26.427  25.960  1.00  0.00    +0.000 H 
ATOM    119  H28 UNL A   1      40.935  28.484  27.100  1.00  0.00    +0.000 H 
ATOM     90  C64 UNL A   1      39.375  26.914  29.633  1.00  0.00    +0.000 C 
ATOM     91  C65 UNL A   1      39.053  25.725  28.980  1.00  0.00    +0.000 C 
ATOM     29  C22 UNL A   1      39.357  25.569  27.625  1.00  0.00    +0.000 C 
ATOM     30  C23 UNL A   1      40.068  26.568  26.946  1.00  0.00    +0.000 C 
ATOM     31  C24 UNL A   1      40.408  27.750  27.598  1.00  0.00    +0.000 C 
ATOM     32  C25 UNL A   1      40.033  27.937  28.933  1.00  0.00    +0.000 C 
BRANCH   29   27
ATOM     27  C21 UNL A   1      39.029  24.336  26.869  1.00  0.00    +0.000 C 
ATOM     28  O4  UNL A   1      39.877  23.479  26.719  1.00  0.00    +0.000 O 
BRANCH   27   26
ATOM     26  N3  UNL A   1      37.783  24.154  26.311  1.00  0.00    +0.000 N 
ATOM    117  H26 UNL A   1      37.135  24.881  26.458  1.00  0.00    +0.000 H 
BRANCH   26   25
ATOM     25  C20 UNL A   1      37.303  23.027  25.529  1.00  0.00    +0.000 C 
ATOM    115  H24 UNL A   1      37.342  23.280  24.490  1.00  0.00    +0.000 H 
ATOM    116  H25 UNL A   1      37.926  22.182  25.734  1.00  0.00    +0.000 H 
BRANCH   25   24
ATOM    113  H22 UNL A   1      35.880  21.772  26.484  1.00  0.00    +0.000 H 
ATOM    114  H23 UNL A   1      35.471  23.506  26.443  1.00  0.00    +0.000 H 
ATOM     24  C19 UNL A   1      35.864  22.670  25.903  1.00  0.00    +0.000 C 
BRANCH   24   23
ATOM    111  H20 UNL A   1      35.239  21.550  24.209  1.00  0.00    +0.000 H 
ATOM     23  C18 UNL A   1      34.933  22.449  24.702  1.00  0.00    +0.000 C 
ATOM    112  H21 UNL A   1      33.942  22.404  25.102  1.00  0.00    +0.000 H 
BRANCH   23   22
ATOM    110  H19 UNL A   1      34.324  23.220  22.850  1.00  0.00    +0.000 H 
ATOM    109  H18 UNL A   1      35.932  23.791  23.398  1.00  0.00    +0.000 H 
ATOM     22  C17 UNL A   1      34.919  23.576  23.666  1.00  0.00    +0.000 C 
BRANCH   22   21
ATOM    107  H16 UNL A   1      34.203  24.872  25.192  1.00  0.00    +0.000 H 
ATOM    108  H17 UNL A   1      34.876  25.676  23.743  1.00  0.00    +0.000 H 
ATOM     21  C16 UNL A   1      34.263  24.885  24.124  1.00  0.00    +0.000 C 
BRANCH   21   20
ATOM    105  H14 UNL A   1      32.690  26.185  23.506  1.00  0.00    +0.000 H 
ATOM    106  H15 UNL A   1      32.790  24.669  22.610  1.00  0.00    +0.000 H 
ATOM     20  C15 UNL A   1      32.857  25.131  23.573  1.00  0.00    +0.000 C 
BRANCH   20   19
ATOM     19  N2  UNL A   1      31.840  24.548  24.425  1.00  0.00    +0.000 N 
ATOM    104  H13 UNL A   1      31.250  23.856  24.050  1.00  0.00    +0.000 H 
BRANCH   19    2
ATOM      1  O1  UNL A   1      31.865  24.171  26.692  1.00  0.00    +0.000 O 
ATOM      2  C1  UNL A   1      31.666  24.925  25.742  1.00  0.00    +0.000 C 
BRANCH    2    3
ATOM      3  C2  UNL A   1      31.104  26.330  25.932  1.00  0.00    +0.000 C 
ATOM     92  H1  UNL A   1      30.593  26.377  26.871  1.00  0.00    +0.000 H 
ATOM     93  H2  UNL A   1      30.433  26.536  25.123  1.00  0.00    +0.000 H 
BRANCH    3    4
ATOM      4  C3  UNL A   1      32.196  27.364  25.917  1.00  0.00    +0.000 C 
ATOM      5  C4  UNL A   1      33.357  27.376  26.674  1.00  0.00    +0.000 C 
ATOM      6  C5  UNL A   1      34.174  28.422  26.203  1.00  0.00    +0.000 C 
ATOM      7  C6  UNL A   1      33.495  29.031  25.174  1.00  0.00    +0.000 C 
ATOM      8  N1  UNL A   1      32.248  28.449  25.050  1.00  0.00    +0.000 N 
ATOM     94  H3  UNL A   1      33.583  26.731  27.447  1.00  0.00    +0.000 H 
ATOM     95  H4  UNL A   1      35.106  28.683  26.562  1.00  0.00    +0.000 H 
ATOM     96  H5  UNL A   1      33.858  29.800  24.590  1.00  0.00    +0.000 H 
BRANCH    8    9
ATOM     97  H6  UNL A   1      31.482  27.310  22.793  1.00  0.00    +0.000 H 
ATOM     98  H7  UNL A   1      29.715  28.057  21.301  1.00  0.00    +0.000 H 
ATOM     99  H8  UNL A   1      30.792  30.653  25.269  1.00  0.00    +0.000 H 
ATOM    100  H9  UNL A   1      27.501  32.969  23.138  1.00  0.00    +0.000 H 
ATOM    101  H10 UNL A   1      27.015  31.310  23.467  1.00  0.00    +0.000 H 
ATOM    102  H11 UNL A   1      28.822  32.162  21.231  1.00  0.00    +0.000 H 
ATOM    103  H12 UNL A   1      27.115  31.775  21.071  1.00  0.00    +0.000 H 
ATOM      9  C7  UNL A   1      31.243  28.908  24.161  1.00  0.00    +0.000 C 
ATOM     10  C8  UNL A   1      30.956  28.173  23.003  1.00  0.00    +0.000 C 
ATOM     11  C9  UNL A   1      29.955  28.613  22.135  1.00  0.00    +0.000 C 
ATOM     12  C10 UNL A   1      29.282  29.806  22.395  1.00  0.00    +0.000 C 
ATOM     13  C11 UNL A   1      29.584  30.549  23.540  1.00  0.00    +0.000 C 
ATOM     14  C12 UNL A   1      30.566  30.104  24.425  1.00  0.00    +0.000 C 
ATOM     15  O2  UNL A   1      28.974  31.737  23.850  1.00  0.00    +0.000 O 
ATOM     16  C13 UNL A   1      27.787  31.940  23.076  1.00  0.00    +0.000 C 
ATOM     17  C14 UNL A   1      28.013  31.576  21.617  1.00  0.00    +0.000 C 
ATOM     18  O3  UNL A   1      28.334  30.187  21.482  1.00  0.00    +0.000 O 
ENDBRANCH    8    9
ENDBRANCH    3    4
ENDBRANCH    2    3
ENDBRANCH   19    2
ENDBRANCH   20   19
ENDBRANCH   21   20
ENDBRANCH   22   21
ENDBRANCH   23   22
ENDBRANCH   24   23
ENDBRANCH   25   24
ENDBRANCH   26   25
ENDBRANCH   27   26
ENDBRANCH   29   27
ENDBRANCH   33   32
BRANCH   37   38
ATOM     38  C30 UNL A   1      35.568  33.452  29.947  1.00  0.00    +0.000 C 
ATOM     39  C31 UNL A   1      34.877  34.135  28.914  1.00  0.00    +0.000 C 
ATOM     40  F1  UNL A   1      35.302  34.065  27.642  1.00  0.00    +0.000 F 
ATOM     41  C32 UNL A   1      33.789  34.966  29.172  1.00  0.00    +0.000 C 
ATOM     42  F2  UNL A   1      33.255  35.698  28.183  1.00  0.00    +0.000 F 
ATOM     43  C33 UNL A   1      33.305  35.087  30.459  1.00  0.00    +0.000 C 
ATOM     44  F3  UNL A   1      32.304  35.936  30.725  1.00  0.00    +0.000 F 
ATOM     45  C34 UNL A   1      33.889  34.351  31.476  1.00  0.00    +0.000 C 
ATOM     46  F4  UNL A   1      33.418  34.461  32.727  1.00  0.00    +0.000 F 
ATOM     47  C35 UNL A   1      35.013  33.554  31.230  1.00  0.00    +0.000 C 
ATOM     48  F5  UNL A   1      35.599  32.972  32.285  1.00  0.00    +0.000 F 
ENDBRANCH   37   38
BRANCH   54   55
ATOM     65  F10 UNL A   1      40.363  34.205  35.428  1.00  0.00    +0.000 F 
ATOM     55  C41 UNL A   1      39.940  32.784  33.574  1.00  0.00    +0.000 C 
ATOM     56  C42 UNL A   1      39.380  31.566  33.161  1.00  0.00    +0.000 C 
ATOM     57  F6  UNL A   1      39.414  31.221  31.865  1.00  0.00    +0.000 F 
ATOM     58  C43 UNL A   1      38.779  30.694  34.072  1.00  0.00    +0.000 C 
ATOM     59  F7  UNL A   1      38.250  29.541  33.640  1.00  0.00    +0.000 F 
ATOM     60  C44 UNL A   1      38.729  31.008  35.421  1.00  0.00    +0.000 C 
ATOM     61  F8  UNL A   1      38.161  30.165  36.295  1.00  0.00    +0.000 F 
ATOM     62  C45 UNL A   1      39.278  32.195  35.861  1.00  0.00    +0.000 C 
ATOM     63  F9  UNL A   1      39.253  32.508  37.166  1.00  0.00    +0.000 F 
ATOM     64  C46 UNL A   1      39.865  33.068  34.947  1.00  0.00    +0.000 C 
ENDBRANCH   54   55
BRANCH   69   70
ATOM     70  C50 UNL A   1      45.701  31.483  31.942  1.00  0.00    +0.000 C 
ATOM     71  C51 UNL A   1      46.709  31.675  30.987  1.00  0.00    +0.000 C 
ATOM     72  F11 UNL A   1      46.456  31.586  29.679  1.00  0.00    +0.000 F 
ATOM     73  C52 UNL A   1      48.048  31.927  31.343  1.00  0.00    +0.000 C 
ATOM     74  F12 UNL A   1      48.961  32.131  30.382  1.00  0.00    +0.000 F 
ATOM     75  C53 UNL A   1      48.440  31.975  32.667  1.00  0.00    +0.000 C 
ATOM     76  F13 UNL A   1      49.704  32.263  33.003  1.00  0.00    +0.000 F 
ATOM     77  C54 UNL A   1      47.510  31.698  33.638  1.00  0.00    +0.000 C 
ATOM     78  F14 UNL A   1      47.861  31.705  34.933  1.00  0.00    +0.000 F 
ATOM     79  C55 UNL A   1      46.189  31.423  33.280  1.00  0.00    +0.000 C 
ATOM     80  F15 UNL A   1      45.396  31.085  34.306  1.00  0.00    +0.000 F 
ENDBRANCH   69   70
TORSDOF 17
ENDMDL
MODEL 8
REMARK VINA RESULT:     -10.8      2.822      8.532
ROOT
ATOM    129  H38 UNL A   1      40.817  31.892  30.615  1.00  0.00    +0.000 H 
ATOM     33  C26 UNL A   1      40.429  29.270  29.418  1.00  0.00    +0.000 C 
ATOM     34  C27 UNL A   1      41.635  30.215  29.314  1.00  0.00    +0.000 C 
ATOM     35  N4  UNL A   1      42.737  30.097  28.634  1.00  0.00    +0.000 N 
ATOM     36  C28 UNL A   1      43.561  31.192  28.972  1.00  0.00    +0.000 C 
ATOM     37  C29 UNL A   1      44.895  31.250  28.694  1.00  0.00    +0.000 C 
ATOM     49  C36 UNL A   1      45.311  30.103  27.963  1.00  0.00    +0.000 C 
ATOM     50  C37 UNL A   1      45.195  29.726  26.653  1.00  0.00    +0.000 C 
ATOM     51  C38 UNL A   1      45.214  28.314  26.686  1.00  0.00    +0.000 C 
ATOM     52  C39 UNL A   1      45.406  27.890  28.005  1.00  0.00    +0.000 C 
ATOM     53  N5  UNL A   1      45.754  29.028  28.691  1.00  0.00    +0.000 N 
ATOM     54  C40 UNL A   1      45.141  26.698  28.778  1.00  0.00    +0.000 C 
ATOM     66  C47 UNL A   1      44.560  25.654  28.136  1.00  0.00    +0.000 C 
ATOM     67  N6  UNL A   1      43.532  24.967  28.742  1.00  0.00    +0.000 N 
ATOM     68  C48 UNL A   1      42.651  24.880  27.789  1.00  0.00    +0.000 C 
ATOM     69  C49 UNL A   1      41.225  24.558  27.981  1.00  0.00    +0.000 C 
ATOM     81  C56 UNL A   1      40.654  25.685  28.509  1.00  0.00    +0.000 C 
ATOM     82  C57 UNL A   1      39.277  25.881  28.919  1.00  0.00    +0.000 C 
ATOM     83  C58 UNL A   1      39.091  27.157  29.309  1.00  0.00    +0.000 C 
ATOM     84  C59 UNL A   1      40.336  27.933  29.168  1.00  0.00    +0.000 C 
ATOM     85  N7  UNL A   1      41.226  26.962  28.746  1.00  0.00    +0.000 N 
ATOM     86  C60 UNL A   1      43.123  25.206  26.436  1.00  0.00    +0.000 C 
ATOM     87  C61 UNL A   1      44.391  25.489  26.714  1.00  0.00    +0.000 C 
ATOM     88  C62 UNL A   1      42.757  32.082  29.754  1.00  0.00    +0.000 C 
ATOM     89  C63 UNL A   1      41.583  31.516  30.035  1.00  0.00    +0.000 C 
ATOM    120  H29 UNL A   1      45.112  30.336  25.825  1.00  0.00    +0.000 H 
ATOM    121  H30 UNL A   1      45.104  27.694  25.868  1.00  0.00    +0.000 H 
ATOM    122  H31 UNL A   1      46.234  29.065  29.550  1.00  0.00    +0.000 H 
ATOM    123  H32 UNL A   1      38.547  25.151  28.912  1.00  0.00    +0.000 H 
ATOM    124  H33 UNL A   1      38.199  27.539  29.659  1.00  0.00    +0.000 H 
ATOM    125  H34 UNL A   1      42.186  27.143  28.620  1.00  0.00    +0.000 H 
ATOM    126  H35 UNL A   1      42.617  25.213  25.537  1.00  0.00    +0.000 H 
ATOM    127  H36 UNL A   1      45.145  25.578  26.014  1.00  0.00    +0.000 H 
ATOM    128  H37 UNL A   1      43.046  33.025  30.057  1.00  0.00    +0.000 H 
ENDROOT
BRANCH   33   32
ATOM    130  H39 UNL A   1      39.445  29.592  31.922  1.00  0.00    +0.000 H 
ATOM    131  H40 UNL A   1      37.568  30.972  32.610  1.00  0.00    +0.000 H 
ATOM    118  H27 UNL A   1      36.761  31.882  28.580  1.00  0.00    +0.000 H 
ATOM    119  H28 UNL A   1      38.598  30.460  27.883  1.00  0.00    +0.000 H 
ATOM     90  C64 UNL A   1      38.882  30.090  31.215  1.00  0.00    +0.000 C 
ATOM     91  C65 UNL A   1      37.813  30.893  31.610  1.00  0.00    +0.000 C 
ATOM     29  C22 UNL A   1      37.073  31.590  30.652  1.00  0.00    +0.000 C 
ATOM     30  C23 UNL A   1      37.345  31.410  29.288  1.00  0.00    +0.000 C 
ATOM     31  C24 UNL A   1      38.400  30.596  28.887  1.00  0.00    +0.000 C 
ATOM     32  C25 UNL A   1      39.190  29.962  29.852  1.00  0.00    +0.000 C 
BRANCH   29   27
ATOM     27  C21 UNL A   1      35.934  32.470  31.006  1.00  0.00    +0.000 C 
ATOM     28  O4  UNL A   1      35.035  32.040  31.702  1.00  0.00    +0.000 O 
BRANCH   27   26
ATOM     26  N3  UNL A   1      35.862  33.764  30.539  1.00  0.00    +0.000 N 
ATOM    117  H26 UNL A   1      36.149  34.465  31.168  1.00  0.00    +0.000 H 
BRANCH   26   25
ATOM     25  C20 UNL A   1      35.418  34.226  29.234  1.00  0.00    +0.000 C 
ATOM    115  H24 UNL A   1      35.599  35.278  29.155  1.00  0.00    +0.000 H 
ATOM    116  H25 UNL A   1      35.961  33.694  28.482  1.00  0.00    +0.000 H 
BRANCH   25   24
ATOM    113  H22 UNL A   1      33.529  33.568  29.948  1.00  0.00    +0.000 H 
ATOM    114  H23 UNL A   1      33.481  34.894  28.757  1.00  0.00    +0.000 H 
ATOM     24  C19 UNL A   1      33.925  33.960  29.035  1.00  0.00    +0.000 C 
BRANCH   24   23
ATOM    111  H20 UNL A   1      32.539  32.883  27.837  1.00  0.00    +0.000 H 
ATOM     23  C18 UNL A   1      33.603  32.969  27.907  1.00  0.00    +0.000 C 
ATOM    112  H21 UNL A   1      34.062  33.367  27.026  1.00  0.00    +0.000 H 
BRANCH   23   22
ATOM    110  H19 UNL A   1      33.806  31.205  29.021  1.00  0.00    +0.000 H 
ATOM    109  H18 UNL A   1      35.247  31.636  28.048  1.00  0.00    +0.000 H 
ATOM     22  C17 UNL A   1      34.181  31.562  28.085  1.00  0.00    +0.000 C 
BRANCH   22   21
ATOM    107  H16 UNL A   1      32.674  30.497  27.029  1.00  0.00    +0.000 H 
ATOM    108  H17 UNL A   1      34.164  30.854  26.106  1.00  0.00    +0.000 H 
ATOM     21  C16 UNL A   1      33.743  30.531  27.036  1.00  0.00    +0.000 C 
BRANCH   21   20
ATOM    105  H14 UNL A   1      35.330  29.119  27.217  1.00  0.00    +0.000 H 
ATOM    106  H15 UNL A   1      33.928  28.789  28.235  1.00  0.00    +0.000 H 
ATOM     20  C15 UNL A   1      34.262  29.111  27.271  1.00  0.00    +0.000 C 
BRANCH   20   19
ATOM     19  N2  UNL A   1      33.749  28.185  26.282  1.00  0.00    +0.000 N 
ATOM    104  H13 UNL A   1      34.295  27.996  25.485  1.00  0.00    +0.000 H 
BRANCH   19    2
ATOM      1  O1  UNL A   1      31.488  28.152  26.687  1.00  0.00    +0.000 O 
ATOM      2  C1  UNL A   1      32.527  27.557  26.411  1.00  0.00    +0.000 C 
BRANCH    2    3
ATOM      3  C2  UNL A   1      32.576  26.038  26.285  1.00  0.00    +0.000 C 
ATOM     92  H1  UNL A   1      31.593  25.643  26.437  1.00  0.00    +0.000 H 
ATOM     93  H2  UNL A   1      33.255  25.661  27.022  1.00  0.00    +0.000 H 
BRANCH    3    4
ATOM      4  C3  UNL A   1      33.068  25.615  24.928  1.00  0.00    +0.000 C 
ATOM      5  C4  UNL A   1      34.213  24.893  24.633  1.00  0.00    +0.000 C 
ATOM      6  C5  UNL A   1      34.181  24.564  23.263  1.00  0.00    +0.000 C 
ATOM      7  C6  UNL A   1      33.022  25.096  22.749  1.00  0.00    +0.000 C 
ATOM      8  N1  UNL A   1      32.378  25.815  23.737  1.00  0.00    +0.000 N 
ATOM     94  H3  UNL A   1      34.960  24.640  25.299  1.00  0.00    +0.000 H 
ATOM     95  H4  UNL A   1      34.892  24.025  22.744  1.00  0.00    +0.000 H 
ATOM     96  H5  UNL A   1      32.687  24.977  21.780  1.00  0.00    +0.000 H 
BRANCH    8    9
ATOM     97  H6  UNL A   1      29.898  25.156  24.361  1.00  0.00    +0.000 H 
ATOM     98  H7  UNL A   1      27.901  26.507  24.056  1.00  0.00    +0.000 H 
ATOM     99  H8  UNL A   1      32.215  28.192  22.573  1.00  0.00    +0.000 H 
ATOM    100  H9  UNL A   1      29.183  31.385  21.415  1.00  0.00    +0.000 H 
ATOM    101  H10 UNL A   1      29.102  31.009  23.132  1.00  0.00    +0.000 H 
ATOM    102  H11 UNL A   1      27.913  29.334  20.948  1.00  0.00    +0.000 H 
ATOM    103  H12 UNL A   1      27.025  30.449  21.976  1.00  0.00    +0.000 H 
ATOM      9  C7  UNL A   1      31.211  26.590  23.523  1.00  0.00    +0.000 C 
ATOM     10  C8  UNL A   1      29.965  26.088  23.924  1.00  0.00    +0.000 C 
ATOM     11  C9  UNL A   1      28.815  26.856  23.729  1.00  0.00    +0.000 C 
ATOM     12  C10 UNL A   1      28.902  28.092  23.091  1.00  0.00    +0.000 C 
ATOM     13  C11 UNL A   1      30.143  28.582  22.673  1.00  0.00    +0.000 C 
ATOM     14  C12 UNL A   1      31.300  27.833  22.885  1.00  0.00    +0.000 C 
ATOM     15  O2  UNL A   1      30.300  29.781  22.026  1.00  0.00    +0.000 O 
ATOM     16  C13 UNL A   1      29.133  30.602  22.142  1.00  0.00    +0.000 C 
ATOM     17  C14 UNL A   1      27.866  29.792  21.914  1.00  0.00    +0.000 C 
ATOM     18  O3  UNL A   1      27.727  28.773  22.910  1.00  0.00    +0.000 O 
ENDBRANCH    8    9
ENDBRANCH    3    4
ENDBRANCH    2    3
ENDBRANCH   19    2
ENDBRANCH   20   19
ENDBRANCH   21   20
ENDBRANCH   22   21
ENDBRANCH   23   22
ENDBRANCH   24   23
ENDBRANCH   25   24
ENDBRANCH   26   25
ENDBRANCH   27   26
ENDBRANCH   29   27
ENDBRANCH   33   32
BRANCH   37   38
ATOM     38  C30 UNL A   1      45.982  32.160  29.203  1.00  0.00    +0.000 C 
ATOM     39  C31 UNL A   1      46.630  33.020  28.281  1.00  0.00    +0.000 C 
ATOM     40  F1  UNL A   1      46.069  33.299  27.092  1.00  0.00    +0.000 F 
ATOM     41  C32 UNL A   1      47.898  33.546  28.521  1.00  0.00    +0.000 C 
ATOM     42  F2  UNL A   1      48.527  34.241  27.562  1.00  0.00    +0.000 F 
ATOM     43  C33 UNL A   1      48.532  33.293  29.720  1.00  0.00    +0.000 C 
ATOM     44  F3  UNL A   1      49.778  33.738  29.931  1.00  0.00    +0.000 F 
ATOM     45  C34 UNL A   1      47.882  32.544  30.688  1.00  0.00    +0.000 C 
ATOM     46  F4  UNL A   1      48.493  32.302  31.856  1.00  0.00    +0.000 F 
ATOM     47  C35 UNL A   1      46.630  31.973  30.431  1.00  0.00    +0.000 C 
ATOM     48  F5  UNL A   1      46.122  31.159  31.365  1.00  0.00    +0.000 F 
ENDBRANCH   37   38
BRANCH   54   55
ATOM     65  F10 UNL A   1      43.023  27.944  30.353  1.00  0.00    +0.000 F 
ATOM     55  C41 UNL A   1      45.000  26.630  30.283  1.00  0.00    +0.000 C 
ATOM     56  C42 UNL A   1      45.895  25.857  31.036  1.00  0.00    +0.000 C 
ATOM     57  F6  UNL A   1      46.947  25.280  30.437  1.00  0.00    +0.000 F 
ATOM     58  C43 UNL A   1      45.718  25.667  32.409  1.00  0.00    +0.000 C 
ATOM     59  F7  UNL A   1      46.591  24.917  33.096  1.00  0.00    +0.000 F 
ATOM     60  C44 UNL A   1      44.649  26.251  33.069  1.00  0.00    +0.000 C 
ATOM     61  F8  UNL A   1      44.486  26.076  34.389  1.00  0.00    +0.000 F 
ATOM     62  C45 UNL A   1      43.754  27.024  32.359  1.00  0.00    +0.000 C 
ATOM     63  F9  UNL A   1      42.722  27.611  32.985  1.00  0.00    +0.000 F 
ATOM     64  C46 UNL A   1      43.927  27.201  30.987  1.00  0.00    +0.000 C 
ENDBRANCH   54   55
BRANCH   69   70
ATOM     70  C50 UNL A   1      40.757  23.197  27.496  1.00  0.00    +0.000 C 
ATOM     71  C51 UNL A   1      39.689  22.955  26.621  1.00  0.00    +0.000 C 
ATOM     72  F11 UNL A   1      38.831  23.921  26.286  1.00  0.00    +0.000 F 
ATOM     73  C52 UNL A   1      39.430  21.681  26.081  1.00  0.00    +0.000 C 
ATOM     74  F12 UNL A   1      38.409  21.519  25.227  1.00  0.00    +0.000 F 
ATOM     75  C53 UNL A   1      40.212  20.591  26.411  1.00  0.00    +0.000 C 
ATOM     76  F13 UNL A   1      39.992  19.390  25.859  1.00  0.00    +0.000 F 
ATOM     77  C54 UNL A   1      41.211  20.755  27.338  1.00  0.00    +0.000 C 
ATOM     78  F14 UNL A   1      41.971  19.713  27.706  1.00  0.00    +0.000 F 
ATOM     79  C55 UNL A   1      41.448  22.014  27.891  1.00  0.00    +0.000 C 
ATOM     80  F15 UNL A   1      42.390  22.032  28.844  1.00  0.00    +0.000 F 
ENDBRANCH   69   70
TORSDOF 17
ENDMDL
MODEL 9
REMARK VINA RESULT:     -10.8     23.546     27.780
ROOT
ATOM    129  H38 UNL A   1      23.000  34.828  43.830  1.00  0.00    +0.000 H 
ATOM     33  C26 UNL A   1      22.669  34.849  46.719  1.00  0.00    +0.000 C 
ATOM     34  C27 UNL A   1      23.961  34.787  45.891  1.00  0.00    +0.000 C 
ATOM     35  N4  UNL A   1      25.199  34.679  46.274  1.00  0.00    +0.000 N 
ATOM     36  C28 UNL A   1      26.007  34.778  45.121  1.00  0.00    +0.000 C 
ATOM     37  C29 UNL A   1      27.352  35.007  45.157  1.00  0.00    +0.000 C 
ATOM     49  C36 UNL A   1      27.823  35.059  46.499  1.00  0.00    +0.000 C 
ATOM     50  C37 UNL A   1      28.100  34.103  47.438  1.00  0.00    +0.000 C 
ATOM     51  C38 UNL A   1      27.907  34.755  48.675  1.00  0.00    +0.000 C 
ATOM     52  C39 UNL A   1      27.584  36.096  48.441  1.00  0.00    +0.000 C 
ATOM     53  N5  UNL A   1      27.838  36.289  47.106  1.00  0.00    +0.000 N 
ATOM     54  C40 UNL A   1      26.908  37.157  49.154  1.00  0.00    +0.000 C 
ATOM     66  C47 UNL A   1      26.436  36.874  50.393  1.00  0.00    +0.000 C 
ATOM     67  N6  UNL A   1      25.178  37.300  50.757  1.00  0.00    +0.000 N 
ATOM     68  C48 UNL A   1      24.665  36.235  51.297  1.00  0.00    +0.000 C 
ATOM     69  C49 UNL A   1      23.227  36.016  51.539  1.00  0.00    +0.000 C 
ATOM     81  C56 UNL A   1      22.677  35.750  50.314  1.00  0.00    +0.000 C 
ATOM     82  C57 UNL A   1      21.285  35.502  49.993  1.00  0.00    +0.000 C 
ATOM     83  C58 UNL A   1      21.161  35.198  48.687  1.00  0.00    +0.000 C 
ATOM     84  C59 UNL A   1      22.477  35.194  48.025  1.00  0.00    +0.000 C 
ATOM     85  N7  UNL A   1      23.311  35.595  49.053  1.00  0.00    +0.000 N 
ATOM     86  C60 UNL A   1      25.605  35.150  51.614  1.00  0.00    +0.000 C 
ATOM     87  C61 UNL A   1      26.732  35.716  51.197  1.00  0.00    +0.000 C 
ATOM     88  C62 UNL A   1      25.122  34.740  43.997  1.00  0.00    +0.000 C 
ATOM     89  C63 UNL A   1      23.854  34.793  44.407  1.00  0.00    +0.000 C 
ATOM    120  H29 UNL A   1      28.387  33.125  47.278  1.00  0.00    +0.000 H 
ATOM    121  H30 UNL A   1      27.991  34.313  49.604  1.00  0.00    +0.000 H 
ATOM    122  H31 UNL A   1      28.002  37.153  46.664  1.00  0.00    +0.000 H 
ATOM    123  H32 UNL A   1      20.504  35.551  50.667  1.00  0.00    +0.000 H 
ATOM    124  H33 UNL A   1      20.266  34.995  48.214  1.00  0.00    +0.000 H 
ATOM    125  H34 UNL A   1      24.272  35.760  48.920  1.00  0.00    +0.000 H 
ATOM    126  H35 UNL A   1      25.436  34.223  52.036  1.00  0.00    +0.000 H 
ATOM    127  H36 UNL A   1      27.682  35.374  51.416  1.00  0.00    +0.000 H 
ATOM    128  H37 UNL A   1      25.423  34.681  43.012  1.00  0.00    +0.000 H 
ENDROOT
BRANCH   33   32
ATOM    130  H39 UNL A   1      20.904  36.420  45.393  1.00  0.00    +0.000 H 
ATOM    131  H40 UNL A   1      19.119  35.714  43.905  1.00  0.00    +0.000 H 
ATOM    118  H27 UNL A   1      19.956  31.689  44.813  1.00  0.00    +0.000 H 
ATOM    119  H28 UNL A   1      21.701  32.390  46.344  1.00  0.00    +0.000 H 
ATOM     90  C64 UNL A   1      20.710  35.416  45.259  1.00  0.00    +0.000 C 
ATOM     91  C65 UNL A   1      19.695  35.009  44.394  1.00  0.00    +0.000 C 
ATOM     29  C22 UNL A   1      19.456  33.648  44.190  1.00  0.00    +0.000 C 
ATOM     30  C23 UNL A   1      20.173  32.692  44.924  1.00  0.00    +0.000 C 
ATOM     31  C24 UNL A   1      21.176  33.093  45.801  1.00  0.00    +0.000 C 
ATOM     32  C25 UNL A   1      21.467  34.453  45.944  1.00  0.00    +0.000 C 
BRANCH   29   27
ATOM     27  C21 UNL A   1      18.401  33.150  43.275  1.00  0.00    +0.000 C 
ATOM     28  O4  UNL A   1      17.467  33.871  42.984  1.00  0.00    +0.000 O 
BRANCH   27   26
ATOM     26  N3  UNL A   1      18.447  31.870  42.765  1.00  0.00    +0.000 N 
ATOM    117  H26 UNL A   1      19.046  31.735  41.996  1.00  0.00    +0.000 H 
BRANCH   26   25
ATOM     25  C20 UNL A   1      17.725  30.694  43.221  1.00  0.00    +0.000 C 
ATOM    115  H24 UNL A   1      18.335  29.828  43.067  1.00  0.00    +0.000 H 
ATOM    116  H25 UNL A   1      17.500  30.815  44.260  1.00  0.00    +0.000 H 
BRANCH   25   24
ATOM    113  H22 UNL A   1      15.736  31.289  42.775  1.00  0.00    +0.000 H 
ATOM    114  H23 UNL A   1      16.652  30.588  41.416  1.00  0.00    +0.000 H 
ATOM     24  C19 UNL A   1      16.412  30.523  42.457  1.00  0.00    +0.000 C 
BRANCH   24   23
ATOM    111  H20 UNL A   1      15.144  29.222  43.559  1.00  0.00    +0.000 H 
ATOM     23  C18 UNL A   1      15.729  29.164  42.665  1.00  0.00    +0.000 C 
ATOM    112  H21 UNL A   1      15.150  28.987  41.783  1.00  0.00    +0.000 H 
BRANCH   23   22
ATOM    110  H19 UNL A   1      17.593  28.264  42.334  1.00  0.00    +0.000 H 
ATOM    109  H18 UNL A   1      16.210  27.125  42.327  1.00  0.00    +0.000 H 
ATOM     22  C17 UNL A   1      16.675  27.967  42.796  1.00  0.00    +0.000 C 
BRANCH   22   21
ATOM    107  H16 UNL A   1      18.072  27.292  44.250  1.00  0.00    +0.000 H 
ATOM    108  H17 UNL A   1      16.812  28.414  44.845  1.00  0.00    +0.000 H 
ATOM     21  C16 UNL A   1      17.038  27.566  44.232  1.00  0.00    +0.000 C 
BRANCH   21   20
ATOM    105  H14 UNL A   1      16.820  25.888  45.530  1.00  0.00    +0.000 H 
ATOM    106  H15 UNL A   1      15.335  26.796  45.240  1.00  0.00    +0.000 H 
ATOM     20  C15 UNL A   1      16.227  26.400  44.801  1.00  0.00    +0.000 C 
BRANCH   20   19
ATOM     19  N2  UNL A   1      15.843  25.461  43.766  1.00  0.00    +0.000 N 
ATOM    104  H13 UNL A   1      16.535  24.883  43.372  1.00  0.00    +0.000 H 
BRANCH   19    2
ATOM      1  O1  UNL A   1      13.609  25.998  43.763  1.00  0.00    +0.000 O 
ATOM      2  C1  UNL A   1      14.545  25.345  43.310  1.00  0.00    +0.000 C 
BRANCH    2    3
ATOM      3  C2  UNL A   1      14.337  24.260  42.257  1.00  0.00    +0.000 C 
ATOM     92  H1  UNL A   1      13.379  23.808  42.407  1.00  0.00    +0.000 H 
ATOM     93  H2  UNL A   1      15.119  23.536  42.361  1.00  0.00    +0.000 H 
BRANCH    3    4
ATOM      4  C3  UNL A   1      14.398  24.827  40.866  1.00  0.00    +0.000 C 
ATOM      5  C4  UNL A   1      14.670  26.136  40.499  1.00  0.00    +0.000 C 
ATOM      6  C5  UNL A   1      14.810  26.175  39.098  1.00  0.00    +0.000 C 
ATOM      7  C6  UNL A   1      14.615  24.895  38.637  1.00  0.00    +0.000 C 
ATOM      8  N1  UNL A   1      14.276  24.080  39.699  1.00  0.00    +0.000 N 
ATOM     94  H3  UNL A   1      14.755  26.940  41.140  1.00  0.00    +0.000 H 
ATOM     95  H4  UNL A   1      15.020  27.009  38.525  1.00  0.00    +0.000 H 
ATOM     96  H5  UNL A   1      14.707  24.591  37.655  1.00  0.00    +0.000 H 
BRANCH    8    9
ATOM     97  H6  UNL A   1      14.824  22.466  37.682  1.00  0.00    +0.000 H 
ATOM     98  H7  UNL A   1      14.231  20.117  37.481  1.00  0.00    +0.000 H 
ATOM     99  H8  UNL A   1      12.818  22.646  41.387  1.00  0.00    +0.000 H 
ATOM    100  H9  UNL A   1      11.088  18.469  41.933  1.00  0.00    +0.000 H 
ATOM    101  H10 UNL A   1      12.831  18.421  41.691  1.00  0.00    +0.000 H 
ATOM    102  H11 UNL A   1      10.803  18.788  39.514  1.00  0.00    +0.000 H 
ATOM    103  H12 UNL A   1      11.628  17.284  39.896  1.00  0.00    +0.000 H 
ATOM      9  C7  UNL A   1      13.895  22.721  39.567  1.00  0.00    +0.000 C 
ATOM     10  C8  UNL A   1      14.279  22.003  38.426  1.00  0.00    +0.000 C 
ATOM     11  C9  UNL A   1      13.920  20.659  38.301  1.00  0.00    +0.000 C 
ATOM     12  C10 UNL A   1      13.140  20.052  39.284  1.00  0.00    +0.000 C 
ATOM     13  C11 UNL A   1      12.741  20.775  40.412  1.00  0.00    +0.000 C 
ATOM     14  C12 UNL A   1      13.115  22.111  40.557  1.00  0.00    +0.000 C 
ATOM     15  O2  UNL A   1      11.962  20.246  41.409  1.00  0.00    +0.000 O 
ATOM     16  C13 UNL A   1      11.903  18.818  41.333  1.00  0.00    +0.000 C 
ATOM     17  C14 UNL A   1      11.700  18.351  39.901  1.00  0.00    +0.000 C 
ATOM     18  O3  UNL A   1      12.804  18.740  39.077  1.00  0.00    +0.000 O 
ENDBRANCH    8    9
ENDBRANCH    3    4
ENDBRANCH    2    3
ENDBRANCH   19    2
ENDBRANCH   20   19
ENDBRANCH   21   20
ENDBRANCH   22   21
ENDBRANCH   23   22
ENDBRANCH   24   23
ENDBRANCH   25   24
ENDBRANCH   26   25
ENDBRANCH   27   26
ENDBRANCH   29   27
ENDBRANCH   33   32
BRANCH   37   38
ATOM     38  C30 UNL A   1      28.321  35.423  44.082  1.00  0.00    +0.000 C 
ATOM     39  C31 UNL A   1      28.960  34.411  43.321  1.00  0.00    +0.000 C 
ATOM     40  F1  UNL A   1      28.464  33.164  43.285  1.00  0.00    +0.000 F 
ATOM     41  C32 UNL A   1      30.160  34.634  42.650  1.00  0.00    +0.000 C 
ATOM     42  F2  UNL A   1      30.796  33.612  42.059  1.00  0.00    +0.000 F 
ATOM     43  C33 UNL A   1      30.727  35.892  42.652  1.00  0.00    +0.000 C 
ATOM     44  F3  UNL A   1      31.915  36.097  42.066  1.00  0.00    +0.000 F 
ATOM     45  C34 UNL A   1      30.074  36.930  43.296  1.00  0.00    +0.000 C 
ATOM     46  F4  UNL A   1      30.619  38.155  43.295  1.00  0.00    +0.000 F 
ATOM     47  C35 UNL A   1      28.895  36.700  44.014  1.00  0.00    +0.000 C 
ATOM     48  F5  UNL A   1      28.391  37.723  44.715  1.00  0.00    +0.000 F 
ENDBRANCH   37   38
BRANCH   54   55
ATOM     65  F10 UNL A   1      24.823  37.123  47.113  1.00  0.00    +0.000 F 
ATOM     55  C41 UNL A   1      26.262  38.374  48.528  1.00  0.00    +0.000 C 
ATOM     56  C42 UNL A   1      26.604  39.657  48.978  1.00  0.00    +0.000 C 
ATOM     57  F6  UNL A   1      27.591  39.810  49.873  1.00  0.00    +0.000 F 
ATOM     58  C43 UNL A   1      25.936  40.793  48.516  1.00  0.00    +0.000 C 
ATOM     59  F7  UNL A   1      26.286  42.004  48.971  1.00  0.00    +0.000 F 
ATOM     60  C44 UNL A   1      24.915  40.681  47.585  1.00  0.00    +0.000 C 
ATOM     61  F8  UNL A   1      24.282  41.774  47.135  1.00  0.00    +0.000 F 
ATOM     62  C45 UNL A   1      24.559  39.433  47.116  1.00  0.00    +0.000 C 
ATOM     63  F9  UNL A   1      23.584  39.307  46.203  1.00  0.00    +0.000 F 
ATOM     64  C46 UNL A   1      25.221  38.301  47.590  1.00  0.00    +0.000 C 
ENDBRANCH   54   55
BRANCH   69   70
ATOM     70  C50 UNL A   1      22.761  36.043  52.984  1.00  0.00    +0.000 C 
ATOM     71  C51 UNL A   1      22.443  37.188  53.727  1.00  0.00    +0.000 C 
ATOM     72  F11 UNL A   1      22.727  38.413  53.277  1.00  0.00    +0.000 F 
ATOM     73  C52 UNL A   1      21.850  37.120  55.002  1.00  0.00    +0.000 C 
ATOM     74  F12 UNL A   1      21.543  38.252  55.652  1.00  0.00    +0.000 F 
ATOM     75  C53 UNL A   1      21.571  35.904  55.598  1.00  0.00    +0.000 C 
ATOM     76  F13 UNL A   1      20.964  35.843  56.791  1.00  0.00    +0.000 F 
ATOM     77  C54 UNL A   1      21.952  34.754  54.954  1.00  0.00    +0.000 C 
ATOM     78  F14 UNL A   1      21.726  33.557  55.515  1.00  0.00    +0.000 F 
ATOM     79  C55 UNL A   1      22.563  34.827  53.701  1.00  0.00    +0.000 C 
ATOM     80  F15 UNL A   1      22.965  33.646  53.211  1.00  0.00    +0.000 F 
ENDBRANCH   69   70
TORSDOF 17
ENDMDL
MODEL 10
REMARK VINA RESULT:     -10.7     23.967     28.376
ROOT
ATOM    129  H38 UNL A   1      52.228  16.844   2.912  1.00  0.00    +0.000 H 
ATOM     33  C26 UNL A   1      53.557  16.462   5.470  1.00  0.00    +0.000 C 
ATOM     34  C27 UNL A   1      54.020  16.049   4.064  1.00  0.00    +0.000 C 
ATOM     35  N4  UNL A   1      55.077  15.391   3.688  1.00  0.00    +0.000 N 
ATOM     36  C28 UNL A   1      55.082  15.373   2.277  1.00  0.00    +0.000 C 
ATOM     37  C29 UNL A   1      56.174  15.041   1.529  1.00  0.00    +0.000 C 
ATOM     49  C36 UNL A   1      57.261  14.654   2.360  1.00  0.00    +0.000 C 
ATOM     50  C37 UNL A   1      57.560  13.512   3.051  1.00  0.00    +0.000 C 
ATOM     51  C38 UNL A   1      58.368  13.946   4.124  1.00  0.00    +0.000 C 
ATOM     52  C39 UNL A   1      58.582  15.324   4.008  1.00  0.00    +0.000 C 
ATOM     53  N5  UNL A   1      58.128  15.643   2.751  1.00  0.00    +0.000 N 
ATOM     54  C40 UNL A   1      58.932  16.415   4.889  1.00  0.00    +0.000 C 
ATOM     66  C47 UNL A   1      59.138  16.119   6.197  1.00  0.00    +0.000 C 
ATOM     67  N6  UNL A   1      58.606  16.932   7.172  1.00  0.00    +0.000 N 
ATOM     68  C48 UNL A   1      58.069  16.077   7.991  1.00  0.00    +0.000 C 
ATOM     69  C49 UNL A   1      57.065  16.404   9.019  1.00  0.00    +0.000 C 
ATOM     81  C56 UNL A   1      55.890  16.608   8.345  1.00  0.00    +0.000 C 
ATOM     82  C57 UNL A   1      54.603  16.994   8.888  1.00  0.00    +0.000 C 
ATOM     83  C58 UNL A   1      53.677  17.010   7.909  1.00  0.00    +0.000 C 
ATOM     84  C59 UNL A   1      54.271  16.608   6.622  1.00  0.00    +0.000 C 
ATOM     85  N7  UNL A   1      55.602  16.450   6.964  1.00  0.00    +0.000 N 
ATOM     86  C60 UNL A   1      58.456  14.671   7.807  1.00  0.00    +0.000 C 
ATOM     87  C61 UNL A   1      59.290  14.811   6.782  1.00  0.00    +0.000 C 
ATOM     88  C62 UNL A   1      53.818  15.895   1.857  1.00  0.00    +0.000 C 
ATOM     89  C63 UNL A   1      53.143  16.369   2.905  1.00  0.00    +0.000 C 
ATOM    120  H29 UNL A   1      57.261  12.548   2.836  1.00  0.00    +0.000 H 
ATOM    121  H30 UNL A   1      58.741  13.345   4.875  1.00  0.00    +0.000 H 
ATOM    122  H31 UNL A   1      58.378  16.437   2.227  1.00  0.00    +0.000 H 
ATOM    123  H32 UNL A   1      54.422  17.222   9.878  1.00  0.00    +0.000 H 
ATOM    124  H33 UNL A   1      52.687  17.268   8.043  1.00  0.00    +0.000 H 
ATOM    125  H34 UNL A   1      56.298  16.243   6.299  1.00  0.00    +0.000 H 
ATOM    126  H35 UNL A   1      58.164  13.826   8.322  1.00  0.00    +0.000 H 
ATOM    127  H36 UNL A   1      59.949  14.087   6.453  1.00  0.00    +0.000 H 
ATOM    128  H37 UNL A   1      53.478  15.906   0.883  1.00  0.00    +0.000 H 
ENDROOT
BRANCH   33   32
ATOM    130  H39 UNL A   1      52.259  18.835   5.633  1.00  0.00    +0.000 H 
ATOM    131  H40 UNL A   1      49.868  19.230   5.464  1.00  0.00    +0.000 H 
ATOM    118  H27 UNL A   1      49.195  15.077   5.298  1.00  0.00    +0.000 H 
ATOM    119  H28 UNL A   1      51.576  14.675   5.524  1.00  0.00    +0.000 H 
ATOM     90  C64 UNL A   1      51.608  18.039   5.548  1.00  0.00    +0.000 C 
ATOM     91  C65 UNL A   1      50.237  18.266   5.437  1.00  0.00    +0.000 C 
ATOM     29  C22 UNL A   1      49.361  17.186   5.292  1.00  0.00    +0.000 C 
ATOM     30  C23 UNL A   1      49.850  15.873   5.350  1.00  0.00    +0.000 C 
ATOM     31  C24 UNL A   1      51.216  15.641   5.478  1.00  0.00    +0.000 C 
ATOM     32  C25 UNL A   1      52.099  16.724   5.543  1.00  0.00    +0.000 C 
BRANCH   29   27
ATOM     27  C21 UNL A   1      47.895  17.359   5.156  1.00  0.00    +0.000 C 
ATOM     28  O4  UNL A   1      47.298  16.772   4.276  1.00  0.00    +0.000 O 
BRANCH   27   26
ATOM     26  N3  UNL A   1      47.196  18.197   5.999  1.00  0.00    +0.000 N 
ATOM    117  H26 UNL A   1      46.635  17.755   6.676  1.00  0.00    +0.000 H 
BRANCH   26   25
ATOM     25  C20 UNL A   1      47.185  19.650   6.016  1.00  0.00    +0.000 C 
ATOM    115  H24 UNL A   1      46.406  19.986   6.669  1.00  0.00    +0.000 H 
ATOM    116  H25 UNL A   1      48.138  19.994   6.359  1.00  0.00    +0.000 H 
BRANCH   25   24
ATOM    113  H22 UNL A   1      47.414  21.173   4.553  1.00  0.00    +0.000 H 
ATOM    114  H23 UNL A   1      47.345  19.506   3.924  1.00  0.00    +0.000 H 
ATOM     24  C19 UNL A   1      46.941  20.215   4.616  1.00  0.00    +0.000 C 
BRANCH   24   23
ATOM    111  H20 UNL A   1      44.898  20.429   5.160  1.00  0.00    +0.000 H 
ATOM     23  C18 UNL A   1      45.459  20.387   4.251  1.00  0.00    +0.000 C 
ATOM    112  H21 UNL A   1      45.401  21.282   3.668  1.00  0.00    +0.000 H 
BRANCH   23   22
ATOM    110  H19 UNL A   1      43.862  19.135   3.724  1.00  0.00    +0.000 H 
ATOM    109  H18 UNL A   1      45.482  18.410   3.482  1.00  0.00    +0.000 H 
ATOM     22  C17 UNL A   1      44.865  19.277   3.378  1.00  0.00    +0.000 C 
BRANCH   22   21
ATOM    107  H16 UNL A   1      45.653  20.094   1.581  1.00  0.00    +0.000 H 
ATOM    108  H17 UNL A   1      44.592  18.667   1.386  1.00  0.00    +0.000 H 
ATOM     21  C16 UNL A   1      44.752  19.601   1.883  1.00  0.00    +0.000 C 
BRANCH   21   20
ATOM    105  H14 UNL A   1      42.833  20.443   2.276  1.00  0.00    +0.000 H 
ATOM    106  H15 UNL A   1      43.934  21.497   1.389  1.00  0.00    +0.000 H 
ATOM     20  C15 UNL A   1      43.571  20.497   1.504  1.00  0.00    +0.000 C 
BRANCH   20   19
ATOM     19  N2  UNL A   1      42.971  20.087   0.251  1.00  0.00    +0.000 N 
ATOM    104  H13 UNL A   1      43.559  19.787  -0.479  1.00  0.00    +0.000 H 
BRANCH   19    2
ATOM      1  O1  UNL A   1      41.073  19.617  -0.958  1.00  0.00    +0.000 O 
ATOM      2  C1  UNL A   1      41.606  20.101   0.038  1.00  0.00    +0.000 C 
BRANCH    2    3
ATOM      3  C2  UNL A   1      40.806  20.856   1.094  1.00  0.00    +0.000 C 
ATOM     92  H1  UNL A   1      40.113  21.508   0.606  1.00  0.00    +0.000 H 
ATOM     93  H2  UNL A   1      41.491  21.415   1.699  1.00  0.00    +0.000 H 
BRANCH    3    4
ATOM      4  C3  UNL A   1      40.047  19.913   1.986  1.00  0.00    +0.000 C 
ATOM      5  C4  UNL A   1      40.568  18.934   2.817  1.00  0.00    +0.000 C 
ATOM      6  C5  UNL A   1      39.515  18.424   3.603  1.00  0.00    +0.000 C 
ATOM      7  C6  UNL A   1      38.374  19.095   3.232  1.00  0.00    +0.000 C 
ATOM      8  N1  UNL A   1      38.671  19.945   2.185  1.00  0.00    +0.000 N 
ATOM     94  H3  UNL A   1      41.554  18.632   2.855  1.00  0.00    +0.000 H 
ATOM     95  H4  UNL A   1      39.588  17.685   4.321  1.00  0.00    +0.000 H 
ATOM     96  H5  UNL A   1      37.445  18.982   3.667  1.00  0.00    +0.000 H 
BRANCH    8    9
ATOM     97  H6  UNL A   1      36.315  20.735   3.080  1.00  0.00    +0.000 H 
ATOM     98  H7  UNL A   1      34.681  22.096   1.903  1.00  0.00    +0.000 H 
ATOM     99  H8  UNL A   1      38.816  20.819  -0.314  1.00  0.00    +0.000 H 
ATOM    100  H9  UNL A   1      36.448  23.191  -3.397  1.00  0.00    +0.000 H 
ATOM    101  H10 UNL A   1      36.674  24.106  -1.911  1.00  0.00    +0.000 H 
ATOM    102  H11 UNL A   1      34.655  21.924  -2.295  1.00  0.00    +0.000 H 
ATOM    103  H12 UNL A   1      34.316  23.647  -2.351  1.00  0.00    +0.000 H 
ATOM      9  C7  UNL A   1      37.703  20.707   1.482  1.00  0.00    +0.000 C 
ATOM     10  C8  UNL A   1      36.500  21.047   2.114  1.00  0.00    +0.000 C 
ATOM     11  C9  UNL A   1      35.552  21.812   1.430  1.00  0.00    +0.000 C 
ATOM     12  C10 UNL A   1      35.783  22.189   0.108  1.00  0.00    +0.000 C 
ATOM     13  C11 UNL A   1      36.975  21.830  -0.527  1.00  0.00    +0.000 C 
ATOM     14  C12 UNL A   1      37.938  21.087   0.156  1.00  0.00    +0.000 C 
ATOM     15  O2  UNL A   1      37.262  22.153  -1.829  1.00  0.00    +0.000 O 
ATOM     16  C13 UNL A   1      36.381  23.165  -2.329  1.00  0.00    +0.000 C 
ATOM     17  C14 UNL A   1      34.941  22.888  -1.929  1.00  0.00    +0.000 C 
ATOM     18  O3  UNL A   1      34.794  22.912  -0.505  1.00  0.00    +0.000 O 
ENDBRANCH    8    9
ENDBRANCH    3    4
ENDBRANCH    2    3
ENDBRANCH   19    2
ENDBRANCH   20   19
ENDBRANCH   21   20
ENDBRANCH   22   21
ENDBRANCH   23   22
ENDBRANCH   24   23
ENDBRANCH   25   24
ENDBRANCH   26   25
ENDBRANCH   27   26
ENDBRANCH   29   27
ENDBRANCH   33   32
BRANCH   37   38
ATOM     38  C30 UNL A   1      56.474  15.230   0.065  1.00  0.00    +0.000 C 
ATOM     39  C31 UNL A   1      56.896  16.509  -0.379  1.00  0.00    +0.000 C 
ATOM     40  F1  UNL A   1      57.372  17.414   0.492  1.00  0.00    +0.000 F 
ATOM     41  C32 UNL A   1      56.764  16.915  -1.705  1.00  0.00    +0.000 C 
ATOM     42  F2  UNL A   1      57.048  18.179  -2.049  1.00  0.00    +0.000 F 
ATOM     43  C33 UNL A   1      56.275  16.035  -2.649  1.00  0.00    +0.000 C 
ATOM     44  F3  UNL A   1      56.081  16.440  -3.912  1.00  0.00    +0.000 F 
ATOM     45  C34 UNL A   1      55.953  14.742  -2.271  1.00  0.00    +0.000 C 
ATOM     46  F4  UNL A   1      55.484  13.883  -3.187  1.00  0.00    +0.000 F 
ATOM     47  C35 UNL A   1      56.038  14.345  -0.931  1.00  0.00    +0.000 C 
ATOM     48  F5  UNL A   1      55.590  13.122  -0.622  1.00  0.00    +0.000 F 
ENDBRANCH   37   38
BRANCH   54   55
ATOM     65  F10 UNL A   1      56.303  17.588   4.413  1.00  0.00    +0.000 F 
ATOM     55  C41 UNL A   1      58.648  17.880   4.643  1.00  0.00    +0.000 C 
ATOM     56  C42 UNL A   1      59.691  18.816   4.706  1.00  0.00    +0.000 C 
ATOM     57  F6  UNL A   1      60.955  18.397   4.862  1.00  0.00    +0.000 F 
ATOM     58  C43 UNL A   1      59.445  20.188   4.613  1.00  0.00    +0.000 C 
ATOM     59  F7  UNL A   1      60.466  21.054   4.683  1.00  0.00    +0.000 F 
ATOM     60  C44 UNL A   1      58.154  20.663   4.445  1.00  0.00    +0.000 C 
ATOM     61  F8  UNL A   1      57.922  21.980   4.345  1.00  0.00    +0.000 F 
ATOM     62  C45 UNL A   1      57.107  19.768   4.370  1.00  0.00    +0.000 C 
ATOM     63  F9  UNL A   1      55.852  20.210   4.190  1.00  0.00    +0.000 F 
ATOM     64  C46 UNL A   1      57.355  18.401   4.476  1.00  0.00    +0.000 C 
ENDBRANCH   54   55
BRANCH   69   70
ATOM     70  C50 UNL A   1      57.519  16.346  10.467  1.00  0.00    +0.000 C 
ATOM     71  C51 UNL A   1      58.098  15.241  11.106  1.00  0.00    +0.000 C 
ATOM     72  F11 UNL A   1      58.114  14.034  10.535  1.00  0.00    +0.000 F 
ATOM     73  C52 UNL A   1      58.654  15.322  12.397  1.00  0.00    +0.000 C 
ATOM     74  F12 UNL A   1      59.219  14.236  12.945  1.00  0.00    +0.000 F 
ATOM     75  C53 UNL A   1      58.634  16.504  13.113  1.00  0.00    +0.000 C 
ATOM     76  F13 UNL A   1      59.206  16.590  14.321  1.00  0.00    +0.000 F 
ATOM     77  C54 UNL A   1      57.993  17.590  12.570  1.00  0.00    +0.000 C 
ATOM     78  F14 UNL A   1      57.926  18.745  13.248  1.00  0.00    +0.000 F 
ATOM     79  C55 UNL A   1      57.420  17.498  11.301  1.00  0.00    +0.000 C 
ATOM     80  F15 UNL A   1      56.751  18.593  10.914  1.00  0.00    +0.000 F 
ENDBRANCH   69   70
TORSDOF 17
ENDMDL
