MODEL 1
REMARK VINA RESULT:     -10.0      0.000      0.000
ROOT
ATOM    138  H33 UNL A   1      20.113  31.268  -0.363  1.00  0.00    +0.000 H 
ATOM    139  H34 UNL A   1      17.559  31.754  -0.539  1.00  0.00    +0.000 H 
ATOM    140  H35 UNL A   1      18.199  27.788  -1.538  1.00  0.00    +0.000 H 
ATOM    141  H36 UNL A   1      15.943  22.215  -3.692  1.00  0.00    +0.000 H 
ATOM    142  H37 UNL A   1      18.412  21.710  -3.377  1.00  0.00    +0.000 H 
ATOM    143  H38 UNL A   1      17.782  25.681  -2.324  1.00  0.00    +0.000 H 
ATOM    144  H39 UNL A   1      12.847  26.476  -2.749  1.00  0.00    +0.000 H 
ATOM    145  H40 UNL A   1      13.323  28.915  -2.142  1.00  0.00    +0.000 H 
ATOM    146  H41 UNL A   1      23.048  26.790  -0.805  1.00  0.00    +0.000 H 
ATOM    147  H42 UNL A   1      22.691  24.506  -1.906  1.00  0.00    +0.000 H 
ATOM     39  C28 UNL A   1      19.962  23.936  -2.498  1.00  0.00    +0.000 C 
ATOM     40  C29 UNL A   1      20.541  25.222  -1.980  1.00  0.00    +0.000 C 
ATOM     41  N3  UNL A   1      19.936  26.348  -1.694  1.00  0.00    +0.000 N 
ATOM     42  C30 UNL A   1      20.925  27.196  -1.218  1.00  0.00    +0.000 C 
ATOM     43  C31 UNL A   1      20.818  28.499  -0.861  1.00  0.00    +0.000 C 
ATOM     55  C38 UNL A   1      19.591  29.248  -0.908  1.00  0.00    +0.000 C 
ATOM     56  C39 UNL A   1      19.385  30.585  -0.620  1.00  0.00    +0.000 C 
ATOM     57  C40 UNL A   1      18.017  30.851  -0.738  1.00  0.00    +0.000 C 
ATOM     58  C41 UNL A   1      17.379  29.698  -1.168  1.00  0.00    +0.000 C 
ATOM     59  N4  UNL A   1      18.357  28.720  -1.262  1.00  0.00    +0.000 N 
ATOM     60  C42 UNL A   1      15.984  29.504  -1.472  1.00  0.00    +0.000 C 
ATOM     72  C49 UNL A   1      15.434  28.340  -1.898  1.00  0.00    +0.000 C 
ATOM     73  N5  UNL A   1      16.048  27.119  -2.139  1.00  0.00    +0.000 N 
ATOM     74  C50 UNL A   1      15.096  26.303  -2.521  1.00  0.00    +0.000 C 
ATOM     75  C51 UNL A   1      15.189  24.862  -2.943  1.00  0.00    +0.000 C 
ATOM     87  C58 UNL A   1      16.395  24.264  -2.958  1.00  0.00    +0.000 C 
ATOM     88  C59 UNL A   1      16.653  22.882  -3.352  1.00  0.00    +0.000 C 
ATOM     89  C60 UNL A   1      17.960  22.620  -3.198  1.00  0.00    +0.000 C 
ATOM     90  C61 UNL A   1      18.640  23.831  -2.737  1.00  0.00    +0.000 C 
ATOM     91  N6  UNL A   1      17.633  24.755  -2.621  1.00  0.00    +0.000 N 
ATOM     92  C62 UNL A   1      13.757  26.910  -2.533  1.00  0.00    +0.000 C 
ATOM     93  C63 UNL A   1      14.027  28.162  -2.191  1.00  0.00    +0.000 C 
ATOM     94  C64 UNL A   1      22.157  26.440  -1.189  1.00  0.00    +0.000 C 
ATOM     95  C65 UNL A   1      21.989  25.239  -1.721  1.00  0.00    +0.000 C 
ENDROOT
BRANCH   39   38
ATOM     97  C67 UNL A   1      22.232  21.010  -1.774  1.00  0.00    +0.000 C 
ATOM     35  C24 UNL A   1      22.449  20.510  -3.062  1.00  0.00    +0.000 C 
ATOM     36  C25 UNL A   1      21.924  21.165  -4.177  1.00  0.00    +0.000 C 
ATOM     37  C26 UNL A   1      21.141  22.302  -3.997  1.00  0.00    +0.000 C 
ATOM     38  C27 UNL A   1      20.838  22.758  -2.703  1.00  0.00    +0.000 C 
ATOM    136  H31 UNL A   1      22.116  20.809  -5.126  1.00  0.00    +0.000 H 
ATOM    137  H32 UNL A   1      20.779  22.812  -4.819  1.00  0.00    +0.000 H 
ATOM    148  H43 UNL A   1      21.153  22.415  -0.639  1.00  0.00    +0.000 H 
ATOM    149  H44 UNL A   1      22.701  20.577  -0.964  1.00  0.00    +0.000 H 
ATOM     96  C66 UNL A   1      21.383  22.096  -1.592  1.00  0.00    +0.000 C 
BRANCH   35   33
ATOM     33  C23 UNL A   1      23.203  19.259  -3.269  1.00  0.00    +0.000 C 
ATOM     34  O9  UNL A   1      22.722  18.185  -2.926  1.00  0.00    +0.000 O 
BRANCH   33   32
ATOM    135  H30 UNL A   1      24.600  18.797  -4.631  1.00  0.00    +0.000 H 
ATOM     32  N2  UNL A   1      24.459  19.325  -3.812  1.00  0.00    +0.000 N 
BRANCH   32   31
ATOM    133  H28 UNL A   1      25.318  20.626  -2.468  1.00  0.00    +0.000 H 
ATOM    134  H29 UNL A   1      26.381  19.365  -3.116  1.00  0.00    +0.000 H 
ATOM     31  C22 UNL A   1      25.608  20.071  -3.336  1.00  0.00    +0.000 C 
BRANCH   31   30
ATOM    131  H26 UNL A   1      27.190  20.815  -4.526  1.00  0.00    +0.000 H 
ATOM    132  H27 UNL A   1      25.558  20.909  -5.251  1.00  0.00    +0.000 H 
ATOM     30  C21 UNL A   1      26.155  21.041  -4.373  1.00  0.00    +0.000 C 
BRANCH   30   29
ATOM    129  H24 UNL A   1      25.498  22.584  -3.078  1.00  0.00    +0.000 H 
ATOM    130  H25 UNL A   1      27.049  22.880  -3.934  1.00  0.00    +0.000 H 
ATOM     29  C20 UNL A   1      26.043  22.520  -3.997  1.00  0.00    +0.000 C 
BRANCH   29   28
ATOM     28  C19 UNL A   1      25.343  23.421  -5.022  1.00  0.00    +0.000 C 
ATOM    127  H22 UNL A   1      26.074  24.092  -5.422  1.00  0.00    +0.000 H 
ATOM    128  H23 UNL A   1      24.917  22.760  -5.748  1.00  0.00    +0.000 H 
BRANCH   28   27
ATOM     27  C18 UNL A   1      24.179  24.257  -4.488  1.00  0.00    +0.000 C 
ATOM    125  H20 UNL A   1      23.313  23.632  -4.427  1.00  0.00    +0.000 H 
ATOM    126  H21 UNL A   1      24.477  24.633  -3.531  1.00  0.00    +0.000 H 
BRANCH   27   26
ATOM     26  C17 UNL A   1      23.844  25.456  -5.350  1.00  0.00    +0.000 C 
ATOM    123  H18 UNL A   1      22.847  25.347  -5.720  1.00  0.00    +0.000 H 
ATOM    124  H19 UNL A   1      23.938  26.334  -4.746  1.00  0.00    +0.000 H 
BRANCH   26   25
ATOM     25  N1  UNL A   1      24.749  25.584  -6.470  1.00  0.00    +0.000 N 
ATOM    122  H17 UNL A   1      25.566  25.037  -6.467  1.00  0.00    +0.000 H 
BRANCH   25   23
ATOM     23  C16 UNL A   1      24.541  26.415  -7.532  1.00  0.00    +0.000 C 
ATOM     24  O8  UNL A   1      24.194  27.573  -7.370  1.00  0.00    +0.000 O 
BRANCH   23   22
ATOM      2  C2  UNL A   1      29.328  25.310 -11.204  1.00  0.00    +0.000 C 
ATOM      3  C3  UNL A   1      29.462  25.142 -12.673  1.00  0.00    +0.000 C 
ATOM      4  O1  UNL A   1      30.474  25.242 -13.327  1.00  0.00    +0.000 O 
ATOM      5  O2  UNL A   1      28.203  24.909 -13.141  1.00  0.00    +0.000 O 
ATOM      6  C4  UNL A   1      27.234  24.991 -12.061  1.00  0.00    +0.000 C 
ATOM      7  C5  UNL A   1      27.943  25.824 -11.000  1.00  0.00    +0.000 C 
ATOM      8  C6  UNL A   1      27.347  25.953  -9.591  1.00  0.00    +0.000 C 
ATOM     17  C12 UNL A   1      25.861  26.494  -9.649  1.00  0.00    +0.000 C 
ATOM     22  C15 UNL A   1      24.730  25.806  -8.897  1.00  0.00    +0.000 C 
ATOM    150  H45 UNL A   1      23.407  24.544  -8.149  1.00  0.00    +0.000 H 
ATOM    152  H47 UNL A   1      23.755  22.468 -11.927  1.00  0.00    +0.000 H 
ATOM    151  H46 UNL A   1      22.599  23.669  -9.405  1.00  0.00    +0.000 H 
ATOM    156  H51 UNL A   1      27.723  23.503 -11.148  1.00  0.00    +0.000 H 
ATOM     98  C68 UNL A   1      23.816  24.826  -9.053  1.00  0.00    +0.000 C 
ATOM     99  C69 UNL A   1      23.253  24.056 -10.159  1.00  0.00    +0.000 C 
ATOM    100  O10 UNL A   1      23.280  24.645 -11.452  1.00  0.00    +0.000 O 
ATOM    101  C70 UNL A   1      23.872  23.363 -11.352  1.00  0.00    +0.000 C 
ATOM    102  C71 UNL A   1      25.375  23.082 -11.290  1.00  0.00    +0.000 C 
ATOM    104  O11 UNL A   1      25.926  23.016 -12.624  1.00  0.00    +0.000 O 
ATOM    105  C73 UNL A   1      26.796  23.619 -11.670  1.00  0.00    +0.000 C 
ATOM    108  H3  UNL A   1      26.306  25.467 -12.300  1.00  0.00    +0.000 H 
ATOM    109  H4  UNL A   1      27.845  26.884 -11.112  1.00  0.00    +0.000 H 
ATOM    110  H5  UNL A   1      27.913  26.690  -9.060  1.00  0.00    +0.000 H 
ATOM    118  H13 UNL A   1      25.649  26.950  -8.704  1.00  0.00    +0.000 H 
BRANCH    2    1
ATOM      1  C1  UNL A   1      30.299  24.912 -10.377  1.00  0.00    +0.000 C 
ATOM    106  H1  UNL A   1      31.243  24.717 -10.746  1.00  0.00    +0.000 H 
ATOM    107  H2  UNL A   1      30.104  24.798  -9.371  1.00  0.00    +0.000 H 
ENDBRANCH    2    1
BRANCH    8    9
ATOM      9  O3  UNL A   1      27.501  24.748  -8.812  1.00  0.00    +0.000 O 
BRANCH    9   10
ATOM     10  C7  UNL A   1      28.208  24.648  -7.627  1.00  0.00    +0.000 C 
ATOM     11  O4  UNL A   1      28.072  25.553  -6.807  1.00  0.00    +0.000 O 
BRANCH   10   12
ATOM    114  H9  UNL A   1      30.758  22.126  -6.698  1.00  0.00    +0.000 H 
ATOM     12  C8  UNL A   1      28.764  23.307  -7.162  1.00  0.00    +0.000 C 
ATOM     14  O5  UNL A   1      28.967  23.339  -5.721  1.00  0.00    +0.000 O 
ATOM     15  C10 UNL A   1      30.103  22.940  -6.467  1.00  0.00    +0.000 C 
BRANCH   12   13
ATOM    113  H8  UNL A   1      27.093  22.045  -6.760  1.00  0.00    +0.000 H 
ATOM     13  C9  UNL A   1      27.879  22.110  -7.482  1.00  0.00    +0.000 C 
ATOM    111  H6  UNL A   1      28.466  21.216  -7.453  1.00  0.00    +0.000 H 
ATOM    112  H7  UNL A   1      27.458  22.229  -8.459  1.00  0.00    +0.000 H 
ENDBRANCH   12   13
BRANCH   15   16
ATOM    115  H10 UNL A   1      30.999  24.667  -5.688  1.00  0.00    +0.000 H 
ATOM    116  H11 UNL A   1      31.847  23.954  -7.039  1.00  0.00    +0.000 H 
ATOM    117  H12 UNL A   1      31.923  23.202  -5.463  1.00  0.00    +0.000 H 
ATOM     16  C11 UNL A   1      31.301  23.746  -6.142  1.00  0.00    +0.000 C 
ENDBRANCH   15   16
ENDBRANCH   10   12
ENDBRANCH    9   10
ENDBRANCH    8    9
BRANCH   17   18
ATOM     18  O6  UNL A   1      25.614  27.580 -10.628  1.00  0.00    +0.000 O 
BRANCH   18   19
ATOM     19  C13 UNL A   1      24.901  27.932 -11.701  1.00  0.00    +0.000 C 
ATOM     21  O7  UNL A   1      23.678  28.027 -11.606  1.00  0.00    +0.000 O 
BRANCH   19   20
ATOM    121  H16 UNL A   1      25.894  27.370 -13.454  1.00  0.00    +0.000 H 
ATOM     20  C14 UNL A   1      25.552  28.267 -12.983  1.00  0.00    +0.000 C 
ATOM    119  H14 UNL A   1      26.384  28.914 -12.802  1.00  0.00    +0.000 H 
ATOM    120  H15 UNL A   1      24.848  28.759 -13.622  1.00  0.00    +0.000 H 
ENDBRANCH   19   20
ENDBRANCH   18   19
ENDBRANCH   17   18
BRANCH  102  103
ATOM    153  H48 UNL A   1      25.045  21.808  -9.605  1.00  0.00    +0.000 H 
ATOM    154  H49 UNL A   1      26.560  21.525 -10.427  1.00  0.00    +0.000 H 
ATOM    155  H50 UNL A   1      25.063  20.971 -11.139  1.00  0.00    +0.000 H 
ATOM    103  C72 UNL A   1      25.522  21.746 -10.560  1.00  0.00    +0.000 C 
ENDBRANCH  102  103
ENDBRANCH   23   22
ENDBRANCH   25   23
ENDBRANCH   26   25
ENDBRANCH   27   26
ENDBRANCH   28   27
ENDBRANCH   29   28
ENDBRANCH   30   29
ENDBRANCH   31   30
ENDBRANCH   32   31
ENDBRANCH   33   32
ENDBRANCH   35   33
ENDBRANCH   39   38
BRANCH   43   44
ATOM     44  C32 UNL A   1      22.063  29.195  -0.386  1.00  0.00    +0.000 C 
ATOM     45  C33 UNL A   1      22.331  29.381   0.980  1.00  0.00    +0.000 C 
ATOM     46  F1  UNL A   1      21.447  28.972   1.904  1.00  0.00    +0.000 F 
ATOM     47  C34 UNL A   1      23.488  30.029   1.403  1.00  0.00    +0.000 C 
ATOM     48  F2  UNL A   1      23.695  30.244   2.710  1.00  0.00    +0.000 F 
ATOM     49  C35 UNL A   1      24.421  30.464   0.474  1.00  0.00    +0.000 C 
ATOM     50  F3  UNL A   1      25.540  31.079   0.883  1.00  0.00    +0.000 F 
ATOM     51  C36 UNL A   1      24.191  30.269  -0.879  1.00  0.00    +0.000 C 
ATOM     52  F4  UNL A   1      25.098  30.675  -1.777  1.00  0.00    +0.000 F 
ATOM     53  C37 UNL A   1      23.016  29.654  -1.307  1.00  0.00    +0.000 C 
ATOM     54  F5  UNL A   1      22.815  29.499  -2.624  1.00  0.00    +0.000 F 
ENDBRANCH   43   44
BRANCH   60   61
ATOM     65  F7  UNL A   1      13.009  32.908  -3.376  1.00  0.00    +0.000 F 
ATOM     66  C46 UNL A   1      13.320  32.867  -1.036  1.00  0.00    +0.000 C 
ATOM     67  F8  UNL A   1      12.492  33.912  -0.893  1.00  0.00    +0.000 F 
ATOM     68  C47 UNL A   1      13.929  32.308   0.077  1.00  0.00    +0.000 C 
ATOM     69  F9  UNL A   1      13.671  32.796   1.299  1.00  0.00    +0.000 F 
ATOM     70  C48 UNL A   1      14.809  31.240  -0.072  1.00  0.00    +0.000 C 
ATOM     71  F10 UNL A   1      15.394  30.731   1.022  1.00  0.00    +0.000 F 
ATOM     61  C43 UNL A   1      15.070  30.689  -1.337  1.00  0.00    +0.000 C 
ATOM     62  C44 UNL A   1      14.424  31.256  -2.446  1.00  0.00    +0.000 C 
ATOM     63  F6  UNL A   1      14.650  30.776  -3.677  1.00  0.00    +0.000 F 
ATOM     64  C45 UNL A   1      13.574  32.348  -2.297  1.00  0.00    +0.000 C 
ENDBRANCH   60   61
BRANCH   75   76
ATOM     76  C52 UNL A   1      13.977  24.106  -3.359  1.00  0.00    +0.000 C 
ATOM     77  C53 UNL A   1      13.400  23.146  -2.516  1.00  0.00    +0.000 C 
ATOM     78  F11 UNL A   1      13.946  22.892  -1.317  1.00  0.00    +0.000 F 
ATOM     79  C54 UNL A   1      12.286  22.410  -2.916  1.00  0.00    +0.000 C 
ATOM     80  F12 UNL A   1      11.788  21.462  -2.112  1.00  0.00    +0.000 F 
ATOM     81  C55 UNL A   1      11.705  22.646  -4.153  1.00  0.00    +0.000 C 
ATOM     82  F13 UNL A   1      10.634  21.940  -4.538  1.00  0.00    +0.000 F 
ATOM     83  C56 UNL A   1      12.243  23.607  -4.995  1.00  0.00    +0.000 C 
ATOM     84  F14 UNL A   1      11.676  23.850  -6.184  1.00  0.00    +0.000 F 
ATOM     85  C57 UNL A   1      13.376  24.320  -4.609  1.00  0.00    +0.000 C 
ATOM     86  F15 UNL A   1      13.885  25.231  -5.451  1.00  0.00    +0.000 F 
ENDBRANCH   75   76
TORSDOF 25
ENDMDL
MODEL 2
REMARK VINA RESULT:      -9.8      2.007      3.846
ROOT
ATOM    138  H33 UNL A   1      20.043  31.330  -0.328  1.00  0.00    +0.000 H 
ATOM    139  H34 UNL A   1      17.497  31.867  -0.493  1.00  0.00    +0.000 H 
ATOM    140  H35 UNL A   1      18.055  27.889  -1.494  1.00  0.00    +0.000 H 
ATOM    141  H36 UNL A   1      15.681  22.360  -3.637  1.00  0.00    +0.000 H 
ATOM    142  H37 UNL A   1      18.141  21.808  -3.332  1.00  0.00    +0.000 H 
ATOM    143  H38 UNL A   1      17.594  25.791  -2.277  1.00  0.00    +0.000 H 
ATOM    144  H39 UNL A   1      12.674  26.682  -2.681  1.00  0.00    +0.000 H 
ATOM    145  H40 UNL A   1      13.200  29.111  -2.077  1.00  0.00    +0.000 H 
ATOM    146  H41 UNL A   1      22.887  26.796  -0.782  1.00  0.00    +0.000 H 
ATOM    147  H42 UNL A   1      22.481  24.519  -1.881  1.00  0.00    +0.000 H 
ATOM     39  C28 UNL A   1      19.738  24.003  -2.460  1.00  0.00    +0.000 C 
ATOM     40  C29 UNL A   1      20.345  25.278  -1.945  1.00  0.00    +0.000 C 
ATOM     41  N3  UNL A   1      19.763  26.415  -1.657  1.00  0.00    +0.000 N 
ATOM     42  C30 UNL A   1      20.770  27.244  -1.185  1.00  0.00    +0.000 C 
ATOM     43  C31 UNL A   1      20.691  28.548  -0.828  1.00  0.00    +0.000 C 
ATOM     55  C38 UNL A   1      19.478  29.321  -0.871  1.00  0.00    +0.000 C 
ATOM     56  C39 UNL A   1      19.300  30.662  -0.581  1.00  0.00    +0.000 C 
ATOM     57  C40 UNL A   1      17.937  30.955  -0.694  1.00  0.00    +0.000 C 
ATOM     58  C41 UNL A   1      17.275  29.814  -1.121  1.00  0.00    +0.000 C 
ATOM     59  N4  UNL A   1      18.233  28.817  -1.219  1.00  0.00    +0.000 N 
ATOM     60  C42 UNL A   1      15.874  29.648  -1.419  1.00  0.00    +0.000 C 
ATOM     72  C49 UNL A   1      15.300  28.495  -1.842  1.00  0.00    +0.000 C 
ATOM     73  N5  UNL A   1      15.889  27.262  -2.086  1.00  0.00    +0.000 N 
ATOM     74  C50 UNL A   1      14.919  26.465  -2.463  1.00  0.00    +0.000 C 
ATOM     75  C51 UNL A   1      14.983  25.022  -2.885  1.00  0.00    +0.000 C 
ATOM     87  C58 UNL A   1      16.176  24.401  -2.905  1.00  0.00    +0.000 C 
ATOM     88  C59 UNL A   1      16.405  23.014  -3.300  1.00  0.00    +0.000 C 
ATOM     89  C60 UNL A   1      17.707  22.726  -3.151  1.00  0.00    +0.000 C 
ATOM     90  C61 UNL A   1      18.413  23.924  -2.694  1.00  0.00    +0.000 C 
ATOM     91  N6  UNL A   1      17.425  24.868  -2.574  1.00  0.00    +0.000 N 
ATOM     92  C62 UNL A   1      13.593  27.098  -2.469  1.00  0.00    +0.000 C 
ATOM     93  C63 UNL A   1      13.888  28.344  -2.129  1.00  0.00    +0.000 C 
ATOM     94  C64 UNL A   1      21.987  26.464  -1.161  1.00  0.00    +0.000 C 
ATOM     95  C65 UNL A   1      21.794  25.265  -1.693  1.00  0.00    +0.000 C 
ENDROOT
BRANCH   39   38
ATOM     97  C67 UNL A   1      21.739  21.305  -4.180  1.00  0.00    +0.000 C 
ATOM     35  C24 UNL A   1      22.231  20.591  -3.083  1.00  0.00    +0.000 C 
ATOM     36  C25 UNL A   1      21.853  20.934  -1.784  1.00  0.00    +0.000 C 
ATOM     37  C26 UNL A   1      21.013  22.026  -1.581  1.00  0.00    +0.000 C 
ATOM     38  C27 UNL A   1      20.589  22.808  -2.669  1.00  0.00    +0.000 C 
ATOM    136  H31 UNL A   1      22.194  20.382  -0.982  1.00  0.00    +0.000 H 
ATOM    137  H32 UNL A   1      20.700  22.263  -0.626  1.00  0.00    +0.000 H 
ATOM    148  H43 UNL A   1      20.674  23.020  -4.773  1.00  0.00    +0.000 H 
ATOM    149  H44 UNL A   1      21.946  20.988  -5.140  1.00  0.00    +0.000 H 
ATOM     96  C66 UNL A   1      20.968  22.443  -3.970  1.00  0.00    +0.000 C 
BRANCH   35   33
ATOM     33  C23 UNL A   1      23.190  19.486  -3.270  1.00  0.00    +0.000 C 
ATOM     34  O9  UNL A   1      22.958  18.599  -4.083  1.00  0.00    +0.000 O 
BRANCH   33   32
ATOM    135  H30 UNL A   1      24.229  18.999  -1.626  1.00  0.00    +0.000 H 
ATOM     32  N2  UNL A   1      24.319  19.452  -2.496  1.00  0.00    +0.000 N 
BRANCH   32   31
ATOM    133  H28 UNL A   1      25.882  20.709  -2.033  1.00  0.00    +0.000 H 
ATOM    134  H29 UNL A   1      26.321  19.180  -2.812  1.00  0.00    +0.000 H 
ATOM     31  C22 UNL A   1      25.631  19.997  -2.791  1.00  0.00    +0.000 C 
BRANCH   31   30
ATOM    131  H26 UNL A   1      26.347  20.119  -4.777  1.00  0.00    +0.000 H 
ATOM    132  H27 UNL A   1      24.688  20.730  -4.508  1.00  0.00    +0.000 H 
ATOM     30  C21 UNL A   1      25.694  20.686  -4.146  1.00  0.00    +0.000 C 
BRANCH   30   29
ATOM    129  H24 UNL A   1      26.553  22.332  -3.123  1.00  0.00    +0.000 H 
ATOM    130  H25 UNL A   1      26.959  22.187  -4.867  1.00  0.00    +0.000 H 
ATOM     29  C20 UNL A   1      26.201  22.129  -4.114  1.00  0.00    +0.000 C 
BRANCH   29   28
ATOM     28  C19 UNL A   1      25.174  23.208  -4.477  1.00  0.00    +0.000 C 
ATOM    127  H22 UNL A   1      24.361  22.731  -4.983  1.00  0.00    +0.000 H 
ATOM    128  H23 UNL A   1      24.898  23.671  -3.553  1.00  0.00    +0.000 H 
BRANCH   28   27
ATOM     27  C18 UNL A   1      25.685  24.338  -5.373  1.00  0.00    +0.000 C 
ATOM    125  H20 UNL A   1      25.085  24.367  -6.259  1.00  0.00    +0.000 H 
ATOM    126  H21 UNL A   1      25.615  25.243  -4.805  1.00  0.00    +0.000 H 
BRANCH   27   26
ATOM     26  C17 UNL A   1      27.134  24.183  -5.782  1.00  0.00    +0.000 C 
ATOM    123  H18 UNL A   1      27.744  24.765  -5.124  1.00  0.00    +0.000 H 
ATOM    124  H19 UNL A   1      27.385  23.144  -5.722  1.00  0.00    +0.000 H 
BRANCH   26   25
ATOM     25  N1  UNL A   1      27.361  24.620  -7.141  1.00  0.00    +0.000 N 
ATOM    122  H17 UNL A   1      27.530  25.577  -7.294  1.00  0.00    +0.000 H 
BRANCH   25   23
ATOM     23  C16 UNL A   1      27.356  23.791  -8.225  1.00  0.00    +0.000 C 
ATOM     24  O8  UNL A   1      26.405  23.064  -8.459  1.00  0.00    +0.000 O 
BRANCH   23   22
ATOM      2  C2  UNL A   1      31.741  19.740  -9.631  1.00  0.00    +0.000 C 
ATOM      3  C3  UNL A   1      33.150  19.885 -10.077  1.00  0.00    +0.000 C 
ATOM      4  O1  UNL A   1      34.019  19.046 -10.023  1.00  0.00    +0.000 O 
ATOM      5  O2  UNL A   1      33.279  21.173 -10.503  1.00  0.00    +0.000 O 
ATOM      6  C4  UNL A   1      32.044  21.907 -10.289  1.00  0.00    +0.000 C 
ATOM      7  C5  UNL A   1      31.330  21.110  -9.206  1.00  0.00    +0.000 C 
ATOM      8  C6  UNL A   1      29.869  21.422  -8.850  1.00  0.00    +0.000 C 
ATOM     17  C12 UNL A   1      29.692  22.945  -8.458  1.00  0.00    +0.000 C 
ATOM     22  C15 UNL A   1      28.599  23.806  -9.075  1.00  0.00    +0.000 C 
ATOM    150  H45 UNL A   1      27.366  24.784 -10.270  1.00  0.00    +0.000 H 
ATOM    152  H47 UNL A   1      30.701  24.946 -13.020  1.00  0.00    +0.000 H 
ATOM    151  H46 UNL A   1      28.239  25.712 -11.442  1.00  0.00    +0.000 H 
ATOM    156  H51 UNL A   1      31.013  21.063 -11.520  1.00  0.00    +0.000 H 
ATOM     98  C68 UNL A   1      28.374  24.603 -10.141  1.00  0.00    +0.000 C 
ATOM     99  C69 UNL A   1      29.175  25.276 -11.160  1.00  0.00    +0.000 C 
ATOM    100  O10 UNL A   1      30.525  25.584 -10.840  1.00  0.00    +0.000 O 
ATOM    101  C70 UNL A   1      30.333  24.828 -12.022  1.00  0.00    +0.000 C 
ATOM    102  C71 UNL A   1      30.557  23.320 -12.157  1.00  0.00    +0.000 C 
ATOM    104  O11 UNL A   1      31.946  23.045 -12.440  1.00  0.00    +0.000 O 
ATOM    105  C73 UNL A   1      31.330  22.083 -11.588  1.00  0.00    +0.000 C 
ATOM    108  H3  UNL A   1      32.152  22.917  -9.950  1.00  0.00    +0.000 H 
ATOM    109  H4  UNL A   1      31.603  21.360  -8.201  1.00  0.00    +0.000 H 
ATOM    110  H5  UNL A   1      29.615  20.857  -7.976  1.00  0.00    +0.000 H 
ATOM    118  H13 UNL A   1      28.819  23.018  -7.843  1.00  0.00    +0.000 H 
BRANCH    2    1
ATOM      1  C1  UNL A   1      31.093  18.582  -9.773  1.00  0.00    +0.000 C 
ATOM    106  H1  UNL A   1      30.914  17.986  -8.950  1.00  0.00    +0.000 H 
ATOM    107  H2  UNL A   1      30.771  18.282 -10.706  1.00  0.00    +0.000 H 
ENDBRANCH    2    1
BRANCH    8    9
ATOM      9  O3  UNL A   1      28.944  20.965  -9.858  1.00  0.00    +0.000 O 
BRANCH    9   10
ATOM     10  C7  UNL A   1      27.914  20.065  -9.648  1.00  0.00    +0.000 C 
ATOM     11  O4  UNL A   1      27.480  19.958  -8.504  1.00  0.00    +0.000 O 
BRANCH   10   12
ATOM    114  H9  UNL A   1      27.122  18.361 -12.841  1.00  0.00    +0.000 H 
ATOM     12  C8  UNL A   1      27.062  19.569 -10.811  1.00  0.00    +0.000 C 
ATOM     14  O5  UNL A   1      26.596  18.220 -10.531  1.00  0.00    +0.000 O 
ATOM     15  C10 UNL A   1      27.249  18.370 -11.778  1.00  0.00    +0.000 C 
BRANCH   12   13
ATOM    113  H8  UNL A   1      24.982  19.806 -11.218  1.00  0.00    +0.000 H 
ATOM     13  C9  UNL A   1      25.844  20.431 -11.114  1.00  0.00    +0.000 C 
ATOM    111  H6  UNL A   1      26.007  20.969 -12.025  1.00  0.00    +0.000 H 
ATOM    112  H7  UNL A   1      25.689  21.124 -10.313  1.00  0.00    +0.000 H 
ENDBRANCH   12   13
BRANCH   15   16
ATOM    115  H10 UNL A   1      27.956  16.423 -12.099  1.00  0.00    +0.000 H 
ATOM    116  H11 UNL A   1      28.977  17.410 -11.080  1.00  0.00    +0.000 H 
ATOM    117  H12 UNL A   1      28.941  17.681 -12.806  1.00  0.00    +0.000 H 
ATOM     16  C11 UNL A   1      28.358  17.404 -11.952  1.00  0.00    +0.000 C 
ENDBRANCH   15   16
ENDBRANCH   10   12
ENDBRANCH    9   10
ENDBRANCH    8    9
BRANCH   17   18
ATOM     18  O6  UNL A   1      30.768  23.517  -7.614  1.00  0.00    +0.000 O 
BRANCH   18   19
ATOM     19  C13 UNL A   1      31.240  23.603  -6.367  1.00  0.00    +0.000 C 
ATOM     21  O7  UNL A   1      30.781  24.455  -5.608  1.00  0.00    +0.000 O 
BRANCH   19   20
ATOM    121  H16 UNL A   1      31.778  21.860  -5.343  1.00  0.00    +0.000 H 
ATOM     20  C14 UNL A   1      32.259  22.661  -5.863  1.00  0.00    +0.000 C 
ATOM    119  H14 UNL A   1      32.919  23.174  -5.195  1.00  0.00    +0.000 H 
ATOM    120  H15 UNL A   1      32.819  22.267  -6.685  1.00  0.00    +0.000 H 
ENDBRANCH   19   20
ENDBRANCH   18   19
ENDBRANCH   17   18
BRANCH  102  103
ATOM    153  H48 UNL A   1      29.642  23.613 -14.067  1.00  0.00    +0.000 H 
ATOM    154  H49 UNL A   1      28.661  22.713 -12.937  1.00  0.00    +0.000 H 
ATOM    155  H50 UNL A   1      30.028  21.947 -13.709  1.00  0.00    +0.000 H 
ATOM    103  C72 UNL A   1      29.653  22.864 -13.304  1.00  0.00    +0.000 C 
ENDBRANCH  102  103
ENDBRANCH   23   22
ENDBRANCH   25   23
ENDBRANCH   26   25
ENDBRANCH   27   26
ENDBRANCH   28   27
ENDBRANCH   29   28
ENDBRANCH   30   29
ENDBRANCH   31   30
ENDBRANCH   32   31
ENDBRANCH   33   32
ENDBRANCH   35   33
ENDBRANCH   39   38
BRANCH   43   44
ATOM     44  C32 UNL A   1      21.951  29.219  -0.359  1.00  0.00    +0.000 C 
ATOM     45  C33 UNL A   1      22.249  29.362   1.006  1.00  0.00    +0.000 C 
ATOM     46  F1  UNL A   1      21.381  28.932   1.935  1.00  0.00    +0.000 F 
ATOM     47  C34 UNL A   1      23.420  29.987   1.424  1.00  0.00    +0.000 C 
ATOM     48  F2  UNL A   1      23.656  30.161   2.732  1.00  0.00    +0.000 F 
ATOM     49  C35 UNL A   1      24.337  30.443   0.489  1.00  0.00    +0.000 C 
ATOM     50  F3  UNL A   1      25.469  31.037   0.893  1.00  0.00    +0.000 F 
ATOM     51  C36 UNL A   1      24.077  30.291  -0.864  1.00  0.00    +0.000 C 
ATOM     52  F4  UNL A   1      24.969  30.717  -1.769  1.00  0.00    +0.000 F 
ATOM     53  C37 UNL A   1      22.889  29.699  -1.285  1.00  0.00    +0.000 C 
ATOM     54  F5  UNL A   1      22.658  29.586  -2.602  1.00  0.00    +0.000 F 
ENDBRANCH   43   44
BRANCH   60   61
ATOM     65  F7  UNL A   1      13.665  33.102   1.274  1.00  0.00    +0.000 F 
ATOM     66  C46 UNL A   1      13.368  33.139  -1.068  1.00  0.00    +0.000 C 
ATOM     67  F8  UNL A   1      12.588  34.225  -0.966  1.00  0.00    +0.000 F 
ATOM     68  C47 UNL A   1      13.611  32.575  -2.311  1.00  0.00    +0.000 C 
ATOM     69  F9  UNL A   1      13.088  33.129  -3.413  1.00  0.00    +0.000 F 
ATOM     70  C48 UNL A   1      14.399  31.432  -2.416  1.00  0.00    +0.000 C 
ATOM     71  F10 UNL A   1      14.604  30.901  -3.629  1.00  0.00    +0.000 F 
ATOM     61  C43 UNL A   1      14.985  30.851  -1.280  1.00  0.00    +0.000 C 
ATOM     62  C44 UNL A   1      14.744  31.453  -0.036  1.00  0.00    +0.000 C 
ATOM     63  F6  UNL A   1      15.269  30.930   1.081  1.00  0.00    +0.000 F 
ATOM     64  C45 UNL A   1      13.925  32.575   0.069  1.00  0.00    +0.000 C 
ENDBRANCH   60   61
BRANCH   75   76
ATOM     76  C52 UNL A   1      13.754  24.290  -3.295  1.00  0.00    +0.000 C 
ATOM     77  C53 UNL A   1      13.150  23.356  -2.442  1.00  0.00    +0.000 C 
ATOM     78  F11 UNL A   1      13.687  23.105  -1.238  1.00  0.00    +0.000 F 
ATOM     79  C54 UNL A   1      12.021  22.642  -2.837  1.00  0.00    +0.000 C 
ATOM     80  F12 UNL A   1      11.497  21.716  -2.022  1.00  0.00    +0.000 F 
ATOM     81  C55 UNL A   1      11.450  22.875  -4.079  1.00  0.00    +0.000 C 
ATOM     82  F13 UNL A   1      10.363  22.190  -4.459  1.00  0.00    +0.000 F 
ATOM     83  C56 UNL A   1      12.014  23.812  -4.932  1.00  0.00    +0.000 C 
ATOM     84  F14 UNL A   1      11.458  24.052  -6.126  1.00  0.00    +0.000 F 
ATOM     85  C57 UNL A   1      13.163  24.501  -4.551  1.00  0.00    +0.000 C 
ATOM     86  F15 UNL A   1      13.696  25.389  -5.403  1.00  0.00    +0.000 F 
ENDBRANCH   75   76
TORSDOF 25
ENDMDL
MODEL 3
REMARK VINA RESULT:      -9.5     46.859     52.342
ROOT
ATOM    138  H33 UNL A   1      23.834  -9.472  30.164  1.00  0.00    +0.000 H 
ATOM    139  H34 UNL A   1      22.516  -9.385  32.412  1.00  0.00    +0.000 H 
ATOM    140  H35 UNL A   1      25.814 -11.831  32.933  1.00  0.00    +0.000 H 
ATOM    141  H36 UNL A   1      29.149 -15.882  36.575  1.00  0.00    +0.000 H 
ATOM    142  H37 UNL A   1      30.506 -15.845  34.429  1.00  0.00    +0.000 H 
ATOM    143  H38 UNL A   1      27.227 -13.347  33.900  1.00  0.00    +0.000 H 
ATOM    144  H39 UNL A   1      24.776 -13.311  38.278  1.00  0.00    +0.000 H 
ATOM    145  H40 UNL A   1      23.027 -11.836  37.133  1.00  0.00    +0.000 H 
ATOM    146  H41 UNL A   1      28.527 -11.658  28.731  1.00  0.00    +0.000 H 
ATOM    147  H42 UNL A   1      29.998 -13.534  29.665  1.00  0.00    +0.000 H 
ATOM     39  C28 UNL A   1      29.392 -14.227  32.363  1.00  0.00    +0.000 C 
ATOM     40  C29 UNL A   1      28.649 -13.274  31.469  1.00  0.00    +0.000 C 
ATOM     41  N3  UNL A   1      27.576 -12.567  31.722  1.00  0.00    +0.000 N 
ATOM     42  C30 UNL A   1      27.332 -11.830  30.572  1.00  0.00    +0.000 C 
ATOM     43  C31 UNL A   1      26.294 -11.003  30.305  1.00  0.00    +0.000 C 
ATOM     55  C38 UNL A   1      25.224 -10.730  31.229  1.00  0.00    +0.000 C 
ATOM     56  C39 UNL A   1      24.098  -9.950  31.039  1.00  0.00    +0.000 C 
ATOM     57  C40 UNL A   1      23.379  -9.924  32.238  1.00  0.00    +0.000 C 
ATOM     58  C41 UNL A   1      24.019 -10.742  33.154  1.00  0.00    +0.000 C 
ATOM     59  N4  UNL A   1      25.154 -11.226  32.524  1.00  0.00    +0.000 N 
ATOM     60  C42 UNL A   1      23.624 -11.061  34.504  1.00  0.00    +0.000 C 
ATOM     72  C49 UNL A   1      24.303 -11.883  35.341  1.00  0.00    +0.000 C 
ATOM     73  N5  UNL A   1      25.478 -12.586  35.114  1.00  0.00    +0.000 N 
ATOM     74  C50 UNL A   1      25.740 -13.223  36.228  1.00  0.00    +0.000 C 
ATOM     75  C51 UNL A   1      26.872 -14.164  36.544  1.00  0.00    +0.000 C 
ATOM     87  C58 UNL A   1      27.779 -14.436  35.587  1.00  0.00    +0.000 C 
ATOM     88  C59 UNL A   1      28.923 -15.331  35.732  1.00  0.00    +0.000 C 
ATOM     89  C60 UNL A   1      29.632 -15.322  34.593  1.00  0.00    +0.000 C 
ATOM     90  C61 UNL A   1      28.966 -14.454  33.621  1.00  0.00    +0.000 C 
ATOM     91  N6  UNL A   1      27.876 -13.970  34.299  1.00  0.00    +0.000 N 
ATOM     92  C62 UNL A   1      24.773 -12.969  37.305  1.00  0.00    +0.000 C 
ATOM     93  C63 UNL A   1      23.894 -12.185  36.697  1.00  0.00    +0.000 C 
ATOM     94  C64 UNL A   1      28.402 -12.122  29.644  1.00  0.00    +0.000 C 
ATOM     95  C65 UNL A   1      29.200 -13.066  30.121  1.00  0.00    +0.000 C 
ENDROOT
BRANCH   39   38
ATOM     97  C67 UNL A   1      33.036 -14.876  31.630  1.00  0.00    +0.000 C 
ATOM     35  C24 UNL A   1      32.971 -16.132  31.020  1.00  0.00    +0.000 C 
ATOM     36  C25 UNL A   1      31.739 -16.740  30.774  1.00  0.00    +0.000 C 
ATOM     37  C26 UNL A   1      30.568 -16.104  31.180  1.00  0.00    +0.000 C 
ATOM     38  C27 UNL A   1      30.627 -14.886  31.879  1.00  0.00    +0.000 C 
ATOM    136  H31 UNL A   1      31.697 -17.652  30.294  1.00  0.00    +0.000 H 
ATOM    137  H32 UNL A   1      29.652 -16.531  30.969  1.00  0.00    +0.000 H 
ATOM    148  H43 UNL A   1      31.926 -13.396  32.633  1.00  0.00    +0.000 H 
ATOM    149  H44 UNL A   1      33.942 -14.391  31.723  1.00  0.00    +0.000 H 
ATOM     96  C66 UNL A   1      31.873 -14.283  32.109  1.00  0.00    +0.000 C 
BRANCH   35   33
ATOM     33  C23 UNL A   1      34.202 -16.862  30.660  1.00  0.00    +0.000 C 
ATOM     34  O9  UNL A   1      34.913 -17.341  31.535  1.00  0.00    +0.000 O 
BRANCH   33   32
ATOM    135  H30 UNL A   1      35.049 -16.195  28.969  1.00  0.00    +0.000 H 
ATOM     32  N2  UNL A   1      34.551 -16.960  29.339  1.00  0.00    +0.000 N 
BRANCH   32   31
ATOM    133  H28 UNL A   1      35.205 -18.529  28.179  1.00  0.00    +0.000 H 
ATOM    134  H29 UNL A   1      33.593 -18.710  28.892  1.00  0.00    +0.000 H 
ATOM     31  C22 UNL A   1      34.281 -18.044  28.415  1.00  0.00    +0.000 C 
BRANCH   31   30
ATOM    131  H26 UNL A   1      34.399 -17.139  26.506  1.00  0.00    +0.000 H 
ATOM    132  H27 UNL A   1      33.178 -18.433  26.681  1.00  0.00    +0.000 H 
ATOM     30  C21 UNL A   1      33.636 -17.571  27.119  1.00  0.00    +0.000 C 
BRANCH   30   29
ATOM    129  H24 UNL A   1      31.732 -16.788  26.616  1.00  0.00    +0.000 H 
ATOM    130  H25 UNL A   1      32.245 -16.580  28.325  1.00  0.00    +0.000 H 
ATOM     29  C20 UNL A   1      32.523 -16.536  27.292  1.00  0.00    +0.000 C 
BRANCH   29   28
ATOM     28  C19 UNL A   1      32.918 -15.078  27.031  1.00  0.00    +0.000 C 
ATOM    127  H22 UNL A   1      33.984 -15.035  26.957  1.00  0.00    +0.000 H 
ATOM    128  H23 UNL A   1      32.409 -14.794  26.134  1.00  0.00    +0.000 H 
BRANCH   28   27
ATOM     27  C18 UNL A   1      32.480 -14.069  28.094  1.00  0.00    +0.000 C 
ATOM    125  H20 UNL A   1      31.517 -13.687  27.823  1.00  0.00    +0.000 H 
ATOM    126  H21 UNL A   1      32.463 -14.588  29.030  1.00  0.00    +0.000 H 
BRANCH   27   26
ATOM     26  C17 UNL A   1      33.430 -12.901  28.253  1.00  0.00    +0.000 C 
ATOM    123  H18 UNL A   1      33.565 -12.705  29.296  1.00  0.00    +0.000 H 
ATOM    124  H19 UNL A   1      34.356 -13.162  27.786  1.00  0.00    +0.000 H 
BRANCH   26   25
ATOM     25  N1  UNL A   1      32.928 -11.706  27.613  1.00  0.00    +0.000 N 
ATOM    122  H17 UNL A   1      32.700 -10.939  28.185  1.00  0.00    +0.000 H 
BRANCH   25   23
ATOM     23  C16 UNL A   1      32.750 -11.573  26.267  1.00  0.00    +0.000 C 
ATOM     24  O8  UNL A   1      33.677 -11.733  25.489  1.00  0.00    +0.000 O 
BRANCH   23   22
ATOM      2  C2  UNL A   1      30.383  -7.156  22.731  1.00  0.00    +0.000 C 
ATOM      3  C3  UNL A   1      29.043  -6.521  22.663  1.00  0.00    +0.000 C 
ATOM      4  O1  UNL A   1      28.767  -5.458  22.158  1.00  0.00    +0.000 O 
ATOM      5  O2  UNL A   1      28.198  -7.353  23.335  1.00  0.00    +0.000 O 
ATOM      6  C4  UNL A   1      28.930  -8.469  23.909  1.00  0.00    +0.000 C 
ATOM      7  C5  UNL A   1      30.364  -7.960  23.988  1.00  0.00    +0.000 C 
ATOM      8  C6  UNL A   1      31.511  -8.924  24.327  1.00  0.00    +0.000 C 
ATOM     17  C12 UNL A   1      31.238  -9.672  25.695  1.00  0.00    +0.000 C 
ATOM     22  C15 UNL A   1      31.367 -11.185  25.816  1.00  0.00    +0.000 C 
ATOM    150  H45 UNL A   1      31.240 -13.146  25.624  1.00  0.00    +0.000 H 
ATOM    152  H47 UNL A   1      27.227 -12.408  24.190  1.00  0.00    +0.000 H 
ATOM    151  H46 UNL A   1      29.590 -13.666  25.596  1.00  0.00    +0.000 H 
ATOM    156  H51 UNL A   1      29.370  -9.322  22.371  1.00  0.00    +0.000 H 
ATOM     98  C68 UNL A   1      30.638 -12.310  25.667  1.00  0.00    +0.000 C 
ATOM     99  C69 UNL A   1      29.225 -12.660  25.548  1.00  0.00    +0.000 C 
ATOM    100  O10 UNL A   1      28.275 -11.765  26.108  1.00  0.00    +0.000 O 
ATOM    101  C70 UNL A   1      28.084 -12.082  24.741  1.00  0.00    +0.000 C 
ATOM    102  C71 UNL A   1      28.454 -11.180  23.561  1.00  0.00    +0.000 C 
ATOM    104  O11 UNL A   1      27.385 -10.247  23.291  1.00  0.00    +0.000 O 
ATOM    105  C73 UNL A   1      28.688  -9.701  23.102  1.00  0.00    +0.000 C 
ATOM    108  H3  UNL A   1      28.626  -8.775  24.889  1.00  0.00    +0.000 H 
ATOM    109  H4  UNL A   1      30.602  -7.404  24.870  1.00  0.00    +0.000 H 
ATOM    110  H5  UNL A   1      32.396  -8.342  24.477  1.00  0.00    +0.000 H 
ATOM    118  H13 UNL A   1      32.186  -9.981  26.084  1.00  0.00    +0.000 H 
BRANCH    2    1
ATOM      1  C1  UNL A   1      31.253  -7.030  21.726  1.00  0.00    +0.000 C 
ATOM    106  H1  UNL A   1      31.034  -6.414  20.928  1.00  0.00    +0.000 H 
ATOM    107  H2  UNL A   1      32.144  -7.549  21.747  1.00  0.00    +0.000 H 
ENDBRANCH    2    1
BRANCH    8    9
ATOM      9  O3  UNL A   1      31.836  -9.805  23.232  1.00  0.00    +0.000 O 
BRANCH    9   10
ATOM     10  C7  UNL A   1      33.117 -10.124  22.817  1.00  0.00    +0.000 C 
ATOM     11  O4  UNL A   1      33.252 -11.125  22.117  1.00  0.00    +0.000 O 
BRANCH   10   12
ATOM    114  H9  UNL A   1      35.284  -7.440  24.169  1.00  0.00    +0.000 H 
ATOM     12  C8  UNL A   1      34.226  -9.079  22.834  1.00  0.00    +0.000 C 
ATOM     14  O5  UNL A   1      35.443  -9.670  23.371  1.00  0.00    +0.000 O 
ATOM     15  C10 UNL A   1      35.041  -8.469  24.006  1.00  0.00    +0.000 C 
BRANCH   12   13
ATOM    113  H8  UNL A   1      33.819  -7.755  21.212  1.00  0.00    +0.000 H 
ATOM     13  C9  UNL A   1      34.556  -8.486  21.471  1.00  0.00    +0.000 C 
ATOM    111  H6  UNL A   1      34.559  -9.265  20.736  1.00  0.00    +0.000 H 
ATOM    112  H7  UNL A   1      35.520  -8.024  21.506  1.00  0.00    +0.000 H 
ENDBRANCH   12   13
BRANCH   15   16
ATOM    115  H10 UNL A   1      34.461  -9.559  25.700  1.00  0.00    +0.000 H 
ATOM    116  H11 UNL A   1      34.332  -7.825  25.871  1.00  0.00    +0.000 H 
ATOM    117  H12 UNL A   1      35.901  -8.594  25.913  1.00  0.00    +0.000 H 
ATOM     16  C11 UNL A   1      34.926  -8.622  25.474  1.00  0.00    +0.000 C 
ENDBRANCH   15   16
ENDBRANCH   10   12
ENDBRANCH    9   10
ENDBRANCH    8    9
BRANCH   17   18
ATOM     18  O6  UNL A   1      30.666  -8.837  26.778  1.00  0.00    +0.000 O 
BRANCH   18   19
ATOM     19  C13 UNL A   1      30.854  -8.401  28.026  1.00  0.00    +0.000 C 
ATOM     21  O7  UNL A   1      30.860  -7.191  28.246  1.00  0.00    +0.000 O 
BRANCH   19   20
ATOM    121  H16 UNL A   1      30.028  -9.594  29.533  1.00  0.00    +0.000 H 
ATOM     20  C14 UNL A   1      30.996  -9.339  29.157  1.00  0.00    +0.000 C 
ATOM    119  H14 UNL A   1      31.570  -8.879  29.933  1.00  0.00    +0.000 H 
ATOM    120  H15 UNL A   1      31.494 -10.226  28.824  1.00  0.00    +0.000 H 
ENDBRANCH   19   20
ENDBRANCH   18   19
ENDBRANCH   17   18
BRANCH  102  103
ATOM    153  H48 UNL A   1      28.103 -11.790  21.543  1.00  0.00    +0.000 H 
ATOM    154  H49 UNL A   1      28.404 -13.111  22.646  1.00  0.00    +0.000 H 
ATOM    155  H50 UNL A   1      29.726 -12.102  22.110  1.00  0.00    +0.000 H 
ATOM    103  C72 UNL A   1      28.689 -12.117  22.376  1.00  0.00    +0.000 C 
ENDBRANCH  102  103
ENDBRANCH   23   22
ENDBRANCH   25   23
ENDBRANCH   26   25
ENDBRANCH   27   26
ENDBRANCH   28   27
ENDBRANCH   29   28
ENDBRANCH   30   29
ENDBRANCH   31   30
ENDBRANCH   32   31
ENDBRANCH   33   32
ENDBRANCH   35   33
ENDBRANCH   39   38
BRANCH   43   44
ATOM     44  C32 UNL A   1      26.265 -10.331  28.961  1.00  0.00    +0.000 C 
ATOM     45  C33 UNL A   1      25.432 -10.783  27.925  1.00  0.00    +0.000 C 
ATOM     46  F1  UNL A   1      24.662 -11.868  28.103  1.00  0.00    +0.000 F 
ATOM     47  C34 UNL A   1      25.419 -10.150  26.686  1.00  0.00    +0.000 C 
ATOM     48  F2  UNL A   1      24.655 -10.634  25.695  1.00  0.00    +0.000 F 
ATOM     49  C35 UNL A   1      26.203  -9.027  26.469  1.00  0.00    +0.000 C 
ATOM     50  F3  UNL A   1      26.182  -8.412  25.278  1.00  0.00    +0.000 F 
ATOM     51  C36 UNL A   1      27.015  -8.547  27.484  1.00  0.00    +0.000 C 
ATOM     52  F4  UNL A   1      27.763  -7.453  27.283  1.00  0.00    +0.000 F 
ATOM     53  C37 UNL A   1      27.058  -9.200  28.714  1.00  0.00    +0.000 C 
ATOM     54  F5  UNL A   1      27.871  -8.722  29.669  1.00  0.00    +0.000 F 
ENDBRANCH   43   44
BRANCH   60   61
ATOM     65  F7  UNL A   1      18.799 -11.264  35.365  1.00  0.00    +0.000 F 
ATOM     66  C46 UNL A   1      19.981  -9.333  36.035  1.00  0.00    +0.000 C 
ATOM     67  F8  UNL A   1      18.852  -8.790  36.513  1.00  0.00    +0.000 F 
ATOM     68  C47 UNL A   1      21.173  -8.629  36.105  1.00  0.00    +0.000 C 
ATOM     69  F9  UNL A   1      21.203  -7.416  36.675  1.00  0.00    +0.000 F 
ATOM     70  C48 UNL A   1      22.341  -9.180  35.586  1.00  0.00    +0.000 C 
ATOM     71  F10 UNL A   1      23.475  -8.468  35.655  1.00  0.00    +0.000 F 
ATOM     61  C43 UNL A   1      22.343 -10.462  35.013  1.00  0.00    +0.000 C 
ATOM     62  C44 UNL A   1      21.130 -11.166  34.974  1.00  0.00    +0.000 C 
ATOM     63  F6  UNL A   1      21.076 -12.388  34.426  1.00  0.00    +0.000 F 
ATOM     64  C45 UNL A   1      19.957 -10.596  35.462  1.00  0.00    +0.000 C 
ENDBRANCH   60   61
BRANCH   75   76
ATOM     76  C52 UNL A   1      26.985 -14.804  37.882  1.00  0.00    +0.000 C 
ATOM     77  C53 UNL A   1      27.662 -14.169  38.932  1.00  0.00    +0.000 C 
ATOM     78  F11 UNL A   1      28.228 -12.968  38.734  1.00  0.00    +0.000 F 
ATOM     79  C54 UNL A   1      27.801 -14.781  40.176  1.00  0.00    +0.000 C 
ATOM     80  F12 UNL A   1      28.500 -14.174  41.144  1.00  0.00    +0.000 F 
ATOM     81  C55 UNL A   1      27.234 -16.025  40.406  1.00  0.00    +0.000 C 
ATOM     82  F13 UNL A   1      27.366 -16.613  41.602  1.00  0.00    +0.000 F 
ATOM     83  C56 UNL A   1      26.538 -16.663  39.391  1.00  0.00    +0.000 C 
ATOM     84  F14 UNL A   1      25.975 -17.858  39.612  1.00  0.00    +0.000 F 
ATOM     85  C57 UNL A   1      26.427 -16.066  38.137  1.00  0.00    +0.000 C 
ATOM     86  F15 UNL A   1      25.764 -16.715  37.169  1.00  0.00    +0.000 F 
ENDBRANCH   75   76
TORSDOF 25
ENDMDL
MODEL 4
REMARK VINA RESULT:      -9.4      1.095      3.439
ROOT
ATOM    138  H33 UNL A   1      19.945  31.271  -0.369  1.00  0.00    +0.000 H 
ATOM    139  H34 UNL A   1      17.388  31.746  -0.548  1.00  0.00    +0.000 H 
ATOM    140  H35 UNL A   1      18.050  27.789  -1.568  1.00  0.00    +0.000 H 
ATOM    141  H36 UNL A   1      15.826  22.217  -3.760  1.00  0.00    +0.000 H 
ATOM    142  H37 UNL A   1      18.297  21.723  -3.442  1.00  0.00    +0.000 H 
ATOM    143  H38 UNL A   1      17.646  25.685  -2.367  1.00  0.00    +0.000 H 
ATOM    144  H39 UNL A   1      12.707  26.458  -2.798  1.00  0.00    +0.000 H 
ATOM    145  H40 UNL A   1      13.170  28.896  -2.176  1.00  0.00    +0.000 H 
ATOM    146  H41 UNL A   1      22.903  26.811  -0.832  1.00  0.00    +0.000 H 
ATOM    147  H42 UNL A   1      22.560  24.532  -1.946  1.00  0.00    +0.000 H 
ATOM     39  C28 UNL A   1      19.834  23.952  -2.547  1.00  0.00    +0.000 C 
ATOM     40  C29 UNL A   1      20.406  25.238  -2.020  1.00  0.00    +0.000 C 
ATOM     41  N3  UNL A   1      19.794  26.358  -1.729  1.00  0.00    +0.000 N 
ATOM     42  C30 UNL A   1      20.778  27.209  -1.246  1.00  0.00    +0.000 C 
ATOM     43  C31 UNL A   1      20.665  28.509  -0.882  1.00  0.00    +0.000 C 
ATOM     55  C38 UNL A   1      19.434  29.252  -0.928  1.00  0.00    +0.000 C 
ATOM     56  C39 UNL A   1      19.220  30.587  -0.631  1.00  0.00    +0.000 C 
ATOM     57  C40 UNL A   1      17.851  30.846  -0.751  1.00  0.00    +0.000 C 
ATOM     58  C41 UNL A   1      17.221  29.693  -1.189  1.00  0.00    +0.000 C 
ATOM     59  N4  UNL A   1      18.203  28.720  -1.286  1.00  0.00    +0.000 N 
ATOM     60  C42 UNL A   1      15.826  29.493  -1.497  1.00  0.00    +0.000 C 
ATOM     72  C49 UNL A   1      15.283  28.330  -1.931  1.00  0.00    +0.000 C 
ATOM     73  N5  UNL A   1      15.904  27.113  -2.178  1.00  0.00    +0.000 N 
ATOM     74  C50 UNL A   1      14.956  26.295  -2.566  1.00  0.00    +0.000 C 
ATOM     75  C51 UNL A   1      15.058  24.856  -2.997  1.00  0.00    +0.000 C 
ATOM     87  C58 UNL A   1      16.266  24.265  -3.013  1.00  0.00    +0.000 C 
ATOM     88  C59 UNL A   1      16.532  22.887  -3.414  1.00  0.00    +0.000 C 
ATOM     89  C60 UNL A   1      17.840  22.630  -3.259  1.00  0.00    +0.000 C 
ATOM     90  C61 UNL A   1      18.513  23.842  -2.790  1.00  0.00    +0.000 C 
ATOM     91  N6  UNL A   1      17.501  24.760  -2.670  1.00  0.00    +0.000 N 
ATOM     92  C62 UNL A   1      13.615  26.895  -2.577  1.00  0.00    +0.000 C 
ATOM     93  C63 UNL A   1      13.878  28.146  -2.228  1.00  0.00    +0.000 C 
ATOM     94  C64 UNL A   1      22.014  26.459  -1.219  1.00  0.00    +0.000 C 
ATOM     95  C65 UNL A   1      21.853  25.260  -1.758  1.00  0.00    +0.000 C 
ENDROOT
BRANCH   39   38
ATOM     97  C67 UNL A   1      22.062  20.991  -1.834  1.00  0.00    +0.000 C 
ATOM     35  C24 UNL A   1      22.338  20.541  -3.128  1.00  0.00    +0.000 C 
ATOM     36  C25 UNL A   1      21.868  21.241  -4.240  1.00  0.00    +0.000 C 
ATOM     37  C26 UNL A   1      21.079  22.374  -4.053  1.00  0.00    +0.000 C 
ATOM     38  C27 UNL A   1      20.716  22.779  -2.757  1.00  0.00    +0.000 C 
ATOM    136  H31 UNL A   1      22.103  20.922  -5.193  1.00  0.00    +0.000 H 
ATOM    137  H32 UNL A   1      20.758  22.917  -4.869  1.00  0.00    +0.000 H 
ATOM    148  H43 UNL A   1      20.933  22.354  -0.695  1.00  0.00    +0.000 H 
ATOM    149  H44 UNL A   1      22.491  20.524  -1.020  1.00  0.00    +0.000 H 
ATOM     96  C66 UNL A   1      21.207  22.072  -1.649  1.00  0.00    +0.000 C 
BRANCH   35   33
ATOM     33  C23 UNL A   1      23.098  19.296  -3.349  1.00  0.00    +0.000 C 
ATOM     34  O9  UNL A   1      22.565  18.207  -3.168  1.00  0.00    +0.000 O 
BRANCH   33   32
ATOM    135  H30 UNL A   1      24.677  18.830  -4.494  1.00  0.00    +0.000 H 
ATOM     32  N2  UNL A   1      24.414  19.380  -3.721  1.00  0.00    +0.000 N 
BRANCH   32   31
ATOM    133  H28 UNL A   1      25.118  20.559  -2.186  1.00  0.00    +0.000 H 
ATOM    134  H29 UNL A   1      26.320  19.538  -2.995  1.00  0.00    +0.000 H 
ATOM     31  C22 UNL A   1      25.469  20.175  -3.122  1.00  0.00    +0.000 C 
BRANCH   31   30
ATOM    131  H26 UNL A   1      25.417  21.243  -4.947  1.00  0.00    +0.000 H 
ATOM    132  H27 UNL A   1      25.616  22.232  -3.471  1.00  0.00    +0.000 H 
ATOM     30  C21 UNL A   1      25.899  21.344  -3.996  1.00  0.00    +0.000 C 
BRANCH   30   29
ATOM    129  H24 UNL A   1      27.896  20.792  -3.550  1.00  0.00    +0.000 H 
ATOM    130  H25 UNL A   1      27.554  21.197  -5.266  1.00  0.00    +0.000 H 
ATOM     29  C20 UNL A   1      27.406  21.451  -4.237  1.00  0.00    +0.000 C 
BRANCH   29   28
ATOM     28  C19 UNL A   1      28.015  22.848  -4.064  1.00  0.00    +0.000 C 
ATOM    127  H22 UNL A   1      27.211  23.548  -3.980  1.00  0.00    +0.000 H 
ATOM    128  H23 UNL A   1      28.633  22.790  -3.192  1.00  0.00    +0.000 H 
BRANCH   28   27
ATOM     27  C18 UNL A   1      28.932  23.319  -5.194  1.00  0.00    +0.000 C 
ATOM    125  H20 UNL A   1      28.990  24.387  -5.161  1.00  0.00    +0.000 H 
ATOM    126  H21 UNL A   1      29.884  22.855  -5.039  1.00  0.00    +0.000 H 
BRANCH   27   26
ATOM     26  C17 UNL A   1      28.460  22.909  -6.573  1.00  0.00    +0.000 C 
ATOM    123  H18 UNL A   1      29.240  23.103  -7.278  1.00  0.00    +0.000 H 
ATOM    124  H19 UNL A   1      28.217  21.867  -6.543  1.00  0.00    +0.000 H 
BRANCH   26   25
ATOM     25  N1  UNL A   1      27.274  23.632  -6.974  1.00  0.00    +0.000 N 
ATOM    122  H17 UNL A   1      26.399  23.248  -6.739  1.00  0.00    +0.000 H 
BRANCH   25   23
ATOM     23  C16 UNL A   1      27.290  24.813  -7.657  1.00  0.00    +0.000 C 
ATOM     24  O8  UNL A   1      27.528  25.867  -7.090  1.00  0.00    +0.000 O 
BRANCH   23   22
ATOM      2  C2  UNL A   1      22.141  24.750 -10.988  1.00  0.00    +0.000 C 
ATOM      3  C3  UNL A   1      21.813  24.230 -12.340  1.00  0.00    +0.000 C 
ATOM      4  O1  UNL A   1      20.714  23.983 -12.777  1.00  0.00    +0.000 O 
ATOM      5  O2  UNL A   1      23.008  24.033 -12.966  1.00  0.00    +0.000 O 
ATOM      6  C4  UNL A   1      24.110  24.326 -12.067  1.00  0.00    +0.000 C 
ATOM      7  C5  UNL A   1      23.492  24.198 -10.680  1.00  0.00    +0.000 C 
ATOM      8  C6  UNL A   1      24.270  24.659  -9.439  1.00  0.00    +0.000 C 
ATOM     17  C12 UNL A   1      25.680  23.944  -9.354  1.00  0.00    +0.000 C 
ATOM     22  C15 UNL A   1      26.962  24.734  -9.125  1.00  0.00    +0.000 C 
ATOM    150  H45 UNL A   1      28.483  25.993  -9.192  1.00  0.00    +0.000 H 
ATOM    152  H47 UNL A   1      27.778  26.088 -13.458  1.00  0.00    +0.000 H 
ATOM    151  H46 UNL A   1      29.175  26.051 -10.777  1.00  0.00    +0.000 H 
ATOM    156  H51 UNL A   1      23.888  26.121 -11.945  1.00  0.00    +0.000 H 
ATOM     98  C68 UNL A   1      27.925  25.384  -9.810  1.00  0.00    +0.000 C 
ATOM     99  C69 UNL A   1      28.388  25.456 -11.194  1.00  0.00    +0.000 C 
ATOM    100  O10 UNL A   1      28.126  24.342 -12.036  1.00  0.00    +0.000 O 
ATOM    101  C70 UNL A   1      27.668  25.593 -12.516  1.00  0.00    +0.000 C 
ATOM    102  C71 UNL A   1      26.219  26.083 -12.470  1.00  0.00    +0.000 C 
ATOM    104  O11 UNL A   1      25.490  25.597 -13.619  1.00  0.00    +0.000 O 
ATOM    105  C73 UNL A   1      24.717  25.642 -12.423  1.00  0.00    +0.000 C 
ATOM    108  H3  UNL A   1      24.950  23.665 -12.123  1.00  0.00    +0.000 H 
ATOM    109  H4  UNL A   1      23.481  23.207 -10.276  1.00  0.00    +0.000 H 
ATOM    110  H5  UNL A   1      23.724  24.345  -8.573  1.00  0.00    +0.000 H 
ATOM    118  H13 UNL A   1      25.985  23.959  -8.329  1.00  0.00    +0.000 H 
BRANCH    2    1
ATOM      1  C1  UNL A   1      21.337  25.624 -10.377  1.00  0.00    +0.000 C 
ATOM    106  H1  UNL A   1      21.544  25.929  -9.413  1.00  0.00    +0.000 H 
ATOM    107  H2  UNL A   1      20.508  25.994 -10.868  1.00  0.00    +0.000 H 
ENDBRANCH    2    1
BRANCH    8    9
ATOM      9  O3  UNL A   1      24.334  26.095  -9.326  1.00  0.00    +0.000 O 
BRANCH    9   10
ATOM     10  C7  UNL A   1      24.315  26.806  -8.140  1.00  0.00    +0.000 C 
ATOM     11  O4  UNL A   1      24.927  27.871  -8.107  1.00  0.00    +0.000 O 
BRANCH   10   12
ATOM    114  H9  UNL A   1      22.411  24.898  -5.598  1.00  0.00    +0.000 H 
ATOM     12  C8  UNL A   1      23.250  26.533  -7.084  1.00  0.00    +0.000 C 
ATOM     14  O5  UNL A   1      23.790  26.823  -5.763  1.00  0.00    +0.000 O 
ATOM     15  C10 UNL A   1      23.218  25.534  -5.896  1.00  0.00    +0.000 C 
BRANCH   12   13
ATOM    113  H8  UNL A   1      21.129  26.681  -7.246  1.00  0.00    +0.000 H 
ATOM     13  C9  UNL A   1      21.971  27.341  -7.254  1.00  0.00    +0.000 C 
ATOM    111  H6  UNL A   1      22.004  27.867  -8.186  1.00  0.00    +0.000 H 
ATOM    112  H7  UNL A   1      21.882  28.043  -6.451  1.00  0.00    +0.000 H 
ENDBRANCH   12   13
BRANCH   15   16
ATOM    115  H10 UNL A   1      25.099  24.612  -5.952  1.00  0.00    +0.000 H 
ATOM    116  H11 UNL A   1      23.754  23.511  -5.776  1.00  0.00    +0.000 H 
ATOM    117  H12 UNL A   1      24.271  24.484  -4.420  1.00  0.00    +0.000 H 
ATOM     16  C11 UNL A   1      24.150  24.460  -5.482  1.00  0.00    +0.000 C 
ENDBRANCH   15   16
ENDBRANCH   10   12
ENDBRANCH    9   10
ENDBRANCH    8    9
BRANCH   17   18
ATOM     18  O6  UNL A   1      25.690  22.505  -9.706  1.00  0.00    +0.000 O 
BRANCH   18   19
ATOM     19  C13 UNL A   1      26.453  21.499 -10.141  1.00  0.00    +0.000 C 
ATOM     21  O7  UNL A   1      27.390  21.111  -9.445  1.00  0.00    +0.000 O 
BRANCH   19   20
ATOM    121  H16 UNL A   1      25.912  21.522 -12.162  1.00  0.00    +0.000 H 
ATOM     20  C14 UNL A   1      26.162  20.804 -11.410  1.00  0.00    +0.000 C 
ATOM    119  H14 UNL A   1      25.340  20.134 -11.271  1.00  0.00    +0.000 H 
ATOM    120  H15 UNL A   1      27.025  20.251 -11.719  1.00  0.00    +0.000 H 
ENDBRANCH   19   20
ENDBRANCH   18   19
ENDBRANCH   17   18
BRANCH  102  103
ATOM    153  H48 UNL A   1      26.684  27.952 -13.400  1.00  0.00    +0.000 H 
ATOM    154  H49 UNL A   1      26.935  27.933 -11.672  1.00  0.00    +0.000 H 
ATOM    155  H50 UNL A   1      25.313  28.015 -12.318  1.00  0.00    +0.000 H 
ATOM    103  C72 UNL A   1      26.294  27.611 -12.464  1.00  0.00    +0.000 C 
ENDBRANCH  102  103
ENDBRANCH   23   22
ENDBRANCH   25   23
ENDBRANCH   26   25
ENDBRANCH   27   26
ENDBRANCH   28   27
ENDBRANCH   29   28
ENDBRANCH   30   29
ENDBRANCH   31   30
ENDBRANCH   32   31
ENDBRANCH   33   32
ENDBRANCH   35   33
ENDBRANCH   39   38
BRANCH   43   44
ATOM     44  C32 UNL A   1      21.905  29.208  -0.400  1.00  0.00    +0.000 C 
ATOM     45  C33 UNL A   1      22.198  29.337   0.967  1.00  0.00    +0.000 C 
ATOM     46  F1  UNL A   1      21.341  28.868   1.888  1.00  0.00    +0.000 F 
ATOM     47  C34 UNL A   1      23.350  29.989   1.396  1.00  0.00    +0.000 C 
ATOM     48  F2  UNL A   1      23.580  30.148   2.707  1.00  0.00    +0.000 F 
ATOM     49  C35 UNL A   1      24.254  30.486   0.470  1.00  0.00    +0.000 C 
ATOM     50  F3  UNL A   1      25.369  31.105   0.884  1.00  0.00    +0.000 F 
ATOM     51  C36 UNL A   1      24.000  30.348  -0.885  1.00  0.00    +0.000 C 
ATOM     52  F4  UNL A   1      24.879  30.814  -1.782  1.00  0.00    +0.000 F 
ATOM     53  C37 UNL A   1      22.829  29.729  -1.318  1.00  0.00    +0.000 C 
ATOM     54  F5  UNL A   1      22.603  29.631  -2.637  1.00  0.00    +0.000 F 
ENDBRANCH   43   44
BRANCH   60   61
ATOM     65  F7  UNL A   1      13.402  32.786   1.213  1.00  0.00    +0.000 F 
ATOM     66  C46 UNL A   1      13.235  32.922  -1.139  1.00  0.00    +0.000 C 
ATOM     67  F8  UNL A   1      12.429  33.988  -1.034  1.00  0.00    +0.000 F 
ATOM     68  C47 UNL A   1      13.558  32.417  -2.389  1.00  0.00    +0.000 C 
ATOM     69  F9  UNL A   1      13.087  33.011  -3.494  1.00  0.00    +0.000 F 
ATOM     70  C48 UNL A   1      14.373  31.295  -2.498  1.00  0.00    +0.000 C 
ATOM     71  F10 UNL A   1      14.656  30.821  -3.720  1.00  0.00    +0.000 F 
ATOM     61  C43 UNL A   1      14.907  30.674  -1.357  1.00  0.00    +0.000 C 
ATOM     62  C44 UNL A   1      14.585  31.216  -0.104  1.00  0.00    +0.000 C 
ATOM     63  F6  UNL A   1      15.058  30.653   1.018  1.00  0.00    +0.000 F 
ATOM     64  C45 UNL A   1      13.739  32.317   0.003  1.00  0.00    +0.000 C 
ENDBRANCH   60   61
BRANCH   75   76
ATOM     76  C52 UNL A   1      13.851  24.097  -3.419  1.00  0.00    +0.000 C 
ATOM     77  C53 UNL A   1      13.278  23.128  -2.585  1.00  0.00    +0.000 C 
ATOM     78  F11 UNL A   1      13.825  22.867  -1.388  1.00  0.00    +0.000 F 
ATOM     79  C54 UNL A   1      12.169  22.388  -2.992  1.00  0.00    +0.000 C 
ATOM     80  F12 UNL A   1      11.676  21.431  -2.196  1.00  0.00    +0.000 F 
ATOM     81  C55 UNL A   1      11.587  22.631  -4.227  1.00  0.00    +0.000 C 
ATOM     82  F13 UNL A   1      10.520  21.922  -4.618  1.00  0.00    +0.000 F 
ATOM     83  C56 UNL A   1      12.120  23.602  -5.061  1.00  0.00    +0.000 C 
ATOM     84  F14 UNL A   1      11.553  23.851  -6.249  1.00  0.00    +0.000 F 
ATOM     85  C57 UNL A   1      13.249  24.317  -4.668  1.00  0.00    +0.000 C 
ATOM     86  F15 UNL A   1      13.753  25.238  -5.503  1.00  0.00    +0.000 F 
ENDBRANCH   75   76
TORSDOF 25
ENDMDL
MODEL 5
REMARK VINA RESULT:      -9.4     23.259     30.971
ROOT
ATOM    138  H33 UNL A   1      19.057  53.178  -1.533  1.00  0.00    +0.000 H 
ATOM    139  H34 UNL A   1      18.485  50.696  -2.089  1.00  0.00    +0.000 H 
ATOM    140  H35 UNL A   1      16.162  51.876   1.127  1.00  0.00    +0.000 H 
ATOM    141  H36 UNL A   1      11.985  50.423   5.736  1.00  0.00    +0.000 H 
ATOM    142  H37 UNL A   1      12.440  52.881   6.178  1.00  0.00    +0.000 H 
ATOM    143  H38 UNL A   1      14.746  51.730   2.917  1.00  0.00    +0.000 H 
ATOM    144  H39 UNL A   1      13.571  46.940   1.995  1.00  0.00    +0.000 H 
ATOM    145  H40 UNL A   1      15.355  46.995   0.163  1.00  0.00    +0.000 H 
ATOM    146  H41 UNL A   1      16.996  56.749   1.911  1.00  0.00    +0.000 H 
ATOM    147  H42 UNL A   1      15.620  56.585   4.064  1.00  0.00    +0.000 H 
ATOM     39  C28 UNL A   1      14.362  54.053   4.427  1.00  0.00    +0.000 C 
ATOM     40  C29 UNL A   1      15.340  54.449   3.357  1.00  0.00    +0.000 C 
ATOM     41  N3  UNL A   1      15.826  53.733   2.374  1.00  0.00    +0.000 N 
ATOM     42  C30 UNL A   1      16.651  54.589   1.658  1.00  0.00    +0.000 C 
ATOM     43  C31 UNL A   1      17.442  54.306   0.596  1.00  0.00    +0.000 C 
ATOM     55  C38 UNL A   1      17.549  53.001  -0.002  1.00  0.00    +0.000 C 
ATOM     56  C39 UNL A   1      18.359  52.595  -1.047  1.00  0.00    +0.000 C 
ATOM     57  C40 UNL A   1      18.069  51.256  -1.328  1.00  0.00    +0.000 C 
ATOM     58  C41 UNL A   1      17.128  50.808  -0.416  1.00  0.00    +0.000 C 
ATOM     59  N4  UNL A   1      16.813  51.891   0.388  1.00  0.00    +0.000 N 
ATOM     60  C42 UNL A   1      16.561  49.489  -0.285  1.00  0.00    +0.000 C 
ATOM     72  C49 UNL A   1      15.645  49.123   0.645  1.00  0.00    +0.000 C 
ATOM     73  N5  UNL A   1      15.067  49.885   1.650  1.00  0.00    +0.000 N 
ATOM     74  C50 UNL A   1      14.236  49.089   2.277  1.00  0.00    +0.000 C 
ATOM     75  C51 UNL A   1      13.364  49.371   3.471  1.00  0.00    +0.000 C 
ATOM     87  C58 UNL A   1      13.396  50.596   4.027  1.00  0.00    +0.000 C 
ATOM     88  C59 UNL A   1      12.623  51.022   5.189  1.00  0.00    +0.000 C 
ATOM     89  C60 UNL A   1      12.874  52.318   5.430  1.00  0.00    +0.000 C 
ATOM     90  C61 UNL A   1      13.863  52.802   4.466  1.00  0.00    +0.000 C 
ATOM     91  N6  UNL A   1      14.114  51.712   3.671  1.00  0.00    +0.000 N 
ATOM     92  C62 UNL A   1      14.169  47.732   1.716  1.00  0.00    +0.000 C 
ATOM     93  C63 UNL A   1      15.081  47.794   0.756  1.00  0.00    +0.000 C 
ATOM     94  C64 UNL A   1      16.551  55.893   2.276  1.00  0.00    +0.000 C 
ATOM     95  C65 UNL A   1      15.812  55.842   3.375  1.00  0.00    +0.000 C 
ENDROOT
BRANCH   39   38
ATOM     97  C67 UNL A   1      12.405  56.855   6.025  1.00  0.00    +0.000 C 
ATOM     35  C24 UNL A   1      12.996  56.911   7.291  1.00  0.00    +0.000 C 
ATOM     36  C25 UNL A   1      14.082  56.094   7.606  1.00  0.00    +0.000 C 
ATOM     37  C26 UNL A   1      14.551  55.184   6.661  1.00  0.00    +0.000 C 
ATOM     38  C27 UNL A   1      13.905  55.053   5.420  1.00  0.00    +0.000 C 
ATOM    136  H31 UNL A   1      14.534  56.164   8.531  1.00  0.00    +0.000 H 
ATOM    137  H32 UNL A   1      15.377  54.603   6.874  1.00  0.00    +0.000 H 
ATOM    148  H43 UNL A   1      12.332  55.791   4.212  1.00  0.00    +0.000 H 
ATOM    149  H44 UNL A   1      11.665  57.527   5.768  1.00  0.00    +0.000 H 
ATOM     96  C66 UNL A   1      12.821  55.891   5.115  1.00  0.00    +0.000 C 
BRANCH   35   33
ATOM     33  C23 UNL A   1      12.459  57.805   8.336  1.00  0.00    +0.000 C 
ATOM     34  O9  UNL A   1      12.880  58.951   8.442  1.00  0.00    +0.000 O 
BRANCH   33   32
ATOM    135  H30 UNL A   1      11.267  56.374   9.080  1.00  0.00    +0.000 H 
ATOM     32  N2  UNL A   1      11.517  57.319   9.203  1.00  0.00    +0.000 N 
BRANCH   32   31
ATOM    133  H28 UNL A   1      11.552  58.622  10.796  1.00  0.00    +0.000 H 
ATOM    134  H29 UNL A   1      10.061  58.607   9.838  1.00  0.00    +0.000 H 
ATOM     31  C22 UNL A   1      10.837  58.017  10.278  1.00  0.00    +0.000 C 
BRANCH   31   30
ATOM    131  H26 UNL A   1      10.113  57.580  12.217  1.00  0.00    +0.000 H 
ATOM    132  H27 UNL A   1       9.232  56.811  10.864  1.00  0.00    +0.000 H 
ATOM     30  C21 UNL A   1      10.184  57.073  11.277  1.00  0.00    +0.000 C 
BRANCH   30   29
ATOM    129  H24 UNL A   1      10.545  55.038  10.809  1.00  0.00    +0.000 H 
ATOM    130  H25 UNL A   1      11.966  55.983  11.369  1.00  0.00    +0.000 H 
ATOM     29  C20 UNL A   1      10.929  55.756  11.504  1.00  0.00    +0.000 C 
BRANCH   29   28
ATOM     28  C19 UNL A   1      10.816  55.156  12.911  1.00  0.00    +0.000 C 
ATOM    127  H22 UNL A   1      10.004  55.642  13.411  1.00  0.00    +0.000 H 
ATOM    128  H23 UNL A   1      10.671  54.105  12.769  1.00  0.00    +0.000 H 
BRANCH   28   27
ATOM     27  C18 UNL A   1      12.058  55.289  13.792  1.00  0.00    +0.000 C 
ATOM    125  H20 UNL A   1      12.690  56.046  13.376  1.00  0.00    +0.000 H 
ATOM    126  H21 UNL A   1      11.719  55.539  14.776  1.00  0.00    +0.000 H 
BRANCH   27   26
ATOM     26  C17 UNL A   1      12.860  54.011  13.911  1.00  0.00    +0.000 C 
ATOM    123  H18 UNL A   1      13.122  53.860  14.938  1.00  0.00    +0.000 H 
ATOM    124  H19 UNL A   1      12.257  53.206  13.545  1.00  0.00    +0.000 H 
BRANCH   26   25
ATOM     25  N1  UNL A   1      14.070  54.057  13.122  1.00  0.00    +0.000 N 
ATOM    122  H17 UNL A   1      14.445  54.941  12.906  1.00  0.00    +0.000 H 
BRANCH   25   23
ATOM     23  C16 UNL A   1      14.727  52.955  12.659  1.00  0.00    +0.000 C 
ATOM     24  O8  UNL A   1      15.807  52.622  13.121  1.00  0.00    +0.000 O 
BRANCH   23   22
ATOM      2  C2  UNL A   1      12.743  47.219  11.776  1.00  0.00    +0.000 C 
ATOM      3  C3  UNL A   1      12.517  46.400  10.558  1.00  0.00    +0.000 C 
ATOM      4  O1  UNL A   1      12.430  45.196  10.498  1.00  0.00    +0.000 O 
ATOM      5  O2  UNL A   1      12.487  47.277   9.515  1.00  0.00    +0.000 O 
ATOM      6  C4  UNL A   1      12.758  48.628   9.977  1.00  0.00    +0.000 C 
ATOM      7  C5  UNL A   1      13.486  48.420  11.298  1.00  0.00    +0.000 C 
ATOM      8  C6  UNL A   1      13.749  49.611  12.234  1.00  0.00    +0.000 C 
ATOM     17  C12 UNL A   1      14.530  50.763  11.481  1.00  0.00    +0.000 C 
ATOM     22  C15 UNL A   1      14.060  52.211  11.532  1.00  0.00    +0.000 C 
ATOM    150  H45 UNL A   1      13.057  53.910  11.447  1.00  0.00    +0.000 H 
ATOM    152  H47 UNL A   1      10.857  52.060   8.217  1.00  0.00    +0.000 H 
ATOM    151  H46 UNL A   1      12.299  54.112   9.905  1.00  0.00    +0.000 H 
ATOM    156  H51 UNL A   1      11.232  48.901  10.919  1.00  0.00    +0.000 H 
ATOM     98  C68 UNL A   1      13.243  53.066  10.884  1.00  0.00    +0.000 C 
ATOM     99  C69 UNL A   1      12.551  53.117   9.599  1.00  0.00    +0.000 C 
ATOM    100  O10 UNL A   1      13.094  52.358   8.527  1.00  0.00    +0.000 O 
ATOM    101  C70 UNL A   1      11.734  52.105   8.828  1.00  0.00    +0.000 C 
ATOM    102  C71 UNL A   1      11.207  50.898   9.608  1.00  0.00    +0.000 C 
ATOM    104  O11 UNL A   1      11.016  49.775   8.720  1.00  0.00    +0.000 O 
ATOM    105  C73 UNL A   1      11.489  49.413  10.015  1.00  0.00    +0.000 C 
ATOM    108  H3  UNL A   1      13.376  49.226   9.341  1.00  0.00    +0.000 H 
ATOM    109  H4  UNL A   1      14.545  48.281  11.218  1.00  0.00    +0.000 H 
ATOM    110  H5  UNL A   1      14.395  49.276  13.019  1.00  0.00    +0.000 H 
ATOM    118  H13 UNL A   1      15.039  51.342  12.224  1.00  0.00    +0.000 H 
BRANCH    2    1
ATOM      1  C1  UNL A   1      12.209  46.866  12.948  1.00  0.00    +0.000 C 
ATOM    106  H1  UNL A   1      12.489  45.979  13.396  1.00  0.00    +0.000 H 
ATOM    107  H2  UNL A   1      11.516  47.478  13.404  1.00  0.00    +0.000 H 
ENDBRANCH    2    1
BRANCH    8    9
ATOM      9  O3  UNL A   1      12.556  50.057  12.910  1.00  0.00    +0.000 O 
BRANCH    9   10
ATOM     10  C7  UNL A   1      12.430  50.229  14.277  1.00  0.00    +0.000 C 
ATOM     11  O4  UNL A   1      13.392  50.701  14.880  1.00  0.00    +0.000 O 
BRANCH   10   12
ATOM    114  H9  UNL A   1       9.345  48.920  15.855  1.00  0.00    +0.000 H 
ATOM     12  C8  UNL A   1      11.056  50.266  14.936  1.00  0.00    +0.000 C 
ATOM     14  O5  UNL A   1      11.211  50.287  16.383  1.00  0.00    +0.000 O 
ATOM     15  C10 UNL A   1      10.355  49.269  15.897  1.00  0.00    +0.000 C 
BRANCH   12   13
ATOM    113  H8  UNL A   1      10.740  52.077  13.856  1.00  0.00    +0.000 H 
ATOM     13  C9  UNL A   1      10.197  51.459  14.540  1.00  0.00    +0.000 C 
ATOM    111  H6  UNL A   1       9.951  52.025  15.415  1.00  0.00    +0.000 H 
ATOM    112  H7  UNL A   1       9.298  51.113  14.074  1.00  0.00    +0.000 H 
ENDBRANCH   12   13
BRANCH   15   16
ATOM    115  H10 UNL A   1       9.870  47.322  16.501  1.00  0.00    +0.000 H 
ATOM    116  H11 UNL A   1      11.242  48.019  17.329  1.00  0.00    +0.000 H 
ATOM    117  H12 UNL A   1      11.404  47.468  15.678  1.00  0.00    +0.000 H 
ATOM     16  C11 UNL A   1      10.745  47.926  16.386  1.00  0.00    +0.000 C 
ENDBRANCH   15   16
ENDBRANCH   10   12
ENDBRANCH    9   10
ENDBRANCH    8    9
BRANCH   17   18
ATOM     18  O6  UNL A   1      15.616  50.315  10.578  1.00  0.00    +0.000 O 
BRANCH   18   19
ATOM     19  C13 UNL A   1      16.941  50.265  10.414  1.00  0.00    +0.000 C 
ATOM     21  O7  UNL A   1      17.635  49.745  11.287  1.00  0.00    +0.000 O 
BRANCH   19   20
ATOM    121  H16 UNL A   1      17.791  51.811   9.290  1.00  0.00    +0.000 H 
ATOM     20  C14 UNL A   1      17.585  50.767   9.185  1.00  0.00    +0.000 C 
ATOM    119  H14 UNL A   1      16.932  50.615   8.351  1.00  0.00    +0.000 H 
ATOM    120  H15 UNL A   1      18.502  50.238   9.021  1.00  0.00    +0.000 H 
ENDBRANCH   19   20
ENDBRANCH   18   19
ENDBRANCH   17   18
BRANCH  102  103
ATOM    153  H48 UNL A   1      10.035  52.260  10.768  1.00  0.00    +0.000 H 
ATOM    154  H49 UNL A   1       9.531  50.592  10.901  1.00  0.00    +0.000 H 
ATOM    155  H50 UNL A   1       9.161  51.505   9.457  1.00  0.00    +0.000 H 
ATOM    103  C72 UNL A   1       9.884  51.347  10.231  1.00  0.00    +0.000 C 
ENDBRANCH  102  103
ENDBRANCH   23   22
ENDBRANCH   25   23
ENDBRANCH   26   25
ENDBRANCH   27   26
ENDBRANCH   28   27
ENDBRANCH   29   28
ENDBRANCH   30   29
ENDBRANCH   31   30
ENDBRANCH   32   31
ENDBRANCH   33   32
ENDBRANCH   35   33
ENDBRANCH   39   38
BRANCH   43   44
ATOM     44  C32 UNL A   1      18.253  55.428   0.012  1.00  0.00    +0.000 C 
ATOM     45  C33 UNL A   1      17.857  56.096  -1.158  1.00  0.00    +0.000 C 
ATOM     46  F1  UNL A   1      16.751  55.712  -1.813  1.00  0.00    +0.000 F 
ATOM     47  C34 UNL A   1      18.621  57.134  -1.686  1.00  0.00    +0.000 C 
ATOM     48  F2  UNL A   1      18.251  57.719  -2.834  1.00  0.00    +0.000 F 
ATOM     49  C35 UNL A   1      19.770  57.553  -1.034  1.00  0.00    +0.000 C 
ATOM     50  F3  UNL A   1      20.499  58.559  -1.538  1.00  0.00    +0.000 F 
ATOM     51  C36 UNL A   1      20.168  56.927   0.136  1.00  0.00    +0.000 C 
ATOM     52  F4  UNL A   1      21.269  57.341   0.777  1.00  0.00    +0.000 F 
ATOM     53  C37 UNL A   1      19.425  55.864   0.648  1.00  0.00    +0.000 C 
ATOM     54  F5  UNL A   1      19.849  55.265   1.771  1.00  0.00    +0.000 F 
ENDBRANCH   43   44
BRANCH   60   61
ATOM     65  F7  UNL A   1      19.636  45.874  -1.524  1.00  0.00    +0.000 F 
ATOM     66  C46 UNL A   1      17.876  46.411  -3.004  1.00  0.00    +0.000 C 
ATOM     67  F8  UNL A   1      18.280  45.455  -3.854  1.00  0.00    +0.000 F 
ATOM     68  C47 UNL A   1      16.781  47.200  -3.319  1.00  0.00    +0.000 C 
ATOM     69  F9  UNL A   1      16.109  46.992  -4.460  1.00  0.00    +0.000 F 
ATOM     70  C48 UNL A   1      16.377  48.210  -2.450  1.00  0.00    +0.000 C 
ATOM     71  F10 UNL A   1      15.323  48.967  -2.789  1.00  0.00    +0.000 F 
ATOM     61  C43 UNL A   1      17.043  48.427  -1.233  1.00  0.00    +0.000 C 
ATOM     62  C44 UNL A   1      18.134  47.601  -0.926  1.00  0.00    +0.000 C 
ATOM     63  F6  UNL A   1      18.813  47.776   0.217  1.00  0.00    +0.000 F 
ATOM     64  C45 UNL A   1      18.558  46.616  -1.814  1.00  0.00    +0.000 C 
ENDBRANCH   60   61
BRANCH   75   76
ATOM     76  C52 UNL A   1      12.491  48.314   4.047  1.00  0.00    +0.000 C 
ATOM     77  C53 UNL A   1      11.195  48.099   3.558  1.00  0.00    +0.000 C 
ATOM     78  F11 UNL A   1      10.723  48.860   2.559  1.00  0.00    +0.000 F 
ATOM     79  C54 UNL A   1      10.361  47.135   4.120  1.00  0.00    +0.000 C 
ATOM     80  F12 UNL A   1       9.109  46.989   3.667  1.00  0.00    +0.000 F 
ATOM     81  C55 UNL A   1      10.820  46.339   5.158  1.00  0.00    +0.000 C 
ATOM     82  F13 UNL A   1      10.019  45.410   5.698  1.00  0.00    +0.000 F 
ATOM     83  C56 UNL A   1      12.107  46.515   5.645  1.00  0.00    +0.000 C 
ATOM     84  F14 UNL A   1      12.560  45.738   6.637  1.00  0.00    +0.000 F 
ATOM     85  C57 UNL A   1      12.929  47.502   5.105  1.00  0.00    +0.000 C 
ATOM     86  F15 UNL A   1      14.162  47.660   5.608  1.00  0.00    +0.000 F 
ENDBRANCH   75   76
TORSDOF 25
ENDMDL
MODEL 6
REMARK VINA RESULT:      -9.4     23.355     31.272
ROOT
ATOM    138  H33 UNL A   1      13.172  46.629   2.857  1.00  0.00    +0.000 H 
ATOM    139  H34 UNL A   1      14.915  46.715   0.921  1.00  0.00    +0.000 H 
ATOM    140  H35 UNL A   1      14.783  50.442   2.717  1.00  0.00    +0.000 H 
ATOM    141  H36 UNL A   1      16.580  56.570   2.833  1.00  0.00    +0.000 H 
ATOM    142  H37 UNL A   1      14.990  56.438   4.808  1.00  0.00    +0.000 H 
ATOM    143  H38 UNL A   1      15.144  52.675   3.049  1.00  0.00    +0.000 H 
ATOM    144  H39 UNL A   1      18.495  53.006  -0.670  1.00  0.00    +0.000 H 
ATOM    145  H40 UNL A   1      17.903  50.584  -1.239  1.00  0.00    +0.000 H 
ATOM    146  H41 UNL A   1      11.729  50.128   6.670  1.00  0.00    +0.000 H 
ATOM    147  H42 UNL A   1      11.900  52.668   6.938  1.00  0.00    +0.000 H 
ATOM     39  C28 UNL A   1      13.785  53.880   5.176  1.00  0.00    +0.000 C 
ATOM     40  C29 UNL A   1      13.337  52.446   5.198  1.00  0.00    +0.000 C 
ATOM     41  N3  UNL A   1      13.701  51.452   4.427  1.00  0.00    +0.000 N 
ATOM     42  C30 UNL A   1      13.020  50.340   4.899  1.00  0.00    +0.000 C 
ATOM     43  C31 UNL A   1      13.000  49.085   4.391  1.00  0.00    +0.000 C 
ATOM     55  C38 UNL A   1      13.735  48.678   3.223  1.00  0.00    +0.000 C 
ATOM     56  C39 UNL A   1      13.744  47.446   2.595  1.00  0.00    +0.000 C 
ATOM     57  C40 UNL A   1      14.661  47.500   1.541  1.00  0.00    +0.000 C 
ATOM     58  C41 UNL A   1      15.174  48.786   1.468  1.00  0.00    +0.000 C 
ATOM     59  N4  UNL A   1      14.602  49.496   2.511  1.00  0.00    +0.000 N 
ATOM     60  C42 UNL A   1      16.113  49.325   0.517  1.00  0.00    +0.000 C 
ATOM     72  C49 UNL A   1      16.563  50.604   0.507  1.00  0.00    +0.000 C 
ATOM     73  N5  UNL A   1      16.241  51.652   1.358  1.00  0.00    +0.000 N 
ATOM     74  C50 UNL A   1      16.943  52.680   0.949  1.00  0.00    +0.000 C 
ATOM     75  C51 UNL A   1      16.967  54.088   1.480  1.00  0.00    +0.000 C 
ATOM     87  C58 UNL A   1      16.175  54.406   2.521  1.00  0.00    +0.000 C 
ATOM     88  C59 UNL A   1      16.076  55.724   3.141  1.00  0.00    +0.000 C 
ATOM     89  C60 UNL A   1      15.225  55.657   4.176  1.00  0.00    +0.000 C 
ATOM     90  C61 UNL A   1      14.684  54.300   4.265  1.00  0.00    +0.000 C 
ATOM     91  N6  UNL A   1      15.305  53.627   3.244  1.00  0.00    +0.000 N 
ATOM     92  C62 UNL A   1      17.819  52.390  -0.194  1.00  0.00    +0.000 C 
ATOM     93  C63 UNL A   1      17.514  51.127  -0.453  1.00  0.00    +0.000 C 
ATOM     94  C64 UNL A   1      12.271  50.761   6.062  1.00  0.00    +0.000 C 
ATOM     95  C65 UNL A   1      12.373  52.070   6.244  1.00  0.00    +0.000 C 
ENDROOT
BRANCH   39   38
ATOM     97  C67 UNL A   1      13.471  55.858   8.374  1.00  0.00    +0.000 C 
ATOM     35  C24 UNL A   1      12.356  56.653   8.094  1.00  0.00    +0.000 C 
ATOM     36  C25 UNL A   1      11.654  56.497   6.898  1.00  0.00    +0.000 C 
ATOM     37  C26 UNL A   1      12.099  55.569   5.959  1.00  0.00    +0.000 C 
ATOM     38  C27 UNL A   1      13.273  54.832   6.190  1.00  0.00    +0.000 C 
ATOM    136  H31 UNL A   1      10.813  57.064   6.712  1.00  0.00    +0.000 H 
ATOM    137  H32 UNL A   1      11.564  55.422   5.089  1.00  0.00    +0.000 H 
ATOM    148  H43 UNL A   1      14.832  54.466   7.574  1.00  0.00    +0.000 H 
ATOM    149  H44 UNL A   1      13.928  55.912   9.298  1.00  0.00    +0.000 H 
ATOM     96  C66 UNL A   1      13.961  54.992   7.403  1.00  0.00    +0.000 C 
BRANCH   35   33
ATOM     33  C23 UNL A   1      11.920  57.702   9.036  1.00  0.00    +0.000 C 
ATOM     34  O9  UNL A   1      12.431  58.815   8.999  1.00  0.00    +0.000 O 
BRANCH   33   32
ATOM    135  H30 UNL A   1      11.246  56.776  10.682  1.00  0.00    +0.000 H 
ATOM     32  N2  UNL A   1      10.966  57.397   9.971  1.00  0.00    +0.000 N 
BRANCH   32   31
ATOM    133  H28 UNL A   1       9.265  57.790  11.062  1.00  0.00    +0.000 H 
ATOM    134  H29 UNL A   1       9.587  58.883   9.705  1.00  0.00    +0.000 H 
ATOM     31  C22 UNL A   1       9.597  57.870  10.047  1.00  0.00    +0.000 C 
BRANCH   31   30
ATOM    131  H26 UNL A   1       7.644  57.344   9.427  1.00  0.00    +0.000 H 
ATOM    132  H27 UNL A   1       8.898  57.329   8.152  1.00  0.00    +0.000 H 
ATOM     30  C21 UNL A   1       8.646  57.078   9.161  1.00  0.00    +0.000 C 
BRANCH   30   29
ATOM    129  H24 UNL A   1       8.428  55.131   8.352  1.00  0.00    +0.000 H 
ATOM    130  H25 UNL A   1       9.811  55.370   9.473  1.00  0.00    +0.000 H 
ATOM     29  C20 UNL A   1       8.778  55.557   9.270  1.00  0.00    +0.000 C 
BRANCH   29   28
ATOM     28  C19 UNL A   1       8.003  54.899  10.418  1.00  0.00    +0.000 C 
ATOM    127  H22 UNL A   1       7.145  55.503  10.625  1.00  0.00    +0.000 H 
ATOM    128  H23 UNL A   1       7.768  53.910  10.083  1.00  0.00    +0.000 H 
BRANCH   28   27
ATOM     27  C18 UNL A   1       8.777  54.721  11.726  1.00  0.00    +0.000 C 
ATOM    125  H20 UNL A   1       9.823  54.805  11.515  1.00  0.00    +0.000 H 
ATOM    126  H21 UNL A   1       8.435  55.480  12.398  1.00  0.00    +0.000 H 
BRANCH   27   26
ATOM     26  C17 UNL A   1       8.533  53.388  12.401  1.00  0.00    +0.000 C 
ATOM    123  H18 UNL A   1       8.677  53.503  13.455  1.00  0.00    +0.000 H 
ATOM    124  H19 UNL A   1       7.531  53.084  12.180  1.00  0.00    +0.000 H 
BRANCH   26   25
ATOM     25  N1  UNL A   1       9.429  52.364  11.915  1.00  0.00    +0.000 N 
ATOM    122  H17 UNL A   1       9.427  52.171  10.950  1.00  0.00    +0.000 H 
BRANCH   25   23
ATOM     23  C16 UNL A   1      10.278  51.647  12.706  1.00  0.00    +0.000 C 
ATOM     24  O8  UNL A   1      10.766  52.135  13.713  1.00  0.00    +0.000 O 
BRANCH   23   22
ATOM      2  C2  UNL A   1      15.106  48.900  10.106  1.00  0.00    +0.000 C 
ATOM      3  C3  UNL A   1      15.250  47.687   9.262  1.00  0.00    +0.000 C 
ATOM      4  O1  UNL A   1      16.181  47.407   8.545  1.00  0.00    +0.000 O 
ATOM      5  O2  UNL A   1      14.093  46.983   9.416  1.00  0.00    +0.000 O 
ATOM      6  C4  UNL A   1      13.161  47.710  10.261  1.00  0.00    +0.000 C 
ATOM      7  C5  UNL A   1      13.637  49.154  10.167  1.00  0.00    +0.000 C 
ATOM      8  C6  UNL A   1      13.058  50.224  11.106  1.00  0.00    +0.000 C 
ATOM     17  C12 UNL A   1      11.480  50.278  11.001  1.00  0.00    +0.000 C 
ATOM     22  C15 UNL A   1      10.597  50.250  12.242  1.00  0.00    +0.000 C 
ATOM    150  H45 UNL A   1       9.685  49.834  13.944  1.00  0.00    +0.000 H 
ATOM    152  H47 UNL A   1      10.507  45.698  12.981  1.00  0.00    +0.000 H 
ATOM    151  H46 UNL A   1       9.120  48.198  13.965  1.00  0.00    +0.000 H 
ATOM    156  H51 UNL A   1      14.057  47.569  11.831  1.00  0.00    +0.000 H 
ATOM     98  C68 UNL A   1       9.983  49.378  13.067  1.00  0.00    +0.000 C 
ATOM     99  C69 UNL A   1       9.628  47.961  13.053  1.00  0.00    +0.000 C 
ATOM    100  O10 UNL A   1       9.466  47.335  11.788  1.00  0.00    +0.000 O 
ATOM    101  C70 UNL A   1      10.387  46.713  12.663  1.00  0.00    +0.000 C 
ATOM    102  C71 UNL A   1      11.911  46.826  12.574  1.00  0.00    +0.000 C 
ATOM    104  O11 UNL A   1      12.431  45.847  11.648  1.00  0.00    +0.000 O 
ATOM    105  C73 UNL A   1      13.123  47.092  11.619  1.00  0.00    +0.000 C 
ATOM    108  H3  UNL A   1      12.133  47.674   9.965  1.00  0.00    +0.000 H 
ATOM    109  H4  UNL A   1      13.251  49.709   9.337  1.00  0.00    +0.000 H 
ATOM    110  H5  UNL A   1      13.413  51.178  10.776  1.00  0.00    +0.000 H 
ATOM    118  H13 UNL A   1      11.172  51.253  11.317  1.00  0.00    +0.000 H 
BRANCH    2    1
ATOM      1  C1  UNL A   1      16.165  49.444  10.711  1.00  0.00    +0.000 C 
ATOM    106  H1  UNL A   1      16.964  48.850  10.984  1.00  0.00    +0.000 H 
ATOM    107  H2  UNL A   1      16.184  50.456  10.907  1.00  0.00    +0.000 H 
ENDBRANCH    2    1
BRANCH    8    9
ATOM      9  O3  UNL A   1      13.552  50.101  12.456  1.00  0.00    +0.000 O 
BRANCH    9   10
ATOM     10  C7  UNL A   1      13.929  51.156  13.267  1.00  0.00    +0.000 C 
ATOM     11  O4  UNL A   1      13.985  50.949  14.477  1.00  0.00    +0.000 O 
BRANCH   10   12
ATOM    114  H9  UNL A   1      14.525  54.090  11.084  1.00  0.00    +0.000 H 
ATOM     12  C8  UNL A   1      14.663  52.361  12.691  1.00  0.00    +0.000 C 
ATOM     14  O5  UNL A   1      14.234  53.568  13.381  1.00  0.00    +0.000 O 
ATOM     15  C10 UNL A   1      14.137  53.631  11.970  1.00  0.00    +0.000 C 
BRANCH   12   13
ATOM    113  H8  UNL A   1      16.527  51.424  12.249  1.00  0.00    +0.000 H 
ATOM     13  C9  UNL A   1      16.180  52.282  12.786  1.00  0.00    +0.000 C 
ATOM    111  H6  UNL A   1      16.468  52.200  13.814  1.00  0.00    +0.000 H 
ATOM    112  H7  UNL A   1      16.612  53.166  12.365  1.00  0.00    +0.000 H 
ENDBRANCH   12   13
BRANCH   15   16
ATOM    115  H10 UNL A   1      12.317  54.629  12.265  1.00  0.00    +0.000 H 
ATOM    116  H11 UNL A   1      12.193  53.143  11.355  1.00  0.00    +0.000 H 
ATOM    117  H12 UNL A   1      12.857  54.575  10.604  1.00  0.00    +0.000 H 
ATOM     16  C11 UNL A   1      12.782  54.021  11.517  1.00  0.00    +0.000 C 
ENDBRANCH   15   16
ENDBRANCH   10   12
ENDBRANCH    9   10
ENDBRANCH    8    9
BRANCH   17   18
ATOM     18  O6  UNL A   1      10.926  50.157   9.632  1.00  0.00    +0.000 O 
BRANCH   18   19
ATOM     19  C13 UNL A   1      10.060  49.488   8.867  1.00  0.00    +0.000 C 
ATOM     21  O7  UNL A   1      10.023  48.260   8.933  1.00  0.00    +0.000 O 
BRANCH   19   20
ATOM    121  H16 UNL A   1       9.277  51.245   8.043  1.00  0.00    +0.000 H 
ATOM     20  C14 UNL A   1       9.106  50.191   7.987  1.00  0.00    +0.000 C 
ATOM    119  H14 UNL A   1       8.106  49.975   8.299  1.00  0.00    +0.000 H 
ATOM    120  H15 UNL A   1       9.243  49.862   6.977  1.00  0.00    +0.000 H 
ENDBRANCH   19   20
ENDBRANCH   18   19
ENDBRANCH   17   18
BRANCH  102  103
ATOM    153  H48 UNL A   1      12.796  47.503  14.399  1.00  0.00    +0.000 H 
ATOM    154  H49 UNL A   1      13.226  45.867  13.962  1.00  0.00    +0.000 H 
ATOM    155  H50 UNL A   1      11.638  46.211  14.604  1.00  0.00    +0.000 H 
ATOM    103  C72 UNL A   1      12.433  46.584  13.992  1.00  0.00    +0.000 C 
ENDBRANCH  102  103
ENDBRANCH   23   22
ENDBRANCH   25   23
ENDBRANCH   26   25
ENDBRANCH   27   26
ENDBRANCH   28   27
ENDBRANCH   29   28
ENDBRANCH   30   29
ENDBRANCH   31   30
ENDBRANCH   32   31
ENDBRANCH   33   32
ENDBRANCH   35   33
ENDBRANCH   39   38
BRANCH   43   44
ATOM     44  C32 UNL A   1      12.158  48.060   5.098  1.00  0.00    +0.000 C 
ATOM     45  C33 UNL A   1      12.708  47.163   6.028  1.00  0.00    +0.000 C 
ATOM     46  F1  UNL A   1      14.027  47.174   6.277  1.00  0.00    +0.000 F 
ATOM     47  C34 UNL A   1      11.914  46.220   6.673  1.00  0.00    +0.000 C 
ATOM     48  F2  UNL A   1      12.472  45.338   7.515  1.00  0.00    +0.000 F 
ATOM     49  C35 UNL A   1      10.548  46.181   6.436  1.00  0.00    +0.000 C 
ATOM     50  F3  UNL A   1       9.782  45.279   7.065  1.00  0.00    +0.000 F 
ATOM     51  C36 UNL A   1       9.977  47.073   5.542  1.00  0.00    +0.000 C 
ATOM     52  F4  UNL A   1       8.656  47.048   5.323  1.00  0.00    +0.000 F 
ATOM     53  C37 UNL A   1      10.775  47.994   4.867  1.00  0.00    +0.000 C 
ATOM     54  F5  UNL A   1      10.195  48.829   3.992  1.00  0.00    +0.000 F 
ENDBRANCH   43   44
BRANCH   60   61
ATOM     65  F7  UNL A   1      19.555  46.451  -1.470  1.00  0.00    +0.000 F 
ATOM     66  C46 UNL A   1      17.481  46.653  -2.579  1.00  0.00    +0.000 C 
ATOM     67  F8  UNL A   1      17.900  45.823  -3.545  1.00  0.00    +0.000 F 
ATOM     68  C47 UNL A   1      16.212  47.209  -2.645  1.00  0.00    +0.000 C 
ATOM     69  F9  UNL A   1      15.395  46.896  -3.660  1.00  0.00    +0.000 F 
ATOM     70  C48 UNL A   1      15.786  48.092  -1.657  1.00  0.00    +0.000 C 
ATOM     71  F10 UNL A   1      14.560  48.625  -1.756  1.00  0.00    +0.000 F 
ATOM     61  C43 UNL A   1      16.611  48.410  -0.566  1.00  0.00    +0.000 C 
ATOM     62  C44 UNL A   1      17.881  47.817  -0.508  1.00  0.00    +0.000 C 
ATOM     63  F6  UNL A   1      18.712  48.098   0.505  1.00  0.00    +0.000 F 
ATOM     64  C45 UNL A   1      18.318  46.964  -1.518  1.00  0.00    +0.000 C 
ENDBRANCH   60   61
BRANCH   75   76
ATOM     76  C52 UNL A   1      17.834  55.125   0.860  1.00  0.00    +0.000 C 
ATOM     77  C53 UNL A   1      19.050  55.498   1.449  1.00  0.00    +0.000 C 
ATOM     78  F11 UNL A   1      19.443  54.922   2.595  1.00  0.00    +0.000 F 
ATOM     79  C54 UNL A   1      19.848  56.495   0.890  1.00  0.00    +0.000 C 
ATOM     80  F12 UNL A   1      20.978  56.869   1.504  1.00  0.00    +0.000 F 
ATOM     81  C55 UNL A   1      19.463  57.113  -0.290  1.00  0.00    +0.000 C 
ATOM     82  F13 UNL A   1      20.230  58.070  -0.829  1.00  0.00    +0.000 F 
ATOM     83  C56 UNL A   1      18.277  56.745  -0.906  1.00  0.00    +0.000 C 
ATOM     84  F14 UNL A   1      17.908  57.327  -2.054  1.00  0.00    +0.000 F 
ATOM     85  C57 UNL A   1      17.463  55.772  -0.329  1.00  0.00    +0.000 C 
ATOM     86  F15 UNL A   1      16.312  55.449  -0.938  1.00  0.00    +0.000 F 
ENDBRANCH   75   76
TORSDOF 25
ENDMDL
MODEL 7
REMARK VINA RESULT:      -9.3     23.515     31.063
ROOT
ATOM    138  H33 UNL A   1      18.655  53.292  -1.085  1.00  0.00    +0.000 H 
ATOM    139  H34 UNL A   1      18.168  50.787  -1.618  1.00  0.00    +0.000 H 
ATOM    140  H35 UNL A   1      15.855  51.899   1.631  1.00  0.00    +0.000 H 
ATOM    141  H36 UNL A   1      11.814  50.318   6.317  1.00  0.00    +0.000 H 
ATOM    142  H37 UNL A   1      12.183  52.795   6.737  1.00  0.00    +0.000 H 
ATOM    143  H38 UNL A   1      14.476  51.710   3.444  1.00  0.00    +0.000 H 
ATOM    144  H39 UNL A   1      13.467  46.874   2.569  1.00  0.00    +0.000 H 
ATOM    145  H40 UNL A   1      15.218  46.985   0.707  1.00  0.00    +0.000 H 
ATOM    146  H41 UNL A   1      16.518  56.804   2.372  1.00  0.00    +0.000 H 
ATOM    147  H42 UNL A   1      15.185  56.602   4.549  1.00  0.00    +0.000 H 
ATOM     39  C28 UNL A   1      14.030  54.027   4.948  1.00  0.00    +0.000 C 
ATOM     40  C29 UNL A   1      14.974  54.452   3.859  1.00  0.00    +0.000 C 
ATOM     41  N3  UNL A   1      15.471  53.750   2.872  1.00  0.00    +0.000 N 
ATOM     42  C30 UNL A   1      16.251  54.632   2.138  1.00  0.00    +0.000 C 
ATOM     43  C31 UNL A   1      17.034  54.371   1.064  1.00  0.00    +0.000 C 
ATOM     55  C38 UNL A   1      17.180  53.068   0.471  1.00  0.00    +0.000 C 
ATOM     56  C39 UNL A   1      17.987  52.686  -0.584  1.00  0.00    +0.000 C 
ATOM     57  C40 UNL A   1      17.744  51.336  -0.854  1.00  0.00    +0.000 C 
ATOM     58  C41 UNL A   1      16.835  50.858   0.078  1.00  0.00    +0.000 C 
ATOM     59  N4  UNL A   1      16.493  51.934   0.881  1.00  0.00    +0.000 N 
ATOM     60  C42 UNL A   1      16.321  49.519   0.225  1.00  0.00    +0.000 C 
ATOM     72  C49 UNL A   1      15.435  49.125   1.172  1.00  0.00    +0.000 C 
ATOM     73  N5  UNL A   1      14.845  49.871   2.183  1.00  0.00    +0.000 N 
ATOM     74  C50 UNL A   1      14.055  49.048   2.828  1.00  0.00    +0.000 C 
ATOM     75  C51 UNL A   1      13.193  49.304   4.035  1.00  0.00    +0.000 C 
ATOM     87  C58 UNL A   1      13.189  50.533   4.583  1.00  0.00    +0.000 C 
ATOM     88  C59 UNL A   1      12.420  50.937   5.756  1.00  0.00    +0.000 C 
ATOM     89  C60 UNL A   1      12.626  52.243   5.986  1.00  0.00    +0.000 C 
ATOM     90  C61 UNL A   1      13.579  52.758   5.002  1.00  0.00    +0.000 C 
ATOM     91  N6  UNL A   1      13.857  51.674   4.209  1.00  0.00    +0.000 N 
ATOM     92  C62 UNL A   1      14.031  47.686   2.276  1.00  0.00    +0.000 C 
ATOM     93  C63 UNL A   1      14.923  47.776   1.300  1.00  0.00    +0.000 C 
ATOM     94  C64 UNL A   1      16.111  55.934   2.750  1.00  0.00    +0.000 C 
ATOM     95  C65 UNL A   1      15.394  55.862   3.861  1.00  0.00    +0.000 C 
ENDROOT
BRANCH   39   38
ATOM     97  C67 UNL A   1      13.645  55.932   8.182  1.00  0.00    +0.000 C 
ATOM     35  C24 UNL A   1      12.702  56.898   7.818  1.00  0.00    +0.000 C 
ATOM     36  C25 UNL A   1      12.129  56.888   6.545  1.00  0.00    +0.000 C 
ATOM     37  C26 UNL A   1      12.536  55.931   5.618  1.00  0.00    +0.000 C 
ATOM     38  C27 UNL A   1      13.552  55.015   5.943  1.00  0.00    +0.000 C 
ATOM    136  H31 UNL A   1      11.410  57.584   6.294  1.00  0.00    +0.000 H 
ATOM    137  H32 UNL A   1      12.091  55.895   4.688  1.00  0.00    +0.000 H 
ATOM    148  H43 UNL A   1      14.865  54.372   7.472  1.00  0.00    +0.000 H 
ATOM    149  H44 UNL A   1      13.993  55.888   9.152  1.00  0.00    +0.000 H 
ATOM     96  C66 UNL A   1      14.109  55.031   7.231  1.00  0.00    +0.000 C 
BRANCH   35   33
ATOM     33  C23 UNL A   1      12.321  57.973   8.754  1.00  0.00    +0.000 C 
ATOM     34  O9  UNL A   1      12.831  59.083   8.659  1.00  0.00    +0.000 O 
BRANCH   33   32
ATOM    135  H30 UNL A   1      11.097  58.471  10.262  1.00  0.00    +0.000 H 
ATOM     32  N2  UNL A   1      11.421  57.695   9.749  1.00  0.00    +0.000 N 
BRANCH   32   31
ATOM    133  H28 UNL A   1      11.470  55.638   9.684  1.00  0.00    +0.000 H 
ATOM    134  H29 UNL A   1      10.931  56.354  11.212  1.00  0.00    +0.000 H 
ATOM     31  C22 UNL A   1      10.886  56.407  10.145  1.00  0.00    +0.000 C 
BRANCH   31   30
ATOM    131  H26 UNL A   1       8.979  55.535  10.426  1.00  0.00    +0.000 H 
ATOM    132  H27 UNL A   1       8.987  57.194   9.760  1.00  0.00    +0.000 H 
ATOM     30  C21 UNL A   1       9.431  56.221   9.739  1.00  0.00    +0.000 C 
BRANCH   30   29
ATOM    129  H24 UNL A   1       8.176  55.468   8.206  1.00  0.00    +0.000 H 
ATOM    130  H25 UNL A   1       9.585  56.443   7.666  1.00  0.00    +0.000 H 
ATOM     29  C20 UNL A   1       9.219  55.682   8.323  1.00  0.00    +0.000 C 
BRANCH   29   28
ATOM     28  C19 UNL A   1      10.002  54.413   7.965  1.00  0.00    +0.000 C 
ATOM    127  H22 UNL A   1      10.850  54.705   7.382  1.00  0.00    +0.000 H 
ATOM    128  H23 UNL A   1      10.254  53.953   8.897  1.00  0.00    +0.000 H 
BRANCH   28   27
ATOM     27  C18 UNL A   1       9.230  53.356   7.174  1.00  0.00    +0.000 C 
ATOM    125  H20 UNL A   1       8.286  53.772   6.884  1.00  0.00    +0.000 H 
ATOM    126  H21 UNL A   1       9.834  53.092   6.330  1.00  0.00    +0.000 H 
BRANCH   27   26
ATOM     26  C17 UNL A   1       8.972  52.082   7.950  1.00  0.00    +0.000 C 
ATOM    123  H18 UNL A   1       7.918  51.971   8.092  1.00  0.00    +0.000 H 
ATOM    124  H19 UNL A   1       9.374  51.265   7.388  1.00  0.00    +0.000 H 
BRANCH   26   25
ATOM     25  N1  UNL A   1       9.620  52.097   9.242  1.00  0.00    +0.000 N 
ATOM    122  H17 UNL A   1       9.384  52.820   9.867  1.00  0.00    +0.000 H 
BRANCH   25   23
ATOM     23  C16 UNL A   1      10.536  51.173   9.652  1.00  0.00    +0.000 C 
ATOM     24  O8  UNL A   1      11.026  50.378   8.866  1.00  0.00    +0.000 O 
BRANCH   23   22
ATOM      2  C2  UNL A   1      12.005  46.910  13.810  1.00  0.00    +0.000 C 
ATOM      3  C3  UNL A   1      11.884  46.852  15.288  1.00  0.00    +0.000 C 
ATOM      4  O1  UNL A   1      11.906  45.861  15.981  1.00  0.00    +0.000 O 
ATOM      5  O2  UNL A   1      11.686  48.136  15.700  1.00  0.00    +0.000 O 
ATOM      6  C4  UNL A   1      11.594  49.030  14.559  1.00  0.00    +0.000 C 
ATOM      7  C5  UNL A   1      11.214  48.109  13.407  1.00  0.00    +0.000 C 
ATOM      8  C6  UNL A   1      11.242  48.625  11.960  1.00  0.00    +0.000 C 
ATOM     17  C12 UNL A   1      10.343  49.917  11.800  1.00  0.00    +0.000 C 
ATOM     22  C15 UNL A   1      10.868  51.176  11.121  1.00  0.00    +0.000 C 
ATOM    150  H45 UNL A   1      11.884  52.770  10.548  1.00  0.00    +0.000 H 
ATOM    152  H47 UNL A   1      13.125  53.046  14.682  1.00  0.00    +0.000 H 
ATOM    151  H46 UNL A   1      12.237  53.801  11.893  1.00  0.00    +0.000 H 
ATOM    156  H51 UNL A   1      13.317  48.933  14.002  1.00  0.00    +0.000 H 
ATOM     98  C68 UNL A   1      11.529  52.317  11.404  1.00  0.00    +0.000 C 
ATOM     99  C69 UNL A   1      11.877  53.082  12.599  1.00  0.00    +0.000 C 
ATOM    100  O10 UNL A   1      11.052  52.925  13.746  1.00  0.00    +0.000 O 
ATOM    101  C70 UNL A   1      12.433  52.688  13.949  1.00  0.00    +0.000 C 
ATOM    102  C71 UNL A   1      13.091  51.311  14.055  1.00  0.00    +0.000 C 
ATOM    104  O11 UNL A   1      13.008  50.820  15.411  1.00  0.00    +0.000 O 
ATOM    105  C73 UNL A   1      12.862  49.806  14.421  1.00  0.00    +0.000 C 
ATOM    108  H3  UNL A   1      10.859  49.805  14.628  1.00  0.00    +0.000 H 
ATOM    109  H4  UNL A   1      10.165  47.927  13.295  1.00  0.00    +0.000 H 
ATOM    110  H5  UNL A   1      10.803  47.876  11.335  1.00  0.00    +0.000 H 
ATOM    118  H13 UNL A   1      10.062  49.985  10.770  1.00  0.00    +0.000 H 
BRANCH    2    1
ATOM      1  C1  UNL A   1      12.802  46.064  13.153  1.00  0.00    +0.000 C 
ATOM    106  H1  UNL A   1      12.658  45.046  13.241  1.00  0.00    +0.000 H 
ATOM    107  H2  UNL A   1      13.564  46.427  12.560  1.00  0.00    +0.000 H 
ENDBRANCH    2    1
BRANCH    8    9
ATOM      9  O3  UNL A   1      12.584  48.778  11.453  1.00  0.00    +0.000 O 
BRANCH    9   10
ATOM     10  C7  UNL A   1      13.103  48.119  10.354  1.00  0.00    +0.000 C 
ATOM     11  O4  UNL A   1      12.329  47.438   9.684  1.00  0.00    +0.000 O 
BRANCH   10   12
ATOM    114  H9  UNL A   1      15.473  50.227   8.440  1.00  0.00    +0.000 H 
ATOM     12  C8  UNL A   1      14.429  48.551   9.738  1.00  0.00    +0.000 C 
ATOM     14  O5  UNL A   1      15.121  49.446  10.653  1.00  0.00    +0.000 O 
ATOM     15  C10 UNL A   1      14.964  49.952   9.340  1.00  0.00    +0.000 C 
BRANCH   12   13
ATOM    113  H8  UNL A   1      15.857  47.068  10.293  1.00  0.00    +0.000 H 
ATOM     13  C9  UNL A   1      15.372  47.404   9.401  1.00  0.00    +0.000 C 
ATOM    111  H6  UNL A   1      16.108  47.743   8.701  1.00  0.00    +0.000 H 
ATOM    112  H7  UNL A   1      14.815  46.598   8.971  1.00  0.00    +0.000 H 
ENDBRANCH   12   13
BRANCH   15   16
ATOM    115  H10 UNL A   1      13.469  51.279   9.969  1.00  0.00    +0.000 H 
ATOM    116  H11 UNL A   1      14.018  51.527   8.329  1.00  0.00    +0.000 H 
ATOM    117  H12 UNL A   1      15.022  52.021   9.672  1.00  0.00    +0.000 H 
ATOM     16  C11 UNL A   1      14.324  51.288   9.326  1.00  0.00    +0.000 C 
ENDBRANCH   15   16
ENDBRANCH   10   12
ENDBRANCH    9   10
ENDBRANCH    8    9
BRANCH   17   18
ATOM     18  O6  UNL A   1       9.048  49.889  12.519  1.00  0.00    +0.000 O 
BRANCH   18   19
ATOM     19  C13 UNL A   1       7.758  49.556  12.420  1.00  0.00    +0.000 C 
ATOM     21  O7  UNL A   1       7.287  48.735  13.206  1.00  0.00    +0.000 O 
BRANCH   19   20
ATOM    121  H16 UNL A   1       7.386  50.279  10.492  1.00  0.00    +0.000 H 
ATOM     20  C14 UNL A   1       6.872  50.193  11.426  1.00  0.00    +0.000 C 
ATOM    119  H14 UNL A   1       6.593  51.167  11.769  1.00  0.00    +0.000 H 
ATOM    120  H15 UNL A   1       5.994  49.595  11.296  1.00  0.00    +0.000 H 
ENDBRANCH   19   20
ENDBRANCH   18   19
ENDBRANCH   17   18
BRANCH  102  103
ATOM    153  H48 UNL A   1      14.723  52.544  13.433  1.00  0.00    +0.000 H 
ATOM    154  H49 UNL A   1      14.729  50.945  12.730  1.00  0.00    +0.000 H 
ATOM    155  H50 UNL A   1      15.197  51.167  14.400  1.00  0.00    +0.000 H 
ATOM    103  C72 UNL A   1      14.545  51.506  13.621  1.00  0.00    +0.000 C 
ENDBRANCH  102  103
ENDBRANCH   23   22
ENDBRANCH   25   23
ENDBRANCH   26   25
ENDBRANCH   27   26
ENDBRANCH   28   27
ENDBRANCH   29   28
ENDBRANCH   30   29
ENDBRANCH   31   30
ENDBRANCH   32   31
ENDBRANCH   33   32
ENDBRANCH   35   33
ENDBRANCH   39   38
BRANCH   43   44
ATOM     44  C32 UNL A   1      17.792  55.520   0.460  1.00  0.00    +0.000 C 
ATOM     45  C33 UNL A   1      19.048  55.915   0.947  1.00  0.00    +0.000 C 
ATOM     46  F1  UNL A   1      19.588  55.293   2.007  1.00  0.00    +0.000 F 
ATOM     47  C34 UNL A   1      19.736  56.982   0.376  1.00  0.00    +0.000 C 
ATOM     48  F2  UNL A   1      20.908  57.376   0.895  1.00  0.00    +0.000 F 
ATOM     49  C35 UNL A   1      19.205  57.647  -0.718  1.00  0.00    +0.000 C 
ATOM     50  F3  UNL A   1      19.874  58.668  -1.274  1.00  0.00    +0.000 F 
ATOM     51  C36 UNL A   1      17.979  57.259  -1.234  1.00  0.00    +0.000 C 
ATOM     52  F4  UNL A   1      17.471  57.889  -2.301  1.00  0.00    +0.000 F 
ATOM     53  C37 UNL A   1      17.271  56.215  -0.642  1.00  0.00    +0.000 C 
ATOM     54  F5  UNL A   1      16.076  55.878  -1.152  1.00  0.00    +0.000 F 
ENDBRANCH   43   44
BRANCH   60   61
ATOM     65  F7  UNL A   1      19.667  46.225  -1.194  1.00  0.00    +0.000 F 
ATOM     66  C46 UNL A   1      17.709  46.471  -2.491  1.00  0.00    +0.000 C 
ATOM     67  F8  UNL A   1      18.135  45.523  -3.339  1.00  0.00    +0.000 F 
ATOM     68  C47 UNL A   1      16.499  47.108  -2.715  1.00  0.00    +0.000 C 
ATOM     69  F9  UNL A   1      15.742  46.760  -3.765  1.00  0.00    +0.000 F 
ATOM     70  C48 UNL A   1      16.068  48.110  -1.851  1.00  0.00    +0.000 C 
ATOM     71  F10 UNL A   1      14.900  48.719  -2.103  1.00  0.00    +0.000 F 
ATOM     61  C43 UNL A   1      16.827  48.471  -0.726  1.00  0.00    +0.000 C 
ATOM     62  C44 UNL A   1      18.037  47.795  -0.506  1.00  0.00    +0.000 C 
ATOM     63  F6  UNL A   1      18.806  48.111   0.546  1.00  0.00    +0.000 F 
ATOM     64  C45 UNL A   1      18.482  46.820  -1.394  1.00  0.00    +0.000 C 
ENDBRANCH   60   61
BRANCH   75   76
ATOM     76  C52 UNL A   1      12.371  48.219   4.632  1.00  0.00    +0.000 C 
ATOM     77  C53 UNL A   1      12.866  47.428   5.678  1.00  0.00    +0.000 C 
ATOM     78  F11 UNL A   1      14.104  47.641   6.149  1.00  0.00    +0.000 F 
ATOM     79  C54 UNL A   1      12.112  46.386   6.215  1.00  0.00    +0.000 C 
ATOM     80  F12 UNL A   1      12.632  45.613   7.177  1.00  0.00    +0.000 F 
ATOM     81  C55 UNL A   1      10.833  46.138   5.742  1.00  0.00    +0.000 C 
ATOM     82  F13 UNL A   1      10.107  45.138   6.259  1.00  0.00    +0.000 F 
ATOM     83  C56 UNL A   1      10.310  46.922   4.725  1.00  0.00    +0.000 C 
ATOM     84  F14 UNL A   1       9.069  46.697   4.275  1.00  0.00    +0.000 F 
ATOM     85  C57 UNL A   1      11.076  47.942   4.164  1.00  0.00    +0.000 C 
ATOM     86  F15 UNL A   1      10.551  48.672   3.170  1.00  0.00    +0.000 F 
ENDBRANCH   75   76
TORSDOF 25
ENDMDL
MODEL 8
REMARK VINA RESULT:      -9.2     10.194     13.888
ROOT
ATOM    138  H33 UNL A   1      15.174  23.275   3.527  1.00  0.00    +0.000 H 
ATOM    139  H34 UNL A   1      13.171  23.809   5.107  1.00  0.00    +0.000 H 
ATOM    140  H35 UNL A   1      15.109  20.450   6.555  1.00  0.00    +0.000 H 
ATOM    141  H36 UNL A   1      15.377  15.604  10.707  1.00  0.00    +0.000 H 
ATOM    142  H37 UNL A   1      17.411  15.177   9.249  1.00  0.00    +0.000 H 
ATOM    143  H38 UNL A   1      15.508  18.579   7.807  1.00  0.00    +0.000 H 
ATOM    144  H39 UNL A   1      11.668  19.456  10.914  1.00  0.00    +0.000 H 
ATOM    145  H40 UNL A   1      11.034  21.393   9.368  1.00  0.00    +0.000 H 
ATOM    146  H41 UNL A   1      19.170  19.691   3.731  1.00  0.00    +0.000 H 
ATOM    147  H42 UNL A   1      19.526  17.459   4.934  1.00  0.00    +0.000 H 
ATOM     39  C28 UNL A   1      17.733  17.034   7.109  1.00  0.00    +0.000 C 
ATOM     40  C29 UNL A   1      17.721  18.160   6.114  1.00  0.00    +0.000 C 
ATOM     41  N3  UNL A   1      16.899  19.175   6.022  1.00  0.00    +0.000 N 
ATOM     42  C30 UNL A   1      17.357  19.934   4.955  1.00  0.00    +0.000 C 
ATOM     43  C31 UNL A   1      16.804  21.045   4.411  1.00  0.00    +0.000 C 
ATOM     55  C38 UNL A   1      15.592  21.656   4.889  1.00  0.00    +0.000 C 
ATOM     56  C39 UNL A   1      14.918  22.750   4.377  1.00  0.00    +0.000 C 
ATOM     57  C40 UNL A   1      13.830  23.022   5.212  1.00  0.00    +0.000 C 
ATOM     58  C41 UNL A   1      13.784  22.056   6.204  1.00  0.00    +0.000 C 
ATOM     59  N4  UNL A   1      14.875  21.228   5.998  1.00  0.00    +0.000 N 
ATOM     60  C42 UNL A   1      12.815  21.899   7.261  1.00  0.00    +0.000 C 
ATOM     72  C49 UNL A   1      12.834  20.917   8.195  1.00  0.00    +0.000 C 
ATOM     73  N5  UNL A   1      13.736  19.873   8.350  1.00  0.00    +0.000 N 
ATOM     74  C50 UNL A   1      13.337  19.202   9.402  1.00  0.00    +0.000 C 
ATOM     75  C51 UNL A   1      13.919  17.956  10.013  1.00  0.00    +0.000 C 
ATOM     87  C58 UNL A   1      15.002  17.396   9.445  1.00  0.00    +0.000 C 
ATOM     88  C59 UNL A   1      15.674  16.186   9.908  1.00  0.00    +0.000 C 
ATOM     89  C60 UNL A   1      16.741  15.952   9.128  1.00  0.00    +0.000 C 
ATOM     90  C61 UNL A   1      16.802  16.973   8.081  1.00  0.00    +0.000 C 
ATOM     91  N6  UNL A   1      15.731  17.788   8.348  1.00  0.00    +0.000 N 
ATOM     92  C62 UNL A   1      12.148  19.766  10.056  1.00  0.00    +0.000 C 
ATOM     93  C63 UNL A   1      11.855  20.779   9.254  1.00  0.00    +0.000 C 
ATOM     94  C64 UNL A   1      18.565  19.304   4.472  1.00  0.00    +0.000 C 
ATOM     95  C65 UNL A   1      18.791  18.163   5.105  1.00  0.00    +0.000 C 
ENDROOT
BRANCH   39   38
ATOM     97  C67 UNL A   1      19.669  13.947   6.129  1.00  0.00    +0.000 C 
ATOM     35  C24 UNL A   1      20.824  14.094   6.903  1.00  0.00    +0.000 C 
ATOM     36  C25 UNL A   1      20.947  15.152   7.804  1.00  0.00    +0.000 C 
ATOM     37  C26 UNL A   1      19.925  16.094   7.897  1.00  0.00    +0.000 C 
ATOM     38  C27 UNL A   1      18.802  16.009   7.056  1.00  0.00    +0.000 C 
ATOM    136  H31 UNL A   1      21.788  15.236   8.396  1.00  0.00    +0.000 H 
ATOM    137  H32 UNL A   1      19.993  16.859   8.587  1.00  0.00    +0.000 H 
ATOM    148  H43 UNL A   1      17.875  14.870   5.532  1.00  0.00    +0.000 H 
ATOM    149  H44 UNL A   1      19.545  13.112   5.536  1.00  0.00    +0.000 H 
ATOM     96  C66 UNL A   1      18.689  14.932   6.164  1.00  0.00    +0.000 C 
BRANCH   35   33
ATOM     33  C23 UNL A   1      21.955  13.157   6.757  1.00  0.00    +0.000 C 
ATOM     34  O9  UNL A   1      21.792  11.958   6.950  1.00  0.00    +0.000 O 
BRANCH   33   32
ATOM    135  H30 UNL A   1      23.376  13.768   5.480  1.00  0.00    +0.000 H 
ATOM     32  N2  UNL A   1      23.191  13.656   6.441  1.00  0.00    +0.000 N 
BRANCH   32   31
ATOM    133  H28 UNL A   1      25.165  13.562   7.019  1.00  0.00    +0.000 H 
ATOM    134  H29 UNL A   1      24.346  15.107   7.304  1.00  0.00    +0.000 H 
ATOM     31  C22 UNL A   1      24.263  14.041   7.339  1.00  0.00    +0.000 C 
BRANCH   31   30
ATOM    131  H26 UNL A   1      23.013  13.223   8.837  1.00  0.00    +0.000 H 
ATOM    132  H27 UNL A   1      24.768  12.966   9.060  1.00  0.00    +0.000 H 
ATOM     30  C21 UNL A   1      23.993  13.650   8.785  1.00  0.00    +0.000 C 
BRANCH   30   29
ATOM    129  H24 UNL A   1      23.393  14.577  10.594  1.00  0.00    +0.000 H 
ATOM    130  H25 UNL A   1      25.090  14.870  10.082  1.00  0.00    +0.000 H 
ATOM     29  C20 UNL A   1      24.062  14.802   9.790  1.00  0.00    +0.000 C 
BRANCH   29   28
ATOM     28  C19 UNL A   1      23.694  16.188   9.246  1.00  0.00    +0.000 C 
ATOM    127  H22 UNL A   1      23.602  16.110   8.183  1.00  0.00    +0.000 H 
ATOM    128  H23 UNL A   1      22.787  16.464   9.742  1.00  0.00    +0.000 H 
BRANCH   28   27
ATOM     27  C18 UNL A   1      24.691  17.308   9.549  1.00  0.00    +0.000 C 
ATOM    125  H20 UNL A   1      24.823  17.366  10.610  1.00  0.00    +0.000 H 
ATOM    126  H21 UNL A   1      25.600  17.065   9.039  1.00  0.00    +0.000 H 
BRANCH   27   26
ATOM     26  C17 UNL A   1      24.251  18.667   9.048  1.00  0.00    +0.000 C 
ATOM    123  H18 UNL A   1      23.515  19.061   9.716  1.00  0.00    +0.000 H 
ATOM    124  H19 UNL A   1      25.113  19.300   9.008  1.00  0.00    +0.000 H 
BRANCH   26   25
ATOM     25  N1  UNL A   1      23.688  18.596   7.719  1.00  0.00    +0.000 N 
ATOM    122  H17 UNL A   1      22.842  18.107   7.603  1.00  0.00    +0.000 H 
BRANCH   25   23
ATOM     23  C16 UNL A   1      24.252  19.164   6.615  1.00  0.00    +0.000 C 
ATOM     24  O8  UNL A   1      25.056  20.077   6.715  1.00  0.00    +0.000 O 
BRANCH   23   22
ATOM      2  C2  UNL A   1      26.488  19.136   0.903  1.00  0.00    +0.000 C 
ATOM      3  C3  UNL A   1      25.854  19.017  -0.434  1.00  0.00    +0.000 C 
ATOM      4  O1  UNL A   1      26.333  19.336  -1.496  1.00  0.00    +0.000 O 
ATOM      5  O2  UNL A   1      24.600  18.529  -0.212  1.00  0.00    +0.000 O 
ATOM      6  C4  UNL A   1      24.350  18.393   1.212  1.00  0.00    +0.000 C 
ATOM      7  C5  UNL A   1      25.354  19.344   1.850  1.00  0.00    +0.000 C 
ATOM      8  C6  UNL A   1      25.580  19.327   3.369  1.00  0.00    +0.000 C 
ATOM     17  C12 UNL A   1      24.219  19.544   4.148  1.00  0.00    +0.000 C 
ATOM     22  C15 UNL A   1      23.795  18.624   5.285  1.00  0.00    +0.000 C 
ATOM    150  H45 UNL A   1      23.307  17.103   6.447  1.00  0.00    +0.000 H 
ATOM    152  H47 UNL A   1      21.963  15.191   2.807  1.00  0.00    +0.000 H 
ATOM    151  H46 UNL A   1      22.123  16.093   5.689  1.00  0.00    +0.000 H 
ATOM    156  H51 UNL A   1      25.495  17.030   1.557  1.00  0.00    +0.000 H 
ATOM     98  C68 UNL A   1      23.122  17.475   5.503  1.00  0.00    +0.000 C 
ATOM     99  C69 UNL A   1      22.203  16.617   4.759  1.00  0.00    +0.000 C 
ATOM    100  O10 UNL A   1      21.441  17.214   3.718  1.00  0.00    +0.000 O 
ATOM    101  C70 UNL A   1      22.208  16.084   3.344  1.00  0.00    +0.000 C 
ATOM    102  C71 UNL A   1      23.540  16.126   2.591  1.00  0.00    +0.000 C 
ATOM    104  O11 UNL A   1      23.306  16.193   1.167  1.00  0.00    +0.000 O 
ATOM    105  C73 UNL A   1      24.429  16.955   1.604  1.00  0.00    +0.000 C 
ATOM    108  H3  UNL A   1      23.369  18.666   1.544  1.00  0.00    +0.000 H 
ATOM    109  H4  UNL A   1      25.031  20.360   1.933  1.00  0.00    +0.000 H 
ATOM    110  H5  UNL A   1      26.203  20.161   3.619  1.00  0.00    +0.000 H 
ATOM    118  H13 UNL A   1      24.463  19.934   5.115  1.00  0.00    +0.000 H 
BRANCH    2    1
ATOM      1  C1  UNL A   1      27.800  18.941   1.059  1.00  0.00    +0.000 C 
ATOM    106  H1  UNL A   1      28.141  18.243   1.738  1.00  0.00    +0.000 H 
ATOM    107  H2  UNL A   1      28.473  19.491   0.503  1.00  0.00    +0.000 H 
ENDBRANCH    2    1
BRANCH    8    9
ATOM      9  O3  UNL A   1      26.327  18.173   3.806  1.00  0.00    +0.000 O 
BRANCH    9   10
ATOM     10  C7  UNL A   1      27.494  18.211   4.547  1.00  0.00    +0.000 C 
ATOM     11  O4  UNL A   1      27.921  19.315   4.876  1.00  0.00    +0.000 O 
BRANCH   10   12
ATOM    114  H9  UNL A   1      29.426  15.109   5.159  1.00  0.00    +0.000 H 
ATOM     12  C8  UNL A   1      27.984  16.977   5.296  1.00  0.00    +0.000 C 
ATOM     14  O5  UNL A   1      29.196  17.304   6.032  1.00  0.00    +0.000 O 
ATOM     15  C10 UNL A   1      29.307  16.172   5.188  1.00  0.00    +0.000 C 
BRANCH   12   13
ATOM    113  H8  UNL A   1      25.990  16.510   5.892  1.00  0.00    +0.000 H 
ATOM     13  C9  UNL A   1      26.980  16.397   6.282  1.00  0.00    +0.000 C 
ATOM    111  H6  UNL A   1      27.057  16.917   7.215  1.00  0.00    +0.000 H 
ATOM    112  H7  UNL A   1      27.187  15.358   6.435  1.00  0.00    +0.000 H 
ENDBRANCH   12   13
BRANCH   15   16
ATOM    115  H10 UNL A   1      31.074  15.409   4.359  1.00  0.00    +0.000 H 
ATOM    116  H11 UNL A   1      31.024  17.150   4.489  1.00  0.00    +0.000 H 
ATOM    117  H12 UNL A   1      30.093  16.339   3.253  1.00  0.00    +0.000 H 
ATOM     16  C11 UNL A   1      30.454  16.275   4.257  1.00  0.00    +0.000 C 
ENDBRANCH   15   16
ENDBRANCH   10   12
ENDBRANCH    9   10
ENDBRANCH    8    9
BRANCH   17   18
ATOM     18  O6  UNL A   1      23.310  20.565   3.575  1.00  0.00    +0.000 O 
BRANCH   18   19
ATOM     19  C13 UNL A   1      22.030  20.885   3.371  1.00  0.00    +0.000 C 
ATOM     21  O7  UNL A   1      21.464  21.637   4.163  1.00  0.00    +0.000 O 
BRANCH   19   20
ATOM    121  H16 UNL A   1      21.956  20.372   1.343  1.00  0.00    +0.000 H 
ATOM     20  C14 UNL A   1      21.295  20.405   2.184  1.00  0.00    +0.000 C 
ATOM    119  H14 UNL A   1      20.483  21.069   1.973  1.00  0.00    +0.000 H 
ATOM    120  H15 UNL A   1      20.913  19.423   2.375  1.00  0.00    +0.000 H 
ENDBRANCH   19   20
ENDBRANCH   18   19
ENDBRANCH   17   18
BRANCH  102  103
ATOM    153  H48 UNL A   1      24.519  14.867   4.016  1.00  0.00    +0.000 H 
ATOM    154  H49 UNL A   1      25.178  14.764   2.401  1.00  0.00    +0.000 H 
ATOM    155  H50 UNL A   1      23.652  13.998   2.772  1.00  0.00    +0.000 H 
ATOM    103  C72 UNL A   1      24.278  14.842   2.974  1.00  0.00    +0.000 C 
ENDBRANCH  102  103
ENDBRANCH   23   22
ENDBRANCH   25   23
ENDBRANCH   26   25
ENDBRANCH   27   26
ENDBRANCH   28   27
ENDBRANCH   29   28
ENDBRANCH   30   29
ENDBRANCH   31   30
ENDBRANCH   32   31
ENDBRANCH   33   32
ENDBRANCH   35   33
ENDBRANCH   39   38
BRANCH   43   44
ATOM     44  C32 UNL A   1      17.506  21.671   3.239  1.00  0.00    +0.000 C 
ATOM     45  C33 UNL A   1      17.279  21.238   1.923  1.00  0.00    +0.000 C 
ATOM     46  F1  UNL A   1      16.447  20.212   1.683  1.00  0.00    +0.000 F 
ATOM     47  C34 UNL A   1      17.939  21.829   0.849  1.00  0.00    +0.000 C 
ATOM     48  F2  UNL A   1      17.746  21.362  -0.393  1.00  0.00    +0.000 F 
ATOM     49  C35 UNL A   1      18.805  22.890   1.063  1.00  0.00    +0.000 C 
ATOM     50  F3  UNL A   1      19.432  23.464   0.027  1.00  0.00    +0.000 F 
ATOM     51  C36 UNL A   1      19.027  23.351   2.351  1.00  0.00    +0.000 C 
ATOM     52  F4  UNL A   1      19.851  24.386   2.558  1.00  0.00    +0.000 F 
ATOM     53  C37 UNL A   1      18.396  22.739   3.431  1.00  0.00    +0.000 C 
ATOM     54  F5  UNL A   1      18.648  23.196   4.667  1.00  0.00    +0.000 F 
ENDBRANCH   43   44
BRANCH   60   61
ATOM     65  F7  UNL A   1      10.882  26.203   8.602  1.00  0.00    +0.000 F 
ATOM     66  C46 UNL A   1       9.551  24.716   7.339  1.00  0.00    +0.000 C 
ATOM     67  F8  UNL A   1       8.533  25.588   7.360  1.00  0.00    +0.000 F 
ATOM     68  C47 UNL A   1       9.405  23.493   6.703  1.00  0.00    +0.000 C 
ATOM     69  F9  UNL A   1       8.253  23.192   6.086  1.00  0.00    +0.000 F 
ATOM     70  C48 UNL A   1      10.452  22.577   6.704  1.00  0.00    +0.000 C 
ATOM     71  F10 UNL A   1      10.274  21.396   6.094  1.00  0.00    +0.000 F 
ATOM     61  C43 UNL A   1      11.679  22.881   7.315  1.00  0.00    +0.000 C 
ATOM     62  C44 UNL A   1      11.812  24.134   7.931  1.00  0.00    +0.000 C 
ATOM     63  F6  UNL A   1      12.959  24.468   8.541  1.00  0.00    +0.000 F 
ATOM     64  C45 UNL A   1      10.750  25.033   7.961  1.00  0.00    +0.000 C 
ENDBRANCH   60   61
BRANCH   75   76
ATOM     76  C52 UNL A   1      13.301  17.333  11.215  1.00  0.00    +0.000 C 
ATOM     77  C53 UNL A   1      12.176  16.504  11.103  1.00  0.00    +0.000 C 
ATOM     78  F11 UNL A   1      11.635  16.270   9.897  1.00  0.00    +0.000 F 
ATOM     79  C54 UNL A   1      11.573  15.949  12.229  1.00  0.00    +0.000 C 
ATOM     80  F12 UNL A   1      10.467  15.205  12.097  1.00  0.00    +0.000 F 
ATOM     81  C55 UNL A   1      12.106  16.181  13.488  1.00  0.00    +0.000 C 
ATOM     82  F13 UNL A   1      11.528  15.646  14.572  1.00  0.00    +0.000 F 
ATOM     83  C56 UNL A   1      13.233  16.977  13.624  1.00  0.00    +0.000 C 
ATOM     84  F14 UNL A   1      13.761  17.192  14.836  1.00  0.00    +0.000 F 
ATOM     85  C57 UNL A   1      13.816  17.560  12.501  1.00  0.00    +0.000 C 
ATOM     86  F15 UNL A   1      14.895  18.340  12.664  1.00  0.00    +0.000 F 
ENDBRANCH   75   76
TORSDOF 25
ENDMDL
MODEL 9
REMARK VINA RESULT:      -9.1      9.657     17.538
ROOT
ATOM    138  H33 UNL A   1      12.782  27.252  -8.668  1.00  0.00    +0.000 H 
ATOM    139  H34 UNL A   1      14.678  27.756 -10.385  1.00  0.00    +0.000 H 
ATOM    140  H35 UNL A   1      12.540  31.243  -9.749  1.00  0.00    +0.000 H 
ATOM    141  H36 UNL A   1      11.386  37.347 -11.233  1.00  0.00    +0.000 H 
ATOM    142  H37 UNL A   1       9.636  36.886  -9.452  1.00  0.00    +0.000 H 
ATOM    143  H38 UNL A   1      11.801  33.387 -10.040  1.00  0.00    +0.000 H 
ATOM    144  H39 UNL A   1      15.373  34.498 -13.384  1.00  0.00    +0.000 H 
ATOM    145  H40 UNL A   1      16.043  32.031 -13.286  1.00  0.00    +0.000 H 
ATOM    146  H41 UNL A   1       9.170  30.338  -6.161  1.00  0.00    +0.000 H 
ATOM    147  H42 UNL A   1       8.144  32.640  -6.617  1.00  0.00    +0.000 H 
ATOM     39  C28 UNL A   1       9.631  34.206  -8.477  1.00  0.00    +0.000 C 
ATOM     40  C29 UNL A   1       9.867  32.775  -8.085  1.00  0.00    +0.000 C 
ATOM     41  N3  UNL A   1      10.787  31.943  -8.504  1.00  0.00    +0.000 N 
ATOM     42  C30 UNL A   1      10.580  30.767  -7.796  1.00  0.00    +0.000 C 
ATOM     43  C31 UNL A   1      11.224  29.582  -7.923  1.00  0.00    +0.000 C 
ATOM     55  C38 UNL A   1      12.294  29.344  -8.855  1.00  0.00    +0.000 C 
ATOM     56  C39 UNL A   1      12.978  28.167  -9.101  1.00  0.00    +0.000 C 
ATOM     57  C40 UNL A   1      13.979  28.433 -10.041  1.00  0.00    +0.000 C 
ATOM     58  C41 UNL A   1      13.876  29.758 -10.432  1.00  0.00    +0.000 C 
ATOM     59  N4  UNL A   1      12.842  30.307  -9.691  1.00  0.00    +0.000 N 
ATOM     60  C42 UNL A   1      14.661  30.469 -11.410  1.00  0.00    +0.000 C 
ATOM     72  C49 UNL A   1      14.493  31.772 -11.746  1.00  0.00    +0.000 C 
ATOM     73  N5  UNL A   1      13.570  32.688 -11.262  1.00  0.00    +0.000 N 
ATOM     74  C50 UNL A   1      13.817  33.815 -11.884  1.00  0.00    +0.000 C 
ATOM     75  C51 UNL A   1      13.105  35.137 -11.778  1.00  0.00    +0.000 C 
ATOM     87  C58 UNL A   1      12.052  35.245 -10.947  1.00  0.00    +0.000 C 
ATOM     88  C59 UNL A   1      11.253  36.449 -10.742  1.00  0.00    +0.000 C 
ATOM     89  C60 UNL A   1      10.320  36.201  -9.811  1.00  0.00    +0.000 C 
ATOM     90  C61 UNL A   1      10.426  34.805  -9.386  1.00  0.00    +0.000 C 
ATOM     91  N6  UNL A   1      11.482  34.315 -10.112  1.00  0.00    +0.000 N 
ATOM     92  C62 UNL A   1      14.953  33.748 -12.813  1.00  0.00    +0.000 C 
ATOM     93  C63 UNL A   1      15.298  32.472 -12.726  1.00  0.00    +0.000 C 
ATOM     94  C64 UNL A   1       9.494  31.011  -6.874  1.00  0.00    +0.000 C 
ATOM     95  C65 UNL A   1       8.969  32.212  -7.065  1.00  0.00    +0.000 C 
ENDROOT
BRANCH   39   38
ATOM     97  C67 UNL A   1       6.354  35.998  -7.942  1.00  0.00    +0.000 C 
ATOM     35  C24 UNL A   1       6.480  36.404  -6.610  1.00  0.00    +0.000 C 
ATOM     36  C25 UNL A   1       7.660  36.167  -5.903  1.00  0.00    +0.000 C 
ATOM     37  C26 UNL A   1       8.702  35.480  -6.522  1.00  0.00    +0.000 C 
ATOM     38  C27 UNL A   1       8.549  34.984  -7.828  1.00  0.00    +0.000 C 
ATOM    136  H31 UNL A   1       7.759  36.498  -4.931  1.00  0.00    +0.000 H 
ATOM    137  H32 UNL A   1       9.591  35.332  -6.017  1.00  0.00    +0.000 H 
ATOM    148  H43 UNL A   1       7.236  34.869  -9.483  1.00  0.00    +0.000 H 
ATOM    149  H44 UNL A   1       5.517  36.260  -8.487  1.00  0.00    +0.000 H 
ATOM     96  C66 UNL A   1       7.361  35.242  -8.529  1.00  0.00    +0.000 C 
BRANCH   35   33
ATOM     33  C23 UNL A   1       5.357  37.056  -5.909  1.00  0.00    +0.000 C 
ATOM     34  O9  UNL A   1       5.206  38.270  -5.982  1.00  0.00    +0.000 O 
BRANCH   33   32
ATOM    135  H30 UNL A   1       4.551  36.444  -4.178  1.00  0.00    +0.000 H 
ATOM     32  N2  UNL A   1       4.515  36.287  -5.150  1.00  0.00    +0.000 N 
BRANCH   32   31
ATOM    133  H28 UNL A   1       2.597  35.548  -5.268  1.00  0.00    +0.000 H 
ATOM    134  H29 UNL A   1       3.644  35.216  -6.659  1.00  0.00    +0.000 H 
ATOM     31  C22 UNL A   1       3.579  35.271  -5.592  1.00  0.00    +0.000 C 
BRANCH   31   30
ATOM    131  H26 UNL A   1       4.241  34.004  -4.033  1.00  0.00    +0.000 H 
ATOM    132  H27 UNL A   1       3.000  33.318  -5.122  1.00  0.00    +0.000 H 
ATOM     30  C21 UNL A   1       3.901  33.889  -5.042  1.00  0.00    +0.000 C 
BRANCH   30   29
ATOM    129  H24 UNL A   1       4.552  32.171  -6.098  1.00  0.00    +0.000 H 
ATOM    130  H25 UNL A   1       5.232  33.741  -6.647  1.00  0.00    +0.000 H 
ATOM     29  C20 UNL A   1       4.969  33.117  -5.818  1.00  0.00    +0.000 C 
BRANCH   29   28
ATOM     28  C19 UNL A   1       6.280  32.850  -5.069  1.00  0.00    +0.000 C 
ATOM    127  H22 UNL A   1       6.452  31.794  -5.075  1.00  0.00    +0.000 H 
ATOM    128  H23 UNL A   1       7.030  33.415  -5.582  1.00  0.00    +0.000 H 
BRANCH   28   27
ATOM     27  C18 UNL A   1       6.324  33.325  -3.615  1.00  0.00    +0.000 C 
ATOM    125  H20 UNL A   1       6.249  34.393  -3.606  1.00  0.00    +0.000 H 
ATOM    126  H21 UNL A   1       5.507  32.855  -3.108  1.00  0.00    +0.000 H 
BRANCH   27   26
ATOM     26  C17 UNL A   1       7.588  32.928  -2.883  1.00  0.00    +0.000 C 
ATOM    123  H18 UNL A   1       8.191  32.331  -3.533  1.00  0.00    +0.000 H 
ATOM    124  H19 UNL A   1       8.099  33.824  -2.597  1.00  0.00    +0.000 H 
BRANCH   26   25
ATOM     25  N1  UNL A   1       7.303  32.175  -1.684  1.00  0.00    +0.000 N 
ATOM    122  H17 UNL A   1       6.451  31.685  -1.639  1.00  0.00    +0.000 H 
BRANCH   25   23
ATOM     23  C16 UNL A   1       8.140  32.097  -0.609  1.00  0.00    +0.000 C 
ATOM     24  O8  UNL A   1       8.495  33.099  -0.011  1.00  0.00    +0.000 O 
BRANCH   23   22
ATOM      2  C2  UNL A   1      13.386  28.980  -1.229  1.00  0.00    +0.000 C 
ATOM      3  C3  UNL A   1      13.704  27.530  -1.282  1.00  0.00    +0.000 C 
ATOM      4  O1  UNL A   1      14.711  27.023  -1.718  1.00  0.00    +0.000 O 
ATOM      5  O2  UNL A   1      12.607  26.886  -0.794  1.00  0.00    +0.000 O 
ATOM      6  C4  UNL A   1      11.550  27.836  -0.492  1.00  0.00    +0.000 C 
ATOM      7  C5  UNL A   1      11.900  29.051  -1.341  1.00  0.00    +0.000 C 
ATOM      8  C6  UNL A   1      11.155  30.379  -1.138  1.00  0.00    +0.000 C 
ATOM     17  C12 UNL A   1       9.592  30.182  -1.284  1.00  0.00    +0.000 C 
ATOM     22  C15 UNL A   1       8.619  30.717  -0.241  1.00  0.00    +0.000 C 
ATOM    150  H45 UNL A   1       7.617  31.169   1.400  1.00  0.00    +0.000 H 
ATOM    152  H47 UNL A   1       8.881  27.290   2.836  1.00  0.00    +0.000 H 
ATOM    151  H46 UNL A   1       7.202  29.744   2.290  1.00  0.00    +0.000 H 
ATOM    156  H51 UNL A   1      12.328  28.662   0.923  1.00  0.00    +0.000 H 
ATOM     98  C68 UNL A   1       8.023  30.355   0.913  1.00  0.00    +0.000 C 
ATOM     99  C69 UNL A   1       7.799  29.119   1.659  1.00  0.00    +0.000 C 
ATOM    100  O10 UNL A   1       7.794  27.900   0.929  1.00  0.00    +0.000 O 
ATOM    101  C70 UNL A   1       8.696  27.955   2.018  1.00  0.00    +0.000 C 
ATOM    102  C71 UNL A   1      10.206  28.183   1.910  1.00  0.00    +0.000 C 
ATOM    104  O11 UNL A   1      10.883  26.930   1.668  1.00  0.00    +0.000 O 
ATOM    105  C73 UNL A   1      11.460  28.039   0.984  1.00  0.00    +0.000 C 
ATOM    108  H3  UNL A   1      10.556  27.526  -0.740  1.00  0.00    +0.000 H 
ATOM    109  H4  UNL A   1      11.533  29.027  -2.346  1.00  0.00    +0.000 H 
ATOM    110  H5  UNL A   1      11.447  31.044  -1.924  1.00  0.00    +0.000 H 
ATOM    118  H13 UNL A   1       9.173  31.130  -1.549  1.00  0.00    +0.000 H 
BRANCH    2    1
ATOM      1  C1  UNL A   1      14.341  29.883  -0.993  1.00  0.00    +0.000 C 
ATOM    106  H1  UNL A   1      14.798  30.367  -1.782  1.00  0.00    +0.000 H 
ATOM    107  H2  UNL A   1      14.623  30.095  -0.024  1.00  0.00    +0.000 H 
ENDBRANCH    2    1
BRANCH    8    9
ATOM      9  O3  UNL A   1      11.550  31.056   0.073  1.00  0.00    +0.000 O 
BRANCH    9   10
ATOM     10  C7  UNL A   1      11.817  32.409   0.182  1.00  0.00    +0.000 C 
ATOM     11  O4  UNL A   1      11.297  33.016   1.115  1.00  0.00    +0.000 O 
BRANCH   10   12
ATOM    114  H9  UNL A   1      14.247  33.048  -2.541  1.00  0.00    +0.000 H 
ATOM     12  C8  UNL A   1      13.021  33.025  -0.520  1.00  0.00    +0.000 C 
ATOM     14  O5  UNL A   1      12.597  34.194  -1.277  1.00  0.00    +0.000 O 
ATOM     15  C10 UNL A   1      13.329  33.241  -2.026  1.00  0.00    +0.000 C 
BRANCH   12   13
ATOM    113  H8  UNL A   1      14.334  32.678   1.124  1.00  0.00    +0.000 H 
ATOM     13  C9  UNL A   1      14.145  33.455   0.414  1.00  0.00    +0.000 C 
ATOM    111  H6  UNL A   1      13.857  34.348   0.929  1.00  0.00    +0.000 H 
ATOM    112  H7  UNL A   1      15.031  33.641  -0.156  1.00  0.00    +0.000 H 
ENDBRANCH   12   13
BRANCH   15   16
ATOM    115  H10 UNL A   1      12.779  31.776  -3.421  1.00  0.00    +0.000 H 
ATOM    116  H11 UNL A   1      12.975  33.379  -4.088  1.00  0.00    +0.000 H 
ATOM    117  H12 UNL A   1      11.564  32.997  -3.130  1.00  0.00    +0.000 H 
ATOM     16  C11 UNL A   1      12.612  32.819  -3.251  1.00  0.00    +0.000 C 
ENDBRANCH   15   16
ENDBRANCH   10   12
ENDBRANCH    9   10
ENDBRANCH    8    9
BRANCH   17   18
ATOM     18  O6  UNL A   1       9.160  29.285  -2.382  1.00  0.00    +0.000 O 
BRANCH   18   19
ATOM     19  C13 UNL A   1       8.114  28.885  -3.108  1.00  0.00    +0.000 C 
ATOM     21  O7  UNL A   1       7.735  29.580  -4.051  1.00  0.00    +0.000 O 
BRANCH   19   20
ATOM    121  H16 UNL A   1       6.379  27.725  -2.950  1.00  0.00    +0.000 H 
ATOM     20  C14 UNL A   1       7.436  27.600  -2.843  1.00  0.00    +0.000 C 
ATOM    119  H14 UNL A   1       7.658  27.278  -1.848  1.00  0.00    +0.000 H 
ATOM    120  H15 UNL A   1       7.781  26.865  -3.541  1.00  0.00    +0.000 H 
ENDBRANCH   19   20
ENDBRANCH   18   19
ENDBRANCH   17   18
BRANCH  102  103
ATOM    153  H48 UNL A   1       9.811  29.336   3.667  1.00  0.00    +0.000 H 
ATOM    154  H49 UNL A   1      11.452  29.467   3.081  1.00  0.00    +0.000 H 
ATOM    155  H50 UNL A   1      10.935  28.020   3.914  1.00  0.00    +0.000 H 
ATOM    103  C72 UNL A   1      10.633  28.798   3.243  1.00  0.00    +0.000 C 
ENDBRANCH  102  103
ENDBRANCH   23   22
ENDBRANCH   25   23
ENDBRANCH   26   25
ENDBRANCH   27   26
ENDBRANCH   28   27
ENDBRANCH   29   28
ENDBRANCH   30   29
ENDBRANCH   31   30
ENDBRANCH   32   31
ENDBRANCH   33   32
ENDBRANCH   35   33
ENDBRANCH   39   38
BRANCH   43   44
ATOM     44  C32 UNL A   1      10.789  28.454  -7.030  1.00  0.00    +0.000 C 
ATOM     45  C33 UNL A   1       9.778  27.558  -7.411  1.00  0.00    +0.000 C 
ATOM     46  F1  UNL A   1       9.138  27.718  -8.580  1.00  0.00    +0.000 F 
ATOM     47  C34 UNL A   1       9.386  26.518  -6.571  1.00  0.00    +0.000 C 
ATOM     48  F2  UNL A   1       8.380  25.710  -6.933  1.00  0.00    +0.000 F 
ATOM     49  C35 UNL A   1      10.026  26.327  -5.357  1.00  0.00    +0.000 C 
ATOM     50  F3  UNL A   1       9.655  25.319  -4.553  1.00  0.00    +0.000 F 
ATOM     51  C36 UNL A   1      11.045  27.183  -4.970  1.00  0.00    +0.000 C 
ATOM     52  F4  UNL A   1      11.676  26.990  -3.804  1.00  0.00    +0.000 F 
ATOM     53  C37 UNL A   1      11.414  28.246  -5.792  1.00  0.00    +0.000 C 
ATOM     54  F5  UNL A   1      12.390  29.069  -5.379  1.00  0.00    +0.000 F 
ENDBRANCH   43   44
BRANCH   60   61
ATOM     65  F7  UNL A   1      16.165  27.554 -15.057  1.00  0.00    +0.000 F 
ATOM     66  C46 UNL A   1      17.765  28.330 -13.504  1.00  0.00    +0.000 C 
ATOM     67  F8  UNL A   1      18.735  27.667 -14.151  1.00  0.00    +0.000 F 
ATOM     68  C47 UNL A   1      18.065  29.057 -12.362  1.00  0.00    +0.000 C 
ATOM     69  F9  UNL A   1      19.328  29.119 -11.920  1.00  0.00    +0.000 F 
ATOM     70  C48 UNL A   1      17.055  29.724 -11.675  1.00  0.00    +0.000 C 
ATOM     71  F10 UNL A   1      17.374  30.406 -10.566  1.00  0.00    +0.000 F 
ATOM     61  C43 UNL A   1      15.729  29.701 -12.137  1.00  0.00    +0.000 C 
ATOM     62  C44 UNL A   1      15.454  28.978 -13.307  1.00  0.00    +0.000 C 
ATOM     63  F6  UNL A   1      14.202  28.914 -13.783  1.00  0.00    +0.000 F 
ATOM     64  C45 UNL A   1      16.460  28.282 -13.971  1.00  0.00    +0.000 C 
ENDBRANCH   60   61
BRANCH   75   76
ATOM     76  C52 UNL A   1      13.538  36.305 -12.590  1.00  0.00    +0.000 C 
ATOM     77  C53 UNL A   1      14.497  37.206 -12.107  1.00  0.00    +0.000 C 
ATOM     78  F11 UNL A   1      15.033  37.023 -10.890  1.00  0.00    +0.000 F 
ATOM     79  C54 UNL A   1      14.878  38.322 -12.848  1.00  0.00    +0.000 C 
ATOM     80  F12 UNL A   1      15.757  39.195 -12.338  1.00  0.00    +0.000 F 
ATOM     81  C55 UNL A   1      14.335  38.540 -14.105  1.00  0.00    +0.000 C 
ATOM     82  F13 UNL A   1      14.702  39.612 -14.820  1.00  0.00    +0.000 F 
ATOM     83  C56 UNL A   1      13.401  37.651 -14.616  1.00  0.00    +0.000 C 
ATOM     84  F14 UNL A   1      12.885  37.849 -15.836  1.00  0.00    +0.000 F 
ATOM     85  C57 UNL A   1      12.995  36.553 -13.861  1.00  0.00    +0.000 C 
ATOM     86  F15 UNL A   1      12.078  35.720 -14.373  1.00  0.00    +0.000 F 
ENDBRANCH   75   76
TORSDOF 25
ENDMDL
MODEL 10
REMARK VINA RESULT:      -9.1     23.206     30.796
ROOT
ATOM    138  H33 UNL A   1      19.141  53.194  -1.471  1.00  0.00    +0.000 H 
ATOM    139  H34 UNL A   1      18.532  50.735  -2.083  1.00  0.00    +0.000 H 
ATOM    140  H35 UNL A   1      16.166  51.905   1.106  1.00  0.00    +0.000 H 
ATOM    141  H36 UNL A   1      11.867  50.456   5.602  1.00  0.00    +0.000 H 
ATOM    142  H37 UNL A   1      12.361  52.897   6.096  1.00  0.00    +0.000 H 
ATOM    143  H38 UNL A   1      14.711  51.756   2.863  1.00  0.00    +0.000 H 
ATOM    144  H39 UNL A   1      13.460  47.008   1.832  1.00  0.00    +0.000 H 
ATOM    145  H40 UNL A   1      15.283  47.059   0.038  1.00  0.00    +0.000 H 
ATOM    146  H41 UNL A   1      17.080  56.746   1.993  1.00  0.00    +0.000 H 
ATOM    147  H42 UNL A   1      15.656  56.572   4.114  1.00  0.00    +0.000 H 
ATOM     39  C28 UNL A   1      14.342  54.060   4.407  1.00  0.00    +0.000 C 
ATOM     40  C29 UNL A   1      15.349  54.455   3.363  1.00  0.00    +0.000 C 
ATOM     41  N3  UNL A   1      15.842  53.747   2.378  1.00  0.00    +0.000 N 
ATOM     42  C30 UNL A   1      16.698  54.598   1.695  1.00  0.00    +0.000 C 
ATOM     43  C31 UNL A   1      17.505  54.317   0.644  1.00  0.00    +0.000 C 
ATOM     55  C38 UNL A   1      17.598  53.022   0.025  1.00  0.00    +0.000 C 
ATOM     56  C39 UNL A   1      18.422  52.617  -1.010  1.00  0.00    +0.000 C 
ATOM     57  C40 UNL A   1      18.111  51.290  -1.321  1.00  0.00    +0.000 C 
ATOM     58  C41 UNL A   1      17.143  50.845  -0.436  1.00  0.00    +0.000 C 
ATOM     59  N4  UNL A   1      16.832  51.920   0.381  1.00  0.00    +0.000 N 
ATOM     60  C42 UNL A   1      16.547  49.535  -0.341  1.00  0.00    +0.000 C 
ATOM     72  C49 UNL A   1      15.605  49.172   0.564  1.00  0.00    +0.000 C 
ATOM     73  N5  UNL A   1      15.021  49.928   1.571  1.00  0.00    +0.000 N 
ATOM     74  C50 UNL A   1      14.162  49.138   2.166  1.00  0.00    +0.000 C 
ATOM     75  C51 UNL A   1      13.271  49.416   3.347  1.00  0.00    +0.000 C 
ATOM     87  C58 UNL A   1      13.316  50.631   3.925  1.00  0.00    +0.000 C 
ATOM     88  C59 UNL A   1      12.528  51.052   5.079  1.00  0.00    +0.000 C 
ATOM     89  C60 UNL A   1      12.799  52.338   5.348  1.00  0.00    +0.000 C 
ATOM     90  C61 UNL A   1      13.817  52.819   4.413  1.00  0.00    +0.000 C 
ATOM     91  N6  UNL A   1      14.062  51.739   3.604  1.00  0.00    +0.000 N 
ATOM     92  C62 UNL A   1      14.080  47.793   1.580  1.00  0.00    +0.000 C 
ATOM     93  C63 UNL A   1      15.013  47.852   0.640  1.00  0.00    +0.000 C 
ATOM     94  C64 UNL A   1      16.611  55.892   2.334  1.00  0.00    +0.000 C 
ATOM     95  C65 UNL A   1      15.849  55.837   3.416  1.00  0.00    +0.000 C 
ENDROOT
BRANCH   39   38
ATOM     97  C67 UNL A   1      12.381  56.846   6.029  1.00  0.00    +0.000 C 
ATOM     35  C24 UNL A   1      12.973  56.894   7.294  1.00  0.00    +0.000 C 
ATOM     36  C25 UNL A   1      14.062  56.077   7.601  1.00  0.00    +0.000 C 
ATOM     37  C26 UNL A   1      14.532  55.176   6.649  1.00  0.00    +0.000 C 
ATOM     38  C27 UNL A   1      13.884  55.052   5.408  1.00  0.00    +0.000 C 
ATOM    136  H31 UNL A   1      14.516  56.141   8.525  1.00  0.00    +0.000 H 
ATOM    137  H32 UNL A   1      15.360  54.594   6.855  1.00  0.00    +0.000 H 
ATOM    148  H43 UNL A   1      12.307  55.795   4.207  1.00  0.00    +0.000 H 
ATOM    149  H44 UNL A   1      11.639  57.518   5.778  1.00  0.00    +0.000 H 
ATOM     96  C66 UNL A   1      12.797  55.889   5.110  1.00  0.00    +0.000 C 
BRANCH   35   33
ATOM     33  C23 UNL A   1      12.437  57.779   8.346  1.00  0.00    +0.000 C 
ATOM     34  O9  UNL A   1      12.843  58.930   8.450  1.00  0.00    +0.000 O 
BRANCH   33   32
ATOM    135  H30 UNL A   1      11.644  56.344   9.501  1.00  0.00    +0.000 H 
ATOM     32  N2  UNL A   1      11.510  57.279   9.222  1.00  0.00    +0.000 N 
BRANCH   32   31
ATOM    133  H28 UNL A   1      10.420  58.993   9.562  1.00  0.00    +0.000 H 
ATOM    134  H29 UNL A   1       9.482  57.502   9.365  1.00  0.00    +0.000 H 
ATOM     31  C22 UNL A   1      10.356  57.949   9.791  1.00  0.00    +0.000 C 
BRANCH   31   30
ATOM    131  H26 UNL A   1      10.802  58.593  11.756  1.00  0.00    +0.000 H 
ATOM    132  H27 UNL A   1       9.219  57.790  11.539  1.00  0.00    +0.000 H 
ATOM     30  C21 UNL A   1      10.262  57.788  11.301  1.00  0.00    +0.000 C 
BRANCH   30   29
ATOM    129  H24 UNL A   1      10.218  55.676  11.466  1.00  0.00    +0.000 H 
ATOM    130  H25 UNL A   1      11.843  56.438  11.526  1.00  0.00    +0.000 H 
ATOM     29  C20 UNL A   1      10.822  56.473  11.846  1.00  0.00    +0.000 C 
BRANCH   29   28
ATOM     28  C19 UNL A   1      10.863  56.344  13.374  1.00  0.00    +0.000 C 
ATOM    127  H22 UNL A   1      10.892  57.331  13.786  1.00  0.00    +0.000 H 
ATOM    128  H23 UNL A   1       9.990  55.786  13.643  1.00  0.00    +0.000 H 
BRANCH   28   27
ATOM     27  C18 UNL A   1      12.048  55.563  13.945  1.00  0.00    +0.000 C 
ATOM    125  H20 UNL A   1      12.792  55.470  13.180  1.00  0.00    +0.000 H 
ATOM    126  H21 UNL A   1      12.403  56.108  14.794  1.00  0.00    +0.000 H 
BRANCH   27   26
ATOM     26  C17 UNL A   1      11.685  54.175  14.429  1.00  0.00    +0.000 C 
ATOM    123  H18 UNL A   1      11.820  54.133  15.489  1.00  0.00    +0.000 H 
ATOM    124  H19 UNL A   1      10.666  53.987  14.163  1.00  0.00    +0.000 H 
BRANCH   26   25
ATOM     25  N1  UNL A   1      12.504  53.157  13.812  1.00  0.00    +0.000 N 
ATOM    122  H17 UNL A   1      13.346  52.910  14.257  1.00  0.00    +0.000 H 
BRANCH   25   23
ATOM     23  C16 UNL A   1      12.184  52.514  12.651  1.00  0.00    +0.000 C 
ATOM     24  O8  UNL A   1      12.314  53.063  11.569  1.00  0.00    +0.000 O 
BRANCH   23   22
ATOM      2  C2  UNL A   1      12.853  47.214   9.638  1.00  0.00    +0.000 C 
ATOM      3  C3  UNL A   1      11.995  46.009   9.503  1.00  0.00    +0.000 C 
ATOM      4  O1  UNL A   1      12.066  45.159   8.646  1.00  0.00    +0.000 O 
ATOM      5  O2  UNL A   1      11.076  46.087  10.506  1.00  0.00    +0.000 O 
ATOM      6  C4  UNL A   1      11.237  47.324  11.251  1.00  0.00    +0.000 C 
ATOM      7  C5  UNL A   1      11.979  48.237  10.282  1.00  0.00    +0.000 C 
ATOM      8  C6  UNL A   1      12.555  49.576  10.767  1.00  0.00    +0.000 C 
ATOM     17  C12 UNL A   1      11.432  50.469  11.434  1.00  0.00    +0.000 C 
ATOM     22  C15 UNL A   1      11.633  51.120  12.796  1.00  0.00    +0.000 C 
ATOM    150  H45 UNL A   1      11.989  51.535  14.694  1.00  0.00    +0.000 H 
ATOM    152  H47 UNL A   1      10.546  47.536  15.490  1.00  0.00    +0.000 H 
ATOM    151  H46 UNL A   1      11.076  50.502  15.741  1.00  0.00    +0.000 H 
ATOM    156  H51 UNL A   1      12.826  46.956  12.042  1.00  0.00    +0.000 H 
ATOM     98  C68 UNL A   1      11.467  50.864  14.110  1.00  0.00    +0.000 C 
ATOM     99  C69 UNL A   1      10.746  49.891  14.927  1.00  0.00    +0.000 C 
ATOM    100  O10 UNL A   1       9.600  49.273  14.357  1.00  0.00    +0.000 O 
ATOM    101  C70 UNL A   1      10.593  48.389  14.844  1.00  0.00    +0.000 C 
ATOM    102  C71 UNL A   1      11.608  47.633  13.983  1.00  0.00    +0.000 C 
ATOM    104  O11 UNL A   1      11.030  46.402  13.495  1.00  0.00    +0.000 O 
ATOM    105  C73 UNL A   1      11.895  47.043  12.561  1.00  0.00    +0.000 C 
ATOM    108  H3  UNL A   1      10.333  47.813  11.550  1.00  0.00    +0.000 H 
ATOM    109  H4  UNL A   1      11.357  48.778   9.600  1.00  0.00    +0.000 H 
ATOM    110  H5  UNL A   1      12.896  50.117   9.908  1.00  0.00    +0.000 H 
ATOM    118  H13 UNL A   1      11.752  51.488  11.368  1.00  0.00    +0.000 H 
BRANCH    2    1
ATOM      1  C1  UNL A   1      14.148  47.172   9.319  1.00  0.00    +0.000 C 
ATOM    106  H1  UNL A   1      14.470  46.572   8.543  1.00  0.00    +0.000 H 
ATOM    107  H2  UNL A   1      14.829  47.739   9.848  1.00  0.00    +0.000 H 
ENDBRANCH    2    1
BRANCH    8    9
ATOM      9  O3  UNL A   1      13.733  49.410  11.582  1.00  0.00    +0.000 O 
BRANCH    9   10
ATOM     10  C7  UNL A   1      14.825  50.259  11.591  1.00  0.00    +0.000 C 
ATOM     11  O4  UNL A   1      15.119  50.792  12.658  1.00  0.00    +0.000 O 
BRANCH   10   12
ATOM    114  H9  UNL A   1      16.164  49.971   8.149  1.00  0.00    +0.000 H 
ATOM     12  C8  UNL A   1      15.869  50.199  10.483  1.00  0.00    +0.000 C 
ATOM     14  O5  UNL A   1      16.074  51.532   9.935  1.00  0.00    +0.000 O 
ATOM     15  C10 UNL A   1      15.778  50.538   8.971  1.00  0.00    +0.000 C 
BRANCH   12   13
ATOM    113  H8  UNL A   1      17.162  48.599  11.045  1.00  0.00    +0.000 H 
ATOM     13  C9  UNL A   1      17.224  49.660  10.921  1.00  0.00    +0.000 C 
ATOM    111  H6  UNL A   1      17.503  50.112  11.850  1.00  0.00    +0.000 H 
ATOM    112  H7  UNL A   1      17.958  49.890  10.177  1.00  0.00    +0.000 H 
ENDBRANCH   12   13
BRANCH   15   16
ATOM    115  H10 UNL A   1      14.997  51.384   7.219  1.00  0.00    +0.000 H 
ATOM    116  H11 UNL A   1      13.997  51.593   8.637  1.00  0.00    +0.000 H 
ATOM    117  H12 UNL A   1      14.082  50.035   7.847  1.00  0.00    +0.000 H 
ATOM     16  C11 UNL A   1      14.634  50.913   8.109  1.00  0.00    +0.000 C 
ENDBRANCH   15   16
ENDBRANCH   10   12
ENDBRANCH    9   10
ENDBRANCH    8    9
BRANCH   17   18
ATOM     18  O6  UNL A   1      10.119  50.467  10.746  1.00  0.00    +0.000 O 
BRANCH   18   19
ATOM     19  C13 UNL A   1       9.476  50.832   9.634  1.00  0.00    +0.000 C 
ATOM     21  O7  UNL A   1       8.265  50.630   9.545  1.00  0.00    +0.000 O 
BRANCH   19   20
ATOM    121  H16 UNL A   1      10.640  52.412   8.908  1.00  0.00    +0.000 H 
ATOM     20  C14 UNL A   1      10.172  51.526   8.533  1.00  0.00    +0.000 C 
ATOM    119  H14 UNL A   1       9.467  51.790   7.774  1.00  0.00    +0.000 H 
ATOM    120  H15 UNL A   1      10.917  50.878   8.118  1.00  0.00    +0.000 H 
ENDBRANCH   19   20
ENDBRANCH   18   19
ENDBRANCH   17   18
BRANCH  102  103
ATOM    153  H48 UNL A   1      12.562  47.629  15.896  1.00  0.00    +0.000 H 
ATOM    154  H49 UNL A   1      13.642  47.946  14.561  1.00  0.00    +0.000 H 
ATOM    155  H50 UNL A   1      13.061  46.323  14.847  1.00  0.00    +0.000 H 
ATOM    103  C72 UNL A   1      12.809  47.363  14.890  1.00  0.00    +0.000 C 
ENDBRANCH  102  103
ENDBRANCH   23   22
ENDBRANCH   25   23
ENDBRANCH   26   25
ENDBRANCH   27   26
ENDBRANCH   28   27
ENDBRANCH   29   28
ENDBRANCH   30   29
ENDBRANCH   31   30
ENDBRANCH   32   31
ENDBRANCH   33   32
ENDBRANCH   35   33
ENDBRANCH   39   38
BRANCH   43   44
ATOM     44  C32 UNL A   1      18.350  55.433   0.097  1.00  0.00    +0.000 C 
ATOM     45  C33 UNL A   1      19.530  55.849   0.734  1.00  0.00    +0.000 C 
ATOM     46  F1  UNL A   1      19.912  55.278   1.887  1.00  0.00    +0.000 F 
ATOM     47  C34 UNL A   1      20.300  56.885   0.214  1.00  0.00    +0.000 C 
ATOM     48  F2  UNL A   1      21.393  57.301   0.870  1.00  0.00    +0.000 F 
ATOM     49  C35 UNL A   1      19.932  57.497  -0.975  1.00  0.00    +0.000 C 
ATOM     50  F3  UNL A   1      20.681  58.488  -1.480  1.00  0.00    +0.000 F 
ATOM     51  C36 UNL A   1      18.785  57.087  -1.636  1.00  0.00    +0.000 C 
ATOM     52  F4  UNL A   1      18.436  57.666  -2.792  1.00  0.00    +0.000 F 
ATOM     53  C37 UNL A   1      17.993  56.075  -1.098  1.00  0.00    +0.000 C 
ATOM     54  F5  UNL A   1      16.877  55.717  -1.752  1.00  0.00    +0.000 F 
ENDBRANCH   43   44
BRANCH   60   61
ATOM     65  F7  UNL A   1      16.216  47.050  -4.556  1.00  0.00    +0.000 F 
ATOM     66  C46 UNL A   1      17.995  46.543  -3.088  1.00  0.00    +0.000 C 
ATOM     67  F8  UNL A   1      18.450  45.611  -3.938  1.00  0.00    +0.000 F 
ATOM     68  C47 UNL A   1      18.647  46.762  -1.885  1.00  0.00    +0.000 C 
ATOM     69  F9  UNL A   1      19.749  46.061  -1.583  1.00  0.00    +0.000 F 
ATOM     70  C48 UNL A   1      18.161  47.710  -0.990  1.00  0.00    +0.000 C 
ATOM     71  F10 UNL A   1      18.805  47.888   0.172  1.00  0.00    +0.000 F 
ATOM     61  C43 UNL A   1      17.028  48.481  -1.297  1.00  0.00    +0.000 C 
ATOM     62  C44 UNL A   1      16.397  48.258  -2.531  1.00  0.00    +0.000 C 
ATOM     63  F6  UNL A   1      15.304  48.957  -2.867  1.00  0.00    +0.000 F 
ATOM     64  C45 UNL A   1      16.866  47.283  -3.407  1.00  0.00    +0.000 C 
ENDBRANCH   60   61
BRANCH   75   76
ATOM     76  C52 UNL A   1      12.365  48.367   3.887  1.00  0.00    +0.000 C 
ATOM     77  C53 UNL A   1      11.002  48.351   3.560  1.00  0.00    +0.000 C 
ATOM     78  F11 UNL A   1      10.496  49.297   2.755  1.00  0.00    +0.000 F 
ATOM     79  C54 UNL A   1      10.144  47.391   4.093  1.00  0.00    +0.000 C 
ATOM     80  F12 UNL A   1       8.836  47.432   3.806  1.00  0.00    +0.000 F 
ATOM     81  C55 UNL A   1      10.638  46.406   4.934  1.00  0.00    +0.000 C 
ATOM     82  F13 UNL A   1       9.814  45.482   5.445  1.00  0.00    +0.000 F 
ATOM     83  C56 UNL A   1      11.988  46.386   5.253  1.00  0.00    +0.000 C 
ATOM     84  F14 UNL A   1      12.474  45.427   6.052  1.00  0.00    +0.000 F 
ATOM     85  C57 UNL A   1      12.840  47.365   4.747  1.00  0.00    +0.000 C 
ATOM     86  F15 UNL A   1      14.137  47.331   5.087  1.00  0.00    +0.000 F 
ENDBRANCH   75   76
TORSDOF 25
ENDMDL
