MODEL 1
REMARK VINA RESULT:     -12.2      0.000      0.000
ROOT
ATOM     28  C20 UNL A   1      11.821  20.159  26.950  1.00  0.00    +0.000 C 
ATOM     29  C21 UNL A   1      12.865  20.460  25.943  1.00  0.00    +0.000 C 
ATOM     30  N6  UNL A   1      12.733  21.137  24.852  1.00  0.00    +0.000 N 
ATOM     31  C22 UNL A   1      13.976  21.109  24.229  1.00  0.00    +0.000 C 
ATOM     32  C23 UNL A   1      14.086  21.275  22.881  1.00  0.00    +0.000 C 
ATOM     44  C30 UNL A   1      12.870  21.821  22.331  1.00  0.00    +0.000 C 
ATOM     45  C31 UNL A   1      12.186  23.010  22.495  1.00  0.00    +0.000 C 
ATOM     46  C32 UNL A   1      10.808  22.642  22.508  1.00  0.00    +0.000 C 
ATOM     47  C33 UNL A   1      10.726  21.268  22.269  1.00  0.00    +0.000 C 
ATOM     48  N7  UNL A   1      11.967  20.945  21.780  1.00  0.00    +0.000 N 
ATOM     49  C34 UNL A   1       9.683  20.297  22.510  1.00  0.00    +0.000 C 
ATOM     61  C41 UNL A   1       9.879  18.948  22.596  1.00  0.00    +0.000 C 
ATOM     62  N8  UNL A   1       8.943  18.123  23.205  1.00  0.00    +0.000 N 
ATOM     63  C42 UNL A   1       9.632  17.096  23.632  1.00  0.00    +0.000 C 
ATOM     64  C43 UNL A   1       9.406  16.468  24.962  1.00  0.00    +0.000 C 
ATOM     76  C50 UNL A   1       9.746  17.400  25.887  1.00  0.00    +0.000 C 
ATOM     77  C51 UNL A   1       9.402  17.500  27.285  1.00  0.00    +0.000 C 
ATOM     78  C52 UNL A   1       9.966  18.623  27.775  1.00  0.00    +0.000 C 
ATOM     79  C53 UNL A   1      10.864  19.215  26.772  1.00  0.00    +0.000 C 
ATOM     80  N9  UNL A   1      10.593  18.501  25.633  1.00  0.00    +0.000 N 
ATOM     81  C54 UNL A   1      10.942  16.921  23.027  1.00  0.00    +0.000 C 
ATOM     82  C55 UNL A   1      11.087  18.132  22.480  1.00  0.00    +0.000 C 
ATOM     83  C56 UNL A   1      14.907  20.619  25.211  1.00  0.00    +0.000 C 
ATOM     84  C57 UNL A   1      14.256  20.092  26.250  1.00  0.00    +0.000 C 
ATOM    112  H22 UNL A   1      12.585  23.957  22.588  1.00  0.00    +0.000 H 
ATOM    113  H23 UNL A   1      10.011  23.278  22.667  1.00  0.00    +0.000 H 
ATOM    114  H24 UNL A   1      12.171  20.217  21.151  1.00  0.00    +0.000 H 
ATOM    115  H25 UNL A   1       8.827  16.829  27.817  1.00  0.00    +0.000 H 
ATOM    116  H26 UNL A   1       9.791  19.011  28.715  1.00  0.00    +0.000 H 
ATOM    117  H27 UNL A   1      10.948  18.728  24.743  1.00  0.00    +0.000 H 
ATOM    118  H28 UNL A   1      11.573  16.104  23.021  1.00  0.00    +0.000 H 
ATOM    119  H29 UNL A   1      11.956  18.455  22.026  1.00  0.00    +0.000 H 
ATOM    120  H30 UNL A   1      15.934  20.668  25.123  1.00  0.00    +0.000 H 
ATOM    121  H31 UNL A   1      14.630  19.566  27.055  1.00  0.00    +0.000 H 
ENDROOT
BRANCH   28   27
ATOM    122  H32 UNL A   1      11.783  22.681  27.478  1.00  0.00    +0.000 H 
ATOM     27  C19 UNL A   1      12.054  20.742  28.259  1.00  0.00    +0.000 C 
ATOM    110  H20 UNL A   1      12.409  20.134  31.532  1.00  0.00    +0.000 H 
ATOM    111  H21 UNL A   1      12.164  18.953  29.398  1.00  0.00    +0.000 H 
ATOM     85  C58 UNL A   1      12.099  22.125  28.288  1.00  0.00    +0.000 C 
ATOM     86  C59 UNL A   1      12.568  22.731  29.409  1.00  0.00    +0.000 C 
ATOM     24  C16 UNL A   1      12.549  22.040  30.612  1.00  0.00    +0.000 C 
ATOM     25  C17 UNL A   1      12.388  20.652  30.639  1.00  0.00    +0.000 C 
ATOM     26  C18 UNL A   1      12.198  19.984  29.431  1.00  0.00    +0.000 C 
ATOM    123  H33 UNL A   1      12.935  23.695  29.367  1.00  0.00    +0.000 H 
BRANCH   24   22
ATOM     22  C15 UNL A   1      12.647  22.864  31.830  1.00  0.00    +0.000 C 
ATOM     23  O3  UNL A   1      11.687  23.488  32.238  1.00  0.00    +0.000 O 
BRANCH   22   21
ATOM    109  H19 UNL A   1      14.283  22.004  32.660  1.00  0.00    +0.000 H 
ATOM     21  N5  UNL A   1      13.866  22.880  32.496  1.00  0.00    +0.000 N 
BRANCH   21   20
ATOM    108  H18 UNL A   1      14.115  24.927  32.605  1.00  0.00    +0.000 H 
ATOM    107  H17 UNL A   1      15.615  23.992  32.635  1.00  0.00    +0.000 H 
ATOM     20  C14 UNL A   1      14.605  24.052  32.981  1.00  0.00    +0.000 C 
BRANCH   20   19
ATOM    105  H15 UNL A   1      14.244  25.103  34.784  1.00  0.00    +0.000 H 
ATOM    106  H16 UNL A   1      13.993  23.351  34.867  1.00  0.00    +0.000 H 
ATOM     19  C13 UNL A   1      14.612  24.140  34.496  1.00  0.00    +0.000 C 
BRANCH   19   18
ATOM     18  C12 UNL A   1      16.012  23.950  35.100  1.00  0.00    +0.000 C 
ATOM    103  H13 UNL A   1      16.654  23.580  34.329  1.00  0.00    +0.000 H 
ATOM    104  H14 UNL A   1      16.293  24.910  35.482  1.00  0.00    +0.000 H 
BRANCH   18   17
ATOM     17  C11 UNL A   1      16.109  22.987  36.296  1.00  0.00    +0.000 C 
ATOM    101  H11 UNL A   1      16.207  21.993  35.913  1.00  0.00    +0.000 H 
ATOM    102  H12 UNL A   1      16.950  23.312  36.871  1.00  0.00    +0.000 H 
BRANCH   17   16
ATOM     99  H9  UNL A   1      15.037  23.817  37.943  1.00  0.00    +0.000 H 
ATOM    100  H10 UNL A   1      14.027  23.123  36.660  1.00  0.00    +0.000 H 
ATOM     16  C10 UNL A   1      14.909  23.007  37.255  1.00  0.00    +0.000 C 
BRANCH   16   15
ATOM     97  H7  UNL A   1      14.829  20.874  37.389  1.00  0.00    +0.000 H 
ATOM     98  H8  UNL A   1      15.530  21.657  38.790  1.00  0.00    +0.000 H 
ATOM     15  C9  UNL A   1      14.756  21.710  38.053  1.00  0.00    +0.000 C 
BRANCH   15   14
ATOM     14  N4  UNL A   1      13.465  21.684  38.716  1.00  0.00    +0.000 N 
ATOM     96  H6  UNL A   1      12.705  21.640  38.092  1.00  0.00    +0.000 H 
BRANCH   14   12
ATOM     12  C8  UNL A   1      13.088  21.708  40.034  1.00  0.00    +0.000 C 
ATOM     13  O2  UNL A   1      12.329  20.822  40.428  1.00  0.00    +0.000 O 
BRANCH   12   11
ATOM      8  C4  UNL A   1      14.244  25.085  42.373  1.00  0.00    +0.000 C 
ATOM      9  C5  UNL A   1      13.005  25.075  41.736  1.00  0.00    +0.000 C 
ATOM     10  C6  UNL A   1      12.641  23.939  41.005  1.00  0.00    +0.000 C 
ATOM     11  C7  UNL A   1      13.471  22.803  40.971  1.00  0.00    +0.000 C 
ATOM     87  C60 UNL A   1      14.606  22.776  41.781  1.00  0.00    +0.000 C 
ATOM     88  C61 UNL A   1      15.032  23.932  42.431  1.00  0.00    +0.000 C 
ATOM    124  H34 UNL A   1      15.133  21.896  41.900  1.00  0.00    +0.000 H 
ATOM    125  H35 UNL A   1      15.923  23.938  42.953  1.00  0.00    +0.000 H 
ATOM     94  H4  UNL A   1      12.370  25.886  41.801  1.00  0.00    +0.000 H 
ATOM     95  H5  UNL A   1      11.751  23.934  40.484  1.00  0.00    +0.000 H 
BRANCH    8    7
ATOM      4  C3  UNL A   1      15.925  28.066  43.283  1.00  0.00    +0.000 C 
ATOM      5  N1  UNL A   1      15.504  27.546  44.485  1.00  0.00    +0.000 N 
ATOM      6  N2  UNL A   1      14.697  26.522  44.242  1.00  0.00    +0.000 N 
ATOM      7  N3  UNL A   1      14.744  26.276  42.923  1.00  0.00    +0.000 N 
ATOM     89  C62 UNL A   1      15.386  27.306  42.255  1.00  0.00    +0.000 C 
BRANCH    4    2
ATOM      2  C2  UNL A   1      16.784  29.243  43.233  1.00  0.00    +0.000 C 
ATOM      3  O1  UNL A   1      16.427  30.274  42.663  1.00  0.00    +0.000 O 
BRANCH    2    1
ATOM      1  C1  UNL A   1      18.134  29.187  43.898  1.00  0.00    +0.000 C 
ATOM     91  H1  UNL A   1      18.265  30.052  44.515  1.00  0.00    +0.000 H 
ATOM     92  H2  UNL A   1      18.900  29.165  43.151  1.00  0.00    +0.000 H 
ATOM     93  H3  UNL A   1      18.198  28.306  44.502  1.00  0.00    +0.000 H 
ENDBRANCH    2    1
ENDBRANCH    4    2
BRANCH   89   90
ATOM     90  C63 UNL A   1      15.371  27.422  40.777  1.00  0.00    +0.000 C 
ATOM    126  H36 UNL A   1      14.363  27.536  40.438  1.00  0.00    +0.000 H 
ATOM    127  H37 UNL A   1      15.795  26.539  40.346  1.00  0.00    +0.000 H 
ATOM    128  H38 UNL A   1      15.946  28.275  40.480  1.00  0.00    +0.000 H 
ENDBRANCH   89   90
ENDBRANCH    8    7
ENDBRANCH   12   11
ENDBRANCH   14   12
ENDBRANCH   15   14
ENDBRANCH   16   15
ENDBRANCH   17   16
ENDBRANCH   18   17
ENDBRANCH   19   18
ENDBRANCH   20   19
ENDBRANCH   21   20
ENDBRANCH   22   21
ENDBRANCH   24   22
ENDBRANCH   28   27
BRANCH   32   33
ATOM     33  C24 UNL A   1      15.135  20.627  22.012  1.00  0.00    +0.000 C 
ATOM     34  C25 UNL A   1      15.434  19.263  22.204  1.00  0.00    +0.000 C 
ATOM     35  F1  UNL A   1      14.632  18.486  22.949  1.00  0.00    +0.000 F 
ATOM     36  C26 UNL A   1      16.605  18.685  21.709  1.00  0.00    +0.000 C 
ATOM     37  F2  UNL A   1      16.906  17.417  22.024  1.00  0.00    +0.000 F 
ATOM     38  C27 UNL A   1      17.491  19.430  20.954  1.00  0.00    +0.000 C 
ATOM     39  F3  UNL A   1      18.643  18.897  20.532  1.00  0.00    +0.000 F 
ATOM     40  C28 UNL A   1      17.197  20.749  20.678  1.00  0.00    +0.000 C 
ATOM     41  F4  UNL A   1      18.048  21.492  19.959  1.00  0.00    +0.000 F 
ATOM     42  C29 UNL A   1      16.055  21.342  21.215  1.00  0.00    +0.000 C 
ATOM     43  F5  UNL A   1      15.952  22.660  21.010  1.00  0.00    +0.000 F 
ENDBRANCH   32   33
BRANCH   49   50
ATOM     50  C35 UNL A   1       8.334  20.838  22.907  1.00  0.00    +0.000 C 
ATOM     51  C36 UNL A   1       8.011  21.271  24.206  1.00  0.00    +0.000 C 
ATOM     52  F6  UNL A   1       8.898  21.168  25.202  1.00  0.00    +0.000 F 
ATOM     53  C37 UNL A   1       6.788  21.878  24.490  1.00  0.00    +0.000 C 
ATOM     54  F7  UNL A   1       6.508  22.276  25.740  1.00  0.00    +0.000 F 
ATOM     55  C38 UNL A   1       5.877  22.105  23.473  1.00  0.00    +0.000 C 
ATOM     56  F8  UNL A   1       4.718  22.726  23.733  1.00  0.00    +0.000 F 
ATOM     57  C39 UNL A   1       6.180  21.712  22.180  1.00  0.00    +0.000 C 
ATOM     58  F9  UNL A   1       5.324  21.974  21.184  1.00  0.00    +0.000 F 
ATOM     59  C40 UNL A   1       7.388  21.075  21.903  1.00  0.00    +0.000 C 
ATOM     60  F10 UNL A   1       7.660  20.735  20.634  1.00  0.00    +0.000 F 
ENDBRANCH   49   50
BRANCH   64   65
ATOM     65  C44 UNL A   1       9.250  15.008  25.151  1.00  0.00    +0.000 C 
ATOM     66  C45 UNL A   1       8.112  14.328  24.688  1.00  0.00    +0.000 C 
ATOM     67  F11 UNL A   1       7.045  15.017  24.260  1.00  0.00    +0.000 F 
ATOM     68  C46 UNL A   1       8.080  12.932  24.594  1.00  0.00    +0.000 C 
ATOM     69  F12 UNL A   1       6.997  12.319  24.096  1.00  0.00    +0.000 F 
ATOM     70  C47 UNL A   1       9.185  12.179  24.960  1.00  0.00    +0.000 C 
ATOM     71  F13 UNL A   1       9.178  10.847  24.811  1.00  0.00    +0.000 F 
ATOM     72  C48 UNL A   1      10.313  12.817  25.440  1.00  0.00    +0.000 C 
ATOM     73  F14 UNL A   1      11.402  12.105  25.759  1.00  0.00    +0.000 F 
ATOM     74  C49 UNL A   1      10.345  14.210  25.534  1.00  0.00    +0.000 C 
ATOM     75  F15 UNL A   1      11.501  14.772  25.918  1.00  0.00    +0.000 F 
ENDBRANCH   64   65
TORSDOF 19
ENDMDL
MODEL 2
REMARK VINA RESULT:     -12.1     25.023     31.201
ROOT
ATOM     28  C20 UNL A   1      40.741  27.773  28.898  1.00  0.00    +0.000 C 
ATOM     29  C21 UNL A   1      41.867  28.559  28.339  1.00  0.00    +0.000 C 
ATOM     30  N6  UNL A   1      42.915  28.981  28.962  1.00  0.00    +0.000 N 
ATOM     31  C22 UNL A   1      43.654  29.699  28.027  1.00  0.00    +0.000 C 
ATOM     32  C23 UNL A   1      44.524  30.671  28.421  1.00  0.00    +0.000 C 
ATOM     44  C30 UNL A   1      44.810  30.563  29.831  1.00  0.00    +0.000 C 
ATOM     45  C31 UNL A   1      45.409  29.603  30.622  1.00  0.00    +0.000 C 
ATOM     46  C32 UNL A   1      44.632  29.576  31.819  1.00  0.00    +0.000 C 
ATOM     47  C33 UNL A   1      43.659  30.573  31.724  1.00  0.00    +0.000 C 
ATOM     48  N7  UNL A   1      44.097  31.362  30.691  1.00  0.00    +0.000 N 
ATOM     49  C34 UNL A   1      42.412  30.788  32.422  1.00  0.00    +0.000 C 
ATOM     61  C41 UNL A   1      41.386  31.564  31.964  1.00  0.00    +0.000 C 
ATOM     62  N8  UNL A   1      40.098  31.423  32.463  1.00  0.00    +0.000 N 
ATOM     63  C42 UNL A   1      39.319  31.825  31.494  1.00  0.00    +0.000 C 
ATOM     64  C43 UNL A   1      38.058  31.124  31.127  1.00  0.00    +0.000 C 
ATOM     76  C50 UNL A   1      38.420  29.901  30.666  1.00  0.00    +0.000 C 
ATOM     77  C51 UNL A   1      37.649  28.690  30.520  1.00  0.00    +0.000 C 
ATOM     78  C52 UNL A   1      38.466  27.730  30.038  1.00  0.00    +0.000 C 
ATOM     79  C53 UNL A   1      39.764  28.313  29.666  1.00  0.00    +0.000 C 
ATOM     80  N9  UNL A   1      39.706  29.585  30.177  1.00  0.00    +0.000 N 
ATOM     81  C54 UNL A   1      39.957  32.628  30.464  1.00  0.00    +0.000 C 
ATOM     82  C55 UNL A   1      41.235  32.353  30.742  1.00  0.00    +0.000 C 
ATOM     83  C56 UNL A   1      43.088  29.387  26.742  1.00  0.00    +0.000 C 
ATOM     84  C57 UNL A   1      41.908  28.780  26.886  1.00  0.00    +0.000 C 
ATOM    112  H22 UNL A   1      46.237  29.030  30.397  1.00  0.00    +0.000 H 
ATOM    113  H23 UNL A   1      44.766  28.932  32.614  1.00  0.00    +0.000 H 
ATOM    114  H24 UNL A   1      43.930  32.327  30.586  1.00  0.00    +0.000 H 
ATOM    115  H25 UNL A   1      36.648  28.578  30.742  1.00  0.00    +0.000 H 
ATOM    116  H26 UNL A   1      38.217  26.733  29.947  1.00  0.00    +0.000 H 
ATOM    117  H27 UNL A   1      40.471  30.205  30.199  1.00  0.00    +0.000 H 
ATOM    118  H28 UNL A   1      39.545  33.232  29.735  1.00  0.00    +0.000 H 
ATOM    119  H29 UNL A   1      42.028  32.663  30.158  1.00  0.00    +0.000 H 
ATOM    120  H30 UNL A   1      43.532  29.604  25.835  1.00  0.00    +0.000 H 
ATOM    121  H31 UNL A   1      41.210  28.532  26.167  1.00  0.00    +0.000 H 
ENDROOT
BRANCH   28   27
ATOM    122  H32 UNL A   1      38.875  27.043  27.278  1.00  0.00    +0.000 H 
ATOM     27  C19 UNL A   1      40.594  26.441  28.339  1.00  0.00    +0.000 C 
ATOM    110  H20 UNL A   1      42.020  23.439  27.935  1.00  0.00    +0.000 H 
ATOM    111  H21 UNL A   1      42.386  25.575  29.081  1.00  0.00    +0.000 H 
ATOM     85  C58 UNL A   1      39.453  26.244  27.581  1.00  0.00    +0.000 C 
ATOM     86  C59 UNL A   1      39.113  24.971  27.248  1.00  0.00    +0.000 C 
ATOM     24  C16 UNL A   1      40.089  23.986  27.250  1.00  0.00    +0.000 C 
ATOM     25  C17 UNL A   1      41.308  24.185  27.904  1.00  0.00    +0.000 C 
ATOM     26  C18 UNL A   1      41.538  25.417  28.513  1.00  0.00    +0.000 C 
ATOM    123  H33 UNL A   1      38.139  24.740  26.995  1.00  0.00    +0.000 H 
BRANCH   24   22
ATOM     22  C15 UNL A   1      39.778  22.769  26.479  1.00  0.00    +0.000 C 
ATOM     23  O3  UNL A   1      40.648  21.969  26.200  1.00  0.00    +0.000 O 
BRANCH   22   21
ATOM    109  H19 UNL A   1      37.787  23.148  26.541  1.00  0.00    +0.000 H 
ATOM     21  N5  UNL A   1      38.454  22.570  26.106  1.00  0.00    +0.000 N 
BRANCH   21   20
ATOM    108  H18 UNL A   1      37.624  20.728  25.677  1.00  0.00    +0.000 H 
ATOM    107  H17 UNL A   1      38.709  21.364  24.434  1.00  0.00    +0.000 H 
ATOM     20  C14 UNL A   1      37.936  21.597  25.136  1.00  0.00    +0.000 C 
BRANCH   20   19
ATOM    105  H15 UNL A   1      37.080  22.661  23.517  1.00  0.00    +0.000 H 
ATOM    106  H16 UNL A   1      36.129  21.287  24.106  1.00  0.00    +0.000 H 
ATOM     19  C13 UNL A   1      36.733  22.127  24.377  1.00  0.00    +0.000 C 
BRANCH   19   18
ATOM     18  C12 UNL A   1      35.860  23.069  25.220  1.00  0.00    +0.000 C 
ATOM    103  H13 UNL A   1      36.437  23.381  26.065  1.00  0.00    +0.000 H 
ATOM    104  H14 UNL A   1      35.579  23.865  24.562  1.00  0.00    +0.000 H 
BRANCH   18   17
ATOM     17  C11 UNL A   1      34.537  22.481  25.743  1.00  0.00    +0.000 C 
ATOM    101  H11 UNL A   1      34.555  22.526  26.811  1.00  0.00    +0.000 H 
ATOM    102  H12 UNL A   1      33.758  23.065  25.300  1.00  0.00    +0.000 H 
BRANCH   17   16
ATOM     99  H9  UNL A   1      34.719  20.844  24.386  1.00  0.00    +0.000 H 
ATOM    100  H10 UNL A   1      34.660  20.398  26.102  1.00  0.00    +0.000 H 
ATOM     16  C10 UNL A   1      34.258  21.027  25.335  1.00  0.00    +0.000 C 
BRANCH   16   15
ATOM     97  H7  UNL A   1      32.541  19.840  25.799  1.00  0.00    +0.000 H 
ATOM     98  H8  UNL A   1      32.201  21.545  25.585  1.00  0.00    +0.000 H 
ATOM     15  C9  UNL A   1      32.765  20.711  25.220  1.00  0.00    +0.000 C 
BRANCH   15   14
ATOM     14  N4  UNL A   1      32.413  20.469  23.833  1.00  0.00    +0.000 N 
ATOM     96  H6  UNL A   1      32.374  19.513  23.600  1.00  0.00    +0.000 H 
BRANCH   14   12
ATOM     12  C8  UNL A   1      32.124  21.299  22.781  1.00  0.00    +0.000 C 
ATOM     13  O2  UNL A   1      31.910  20.779  21.685  1.00  0.00    +0.000 O 
BRANCH   12   11
ATOM      8  C4  UNL A   1      32.532  25.508  23.353  1.00  0.00    +0.000 C 
ATOM      9  C5  UNL A   1      33.507  24.807  22.646  1.00  0.00    +0.000 C 
ATOM     10  C6  UNL A   1      33.326  23.434  22.445  1.00  0.00    +0.000 C 
ATOM     11  C7  UNL A   1      32.157  22.785  22.883  1.00  0.00    +0.000 C 
ATOM     87  C60 UNL A   1      31.119  23.555  23.408  1.00  0.00    +0.000 C 
ATOM     88  C61 UNL A   1      31.324  24.901  23.705  1.00  0.00    +0.000 C 
ATOM    124  H34 UNL A   1      30.194  23.127  23.577  1.00  0.00    +0.000 H 
ATOM    125  H35 UNL A   1      30.588  25.447  24.182  1.00  0.00    +0.000 H 
ATOM     94  H4  UNL A   1      34.341  25.289  22.277  1.00  0.00    +0.000 H 
ATOM     95  H5  UNL A   1      34.062  22.890  21.970  1.00  0.00    +0.000 H 
BRANCH    8    7
ATOM      4  C3  UNL A   1      33.002  28.614  24.987  1.00  0.00    +0.000 C 
ATOM      5  N1  UNL A   1      32.554  28.966  23.734  1.00  0.00    +0.000 N 
ATOM      6  N2  UNL A   1      32.528  27.878  22.975  1.00  0.00    +0.000 N 
ATOM      7  N3  UNL A   1      32.776  26.826  23.771  1.00  0.00    +0.000 N 
ATOM     89  C62 UNL A   1      33.223  27.245  25.013  1.00  0.00    +0.000 C 
BRANCH    4    2
ATOM      2  C2  UNL A   1      33.190  29.619  26.027  1.00  0.00    +0.000 C 
ATOM      3  O1  UNL A   1      32.373  30.524  26.198  1.00  0.00    +0.000 O 
BRANCH    2    1
ATOM      1  C1  UNL A   1      34.410  29.538  26.906  1.00  0.00    +0.000 C 
ATOM     91  H1  UNL A   1      34.561  30.478  27.394  1.00  0.00    +0.000 H 
ATOM     92  H2  UNL A   1      35.266  29.306  26.307  1.00  0.00    +0.000 H 
ATOM     93  H3  UNL A   1      34.270  28.772  27.640  1.00  0.00    +0.000 H 
ENDBRANCH    2    1
ENDBRANCH    4    2
BRANCH   89   90
ATOM     90  C63 UNL A   1      33.801  26.307  26.006  1.00  0.00    +0.000 C 
ATOM    126  H36 UNL A   1      33.325  26.452  26.953  1.00  0.00    +0.000 H 
ATOM    127  H37 UNL A   1      34.850  26.491  26.102  1.00  0.00    +0.000 H 
ATOM    128  H38 UNL A   1      33.643  25.300  25.678  1.00  0.00    +0.000 H 
ENDBRANCH   89   90
ENDBRANCH    8    7
ENDBRANCH   12   11
ENDBRANCH   14   12
ENDBRANCH   15   14
ENDBRANCH   16   15
ENDBRANCH   17   16
ENDBRANCH   18   17
ENDBRANCH   19   18
ENDBRANCH   20   19
ENDBRANCH   21   20
ENDBRANCH   22   21
ENDBRANCH   24   22
ENDBRANCH   28   27
BRANCH   32   33
ATOM     33  C24 UNL A   1      44.840  31.919  27.636  1.00  0.00    +0.000 C 
ATOM     34  C25 UNL A   1      46.088  32.021  26.989  1.00  0.00    +0.000 C 
ATOM     35  F1  UNL A   1      46.873  30.942  26.845  1.00  0.00    +0.000 F 
ATOM     36  C26 UNL A   1      46.598  33.246  26.552  1.00  0.00    +0.000 C 
ATOM     37  F2  UNL A   1      47.842  33.311  26.058  1.00  0.00    +0.000 F 
ATOM     38  C27 UNL A   1      45.856  34.404  26.690  1.00  0.00    +0.000 C 
ATOM     39  F3  UNL A   1      46.366  35.587  26.330  1.00  0.00    +0.000 F 
ATOM     40  C28 UNL A   1      44.596  34.334  27.247  1.00  0.00    +0.000 C 
ATOM     41  F4  UNL A   1      43.866  35.447  27.401  1.00  0.00    +0.000 F 
ATOM     42  C29 UNL A   1      44.108  33.122  27.731  1.00  0.00    +0.000 C 
ATOM     43  F5  UNL A   1      42.945  33.202  28.388  1.00  0.00    +0.000 F 
ENDBRANCH   32   33
BRANCH   49   50
ATOM     50  C35 UNL A   1      42.152  29.920  33.626  1.00  0.00    +0.000 C 
ATOM     51  C36 UNL A   1      41.725  28.582  33.555  1.00  0.00    +0.000 C 
ATOM     52  F6  UNL A   1      41.461  28.010  32.374  1.00  0.00    +0.000 F 
ATOM     53  C37 UNL A   1      41.620  27.788  34.696  1.00  0.00    +0.000 C 
ATOM     54  F7  UNL A   1      41.204  26.516  34.595  1.00  0.00    +0.000 F 
ATOM     55  C38 UNL A   1      41.982  28.299  35.930  1.00  0.00    +0.000 C 
ATOM     56  F8  UNL A   1      41.923  27.526  37.023  1.00  0.00    +0.000 F 
ATOM     57  C39 UNL A   1      42.432  29.606  36.025  1.00  0.00    +0.000 C 
ATOM     58  F9  UNL A   1      42.831  30.090  37.209  1.00  0.00    +0.000 F 
ATOM     59  C40 UNL A   1      42.505  30.410  34.890  1.00  0.00    +0.000 C 
ATOM     60  F10 UNL A   1      42.973  31.661  35.016  1.00  0.00    +0.000 F 
ENDBRANCH   49   50
BRANCH   64   65
ATOM     65  C44 UNL A   1      36.769  31.827  30.938  1.00  0.00    +0.000 C 
ATOM     66  C45 UNL A   1      35.952  32.166  32.029  1.00  0.00    +0.000 C 
ATOM     67  F11 UNL A   1      36.217  31.669  33.245  1.00  0.00    +0.000 F 
ATOM     68  C46 UNL A   1      34.894  33.073  31.898  1.00  0.00    +0.000 C 
ATOM     69  F12 UNL A   1      34.170  33.415  32.973  1.00  0.00    +0.000 F 
ATOM     70  C47 UNL A   1      34.625  33.666  30.675  1.00  0.00    +0.000 C 
ATOM     71  F13 UNL A   1      33.653  34.582  30.564  1.00  0.00    +0.000 F 
ATOM     72  C48 UNL A   1      35.397  33.336  29.577  1.00  0.00    +0.000 C 
ATOM     73  F14 UNL A   1      35.174  33.933  28.397  1.00  0.00    +0.000 F 
ATOM     74  C49 UNL A   1      36.452  32.431  29.706  1.00  0.00    +0.000 C 
ATOM     75  F15 UNL A   1      37.220  32.227  28.625  1.00  0.00    +0.000 F 
ENDBRANCH   64   65
TORSDOF 19
ENDMDL
MODEL 3
REMARK VINA RESULT:     -12.0     27.895     33.145
ROOT
ATOM     28  C20 UNL A   1      41.150  27.990  28.766  1.00  0.00    +0.000 C 
ATOM     29  C21 UNL A   1      42.296  28.819  28.324  1.00  0.00    +0.000 C 
ATOM     30  N6  UNL A   1      43.291  29.227  29.038  1.00  0.00    +0.000 N 
ATOM     31  C22 UNL A   1      44.079  30.000  28.192  1.00  0.00    +0.000 C 
ATOM     32  C23 UNL A   1      44.901  30.966  28.691  1.00  0.00    +0.000 C 
ATOM     44  C30 UNL A   1      45.090  30.794  30.111  1.00  0.00    +0.000 C 
ATOM     45  C31 UNL A   1      45.651  29.806  30.897  1.00  0.00    +0.000 C 
ATOM     46  C32 UNL A   1      44.794  29.710  32.033  1.00  0.00    +0.000 C 
ATOM     47  C33 UNL A   1      43.811  30.695  31.917  1.00  0.00    +0.000 C 
ATOM     48  N7  UNL A   1      44.305  31.540  30.955  1.00  0.00    +0.000 N 
ATOM     49  C34 UNL A   1      42.515  30.857  32.535  1.00  0.00    +0.000 C 
ATOM     61  C41 UNL A   1      41.509  31.638  32.043  1.00  0.00    +0.000 C 
ATOM     62  N8  UNL A   1      40.193  31.453  32.444  1.00  0.00    +0.000 N 
ATOM     63  C42 UNL A   1      39.475  31.889  31.442  1.00  0.00    +0.000 C 
ATOM     64  C43 UNL A   1      38.256  31.188  30.956  1.00  0.00    +0.000 C 
ATOM     76  C50 UNL A   1      38.672  29.995  30.465  1.00  0.00    +0.000 C 
ATOM     77  C51 UNL A   1      37.936  28.780  30.207  1.00  0.00    +0.000 C 
ATOM     78  C52 UNL A   1      38.802  27.857  29.740  1.00  0.00    +0.000 C 
ATOM     79  C53 UNL A   1      40.111  28.477  29.488  1.00  0.00    +0.000 C 
ATOM     80  N9  UNL A   1      39.995  29.722  30.052  1.00  0.00    +0.000 N 
ATOM     81  C54 UNL A   1      40.168  32.751  30.498  1.00  0.00    +0.000 C 
ATOM     82  C55 UNL A   1      41.429  32.483  30.853  1.00  0.00    +0.000 C 
ATOM     83  C56 UNL A   1      43.609  29.742  26.857  1.00  0.00    +0.000 C 
ATOM     84  C57 UNL A   1      42.433  29.110  26.889  1.00  0.00    +0.000 C 
ATOM    112  H22 UNL A   1      46.504  29.258  30.703  1.00  0.00    +0.000 H 
ATOM    113  H23 UNL A   1      44.884  29.031  32.805  1.00  0.00    +0.000 H 
ATOM    114  H24 UNL A   1      44.128  32.506  30.884  1.00  0.00    +0.000 H 
ATOM    115  H25 UNL A   1      36.924  28.642  30.354  1.00  0.00    +0.000 H 
ATOM    116  H26 UNL A   1      38.578  26.861  29.585  1.00  0.00    +0.000 H 
ATOM    117  H27 UNL A   1      40.745  30.352  30.157  1.00  0.00    +0.000 H 
ATOM    118  H28 UNL A   1      39.796  33.383  29.772  1.00  0.00    +0.000 H 
ATOM    119  H29 UNL A   1      42.254  32.833  30.341  1.00  0.00    +0.000 H 
ATOM    120  H30 UNL A   1      44.111  30.008  25.995  1.00  0.00    +0.000 H 
ATOM    121  H31 UNL A   1      41.792  28.886  26.113  1.00  0.00    +0.000 H 
ENDROOT
BRANCH   28   27
ATOM    122  H32 UNL A   1      41.774  25.758  29.893  1.00  0.00    +0.000 H 
ATOM     27  C19 UNL A   1      41.067  26.684  28.135  1.00  0.00    +0.000 C 
ATOM    110  H20 UNL A   1      39.965  24.956  25.488  1.00  0.00    +0.000 H 
ATOM    111  H21 UNL A   1      40.140  27.258  26.314  1.00  0.00    +0.000 H 
ATOM     85  C58 UNL A   1      41.562  25.635  28.890  1.00  0.00    +0.000 C 
ATOM     86  C59 UNL A   1      41.761  24.438  28.278  1.00  0.00    +0.000 C 
ATOM     24  C16 UNL A   1      41.069  24.151  27.110  1.00  0.00    +0.000 C 
ATOM     25  C17 UNL A   1      40.450  25.166  26.374  1.00  0.00    +0.000 C 
ATOM     26  C18 UNL A   1      40.505  26.468  26.868  1.00  0.00    +0.000 C 
ATOM    123  H33 UNL A   1      42.419  23.750  28.676  1.00  0.00    +0.000 H 
BRANCH   24   22
ATOM     22  C15 UNL A   1      40.983  22.725  26.747  1.00  0.00    +0.000 C 
ATOM     23  O3  UNL A   1      40.228  21.977  27.334  1.00  0.00    +0.000 O 
BRANCH   22   21
ATOM    109  H19 UNL A   1      41.317  22.060  24.861  1.00  0.00    +0.000 H 
ATOM     21  N5  UNL A   1      41.782  22.284  25.699  1.00  0.00    +0.000 N 
BRANCH   21   20
ATOM    108  H18 UNL A   1      43.448  21.063  25.688  1.00  0.00    +0.000 H 
ATOM    107  H17 UNL A   1      43.644  22.582  26.570  1.00  0.00    +0.000 H 
ATOM     20  C14 UNL A   1      43.240  22.113  25.697  1.00  0.00    +0.000 C 
BRANCH   20   19
ATOM    105  H15 UNL A   1      44.358  21.945  23.907  1.00  0.00    +0.000 H 
ATOM    106  H16 UNL A   1      43.120  23.213  23.909  1.00  0.00    +0.000 H 
ATOM     19  C13 UNL A   1      43.890  22.725  24.470  1.00  0.00    +0.000 C 
BRANCH   19   18
ATOM     18  C12 UNL A   1      44.948  23.783  24.816  1.00  0.00    +0.000 C 
ATOM    103  H13 UNL A   1      45.839  23.269  25.113  1.00  0.00    +0.000 H 
ATOM    104  H14 UNL A   1      45.058  24.378  23.934  1.00  0.00    +0.000 H 
BRANCH   18   17
ATOM     17  C11 UNL A   1      44.578  24.770  25.937  1.00  0.00    +0.000 C 
ATOM    101  H11 UNL A   1      43.737  24.372  26.464  1.00  0.00    +0.000 H 
ATOM    102  H12 UNL A   1      45.455  24.874  26.541  1.00  0.00    +0.000 H 
BRANCH   17   16
ATOM     99  H9  UNL A   1      43.644  26.114  24.569  1.00  0.00    +0.000 H 
ATOM    100  H10 UNL A   1      43.662  26.652  26.260  1.00  0.00    +0.000 H 
ATOM     16  C10 UNL A   1      44.217  26.188  25.470  1.00  0.00    +0.000 C 
BRANCH   16   15
ATOM     97  H7  UNL A   1      45.856  26.807  24.245  1.00  0.00    +0.000 H 
ATOM     98  H8  UNL A   1      45.149  28.091  25.204  1.00  0.00    +0.000 H 
ATOM     15  C9  UNL A   1      45.443  27.062  25.198  1.00  0.00    +0.000 C 
BRANCH   15   14
ATOM     14  N4  UNL A   1      46.445  26.848  26.227  1.00  0.00    +0.000 N 
ATOM     96  H6  UNL A   1      47.073  26.120  26.015  1.00  0.00    +0.000 H 
BRANCH   14   12
ATOM     12  C8  UNL A   1      46.695  27.451  27.432  1.00  0.00    +0.000 C 
ATOM     13  O2  UNL A   1      47.249  28.550  27.417  1.00  0.00    +0.000 O 
BRANCH   12   11
ATOM      8  C4  UNL A   1      45.718  25.938  31.301  1.00  0.00    +0.000 C 
ATOM      9  C5  UNL A   1      44.714  26.111  30.351  1.00  0.00    +0.000 C 
ATOM     10  C6  UNL A   1      45.071  26.576  29.081  1.00  0.00    +0.000 C 
ATOM     11  C7  UNL A   1      46.419  26.796  28.742  1.00  0.00    +0.000 C 
ATOM     87  C60 UNL A   1      47.409  26.423  29.652  1.00  0.00    +0.000 C 
ATOM     88  C61 UNL A   1      47.066  26.056  30.951  1.00  0.00    +0.000 C 
ATOM    124  H34 UNL A   1      48.400  26.417  29.362  1.00  0.00    +0.000 H 
ATOM    125  H35 UNL A   1      47.802  25.872  31.652  1.00  0.00    +0.000 H 
ATOM     94  H4  UNL A   1      43.729  25.902  30.578  1.00  0.00    +0.000 H 
ATOM     95  H5  UNL A   1      44.335  26.761  28.382  1.00  0.00    +0.000 H 
BRANCH    8    7
ATOM      4  C3  UNL A   1      44.351  25.050  34.445  1.00  0.00    +0.000 C 
ATOM      5  N1  UNL A   1      45.043  26.211  34.703  1.00  0.00    +0.000 N 
ATOM      6  N2  UNL A   1      45.753  26.527  33.628  1.00  0.00    +0.000 N 
ATOM      7  N3  UNL A   1      45.384  25.693  32.643  1.00  0.00    +0.000 N 
ATOM     89  C62 UNL A   1      44.614  24.655  33.141  1.00  0.00    +0.000 C 
BRANCH    4    2
ATOM      2  C2  UNL A   1      43.522  24.425  35.469  1.00  0.00    +0.000 C 
ATOM      3  O1  UNL A   1      42.665  23.591  35.179  1.00  0.00    +0.000 O 
BRANCH    2    1
ATOM      1  C1  UNL A   1      43.729  24.813  36.909  1.00  0.00    +0.000 C 
ATOM     91  H1  UNL A   1      42.969  25.505  37.206  1.00  0.00    +0.000 H 
ATOM     92  H2  UNL A   1      44.690  25.271  37.021  1.00  0.00    +0.000 H 
ATOM     93  H3  UNL A   1      43.677  23.940  37.525  1.00  0.00    +0.000 H 
ENDBRANCH    2    1
ENDBRANCH    4    2
BRANCH   89   90
ATOM     90  C63 UNL A   1      44.271  23.462  32.329  1.00  0.00    +0.000 C 
ATOM    126  H36 UNL A   1      44.661  23.580  31.340  1.00  0.00    +0.000 H 
ATOM    127  H37 UNL A   1      43.207  23.356  32.283  1.00  0.00    +0.000 H 
ATOM    128  H38 UNL A   1      44.698  22.590  32.779  1.00  0.00    +0.000 H 
ENDBRANCH   89   90
ENDBRANCH    8    7
ENDBRANCH   12   11
ENDBRANCH   14   12
ENDBRANCH   15   14
ENDBRANCH   16   15
ENDBRANCH   17   16
ENDBRANCH   18   17
ENDBRANCH   19   18
ENDBRANCH   20   19
ENDBRANCH   21   20
ENDBRANCH   22   21
ENDBRANCH   24   22
ENDBRANCH   28   27
BRANCH   32   33
ATOM     33  C24 UNL A   1      45.248  32.255  27.989  1.00  0.00    +0.000 C 
ATOM     34  C25 UNL A   1      44.218  33.172  27.699  1.00  0.00    +0.000 C 
ATOM     35  F1  UNL A   1      43.005  33.039  28.260  1.00  0.00    +0.000 F 
ATOM     36  C26 UNL A   1      44.381  34.196  26.763  1.00  0.00    +0.000 C 
ATOM     37  F2  UNL A   1      43.335  34.964  26.428  1.00  0.00    +0.000 F 
ATOM     38  C27 UNL A   1      45.594  34.379  26.127  1.00  0.00    +0.000 C 
ATOM     39  F3  UNL A   1      45.736  35.318  25.184  1.00  0.00    +0.000 F 
ATOM     40  C28 UNL A   1      46.651  33.550  26.441  1.00  0.00    +0.000 C 
ATOM     41  F4  UNL A   1      47.832  33.702  25.827  1.00  0.00    +0.000 F 
ATOM     42  C29 UNL A   1      46.475  32.496  27.336  1.00  0.00    +0.000 C 
ATOM     43  F5  UNL A   1      47.520  31.667  27.447  1.00  0.00    +0.000 F 
ENDBRANCH   32   33
BRANCH   49   50
ATOM     50  C35 UNL A   1      42.189  29.928  33.676  1.00  0.00    +0.000 C 
ATOM     51  C36 UNL A   1      41.791  28.590  33.512  1.00  0.00    +0.000 C 
ATOM     52  F6  UNL A   1      41.618  28.071  32.291  1.00  0.00    +0.000 F 
ATOM     53  C37 UNL A   1      41.622  27.739  34.605  1.00  0.00    +0.000 C 
ATOM     54  F7  UNL A   1      41.237  26.468  34.416  1.00  0.00    +0.000 F 
ATOM     55  C38 UNL A   1      41.890  28.195  35.884  1.00  0.00    +0.000 C 
ATOM     56  F8  UNL A   1      41.770  27.370  36.933  1.00  0.00    +0.000 F 
ATOM     57  C39 UNL A   1      42.310  29.502  36.071  1.00  0.00    +0.000 C 
ATOM     58  F9  UNL A   1      42.619  29.935  37.301  1.00  0.00    +0.000 F 
ATOM     59  C40 UNL A   1      42.446  30.361  34.983  1.00  0.00    +0.000 C 
ATOM     60  F10 UNL A   1      42.882  31.611  35.201  1.00  0.00    +0.000 F 
ENDBRANCH   49   50
BRANCH   64   65
ATOM     65  C44 UNL A   1      36.970  31.879  30.710  1.00  0.00    +0.000 C 
ATOM     66  C45 UNL A   1      36.023  32.051  31.733  1.00  0.00    +0.000 C 
ATOM     67  F11 UNL A   1      36.169  31.404  32.898  1.00  0.00    +0.000 F 
ATOM     68  C46 UNL A   1      34.953  32.943  31.598  1.00  0.00    +0.000 C 
ATOM     69  F12 UNL A   1      34.100  33.122  32.616  1.00  0.00    +0.000 F 
ATOM     70  C47 UNL A   1      34.800  33.686  30.439  1.00  0.00    +0.000 C 
ATOM     71  F13 UNL A   1      33.812  34.586  30.334  1.00  0.00    +0.000 F 
ATOM     72  C48 UNL A   1      35.702  33.523  29.404  1.00  0.00    +0.000 C 
ATOM     73  F14 UNL A   1      35.590  34.264  28.293  1.00  0.00    +0.000 F 
ATOM     74  C49 UNL A   1      36.770  32.634  29.537  1.00  0.00    +0.000 C 
ATOM     75  F15 UNL A   1      37.662  32.592  28.536  1.00  0.00    +0.000 F 
ENDBRANCH   64   65
TORSDOF 19
ENDMDL
MODEL 4
REMARK VINA RESULT:     -11.8     25.104     31.247
ROOT
ATOM     28  C20 UNL A   1      41.095  27.947  28.876  1.00  0.00    +0.000 C 
ATOM     29  C21 UNL A   1      42.172  28.801  28.322  1.00  0.00    +0.000 C 
ATOM     30  N6  UNL A   1      43.168  29.319  28.958  1.00  0.00    +0.000 N 
ATOM     31  C22 UNL A   1      43.874  30.067  28.021  1.00  0.00    +0.000 C 
ATOM     32  C23 UNL A   1      44.657  31.113  28.407  1.00  0.00    +0.000 C 
ATOM     44  C30 UNL A   1      44.913  31.064  29.826  1.00  0.00    +0.000 C 
ATOM     45  C31 UNL A   1      45.563  30.175  30.658  1.00  0.00    +0.000 C 
ATOM     46  C32 UNL A   1      44.760  30.120  31.836  1.00  0.00    +0.000 C 
ATOM     47  C33 UNL A   1      43.717  31.036  31.690  1.00  0.00    +0.000 C 
ATOM     48  N7  UNL A   1      44.120  31.830  30.645  1.00  0.00    +0.000 N 
ATOM     49  C34 UNL A   1      42.439  31.174  32.351  1.00  0.00    +0.000 C 
ATOM     61  C41 UNL A   1      41.369  31.856  31.847  1.00  0.00    +0.000 C 
ATOM     62  N8  UNL A   1      40.084  31.630  32.320  1.00  0.00    +0.000 N 
ATOM     63  C42 UNL A   1      39.301  31.945  31.321  1.00  0.00    +0.000 C 
ATOM     64  C43 UNL A   1      38.107  31.140  30.944  1.00  0.00    +0.000 C 
ATOM     76  C50 UNL A   1      38.573  29.937  30.527  1.00  0.00    +0.000 C 
ATOM     77  C51 UNL A   1      37.901  28.666  30.397  1.00  0.00    +0.000 C 
ATOM     78  C52 UNL A   1      38.800  27.760  29.963  1.00  0.00    +0.000 C 
ATOM     79  C53 UNL A   1      40.060  28.430  29.605  1.00  0.00    +0.000 C 
ATOM     80  N9  UNL A   1      39.892  29.707  30.078  1.00  0.00    +0.000 N 
ATOM     81  C54 UNL A   1      39.903  32.767  30.284  1.00  0.00    +0.000 C 
ATOM     82  C55 UNL A   1      41.191  32.599  30.600  1.00  0.00    +0.000 C 
ATOM     83  C56 UNL A   1      43.367  29.678  26.731  1.00  0.00    +0.000 C 
ATOM     84  C57 UNL A   1      42.233  28.986  26.864  1.00  0.00    +0.000 C 
ATOM    112  H22 UNL A   1      46.438  29.662  30.469  1.00  0.00    +0.000 H 
ATOM    113  H23 UNL A   1      44.922  29.510  32.653  1.00  0.00    +0.000 H 
ATOM    114  H24 UNL A   1      43.883  32.775  30.509  1.00  0.00    +0.000 H 
ATOM    115  H25 UNL A   1      36.906  28.484  30.599  1.00  0.00    +0.000 H 
ATOM    116  H26 UNL A   1      38.630  26.744  29.894  1.00  0.00    +0.000 H 
ATOM    117  H27 UNL A   1      40.607  30.384  30.101  1.00  0.00    +0.000 H 
ATOM    118  H28 UNL A   1      39.466  33.318  29.528  1.00  0.00    +0.000 H 
ATOM    119  H29 UNL A   1      41.972  32.953  30.027  1.00  0.00    +0.000 H 
ATOM    120  H30 UNL A   1      43.817  29.904  25.830  1.00  0.00    +0.000 H 
ATOM    121  H31 UNL A   1      41.575  28.666  26.137  1.00  0.00    +0.000 H 
ENDROOT
BRANCH   28   27
ATOM    122  H32 UNL A   1      39.349  27.041  27.211  1.00  0.00    +0.000 H 
ATOM     27  C19 UNL A   1      41.064  26.592  28.352  1.00  0.00    +0.000 C 
ATOM    110  H20 UNL A   1      42.713  23.691  28.090  1.00  0.00    +0.000 H 
ATOM    111  H21 UNL A   1      42.882  25.878  29.185  1.00  0.00    +0.000 H 
ATOM     85  C58 UNL A   1      39.970  26.294  27.559  1.00  0.00    +0.000 C 
ATOM     86  C59 UNL A   1      39.734  24.992  27.251  1.00  0.00    +0.000 C 
ATOM     24  C16 UNL A   1      40.776  24.079  27.319  1.00  0.00    +0.000 C 
ATOM     25  C17 UNL A   1      41.952  24.383  28.011  1.00  0.00    +0.000 C 
ATOM     26  C18 UNL A   1      42.070  25.645  28.591  1.00  0.00    +0.000 C 
ATOM    123  H33 UNL A   1      38.789  24.684  26.970  1.00  0.00    +0.000 H 
BRANCH   24   22
ATOM     22  C15 UNL A   1      40.582  22.823  26.573  1.00  0.00    +0.000 C 
ATOM     23  O3  UNL A   1      41.486  22.339  25.923  1.00  0.00    +0.000 O 
BRANCH   22   21
ATOM    109  H19 UNL A   1      38.902  22.239  27.545  1.00  0.00    +0.000 H 
ATOM     21  N5  UNL A   1      39.337  22.212  26.663  1.00  0.00    +0.000 N 
BRANCH   21   20
ATOM    108  H18 UNL A   1      38.502  20.502  25.862  1.00  0.00    +0.000 H 
ATOM    107  H17 UNL A   1      39.131  21.650  24.675  1.00  0.00    +0.000 H 
ATOM     20  C14 UNL A   1      38.595  21.533  25.593  1.00  0.00    +0.000 C 
BRANCH   20   19
ATOM    105  H15 UNL A   1      36.547  21.621  26.124  1.00  0.00    +0.000 H 
ATOM    106  H16 UNL A   1      37.252  23.151  25.575  1.00  0.00    +0.000 H 
ATOM     19  C13 UNL A   1      37.197  22.095  25.417  1.00  0.00    +0.000 C 
BRANCH   19   18
ATOM     18  C12 UNL A   1      36.633  21.869  24.006  1.00  0.00    +0.000 C 
ATOM    103  H13 UNL A   1      37.441  21.558  23.377  1.00  0.00    +0.000 H 
ATOM    104  H14 UNL A   1      35.859  21.140  24.119  1.00  0.00    +0.000 H 
BRANCH   18   17
ATOM     17  C11 UNL A   1      35.961  23.084  23.343  1.00  0.00    +0.000 C 
ATOM    101  H11 UNL A   1      36.108  23.931  23.978  1.00  0.00    +0.000 H 
ATOM    102  H12 UNL A   1      36.415  23.184  22.379  1.00  0.00    +0.000 H 
BRANCH   17   16
ATOM     99  H9  UNL A   1      33.993  23.900  23.218  1.00  0.00    +0.000 H 
ATOM    100  H10 UNL A   1      34.333  22.574  22.089  1.00  0.00    +0.000 H 
ATOM     16  C10 UNL A   1      34.453  22.942  23.087  1.00  0.00    +0.000 C 
BRANCH   16   15
ATOM     97  H7  UNL A   1      32.985  21.445  23.506  1.00  0.00    +0.000 H 
ATOM     98  H8  UNL A   1      34.500  21.227  24.360  1.00  0.00    +0.000 H 
ATOM     15  C9  UNL A   1      33.776  21.943  24.027  1.00  0.00    +0.000 C 
BRANCH   15   14
ATOM     14  N4  UNL A   1      33.229  22.636  25.179  1.00  0.00    +0.000 N 
ATOM     96  H6  UNL A   1      32.496  22.146  25.619  1.00  0.00    +0.000 H 
BRANCH   14   12
ATOM     12  C8  UNL A   1      33.523  23.833  25.780  1.00  0.00    +0.000 C 
ATOM     13  O2  UNL A   1      34.267  23.812  26.761  1.00  0.00    +0.000 O 
BRANCH   12   11
ATOM      8  C4  UNL A   1      31.509  27.307  24.337  1.00  0.00    +0.000 C 
ATOM      9  C5  UNL A   1      30.856  26.440  25.210  1.00  0.00    +0.000 C 
ATOM     10  C6  UNL A   1      31.555  25.329  25.693  1.00  0.00    +0.000 C 
ATOM     11  C7  UNL A   1      32.908  25.125  25.364  1.00  0.00    +0.000 C 
ATOM     87  C60 UNL A   1      33.582  26.117  24.651  1.00  0.00    +0.000 C 
ATOM     88  C61 UNL A   1      32.877  27.174  24.081  1.00  0.00    +0.000 C 
ATOM    124  H34 UNL A   1      34.609  26.069  24.546  1.00  0.00    +0.000 H 
ATOM    125  H35 UNL A   1      33.360  27.855  23.474  1.00  0.00    +0.000 H 
ATOM     94  H4  UNL A   1      29.880  26.614  25.495  1.00  0.00    +0.000 H 
ATOM     95  H5  UNL A   1      31.071  24.648  26.298  1.00  0.00    +0.000 H 
BRANCH    8    7
ATOM      4  C3  UNL A   1      29.546  30.027  23.203  1.00  0.00    +0.000 C 
ATOM      5  N1  UNL A   1      29.343  29.055  22.251  1.00  0.00    +0.000 N 
ATOM      6  N2  UNL A   1      30.185  28.057  22.480  1.00  0.00    +0.000 N 
ATOM      7  N3  UNL A   1      30.785  28.299  23.656  1.00  0.00    +0.000 N 
ATOM     89  C62 UNL A   1      30.527  29.592  24.081  1.00  0.00    +0.000 C 
BRANCH    4    2
ATOM      2  C2  UNL A   1      28.797  31.278  23.172  1.00  0.00    +0.000 C 
ATOM      3  O1  UNL A   1      29.258  32.288  22.640  1.00  0.00    +0.000 O 
BRANCH    2    1
ATOM      1  C1  UNL A   1      27.430  31.324  23.804  1.00  0.00    +0.000 C 
ATOM     91  H1  UNL A   1      27.142  30.338  24.103  1.00  0.00    +0.000 H 
ATOM     92  H2  UNL A   1      26.722  31.702  23.096  1.00  0.00    +0.000 H 
ATOM     93  H3  UNL A   1      27.455  31.963  24.661  1.00  0.00    +0.000 H 
ENDBRANCH    2    1
ENDBRANCH    4    2
BRANCH   89   90
ATOM     90  C63 UNL A   1      31.252  30.212  25.217  1.00  0.00    +0.000 C 
ATOM    126  H36 UNL A   1      30.572  30.804  25.793  1.00  0.00    +0.000 H 
ATOM    127  H37 UNL A   1      32.037  30.834  24.842  1.00  0.00    +0.000 H 
ATOM    128  H38 UNL A   1      31.669  29.444  25.836  1.00  0.00    +0.000 H 
ENDBRANCH   89   90
ENDBRANCH    8    7
ENDBRANCH   12   11
ENDBRANCH   14   12
ENDBRANCH   15   14
ENDBRANCH   16   15
ENDBRANCH   17   16
ENDBRANCH   18   17
ENDBRANCH   19   18
ENDBRANCH   20   19
ENDBRANCH   21   20
ENDBRANCH   22   21
ENDBRANCH   24   22
ENDBRANCH   28   27
BRANCH   32   33
ATOM     33  C24 UNL A   1      44.898  32.360  27.594  1.00  0.00    +0.000 C 
ATOM     34  C25 UNL A   1      46.116  32.498  26.899  1.00  0.00    +0.000 C 
ATOM     35  F1  UNL A   1      46.935  31.446  26.741  1.00  0.00    +0.000 F 
ATOM     36  C26 UNL A   1      46.564  33.734  26.428  1.00  0.00    +0.000 C 
ATOM     37  F2  UNL A   1      47.786  33.837  25.886  1.00  0.00    +0.000 F 
ATOM     38  C27 UNL A   1      45.785  34.866  26.578  1.00  0.00    +0.000 C 
ATOM     39  F3  UNL A   1      46.238  36.062  26.184  1.00  0.00    +0.000 F 
ATOM     40  C28 UNL A   1      44.551  34.759  27.183  1.00  0.00    +0.000 C 
ATOM     41  F4  UNL A   1      43.786  35.847  27.350  1.00  0.00    +0.000 F 
ATOM     42  C29 UNL A   1      44.125  33.537  27.701  1.00  0.00    +0.000 C 
ATOM     43  F5  UNL A   1      42.986  33.584  28.400  1.00  0.00    +0.000 F 
ENDBRANCH   32   33
BRANCH   49   50
ATOM     50  C35 UNL A   1      42.215  30.321  33.574  1.00  0.00    +0.000 C 
ATOM     51  C36 UNL A   1      41.840  28.966  33.530  1.00  0.00    +0.000 C 
ATOM     52  F6  UNL A   1      41.596  28.361  32.362  1.00  0.00    +0.000 F 
ATOM     53  C37 UNL A   1      41.767  28.191  34.687  1.00  0.00    +0.000 C 
ATOM     54  F7  UNL A   1      41.401  26.903  34.613  1.00  0.00    +0.000 F 
ATOM     55  C38 UNL A   1      42.111  28.741  35.910  1.00  0.00    +0.000 C 
ATOM     56  F8  UNL A   1      42.084  27.988  37.019  1.00  0.00    +0.000 F 
ATOM     57  C39 UNL A   1      42.511  30.066  35.978  1.00  0.00    +0.000 C 
ATOM     58  F9  UNL A   1      42.893  30.589  37.150  1.00  0.00    +0.000 F 
ATOM     59  C40 UNL A   1      42.550  30.849  34.826  1.00  0.00    +0.000 C 
ATOM     60  F10 UNL A   1      42.970  32.119  34.927  1.00  0.00    +0.000 F 
ENDBRANCH   49   50
BRANCH   64   65
ATOM     65  C44 UNL A   1      36.774  31.736  30.704  1.00  0.00    +0.000 C 
ATOM     66  C45 UNL A   1      35.920  32.073  31.767  1.00  0.00    +0.000 C 
ATOM     67  F11 UNL A   1      36.202  31.662  33.011  1.00  0.00    +0.000 F 
ATOM     68  C46 UNL A   1      34.802  32.893  31.577  1.00  0.00    +0.000 C 
ATOM     69  F12 UNL A   1      34.040  33.238  32.625  1.00  0.00    +0.000 F 
ATOM     70  C47 UNL A   1      34.508  33.399  30.321  1.00  0.00    +0.000 C 
ATOM     71  F13 UNL A   1      33.474  34.235  30.151  1.00  0.00    +0.000 F 
ATOM     72  C48 UNL A   1      35.316  33.068  29.250  1.00  0.00    +0.000 C 
ATOM     73  F14 UNL A   1      35.067  33.583  28.037  1.00  0.00    +0.000 F 
ATOM     74  C49 UNL A   1      36.431  32.250  29.438  1.00  0.00    +0.000 C 
ATOM     75  F15 UNL A   1      37.227  32.044  28.378  1.00  0.00    +0.000 F 
ENDBRANCH   64   65
TORSDOF 19
ENDMDL
MODEL 5
REMARK VINA RESULT:     -11.8     25.293     31.494
ROOT
ATOM     28  C20 UNL A   1      40.081  29.268  29.119  1.00  0.00    +0.000 C 
ATOM     29  C21 UNL A   1      40.338  28.998  30.554  1.00  0.00    +0.000 C 
ATOM     30  N6  UNL A   1      41.276  29.493  31.290  1.00  0.00    +0.000 N 
ATOM     31  C22 UNL A   1      41.128  28.910  32.544  1.00  0.00    +0.000 C 
ATOM     32  C23 UNL A   1      42.186  28.806  33.396  1.00  0.00    +0.000 C 
ATOM     44  C30 UNL A   1      43.265  29.667  32.979  1.00  0.00    +0.000 C 
ATOM     45  C31 UNL A   1      43.413  31.033  32.845  1.00  0.00    +0.000 C 
ATOM     46  C32 UNL A   1      44.174  31.206  31.651  1.00  0.00    +0.000 C 
ATOM     47  C33 UNL A   1      44.516  29.940  31.171  1.00  0.00    +0.000 C 
ATOM     48  N7  UNL A   1      44.278  29.109  32.237  1.00  0.00    +0.000 N 
ATOM     49  C34 UNL A   1      44.948  29.472  29.873  1.00  0.00    +0.000 C 
ATOM     61  C41 UNL A   1      44.866  28.179  29.444  1.00  0.00    +0.000 C 
ATOM     62  N8  UNL A   1      44.920  27.865  28.093  1.00  0.00    +0.000 N 
ATOM     63  C42 UNL A   1      44.264  26.739  27.985  1.00  0.00    +0.000 C 
ATOM     64  C43 UNL A   1      43.316  26.459  26.873  1.00  0.00    +0.000 C 
ATOM     76  C50 UNL A   1      42.290  27.334  27.015  1.00  0.00    +0.000 C 
ATOM     77  C51 UNL A   1      41.297  27.777  26.065  1.00  0.00    +0.000 C 
ATOM     78  C52 UNL A   1      40.502  28.676  26.679  1.00  0.00    +0.000 C 
ATOM     79  C53 UNL A   1      40.814  28.727  28.116  1.00  0.00    +0.000 C 
ATOM     80  N9  UNL A   1      41.967  27.991  28.223  1.00  0.00    +0.000 N 
ATOM     81  C54 UNL A   1      44.074  26.000  29.223  1.00  0.00    +0.000 C 
ATOM     82  C55 UNL A   1      44.368  26.968  30.096  1.00  0.00    +0.000 C 
ATOM     83  C56 UNL A   1      39.836  28.275  32.542  1.00  0.00    +0.000 C 
ATOM     84  C57 UNL A   1      39.355  28.198  31.300  1.00  0.00    +0.000 C 
ATOM    112  H22 UNL A   1      43.052  31.769  33.473  1.00  0.00    +0.000 H 
ATOM    113  H23 UNL A   1      44.426  32.108  31.217  1.00  0.00    +0.000 H 
ATOM    114  H24 UNL A   1      44.747  28.266  32.433  1.00  0.00    +0.000 H 
ATOM    115  H25 UNL A   1      41.211  27.458  25.087  1.00  0.00    +0.000 H 
ATOM    116  H26 UNL A   1      39.781  29.246  26.210  1.00  0.00    +0.000 H 
ATOM    117  H27 UNL A   1      42.504  27.926  29.046  1.00  0.00    +0.000 H 
ATOM    118  H28 UNL A   1      43.796  25.018  29.380  1.00  0.00    +0.000 H 
ATOM    119  H29 UNL A   1      44.256  26.872  31.117  1.00  0.00    +0.000 H 
ATOM    120  H30 UNL A   1      39.350  27.928  33.384  1.00  0.00    +0.000 H 
ATOM    121  H31 UNL A   1      38.516  27.707  30.955  1.00  0.00    +0.000 H 
ENDROOT
BRANCH   28   27
ATOM    122  H32 UNL A   1      38.010  28.124  28.097  1.00  0.00    +0.000 H 
ATOM     27  C19 UNL A   1      38.815  29.924  28.842  1.00  0.00    +0.000 C 
ATOM    110  H20 UNL A   1      36.983  32.692  29.278  1.00  0.00    +0.000 H 
ATOM    111  H21 UNL A   1      39.231  31.815  29.714  1.00  0.00    +0.000 H 
ATOM     85  C58 UNL A   1      37.879  29.144  28.186  1.00  0.00    +0.000 C 
ATOM     86  C59 UNL A   1      36.784  29.755  27.663  1.00  0.00    +0.000 C 
ATOM     24  C16 UNL A   1      36.390  30.987  28.165  1.00  0.00    +0.000 C 
ATOM     25  C17 UNL A   1      37.265  31.761  28.934  1.00  0.00    +0.000 C 
ATOM     26  C18 UNL A   1      38.525  31.242  29.225  1.00  0.00    +0.000 C 
ATOM    123  H33 UNL A   1      36.251  29.307  26.901  1.00  0.00    +0.000 H 
BRANCH   24   22
ATOM     22  C15 UNL A   1      34.998  31.381  27.886  1.00  0.00    +0.000 C 
ATOM     23  O3  UNL A   1      34.527  32.389  28.373  1.00  0.00    +0.000 O 
BRANCH   22   21
ATOM    109  H19 UNL A   1      34.544  30.555  26.092  1.00  0.00    +0.000 H 
ATOM     21  N5  UNL A   1      34.262  30.566  27.034  1.00  0.00    +0.000 N 
BRANCH   21   20
ATOM    108  H18 UNL A   1      32.242  30.345  27.404  1.00  0.00    +0.000 H 
ATOM    107  H17 UNL A   1      33.292  29.264  28.329  1.00  0.00    +0.000 H 
ATOM     20  C14 UNL A   1      33.112  29.721  27.379  1.00  0.00    +0.000 C 
BRANCH   20   19
ATOM    105  H15 UNL A   1      33.815  28.208  26.076  1.00  0.00    +0.000 H 
ATOM    106  H16 UNL A   1      32.226  27.904  26.798  1.00  0.00    +0.000 H 
ATOM     19  C13 UNL A   1      32.871  28.631  26.351  1.00  0.00    +0.000 C 
BRANCH   19   18
ATOM     18  C12 UNL A   1      32.176  29.146  25.082  1.00  0.00    +0.000 C 
ATOM    103  H13 UNL A   1      31.186  28.742  25.065  1.00  0.00    +0.000 H 
ATOM    104  H14 UNL A   1      32.214  30.213  25.147  1.00  0.00    +0.000 H 
BRANCH   18   17
ATOM     17  C11 UNL A   1      32.853  28.790  23.746  1.00  0.00    +0.000 C 
ATOM    101  H11 UNL A   1      32.974  29.694  23.187  1.00  0.00    +0.000 H 
ATOM    102  H12 UNL A   1      33.777  28.313  24.001  1.00  0.00    +0.000 H 
BRANCH   17   16
ATOM     99  H9  UNL A   1      32.665  27.599  21.987  1.00  0.00    +0.000 H 
ATOM    100  H10 UNL A   1      31.943  26.902  23.450  1.00  0.00    +0.000 H 
ATOM     16  C10 UNL A   1      32.089  27.789  22.869  1.00  0.00    +0.000 C 
BRANCH   16   15
ATOM     97  H7  UNL A   1      30.729  29.358  22.355  1.00  0.00    +0.000 H 
ATOM     98  H8  UNL A   1      30.443  27.851  21.508  1.00  0.00    +0.000 H 
ATOM     15  C9  UNL A   1      30.706  28.292  22.448  1.00  0.00    +0.000 C 
BRANCH   15   14
ATOM     14  N4  UNL A   1      29.717  27.919  23.442  1.00  0.00    +0.000 N 
ATOM     96  H6  UNL A   1      29.315  28.690  23.903  1.00  0.00    +0.000 H 
BRANCH   14   12
ATOM     12  C8  UNL A   1      29.228  26.711  23.871  1.00  0.00    +0.000 C 
ATOM     13  O2  UNL A   1      28.005  26.576  23.922  1.00  0.00    +0.000 O 
BRANCH   12   11
ATOM      8  C4  UNL A   1      32.041  23.839  25.299  1.00  0.00    +0.000 C 
ATOM      9  C5  UNL A   1      31.563  24.827  26.158  1.00  0.00    +0.000 C 
ATOM     10  C6  UNL A   1      30.616  25.732  25.669  1.00  0.00    +0.000 C 
ATOM     11  C7  UNL A   1      30.100  25.609  24.365  1.00  0.00    +0.000 C 
ATOM     87  C60 UNL A   1      30.453  24.492  23.607  1.00  0.00    +0.000 C 
ATOM     88  C61 UNL A   1      31.468  23.642  24.040  1.00  0.00    +0.000 C 
ATOM    124  H34 UNL A   1      29.961  24.294  22.721  1.00  0.00    +0.000 H 
ATOM    125  H35 UNL A   1      31.795  22.872  23.435  1.00  0.00    +0.000 H 
ATOM     94  H4  UNL A   1      31.900  24.889  27.131  1.00  0.00    +0.000 H 
ATOM     95  H5  UNL A   1      30.290  26.502  26.273  1.00  0.00    +0.000 H 
BRANCH    8    7
ATOM      4  C3  UNL A   1      35.095  22.092  25.704  1.00  0.00    +0.000 C 
ATOM      5  N1  UNL A   1      34.161  21.256  26.271  1.00  0.00    +0.000 N 
ATOM      6  N2  UNL A   1      33.005  21.903  26.343  1.00  0.00    +0.000 N 
ATOM      7  N3  UNL A   1      33.146  23.057  25.671  1.00  0.00    +0.000 N 
ATOM     89  C62 UNL A   1      34.479  23.291  25.375  1.00  0.00    +0.000 C 
BRANCH    4    2
ATOM      2  C2  UNL A   1      36.483  21.671  25.547  1.00  0.00    +0.000 C 
ATOM      3  O1  UNL A   1      37.415  22.396  25.895  1.00  0.00    +0.000 O 
BRANCH    2    1
ATOM      1  C1  UNL A   1      36.770  20.320  24.947  1.00  0.00    +0.000 C 
ATOM     91  H1  UNL A   1      37.445  20.431  24.124  1.00  0.00    +0.000 H 
ATOM     92  H2  UNL A   1      35.857  19.881  24.602  1.00  0.00    +0.000 H 
ATOM     93  H3  UNL A   1      37.212  19.687  25.689  1.00  0.00    +0.000 H 
ENDBRANCH    2    1
ENDBRANCH    4    2
BRANCH   89   90
ATOM     90  C63 UNL A   1      34.959  24.595  24.857  1.00  0.00    +0.000 C 
ATOM    126  H36 UNL A   1      34.211  25.024  24.223  1.00  0.00    +0.000 H 
ATOM    127  H37 UNL A   1      35.858  24.447  24.296  1.00  0.00    +0.000 H 
ATOM    128  H38 UNL A   1      35.153  25.255  25.677  1.00  0.00    +0.000 H 
ENDBRANCH   89   90
ENDBRANCH    8    7
ENDBRANCH   12   11
ENDBRANCH   14   12
ENDBRANCH   15   14
ENDBRANCH   16   15
ENDBRANCH   17   16
ENDBRANCH   18   17
ENDBRANCH   19   18
ENDBRANCH   20   19
ENDBRANCH   21   20
ENDBRANCH   22   21
ENDBRANCH   24   22
ENDBRANCH   28   27
BRANCH   32   33
ATOM     33  C24 UNL A   1      42.392  27.688  34.387  1.00  0.00    +0.000 C 
ATOM     34  C25 UNL A   1      42.957  26.476  33.940  1.00  0.00    +0.000 C 
ATOM     35  F1  UNL A   1      43.541  26.397  32.735  1.00  0.00    +0.000 F 
ATOM     36  C26 UNL A   1      42.857  25.296  34.683  1.00  0.00    +0.000 C 
ATOM     37  F2  UNL A   1      43.298  24.143  34.160  1.00  0.00    +0.000 F 
ATOM     38  C27 UNL A   1      42.246  25.296  35.922  1.00  0.00    +0.000 C 
ATOM     39  F3  UNL A   1      42.094  24.156  36.607  1.00  0.00    +0.000 F 
ATOM     40  C28 UNL A   1      41.751  26.479  36.429  1.00  0.00    +0.000 C 
ATOM     41  F4  UNL A   1      41.143  26.497  37.623  1.00  0.00    +0.000 F 
ATOM     42  C29 UNL A   1      41.801  27.646  35.668  1.00  0.00    +0.000 C 
ATOM     43  F5  UNL A   1      41.155  28.693  36.193  1.00  0.00    +0.000 F 
ENDBRANCH   32   33
BRANCH   49   50
ATOM     50  C35 UNL A   1      45.306  30.528  28.859  1.00  0.00    +0.000 C 
ATOM     51  C36 UNL A   1      44.361  31.258  28.116  1.00  0.00    +0.000 C 
ATOM     52  F6  UNL A   1      43.053  31.003  28.233  1.00  0.00    +0.000 F 
ATOM     53  C37 UNL A   1      44.742  32.309  27.282  1.00  0.00    +0.000 C 
ATOM     54  F7  UNL A   1      43.817  32.983  26.582  1.00  0.00    +0.000 F 
ATOM     55  C38 UNL A   1      46.072  32.683  27.206  1.00  0.00    +0.000 C 
ATOM     56  F8  UNL A   1      46.438  33.720  26.439  1.00  0.00    +0.000 F 
ATOM     57  C39 UNL A   1      47.021  31.998  27.948  1.00  0.00    +0.000 C 
ATOM     58  F9  UNL A   1      48.302  32.387  27.917  1.00  0.00    +0.000 F 
ATOM     59  C40 UNL A   1      46.644  30.926  28.755  1.00  0.00    +0.000 C 
ATOM     60  F10 UNL A   1      47.586  30.306  29.482  1.00  0.00    +0.000 F 
ENDBRANCH   49   50
BRANCH   64   65
ATOM     65  C44 UNL A   1      43.347  25.209  26.080  1.00  0.00    +0.000 C 
ATOM     66  C45 UNL A   1      44.395  24.935  25.186  1.00  0.00    +0.000 C 
ATOM     67  F11 UNL A   1      45.276  25.894  24.870  1.00  0.00    +0.000 F 
ATOM     68  C46 UNL A   1      44.592  23.653  24.659  1.00  0.00    +0.000 C 
ATOM     69  F12 UNL A   1      45.635  23.415  23.852  1.00  0.00    +0.000 F 
ATOM     70  C47 UNL A   1      43.747  22.613  25.011  1.00  0.00    +0.000 C 
ATOM     71  F13 UNL A   1      43.973  21.372  24.557  1.00  0.00    +0.000 F 
ATOM     72  C48 UNL A   1      42.693  22.855  25.871  1.00  0.00    +0.000 C 
ATOM     73  F14 UNL A   1      41.893  21.849  26.252  1.00  0.00    +0.000 F 
ATOM     74  C49 UNL A   1      42.496  24.133  26.397  1.00  0.00    +0.000 C 
ATOM     75  F15 UNL A   1      41.513  24.280  27.299  1.00  0.00    +0.000 F 
ENDBRANCH   64   65
TORSDOF 19
ENDMDL
MODEL 6
REMARK VINA RESULT:     -11.7     24.968     31.453
ROOT
ATOM     28  C20 UNL A   1      40.800  27.782  28.936  1.00  0.00    +0.000 C 
ATOM     29  C21 UNL A   1      41.901  28.539  28.295  1.00  0.00    +0.000 C 
ATOM     30  N6  UNL A   1      42.989  28.961  28.847  1.00  0.00    +0.000 N 
ATOM     31  C22 UNL A   1      43.681  29.648  27.855  1.00  0.00    +0.000 C 
ATOM     32  C23 UNL A   1      44.584  30.616  28.176  1.00  0.00    +0.000 C 
ATOM     44  C30 UNL A   1      44.949  30.536  29.569  1.00  0.00    +0.000 C 
ATOM     45  C31 UNL A   1      45.580  29.587  30.348  1.00  0.00    +0.000 C 
ATOM     46  C32 UNL A   1      44.873  29.598  31.587  1.00  0.00    +0.000 C 
ATOM     47  C33 UNL A   1      43.908  30.606  31.524  1.00  0.00    +0.000 C 
ATOM     48  N7  UNL A   1      44.297  31.366  30.449  1.00  0.00    +0.000 N 
ATOM     49  C34 UNL A   1      42.706  30.854  32.286  1.00  0.00    +0.000 C 
ATOM     61  C41 UNL A   1      41.665  31.634  31.869  1.00  0.00    +0.000 C 
ATOM     62  N8  UNL A   1      40.407  31.521  32.444  1.00  0.00    +0.000 N 
ATOM     63  C42 UNL A   1      39.578  31.911  31.511  1.00  0.00    +0.000 C 
ATOM     64  C43 UNL A   1      38.289  31.220  31.234  1.00  0.00    +0.000 C 
ATOM     76  C50 UNL A   1      38.610  29.982  30.782  1.00  0.00    +0.000 C 
ATOM     77  C51 UNL A   1      37.817  28.778  30.708  1.00  0.00    +0.000 C 
ATOM     78  C52 UNL A   1      38.593  27.797  30.204  1.00  0.00    +0.000 C 
ATOM     79  C53 UNL A   1      39.875  28.353  29.745  1.00  0.00    +0.000 C 
ATOM     80  N9  UNL A   1      39.862  29.637  30.228  1.00  0.00    +0.000 N 
ATOM     81  C54 UNL A   1      40.166  32.682  30.428  1.00  0.00    +0.000 C 
ATOM     82  C55 UNL A   1      41.455  32.396  30.640  1.00  0.00    +0.000 C 
ATOM     83  C56 UNL A   1      43.038  29.314  26.612  1.00  0.00    +0.000 C 
ATOM     84  C57 UNL A   1      41.861  28.727  26.837  1.00  0.00    +0.000 C 
ATOM    112  H22 UNL A   1      46.387  28.998  30.090  1.00  0.00    +0.000 H 
ATOM    113  H23 UNL A   1      45.044  28.971  32.389  1.00  0.00    +0.000 H 
ATOM    114  H24 UNL A   1      44.136  32.329  30.331  1.00  0.00    +0.000 H 
ATOM    115  H25 UNL A   1      36.829  28.685  30.990  1.00  0.00    +0.000 H 
ATOM    116  H26 UNL A   1      38.326  26.801  30.151  1.00  0.00    +0.000 H 
ATOM    117  H27 UNL A   1      40.634  30.247  30.192  1.00  0.00    +0.000 H 
ATOM    118  H28 UNL A   1      39.721  33.275  29.709  1.00  0.00    +0.000 H 
ATOM    119  H29 UNL A   1      42.216  32.682  30.004  1.00  0.00    +0.000 H 
ATOM    120  H30 UNL A   1      43.433  29.503  25.677  1.00  0.00    +0.000 H 
ATOM    121  H31 UNL A   1      41.121  28.471  26.165  1.00  0.00    +0.000 H 
ENDROOT
BRANCH   28   27
ATOM    122  H32 UNL A   1      38.790  27.020  27.513  1.00  0.00    +0.000 H 
ATOM     27  C19 UNL A   1      40.604  26.439  28.418  1.00  0.00    +0.000 C 
ATOM    110  H20 UNL A   1      41.995  23.432  27.936  1.00  0.00    +0.000 H 
ATOM    111  H21 UNL A   1      42.460  25.590  29.002  1.00  0.00    +0.000 H 
ATOM     85  C58 UNL A   1      39.397  26.227  27.776  1.00  0.00    +0.000 C 
ATOM     86  C59 UNL A   1      39.030  24.948  27.499  1.00  0.00    +0.000 C 
ATOM     24  C16 UNL A   1      40.006  23.964  27.427  1.00  0.00    +0.000 C 
ATOM     25  C17 UNL A   1      41.281  24.178  27.959  1.00  0.00    +0.000 C 
ATOM     26  C18 UNL A   1      41.563  25.421  28.521  1.00  0.00    +0.000 C 
ATOM    123  H33 UNL A   1      38.038  24.711  27.344  1.00  0.00    +0.000 H 
BRANCH   24   22
ATOM     22  C15 UNL A   1      39.626  22.733  26.711  1.00  0.00    +0.000 C 
ATOM     23  O3  UNL A   1      40.265  21.709  26.852  1.00  0.00    +0.000 O 
BRANCH   22   21
ATOM    109  H19 UNL A   1      38.254  23.680  25.559  1.00  0.00    +0.000 H 
ATOM     21  N5  UNL A   1      38.505  22.789  25.893  1.00  0.00    +0.000 N 
BRANCH   21   20
ATOM    108  H18 UNL A   1      37.772  20.879  26.177  1.00  0.00    +0.000 H 
ATOM    107  H17 UNL A   1      37.949  21.365  24.486  1.00  0.00    +0.000 H 
ATOM     20  C14 UNL A   1      37.652  21.672  25.467  1.00  0.00    +0.000 C 
BRANCH   20   19
ATOM    105  H15 UNL A   1      35.821  21.933  24.437  1.00  0.00    +0.000 H 
ATOM    106  H16 UNL A   1      35.672  21.405  26.122  1.00  0.00    +0.000 H 
ATOM     19  C13 UNL A   1      36.183  22.049  25.437  1.00  0.00    +0.000 C 
BRANCH   19   18
ATOM     18  C12 UNL A   1      35.926  23.495  25.886  1.00  0.00    +0.000 C 
ATOM    103  H13 UNL A   1      35.449  23.461  26.843  1.00  0.00    +0.000 H 
ATOM    104  H14 UNL A   1      36.885  23.969  25.891  1.00  0.00    +0.000 H 
BRANCH   18   17
ATOM     17  C11 UNL A   1      35.049  24.349  24.953  1.00  0.00    +0.000 C 
ATOM    101  H11 UNL A   1      35.694  24.855  24.266  1.00  0.00    +0.000 H 
ATOM    102  H12 UNL A   1      34.368  23.670  24.485  1.00  0.00    +0.000 H 
BRANCH   17   16
ATOM     99  H9  UNL A   1      33.180  25.030  25.722  1.00  0.00    +0.000 H 
ATOM    100  H10 UNL A   1      34.609  25.584  26.616  1.00  0.00    +0.000 H 
ATOM     16  C10 UNL A   1      34.180  25.405  25.652  1.00  0.00    +0.000 C 
BRANCH   16   15
ATOM     97  H7  UNL A   1      34.307  27.539  25.607  1.00  0.00    +0.000 H 
ATOM     98  H8  UNL A   1      34.918  26.751  24.166  1.00  0.00    +0.000 H 
ATOM     15  C9  UNL A   1      34.148  26.743  24.910  1.00  0.00    +0.000 C 
BRANCH   15   14
ATOM     14  N4  UNL A   1      32.861  26.923  24.263  1.00  0.00    +0.000 N 
ATOM     96  H6  UNL A   1      32.286  27.583  24.713  1.00  0.00    +0.000 H 
BRANCH   14   12
ATOM     12  C8  UNL A   1      32.282  26.361  23.154  1.00  0.00    +0.000 C 
ATOM     13  O2  UNL A   1      31.743  27.117  22.347  1.00  0.00    +0.000 O 
BRANCH   12   11
ATOM      8  C4  UNL A   1      32.108  22.102  22.955  1.00  0.00    +0.000 C 
ATOM      9  C5  UNL A   1      31.083  22.809  23.581  1.00  0.00    +0.000 C 
ATOM     10  C6  UNL A   1      31.153  24.206  23.599  1.00  0.00    +0.000 C 
ATOM     11  C7  UNL A   1      32.192  24.889  22.940  1.00  0.00    +0.000 C 
ATOM     87  C60 UNL A   1      33.086  24.157  22.159  1.00  0.00    +0.000 C 
ATOM     88  C61 UNL A   1      33.090  22.765  22.214  1.00  0.00    +0.000 C 
ATOM    124  H34 UNL A   1      33.748  24.648  21.536  1.00  0.00    +0.000 H 
ATOM    125  H35 UNL A   1      33.813  22.226  21.710  1.00  0.00    +0.000 H 
ATOM     94  H4  UNL A   1      30.292  22.314  24.020  1.00  0.00    +0.000 H 
ATOM     95  H5  UNL A   1      30.431  24.743  24.103  1.00  0.00    +0.000 H 
BRANCH    8    7
ATOM      4  C3  UNL A   1      32.800  18.722  23.751  1.00  0.00    +0.000 C 
ATOM      5  N1  UNL A   1      32.394  18.674  22.438  1.00  0.00    +0.000 N 
ATOM      6  N2  UNL A   1      31.927  19.867  22.096  1.00  0.00    +0.000 N 
ATOM      7  N3  UNL A   1      32.198  20.709  23.107  1.00  0.00    +0.000 N 
ATOM     89  C62 UNL A   1      32.614  20.011  24.228  1.00  0.00    +0.000 C 
BRANCH    4    2
ATOM      2  C2  UNL A   1      33.310  17.532  24.424  1.00  0.00    +0.000 C 
ATOM      3  O1  UNL A   1      33.034  17.294  25.599  1.00  0.00    +0.000 O 
BRANCH    2    1
ATOM      1  C1  UNL A   1      34.188  16.581  23.655  1.00  0.00    +0.000 C 
ATOM     91  H1  UNL A   1      33.622  16.128  22.868  1.00  0.00    +0.000 H 
ATOM     92  H2  UNL A   1      34.554  15.821  24.313  1.00  0.00    +0.000 H 
ATOM     93  H3  UNL A   1      35.014  17.118  23.236  1.00  0.00    +0.000 H 
ENDBRANCH    2    1
ENDBRANCH    4    2
BRANCH   89   90
ATOM     90  C63 UNL A   1      32.748  20.654  25.558  1.00  0.00    +0.000 C 
ATOM    126  H36 UNL A   1      32.826  19.900  26.313  1.00  0.00    +0.000 H 
ATOM    127  H37 UNL A   1      31.888  21.262  25.748  1.00  0.00    +0.000 H 
ATOM    128  H38 UNL A   1      33.627  21.264  25.572  1.00  0.00    +0.000 H 
ENDBRANCH   89   90
ENDBRANCH    8    7
ENDBRANCH   12   11
ENDBRANCH   14   12
ENDBRANCH   15   14
ENDBRANCH   16   15
ENDBRANCH   17   16
ENDBRANCH   18   17
ENDBRANCH   19   18
ENDBRANCH   20   19
ENDBRANCH   21   20
ENDBRANCH   22   21
ENDBRANCH   24   22
ENDBRANCH   28   27
BRANCH   32   33
ATOM     33  C24 UNL A   1      44.870  31.842  27.344  1.00  0.00    +0.000 C 
ATOM     34  C25 UNL A   1      46.157  32.006  26.792  1.00  0.00    +0.000 C 
ATOM     35  F1  UNL A   1      47.029  30.986  26.774  1.00  0.00    +0.000 F 
ATOM     36  C26 UNL A   1      46.608  33.243  26.324  1.00  0.00    +0.000 C 
ATOM     37  F2  UNL A   1      47.881  33.379  25.925  1.00  0.00    +0.000 F 
ATOM     38  C27 UNL A   1      45.773  34.344  26.333  1.00  0.00    +0.000 C 
ATOM     39  F3  UNL A   1      46.222  35.543  25.944  1.00  0.00    +0.000 F 
ATOM     40  C28 UNL A   1      44.481  34.206  26.794  1.00  0.00    +0.000 C 
ATOM     41  F4  UNL A   1      43.660  35.264  26.823  1.00  0.00    +0.000 F 
ATOM     42  C29 UNL A   1      44.045  32.987  27.310  1.00  0.00    +0.000 C 
ATOM     43  F5  UNL A   1      42.830  33.009  27.868  1.00  0.00    +0.000 F 
ENDBRANCH   32   33
BRANCH   49   50
ATOM     50  C35 UNL A   1      42.505  30.018  33.524  1.00  0.00    +0.000 C 
ATOM     51  C36 UNL A   1      42.620  30.512  34.835  1.00  0.00    +0.000 C 
ATOM     52  F6  UNL A   1      42.984  31.780  35.059  1.00  0.00    +0.000 F 
ATOM     53  C37 UNL A   1      42.303  29.725  35.942  1.00  0.00    +0.000 C 
ATOM     54  F7  UNL A   1      42.428  30.225  37.181  1.00  0.00    +0.000 F 
ATOM     55  C38 UNL A   1      41.821  28.441  35.762  1.00  0.00    +0.000 C 
ATOM     56  F8  UNL A   1      41.474  27.697  36.821  1.00  0.00    +0.000 F 
ATOM     57  C39 UNL A   1      41.672  27.938  34.479  1.00  0.00    +0.000 C 
ATOM     58  F9  UNL A   1      41.159  26.714  34.297  1.00  0.00    +0.000 F 
ATOM     59  C40 UNL A   1      42.022  28.712  33.375  1.00  0.00    +0.000 C 
ATOM     60  F10 UNL A   1      41.836  28.202  32.148  1.00  0.00    +0.000 F 
ENDBRANCH   49   50
BRANCH   64   65
ATOM     65  C44 UNL A   1      37.000  31.936  31.101  1.00  0.00    +0.000 C 
ATOM     66  C45 UNL A   1      36.195  32.208  32.219  1.00  0.00    +0.000 C 
ATOM     67  F11 UNL A   1      36.471  31.636  33.400  1.00  0.00    +0.000 F 
ATOM     68  C46 UNL A   1      35.139  33.124  32.156  1.00  0.00    +0.000 C 
ATOM     69  F12 UNL A   1      34.426  33.400  33.257  1.00  0.00    +0.000 F 
ATOM     70  C47 UNL A   1      34.860  33.792  30.975  1.00  0.00    +0.000 C 
ATOM     71  F13 UNL A   1      33.889  34.716  30.931  1.00  0.00    +0.000 F 
ATOM     72  C48 UNL A   1      35.619  33.530  29.850  1.00  0.00    +0.000 C 
ATOM     73  F14 UNL A   1      35.386  34.199  28.712  1.00  0.00    +0.000 F 
ATOM     74  C49 UNL A   1      36.673  32.617  29.912  1.00  0.00    +0.000 C 
ATOM     75  F15 UNL A   1      37.430  32.478  28.814  1.00  0.00    +0.000 F 
ENDBRANCH   64   65
TORSDOF 19
ENDMDL
MODEL 7
REMARK VINA RESULT:     -11.7     26.875     32.146
ROOT
ATOM     28  C20 UNL A   1      39.992  29.296  29.192  1.00  0.00    +0.000 C 
ATOM     29  C21 UNL A   1      40.262  29.010  30.621  1.00  0.00    +0.000 C 
ATOM     30  N6  UNL A   1      41.192  29.512  31.361  1.00  0.00    +0.000 N 
ATOM     31  C22 UNL A   1      41.062  28.906  32.606  1.00  0.00    +0.000 C 
ATOM     32  C23 UNL A   1      42.125  28.810  33.452  1.00  0.00    +0.000 C 
ATOM     44  C30 UNL A   1      43.186  29.699  33.045  1.00  0.00    +0.000 C 
ATOM     45  C31 UNL A   1      43.305  31.070  32.932  1.00  0.00    +0.000 C 
ATOM     46  C32 UNL A   1      44.057  31.277  31.737  1.00  0.00    +0.000 C 
ATOM     47  C33 UNL A   1      44.423  30.026  31.236  1.00  0.00    +0.000 C 
ATOM     48  N7  UNL A   1      44.206  29.173  32.290  1.00  0.00    +0.000 N 
ATOM     49  C34 UNL A   1      44.858  29.587  29.929  1.00  0.00    +0.000 C 
ATOM     61  C41 UNL A   1      44.799  28.299  29.480  1.00  0.00    +0.000 C 
ATOM     62  N8  UNL A   1      44.854  28.007  28.123  1.00  0.00    +0.000 N 
ATOM     63  C42 UNL A   1      44.220  26.870  28.001  1.00  0.00    +0.000 C 
ATOM     64  C43 UNL A   1      43.273  26.589  26.888  1.00  0.00    +0.000 C 
ATOM     76  C50 UNL A   1      42.231  27.441  27.049  1.00  0.00    +0.000 C 
ATOM     77  C51 UNL A   1      41.225  27.878  26.110  1.00  0.00    +0.000 C 
ATOM     78  C52 UNL A   1      40.414  28.751  26.742  1.00  0.00    +0.000 C 
ATOM     79  C53 UNL A   1      40.732  28.786  28.177  1.00  0.00    +0.000 C 
ATOM     80  N9  UNL A   1      41.899  28.072  28.268  1.00  0.00    +0.000 N 
ATOM     81  C54 UNL A   1      44.051  26.108  29.228  1.00  0.00    +0.000 C 
ATOM     82  C55 UNL A   1      44.329  27.069  30.115  1.00  0.00    +0.000 C 
ATOM     83  C56 UNL A   1      39.783  28.246  32.600  1.00  0.00    +0.000 C 
ATOM     84  C57 UNL A   1      39.298  28.178  31.359  1.00  0.00    +0.000 C 
ATOM    112  H22 UNL A   1      42.932  31.788  33.572  1.00  0.00    +0.000 H 
ATOM    113  H23 UNL A   1      44.289  32.190  31.316  1.00  0.00    +0.000 H 
ATOM    114  H24 UNL A   1      44.692  28.337  32.470  1.00  0.00    +0.000 H 
ATOM    115  H25 UNL A   1      41.140  27.573  25.128  1.00  0.00    +0.000 H 
ATOM    116  H26 UNL A   1      39.680  29.314  26.284  1.00  0.00    +0.000 H 
ATOM    117  H27 UNL A   1      42.442  28.005  29.087  1.00  0.00    +0.000 H 
ATOM    118  H28 UNL A   1      43.793  25.119  29.371  1.00  0.00    +0.000 H 
ATOM    119  H29 UNL A   1      44.223  26.954  31.135  1.00  0.00    +0.000 H 
ATOM    120  H30 UNL A   1      39.308  27.876  33.439  1.00  0.00    +0.000 H 
ATOM    121  H31 UNL A   1      38.467  27.676  31.009  1.00  0.00    +0.000 H 
ENDROOT
BRANCH   28   27
ATOM    122  H32 UNL A   1      37.748  28.056  28.927  1.00  0.00    +0.000 H 
ATOM     27  C19 UNL A   1      38.713  29.932  28.931  1.00  0.00    +0.000 C 
ATOM    110  H20 UNL A   1      37.048  32.832  28.767  1.00  0.00    +0.000 H 
ATOM    111  H21 UNL A   1      39.318  31.961  29.088  1.00  0.00    +0.000 H 
ATOM     85  C58 UNL A   1      37.659  29.062  28.712  1.00  0.00    +0.000 C 
ATOM     86  C59 UNL A   1      36.502  29.566  28.207  1.00  0.00    +0.000 C 
ATOM     24  C16 UNL A   1      36.230  30.919  28.355  1.00  0.00    +0.000 C 
ATOM     25  C17 UNL A   1      37.244  31.821  28.692  1.00  0.00    +0.000 C 
ATOM     26  C18 UNL A   1      38.524  31.322  28.924  1.00  0.00    +0.000 C 
ATOM    123  H33 UNL A   1      35.833  28.950  27.720  1.00  0.00    +0.000 H 
BRANCH   24   22
ATOM     22  C15 UNL A   1      34.820  31.313  28.194  1.00  0.00    +0.000 C 
ATOM     23  O3  UNL A   1      34.026  30.577  27.644  1.00  0.00    +0.000 O 
BRANCH   22   21
ATOM    109  H19 UNL A   1      34.858  32.808  29.563  1.00  0.00    +0.000 H 
ATOM     21  N5  UNL A   1      34.437  32.544  28.714  1.00  0.00    +0.000 N 
BRANCH   21   20
ATOM    108  H18 UNL A   1      32.496  33.088  28.266  1.00  0.00    +0.000 H 
ATOM    107  H17 UNL A   1      33.711  33.642  27.108  1.00  0.00    +0.000 H 
ATOM     20  C14 UNL A   1      33.478  33.496  28.141  1.00  0.00    +0.000 C 
BRANCH   20   19
ATOM    105  H15 UNL A   1      33.944  35.561  28.180  1.00  0.00    +0.000 H 
ATOM    106  H16 UNL A   1      32.507  35.093  29.106  1.00  0.00    +0.000 H 
ATOM     19  C13 UNL A   1      33.513  34.841  28.844  1.00  0.00    +0.000 C 
BRANCH   19   18
ATOM     18  C12 UNL A   1      34.335  34.818  30.141  1.00  0.00    +0.000 C 
ATOM    103  H13 UNL A   1      34.813  33.863  30.209  1.00  0.00    +0.000 H 
ATOM    104  H14 UNL A   1      35.012  35.643  30.068  1.00  0.00    +0.000 H 
BRANCH   18   17
ATOM     17  C11 UNL A   1      33.549  35.045  31.445  1.00  0.00    +0.000 C 
ATOM    101  H11 UNL A   1      33.095  36.012  31.393  1.00  0.00    +0.000 H 
ATOM    102  H12 UNL A   1      32.846  34.242  31.511  1.00  0.00    +0.000 H 
BRANCH   17   16
ATOM     99  H9  UNL A   1      35.383  35.289  32.508  1.00  0.00    +0.000 H 
ATOM    100  H10 UNL A   1      33.917  35.632  33.446  1.00  0.00    +0.000 H 
ATOM     16  C10 UNL A   1      34.382  34.983  32.734  1.00  0.00    +0.000 C 
BRANCH   16   15
ATOM     97  H7  UNL A   1      35.077  33.593  34.203  1.00  0.00    +0.000 H 
ATOM     98  H8  UNL A   1      33.440  33.299  33.650  1.00  0.00    +0.000 H 
ATOM     15  C9  UNL A   1      34.428  33.583  33.352  1.00  0.00    +0.000 C 
BRANCH   15   14
ATOM     14  N4  UNL A   1      34.926  32.627  32.381  1.00  0.00    +0.000 N 
ATOM     96  H6  UNL A   1      34.316  32.488  31.620  1.00  0.00    +0.000 H 
BRANCH   14   12
ATOM     12  C8  UNL A   1      36.071  31.876  32.306  1.00  0.00    +0.000 C 
ATOM     13  O2  UNL A   1      35.958  30.652  32.391  1.00  0.00    +0.000 O 
BRANCH   12   11
ATOM      8  C4  UNL A   1      39.949  33.537  31.666  1.00  0.00    +0.000 C 
ATOM      9  C5  UNL A   1      38.816  34.264  31.307  1.00  0.00    +0.000 C 
ATOM     10  C6  UNL A   1      37.558  33.706  31.562  1.00  0.00    +0.000 C 
ATOM     11  C7  UNL A   1      37.433  32.474  32.229  1.00  0.00    +0.000 C 
ATOM     87  C60 UNL A   1      38.581  31.873  32.749  1.00  0.00    +0.000 C 
ATOM     88  C61 UNL A   1      39.841  32.363  32.417  1.00  0.00    +0.000 C 
ATOM    124  H34 UNL A   1      38.495  31.063  33.384  1.00  0.00    +0.000 H 
ATOM    125  H35 UNL A   1      40.691  31.863  32.723  1.00  0.00    +0.000 H 
ATOM     94  H4  UNL A   1      38.902  35.192  30.864  1.00  0.00    +0.000 H 
ATOM     95  H5  UNL A   1      36.710  34.206  31.255  1.00  0.00    +0.000 H 
BRANCH    8    7
ATOM      4  C3  UNL A   1      43.039  35.097  30.921  1.00  0.00    +0.000 C 
ATOM      5  N1  UNL A   1      42.745  34.387  29.779  1.00  0.00    +0.000 N 
ATOM      6  N2  UNL A   1      41.697  33.611  30.023  1.00  0.00    +0.000 N 
ATOM      7  N3  UNL A   1      41.218  33.950  31.231  1.00  0.00    +0.000 N 
ATOM     89  C62 UNL A   1      42.109  34.775  31.898  1.00  0.00    +0.000 C 
BRANCH    4    2
ATOM      2  C2  UNL A   1      44.185  35.997  30.971  1.00  0.00    +0.000 C 
ATOM      3  O1  UNL A   1      44.148  37.046  31.614  1.00  0.00    +0.000 O 
BRANCH    2    1
ATOM      1  C1  UNL A   1      45.436  35.625  30.220  1.00  0.00    +0.000 C 
ATOM     91  H1  UNL A   1      45.926  36.514  29.879  1.00  0.00    +0.000 H 
ATOM     92  H2  UNL A   1      45.180  35.016  29.378  1.00  0.00    +0.000 H 
ATOM     93  H3  UNL A   1      46.093  35.082  30.867  1.00  0.00    +0.000 H 
ENDBRANCH    2    1
ENDBRANCH    4    2
BRANCH   89   90
ATOM     90  C63 UNL A   1      41.957  35.107  33.335  1.00  0.00    +0.000 C 
ATOM    126  H36 UNL A   1      40.956  35.438  33.521  1.00  0.00    +0.000 H 
ATOM    127  H37 UNL A   1      42.643  35.886  33.595  1.00  0.00    +0.000 H 
ATOM    128  H38 UNL A   1      42.161  34.238  33.925  1.00  0.00    +0.000 H 
ENDBRANCH   89   90
ENDBRANCH    8    7
ENDBRANCH   12   11
ENDBRANCH   14   12
ENDBRANCH   15   14
ENDBRANCH   16   15
ENDBRANCH   17   16
ENDBRANCH   18   17
ENDBRANCH   19   18
ENDBRANCH   20   19
ENDBRANCH   21   20
ENDBRANCH   22   21
ENDBRANCH   24   22
ENDBRANCH   28   27
BRANCH   32   33
ATOM     33  C24 UNL A   1      42.359  27.682  34.425  1.00  0.00    +0.000 C 
ATOM     34  C25 UNL A   1      42.931  26.482  33.954  1.00  0.00    +0.000 C 
ATOM     35  F1  UNL A   1      43.500  26.427  32.740  1.00  0.00    +0.000 F 
ATOM     36  C26 UNL A   1      42.856  25.292  34.681  1.00  0.00    +0.000 C 
ATOM     37  F2  UNL A   1      43.303  24.151  34.136  1.00  0.00    +0.000 F 
ATOM     38  C27 UNL A   1      42.262  25.267  35.928  1.00  0.00    +0.000 C 
ATOM     39  F3  UNL A   1      42.133  24.116  36.599  1.00  0.00    +0.000 F 
ATOM     40  C28 UNL A   1      41.759  26.437  36.458  1.00  0.00    +0.000 C 
ATOM     41  F4  UNL A   1      41.168  26.431  37.661  1.00  0.00    +0.000 F 
ATOM     42  C29 UNL A   1      41.786  27.614  35.713  1.00  0.00    +0.000 C 
ATOM     43  F5  UNL A   1      41.134  28.646  36.261  1.00  0.00    +0.000 F 
ENDBRANCH   32   33
BRANCH   49   50
ATOM     50  C35 UNL A   1      45.190  30.665  28.930  1.00  0.00    +0.000 C 
ATOM     51  C36 UNL A   1      44.227  31.394  28.209  1.00  0.00    +0.000 C 
ATOM     52  F6  UNL A   1      42.924  31.117  28.334  1.00  0.00    +0.000 F 
ATOM     53  C37 UNL A   1      44.585  32.465  27.390  1.00  0.00    +0.000 C 
ATOM     54  F7  UNL A   1      43.643  33.136  26.711  1.00  0.00    +0.000 F 
ATOM     55  C38 UNL A   1      45.908  32.860  27.308  1.00  0.00    +0.000 C 
ATOM     56  F8  UNL A   1      46.251  33.915  26.556  1.00  0.00    +0.000 F 
ATOM     57  C39 UNL A   1      46.874  32.177  28.029  1.00  0.00    +0.000 C 
ATOM     58  F9  UNL A   1      48.149  32.586  27.992  1.00  0.00    +0.000 F 
ATOM     59  C40 UNL A   1      46.521  31.086  28.820  1.00  0.00    +0.000 C 
ATOM     60  F10 UNL A   1      47.479  30.467  29.527  1.00  0.00    +0.000 F 
ENDBRANCH   49   50
BRANCH   64   65
ATOM     65  C44 UNL A   1      43.325  25.353  26.076  1.00  0.00    +0.000 C 
ATOM     66  C45 UNL A   1      44.399  25.090  25.210  1.00  0.00    +0.000 C 
ATOM     67  F11 UNL A   1      45.292  26.052  24.937  1.00  0.00    +0.000 F 
ATOM     68  C46 UNL A   1      44.610  23.817  24.668  1.00  0.00    +0.000 C 
ATOM     69  F12 UNL A   1      45.676  23.589  23.889  1.00  0.00    +0.000 F 
ATOM     70  C47 UNL A   1      43.752  22.773  24.976  1.00  0.00    +0.000 C 
ATOM     71  F13 UNL A   1      43.989  21.539  24.508  1.00  0.00    +0.000 F 
ATOM     72  C48 UNL A   1      42.673  23.004  25.808  1.00  0.00    +0.000 C 
ATOM     73  F14 UNL A   1      41.859  21.994  26.147  1.00  0.00    +0.000 F 
ATOM     74  C49 UNL A   1      42.462  24.273  26.349  1.00  0.00    +0.000 C 
ATOM     75  F15 UNL A   1      41.453  24.408  27.223  1.00  0.00    +0.000 F 
ENDBRANCH   64   65
TORSDOF 19
ENDMDL
MODEL 8
REMARK VINA RESULT:     -11.6     25.145     31.134
ROOT
ATOM     28  C20 UNL A   1      40.929  27.743  28.880  1.00  0.00    +0.000 C 
ATOM     29  C21 UNL A   1      42.119  28.386  28.274  1.00  0.00    +0.000 C 
ATOM     30  N6  UNL A   1      43.220  28.712  28.861  1.00  0.00    +0.000 N 
ATOM     31  C22 UNL A   1      44.009  29.319  27.890  1.00  0.00    +0.000 C 
ATOM     32  C23 UNL A   1      44.987  30.203  28.234  1.00  0.00    +0.000 C 
ATOM     44  C30 UNL A   1      45.292  30.107  29.641  1.00  0.00    +0.000 C 
ATOM     45  C31 UNL A   1      45.804  29.112  30.451  1.00  0.00    +0.000 C 
ATOM     46  C32 UNL A   1      45.057  29.204  31.662  1.00  0.00    +0.000 C 
ATOM     47  C33 UNL A   1      44.193  30.297  31.555  1.00  0.00    +0.000 C 
ATOM     48  N7  UNL A   1      44.689  31.004  30.489  1.00  0.00    +0.000 N 
ATOM     49  C34 UNL A   1      42.993  30.666  32.271  1.00  0.00    +0.000 C 
ATOM     61  C41 UNL A   1      42.045  31.533  31.808  1.00  0.00    +0.000 C 
ATOM     62  N8  UNL A   1      40.762  31.545  32.338  1.00  0.00    +0.000 N 
ATOM     63  C42 UNL A   1      40.007  32.000  31.372  1.00  0.00    +0.000 C 
ATOM     64  C43 UNL A   1      38.671  31.428  31.053  1.00  0.00    +0.000 C 
ATOM     76  C50 UNL A   1      38.890  30.160  30.625  1.00  0.00    +0.000 C 
ATOM     77  C51 UNL A   1      37.991  29.034  30.533  1.00  0.00    +0.000 C 
ATOM     78  C52 UNL A   1      38.689  27.979  30.066  1.00  0.00    +0.000 C 
ATOM     79  C53 UNL A   1      40.033  28.408  29.650  1.00  0.00    +0.000 C 
ATOM     80  N9  UNL A   1      40.123  29.693  30.120  1.00  0.00    +0.000 N 
ATOM     81  C54 UNL A   1      40.703  32.699  30.304  1.00  0.00    +0.000 C 
ATOM     82  C55 UNL A   1      41.951  32.297  30.565  1.00  0.00    +0.000 C 
ATOM     83  C56 UNL A   1      43.383  29.031  26.626  1.00  0.00    +0.000 C 
ATOM     84  C57 UNL A   1      42.149  28.558  26.813  1.00  0.00    +0.000 C 
ATOM    112  H22 UNL A   1      46.561  28.448  30.227  1.00  0.00    +0.000 H 
ATOM    113  H23 UNL A   1      45.140  28.574  32.476  1.00  0.00    +0.000 H 
ATOM    114  H24 UNL A   1      44.624  31.977  30.356  1.00  0.00    +0.000 H 
ATOM    115  H25 UNL A   1      36.989  29.037  30.779  1.00  0.00    +0.000 H 
ATOM    116  H26 UNL A   1      38.333  27.011  30.012  1.00  0.00    +0.000 H 
ATOM    117  H27 UNL A   1      40.950  30.227  30.107  1.00  0.00    +0.000 H 
ATOM    118  H28 UNL A   1      40.341  33.321  29.564  1.00  0.00    +0.000 H 
ATOM    119  H29 UNL A   1      42.758  32.503  29.956  1.00  0.00    +0.000 H 
ATOM    120  H30 UNL A   1      43.826  29.171  25.704  1.00  0.00    +0.000 H 
ATOM    121  H31 UNL A   1      41.412  28.365  26.117  1.00  0.00    +0.000 H 
ENDROOT
BRANCH   28   27
ATOM    122  H32 UNL A   1      38.893  27.148  27.415  1.00  0.00    +0.000 H 
ATOM     27  C19 UNL A   1      40.628  26.418  28.367  1.00  0.00    +0.000 C 
ATOM    110  H20 UNL A   1      41.758  23.296  27.940  1.00  0.00    +0.000 H 
ATOM    111  H21 UNL A   1      42.387  25.414  29.002  1.00  0.00    +0.000 H 
ATOM     85  C58 UNL A   1      39.421  26.307  27.698  1.00  0.00    +0.000 C 
ATOM     86  C59 UNL A   1      38.950  25.063  27.422  1.00  0.00    +0.000 C 
ATOM     24  C16 UNL A   1      39.836  23.996  27.380  1.00  0.00    +0.000 C 
ATOM     25  C17 UNL A   1      41.112  24.101  27.941  1.00  0.00    +0.000 C 
ATOM     26  C18 UNL A   1      41.490  25.320  28.500  1.00  0.00    +0.000 C 
ATOM    123  H33 UNL A   1      37.944  24.913  27.245  1.00  0.00    +0.000 H 
BRANCH   24   22
ATOM     22  C15 UNL A   1      39.365  22.797  26.665  1.00  0.00    +0.000 C 
ATOM     23  O3  UNL A   1      39.774  21.692  26.965  1.00  0.00    +0.000 O 
BRANCH   22   21
ATOM    109  H19 UNL A   1      38.757  23.402  24.829  1.00  0.00    +0.000 H 
ATOM     21  N5  UNL A   1      38.429  22.980  25.655  1.00  0.00    +0.000 N 
BRANCH   21   20
ATOM    108  H18 UNL A   1      36.748  22.368  26.687  1.00  0.00    +0.000 H 
ATOM    107  H17 UNL A   1      36.850  21.789  25.020  1.00  0.00    +0.000 H 
ATOM     20  C14 UNL A   1      37.006  22.617  25.679  1.00  0.00    +0.000 C 
BRANCH   20   19
ATOM    105  H15 UNL A   1      36.612  24.686  25.455  1.00  0.00    +0.000 H 
ATOM    106  H16 UNL A   1      35.927  23.645  24.195  1.00  0.00    +0.000 H 
ATOM     19  C13 UNL A   1      36.113  23.763  25.242  1.00  0.00    +0.000 C 
BRANCH   19   18
ATOM     18  C12 UNL A   1      34.752  23.768  25.953  1.00  0.00    +0.000 C 
ATOM    103  H13 UNL A   1      34.599  24.744  26.363  1.00  0.00    +0.000 H 
ATOM    104  H14 UNL A   1      34.037  23.488  25.207  1.00  0.00    +0.000 H 
BRANCH   18   17
ATOM     17  C11 UNL A   1      34.579  22.747  27.092  1.00  0.00    +0.000 C 
ATOM    101  H11 UNL A   1      35.460  22.141  27.129  1.00  0.00    +0.000 H 
ATOM    102  H12 UNL A   1      34.412  23.320  27.980  1.00  0.00    +0.000 H 
BRANCH   17   16
ATOM     99  H9  UNL A   1      33.299  21.215  27.844  1.00  0.00    +0.000 H 
ATOM    100  H10 UNL A   1      32.503  22.428  26.823  1.00  0.00    +0.000 H 
ATOM     16  C10 UNL A   1      33.368  21.812  26.958  1.00  0.00    +0.000 C 
BRANCH   16   15
ATOM     97  H7  UNL A   1      34.361  21.084  25.210  1.00  0.00    +0.000 H 
ATOM     98  H8  UNL A   1      33.459  19.864  26.086  1.00  0.00    +0.000 H 
ATOM     15  C9  UNL A   1      33.459  20.880  25.747  1.00  0.00    +0.000 C 
BRANCH   15   14
ATOM     14  N4  UNL A   1      32.321  21.089  24.872  1.00  0.00    +0.000 N 
ATOM     96  H6  UNL A   1      31.542  20.532  25.103  1.00  0.00    +0.000 H 
BRANCH   14   12
ATOM     12  C8  UNL A   1      32.107  21.902  23.789  1.00  0.00    +0.000 C 
ATOM     13  O2  UNL A   1      32.247  21.410  22.669  1.00  0.00    +0.000 O 
BRANCH   12   11
ATOM      8  C4  UNL A   1      31.684  26.124  24.239  1.00  0.00    +0.000 C 
ATOM      9  C5  UNL A   1      32.377  25.610  23.146  1.00  0.00    +0.000 C 
ATOM     10  C6  UNL A   1      32.469  24.221  23.008  1.00  0.00    +0.000 C 
ATOM     11  C7  UNL A   1      31.817  23.359  23.909  1.00  0.00    +0.000 C 
ATOM     87  C60 UNL A   1      30.971  23.910  24.872  1.00  0.00    +0.000 C 
ATOM     88  C61 UNL A   1      30.951  25.286  25.084  1.00  0.00    +0.000 C 
ATOM    124  H34 UNL A   1      30.356  23.295  25.430  1.00  0.00    +0.000 H 
ATOM    125  H35 UNL A   1      30.398  25.686  25.859  1.00  0.00    +0.000 H 
ATOM     94  H4  UNL A   1      32.813  26.239  22.453  1.00  0.00    +0.000 H 
ATOM     95  H5  UNL A   1      33.022  23.823  22.234  1.00  0.00    +0.000 H 
BRANCH    8    7
ATOM      4  C3  UNL A   1      32.011  29.383  25.586  1.00  0.00    +0.000 C 
ATOM      5  N1  UNL A   1      31.052  29.525  24.610  1.00  0.00    +0.000 N 
ATOM      6  N2  UNL A   1      30.990  28.399  23.912  1.00  0.00    +0.000 N 
ATOM      7  N3  UNL A   1      31.758  27.494  24.540  1.00  0.00    +0.000 N 
ATOM     89  C62 UNL A   1      32.534  28.100  25.514  1.00  0.00    +0.000 C 
BRANCH    4    2
ATOM      2  C2  UNL A   1      32.343  30.487  26.480  1.00  0.00    +0.000 C 
ATOM      3  O1  UNL A   1      31.526  31.370  26.737  1.00  0.00    +0.000 O 
BRANCH    2    1
ATOM      1  C1  UNL A   1      33.715  30.535  27.097  1.00  0.00    +0.000 C 
ATOM     91  H1  UNL A   1      34.453  30.354  26.344  1.00  0.00    +0.000 H 
ATOM     92  H2  UNL A   1      33.792  29.786  27.858  1.00  0.00    +0.000 H 
ATOM     93  H3  UNL A   1      33.878  31.500  27.531  1.00  0.00    +0.000 H 
ENDBRANCH    2    1
ENDBRANCH    4    2
BRANCH   89   90
ATOM     90  C63 UNL A   1      33.645  27.393  26.196  1.00  0.00    +0.000 C 
ATOM    126  H36 UNL A   1      33.245  26.630  26.831  1.00  0.00    +0.000 H 
ATOM    127  H37 UNL A   1      34.203  28.091  26.784  1.00  0.00    +0.000 H 
ATOM    128  H38 UNL A   1      34.287  26.948  25.464  1.00  0.00    +0.000 H 
ENDBRANCH   89   90
ENDBRANCH    8    7
ENDBRANCH   12   11
ENDBRANCH   14   12
ENDBRANCH   15   14
ENDBRANCH   16   15
ENDBRANCH   17   16
ENDBRANCH   18   17
ENDBRANCH   19   18
ENDBRANCH   20   19
ENDBRANCH   21   20
ENDBRANCH   22   21
ENDBRANCH   24   22
ENDBRANCH   28   27
BRANCH   32   33
ATOM     33  C24 UNL A   1      45.416  31.386  27.403  1.00  0.00    +0.000 C 
ATOM     34  C25 UNL A   1      46.770  31.503  27.030  1.00  0.00    +0.000 C 
ATOM     35  F1  UNL A   1      47.611  30.467  27.176  1.00  0.00    +0.000 F 
ATOM     36  C26 UNL A   1      47.312  32.710  26.581  1.00  0.00    +0.000 C 
ATOM     37  F2  UNL A   1      48.631  32.805  26.359  1.00  0.00    +0.000 F 
ATOM     38  C27 UNL A   1      46.511  33.825  26.429  1.00  0.00    +0.000 C 
ATOM     39  F3  UNL A   1      47.039  34.999  26.060  1.00  0.00    +0.000 F 
ATOM     40  C28 UNL A   1      45.164  33.731  26.709  1.00  0.00    +0.000 C 
ATOM     41  F4  UNL A   1      44.373  34.805  26.581  1.00  0.00    +0.000 F 
ATOM     42  C29 UNL A   1      44.632  32.544  27.208  1.00  0.00    +0.000 C 
ATOM     43  F5  UNL A   1      43.351  32.613  27.589  1.00  0.00    +0.000 F 
ENDBRANCH   32   33
BRANCH   49   50
ATOM     50  C35 UNL A   1      42.671  29.867  33.507  1.00  0.00    +0.000 C 
ATOM     51  C36 UNL A   1      42.780  30.366  34.817  1.00  0.00    +0.000 C 
ATOM     52  F6  UNL A   1      43.247  31.599  35.043  1.00  0.00    +0.000 F 
ATOM     53  C37 UNL A   1      42.351  29.625  35.919  1.00  0.00    +0.000 C 
ATOM     54  F7  UNL A   1      42.473  30.128  37.157  1.00  0.00    +0.000 F 
ATOM     55  C38 UNL A   1      41.763  28.387  35.732  1.00  0.00    +0.000 C 
ATOM     56  F8  UNL A   1      41.310  27.690  36.784  1.00  0.00    +0.000 F 
ATOM     57  C39 UNL A   1      41.618  27.883  34.450  1.00  0.00    +0.000 C 
ATOM     58  F9  UNL A   1      41.005  26.707  34.259  1.00  0.00    +0.000 F 
ATOM     59  C40 UNL A   1      42.078  28.608  33.353  1.00  0.00    +0.000 C 
ATOM     60  F10 UNL A   1      41.895  28.100  32.124  1.00  0.00    +0.000 F 
ENDBRANCH   49   50
BRANCH   64   65
ATOM     65  C44 UNL A   1      37.460  32.258  30.867  1.00  0.00    +0.000 C 
ATOM     66  C45 UNL A   1      37.117  32.782  29.610  1.00  0.00    +0.000 C 
ATOM     67  F11 UNL A   1      37.993  32.723  28.597  1.00  0.00    +0.000 F 
ATOM     68  C46 UNL A   1      35.846  33.310  29.357  1.00  0.00    +0.000 C 
ATOM     69  F12 UNL A   1      35.536  33.751  28.130  1.00  0.00    +0.000 F 
ATOM     70  C47 UNL A   1      34.884  33.329  30.354  1.00  0.00    +0.000 C 
ATOM     71  F13 UNL A   1      33.646  33.776  30.095  1.00  0.00    +0.000 F 
ATOM     72  C48 UNL A   1      35.196  32.841  31.609  1.00  0.00    +0.000 C 
ATOM     73  F14 UNL A   1      34.262  32.816  32.570  1.00  0.00    +0.000 F 
ATOM     74  C49 UNL A   1      36.464  32.314  31.861  1.00  0.00    +0.000 C 
ATOM     75  F15 UNL A   1      36.673  31.772  33.070  1.00  0.00    +0.000 F 
ENDBRANCH   64   65
TORSDOF 19
ENDMDL
MODEL 9
REMARK VINA RESULT:     -11.6     27.854     33.251
ROOT
ATOM     28  C20 UNL A   1      40.928  27.430  28.985  1.00  0.00    +0.000 C 
ATOM     29  C21 UNL A   1      42.062  28.171  28.383  1.00  0.00    +0.000 C 
ATOM     30  N6  UNL A   1      43.130  28.587  28.975  1.00  0.00    +0.000 N 
ATOM     31  C22 UNL A   1      43.869  29.258  28.006  1.00  0.00    +0.000 C 
ATOM     32  C23 UNL A   1      44.768  30.221  28.355  1.00  0.00    +0.000 C 
ATOM     44  C30 UNL A   1      45.075  30.149  29.762  1.00  0.00    +0.000 C 
ATOM     45  C31 UNL A   1      45.665  29.201  30.574  1.00  0.00    +0.000 C 
ATOM     46  C32 UNL A   1      44.909  29.229  31.783  1.00  0.00    +0.000 C 
ATOM     47  C33 UNL A   1      43.958  30.246  31.673  1.00  0.00    +0.000 C 
ATOM     48  N7  UNL A   1      44.397  30.992  30.609  1.00  0.00    +0.000 N 
ATOM     49  C34 UNL A   1      42.728  30.513  32.384  1.00  0.00    +0.000 C 
ATOM     61  C41 UNL A   1      41.713  31.298  31.918  1.00  0.00    +0.000 C 
ATOM     62  N8  UNL A   1      40.431  31.203  32.443  1.00  0.00    +0.000 N 
ATOM     63  C42 UNL A   1      39.644  31.593  31.474  1.00  0.00    +0.000 C 
ATOM     64  C43 UNL A   1      38.362  30.912  31.151  1.00  0.00    +0.000 C 
ATOM     76  C50 UNL A   1      38.687  29.667  30.723  1.00  0.00    +0.000 C 
ATOM     77  C51 UNL A   1      37.886  28.470  30.627  1.00  0.00    +0.000 C 
ATOM     78  C52 UNL A   1      38.672  27.477  30.163  1.00  0.00    +0.000 C 
ATOM     79  C53 UNL A   1      39.977  28.017  29.752  1.00  0.00    +0.000 C 
ATOM     80  N9  UNL A   1      39.957  29.305  30.223  1.00  0.00    +0.000 N 
ATOM     81  C54 UNL A   1      40.284  32.349  30.409  1.00  0.00    +0.000 C 
ATOM     82  C55 UNL A   1      41.560  32.052  30.676  1.00  0.00    +0.000 C 
ATOM     83  C56 UNL A   1      43.274  28.920  26.741  1.00  0.00    +0.000 C 
ATOM     84  C57 UNL A   1      42.083  28.346  26.923  1.00  0.00    +0.000 C 
ATOM    112  H22 UNL A   1      46.476  28.602  30.354  1.00  0.00    +0.000 H 
ATOM    113  H23 UNL A   1      45.041  28.608  32.596  1.00  0.00    +0.000 H 
ATOM    114  H24 UNL A   1      44.250  31.957  30.476  1.00  0.00    +0.000 H 
ATOM    115  H25 UNL A   1      36.886  28.389  30.869  1.00  0.00    +0.000 H 
ATOM    116  H26 UNL A   1      38.398  26.483  30.107  1.00  0.00    +0.000 H 
ATOM    117  H27 UNL A   1      40.737  29.907  30.213  1.00  0.00    +0.000 H 
ATOM    118  H28 UNL A   1      39.874  32.939  29.669  1.00  0.00    +0.000 H 
ATOM    119  H29 UNL A   1      42.349  32.325  30.069  1.00  0.00    +0.000 H 
ATOM    120  H30 UNL A   1      43.707  29.097  25.821  1.00  0.00    +0.000 H 
ATOM    121  H31 UNL A   1      41.367  28.092  26.224  1.00  0.00    +0.000 H 
ENDROOT
BRANCH   28   27
ATOM    122  H32 UNL A   1      39.012  26.693  27.426  1.00  0.00    +0.000 H 
ATOM     27  C19 UNL A   1      40.740  26.085  28.470  1.00  0.00    +0.000 C 
ATOM    110  H20 UNL A   1      42.092  23.041  28.131  1.00  0.00    +0.000 H 
ATOM    111  H21 UNL A   1      42.527  25.203  29.203  1.00  0.00    +0.000 H 
ATOM     85  C58 UNL A   1      39.579  25.891  27.742  1.00  0.00    +0.000 C 
ATOM     86  C59 UNL A   1      39.204  24.617  27.455  1.00  0.00    +0.000 C 
ATOM     24  C16 UNL A   1      40.159  23.610  27.468  1.00  0.00    +0.000 C 
ATOM     25  C17 UNL A   1      41.395  23.802  28.092  1.00  0.00    +0.000 C 
ATOM     26  C18 UNL A   1      41.665  25.046  28.657  1.00  0.00    +0.000 C 
ATOM    123  H33 UNL A   1      38.221  24.400  27.230  1.00  0.00    +0.000 H 
BRANCH   24   22
ATOM     22  C15 UNL A   1      39.805  22.378  26.742  1.00  0.00    +0.000 C 
ATOM     23  O3  UNL A   1      38.963  22.391  25.866  1.00  0.00    +0.000 O 
BRANCH   22   21
ATOM    109  H19 UNL A   1      40.607  21.051  28.047  1.00  0.00    +0.000 H 
ATOM     21  N5  UNL A   1      40.485  21.215  27.085  1.00  0.00    +0.000 N 
BRANCH   21   20
ATOM    108  H18 UNL A   1      40.664  20.403  25.195  1.00  0.00    +0.000 H 
ATOM    107  H17 UNL A   1      40.745  19.234  26.519  1.00  0.00    +0.000 H 
ATOM     20  C14 UNL A   1      41.040  20.204  26.177  1.00  0.00    +0.000 C 
BRANCH   20   19
ATOM    105  H15 UNL A   1      42.842  21.105  25.525  1.00  0.00    +0.000 H 
ATOM    106  H16 UNL A   1      42.917  20.333  27.118  1.00  0.00    +0.000 H 
ATOM     19  C13 UNL A   1      42.555  20.259  26.113  1.00  0.00    +0.000 C 
BRANCH   19   18
ATOM     18  C12 UNL A   1      43.176  18.998  25.493  1.00  0.00    +0.000 C 
ATOM    103  H13 UNL A   1      43.034  18.191  26.180  1.00  0.00    +0.000 H 
ATOM    104  H14 UNL A   1      42.680  18.867  24.553  1.00  0.00    +0.000 H 
BRANCH   18   17
ATOM     17  C11 UNL A   1      44.676  19.075  25.159  1.00  0.00    +0.000 C 
ATOM    101  H11 UNL A   1      45.209  19.242  26.071  1.00  0.00    +0.000 H 
ATOM    102  H12 UNL A   1      44.920  18.149  24.681  1.00  0.00    +0.000 H 
BRANCH   17   16
ATOM     99  H9  UNL A   1      45.269  19.729  23.217  1.00  0.00    +0.000 H 
ATOM    100  H10 UNL A   1      44.261  20.874  24.123  1.00  0.00    +0.000 H 
ATOM     16  C10 UNL A   1      45.073  20.179  24.169  1.00  0.00    +0.000 C 
BRANCH   16   15
ATOM     97  H7  UNL A   1      46.593  20.660  25.594  1.00  0.00    +0.000 H 
ATOM     98  H8  UNL A   1      47.118  20.750  23.925  1.00  0.00    +0.000 H 
ATOM     15  C9  UNL A   1      46.317  20.958  24.605  1.00  0.00    +0.000 C 
BRANCH   15   14
ATOM     14  N4  UNL A   1      46.041  22.383  24.592  1.00  0.00    +0.000 N 
ATOM     96  H6  UNL A   1      46.754  22.915  24.171  1.00  0.00    +0.000 H 
BRANCH   14   12
ATOM     12  C8  UNL A   1      44.992  23.139  25.048  1.00  0.00    +0.000 C 
ATOM     13  O2  UNL A   1      44.115  23.444  24.239  1.00  0.00    +0.000 O 
BRANCH   12   11
ATOM      8  C4  UNL A   1      45.183  24.843  28.955  1.00  0.00    +0.000 C 
ATOM      9  C5  UNL A   1      45.064  25.673  27.842  1.00  0.00    +0.000 C 
ATOM     10  C6  UNL A   1      44.969  25.082  26.578  1.00  0.00    +0.000 C 
ATOM     11  C7  UNL A   1      44.921  23.683  26.433  1.00  0.00    +0.000 C 
ATOM     87  C60 UNL A   1      44.842  22.892  27.580  1.00  0.00    +0.000 C 
ATOM     88  C61 UNL A   1      45.038  23.458  28.838  1.00  0.00    +0.000 C 
ATOM    124  H34 UNL A   1      44.637  21.883  27.497  1.00  0.00    +0.000 H 
ATOM    125  H35 UNL A   1      45.074  22.859  29.678  1.00  0.00    +0.000 H 
ATOM     94  H4  UNL A   1      45.047  26.699  27.948  1.00  0.00    +0.000 H 
ATOM     95  H5  UNL A   1      44.933  25.681  25.739  1.00  0.00    +0.000 H 
BRANCH    8    7
ATOM      4  C3  UNL A   1      46.555  25.916  32.039  1.00  0.00    +0.000 C 
ATOM      5  N1  UNL A   1      45.207  25.812  32.296  1.00  0.00    +0.000 N 
ATOM      6  N2  UNL A   1      44.573  25.599  31.151  1.00  0.00    +0.000 N 
ATOM      7  N3  UNL A   1      45.506  25.387  30.208  1.00  0.00    +0.000 N 
ATOM     89  C62 UNL A   1      46.765  25.718  30.682  1.00  0.00    +0.000 C 
BRANCH    4    2
ATOM      2  C2  UNL A   1      47.503  26.208  33.107  1.00  0.00    +0.000 C 
ATOM      3  O1  UNL A   1      47.889  25.330  33.879  1.00  0.00    +0.000 O 
BRANCH    2    1
ATOM      1  C1  UNL A   1      48.018  27.615  33.258  1.00  0.00    +0.000 C 
ATOM     91  H1  UNL A   1      47.753  28.187  32.393  1.00  0.00    +0.000 H 
ATOM     92  H2  UNL A   1      49.083  27.597  33.360  1.00  0.00    +0.000 H 
ATOM     93  H3  UNL A   1      47.584  28.062  34.128  1.00  0.00    +0.000 H 
ENDBRANCH    2    1
ENDBRANCH    4    2
BRANCH   89   90
ATOM     90  C63 UNL A   1      47.947  25.815  29.791  1.00  0.00    +0.000 C 
ATOM    126  H36 UNL A   1      48.722  25.174  30.155  1.00  0.00    +0.000 H 
ATOM    127  H37 UNL A   1      48.298  26.826  29.774  1.00  0.00    +0.000 H 
ATOM    128  H38 UNL A   1      47.672  25.516  28.801  1.00  0.00    +0.000 H 
ENDBRANCH   89   90
ENDBRANCH    8    7
ENDBRANCH   12   11
ENDBRANCH   14   12
ENDBRANCH   15   14
ENDBRANCH   16   15
ENDBRANCH   17   16
ENDBRANCH   18   17
ENDBRANCH   19   18
ENDBRANCH   20   19
ENDBRANCH   21   20
ENDBRANCH   22   21
ENDBRANCH   24   22
ENDBRANCH   28   27
BRANCH   32   33
ATOM     33  C24 UNL A   1      45.100  31.436  27.526  1.00  0.00    +0.000 C 
ATOM     34  C25 UNL A   1      46.404  31.575  27.010  1.00  0.00    +0.000 C 
ATOM     35  F1  UNL A   1      47.259  30.540  27.023  1.00  0.00    +0.000 F 
ATOM     36  C26 UNL A   1      46.891  32.801  26.549  1.00  0.00    +0.000 C 
ATOM     37  F2  UNL A   1      48.177  32.912  26.186  1.00  0.00    +0.000 F 
ATOM     38  C27 UNL A   1      46.076  33.916  26.528  1.00  0.00    +0.000 C 
ATOM     39  F3  UNL A   1      46.557  35.105  26.146  1.00  0.00    +0.000 F 
ATOM     40  C28 UNL A   1      44.768  33.803  26.952  1.00  0.00    +0.000 C 
ATOM     41  F4  UNL A   1      43.966  34.876  26.952  1.00  0.00    +0.000 F 
ATOM     42  C29 UNL A   1      44.297  32.595  27.461  1.00  0.00    +0.000 C 
ATOM     43  F5  UNL A   1      43.066  32.642  27.984  1.00  0.00    +0.000 F 
ENDBRANCH   32   33
BRANCH   49   50
ATOM     50  C35 UNL A   1      42.469  29.689  33.619  1.00  0.00    +0.000 C 
ATOM     51  C36 UNL A   1      41.966  28.376  33.598  1.00  0.00    +0.000 C 
ATOM     52  F6  UNL A   1      41.624  27.792  32.444  1.00  0.00    +0.000 F 
ATOM     53  C37 UNL A   1      41.862  27.615  34.763  1.00  0.00    +0.000 C 
ATOM     54  F7  UNL A   1      41.373  26.367  34.711  1.00  0.00    +0.000 F 
ATOM     55  C38 UNL A   1      42.301  28.134  35.969  1.00  0.00    +0.000 C 
ATOM     56  F8  UNL A   1      42.243  27.391  37.083  1.00  0.00    +0.000 F 
ATOM     57  C39 UNL A   1      42.826  29.415  36.013  1.00  0.00    +0.000 C 
ATOM     58  F9  UNL A   1      43.298  29.904  37.168  1.00  0.00    +0.000 F 
ATOM     59  C40 UNL A   1      42.897  30.187  34.856  1.00  0.00    +0.000 C 
ATOM     60  F10 UNL A   1      43.439  31.413  34.932  1.00  0.00    +0.000 F 
ENDBRANCH   49   50
BRANCH   64   65
ATOM     65  C44 UNL A   1      37.086  31.639  30.960  1.00  0.00    +0.000 C 
ATOM     66  C45 UNL A   1      36.239  31.928  32.043  1.00  0.00    +0.000 C 
ATOM     67  F11 UNL A   1      36.461  31.363  33.238  1.00  0.00    +0.000 F 
ATOM     68  C46 UNL A   1      35.196  32.854  31.930  1.00  0.00    +0.000 C 
ATOM     69  F12 UNL A   1      34.442  33.146  32.999  1.00  0.00    +0.000 F 
ATOM     70  C47 UNL A   1      34.971  33.515  30.733  1.00  0.00    +0.000 C 
ATOM     71  F13 UNL A   1      34.012  34.447  30.642  1.00  0.00    +0.000 F 
ATOM     72  C48 UNL A   1      35.773  33.236  29.642  1.00  0.00    +0.000 C 
ATOM     73  F14 UNL A   1      35.593  33.897  28.490  1.00  0.00    +0.000 F 
ATOM     74  C49 UNL A   1      36.814  32.313  29.754  1.00  0.00    +0.000 C 
ATOM     75  F15 UNL A   1      37.614  32.158  28.688  1.00  0.00    +0.000 F 
ENDBRANCH   64   65
TORSDOF 19
ENDMDL
MODEL 10
REMARK VINA RESULT:     -11.6     27.892     33.245
ROOT
ATOM     28  C20 UNL A   1      40.781  28.039  28.826  1.00  0.00    +0.000 C 
ATOM     29  C21 UNL A   1      41.983  28.699  28.263  1.00  0.00    +0.000 C 
ATOM     30  N6  UNL A   1      43.070  29.012  28.884  1.00  0.00    +0.000 N 
ATOM     31  C22 UNL A   1      43.880  29.644  27.946  1.00  0.00    +0.000 C 
ATOM     32  C23 UNL A   1      44.848  30.520  28.335  1.00  0.00    +0.000 C 
ATOM     44  C30 UNL A   1      45.121  30.389  29.746  1.00  0.00    +0.000 C 
ATOM     45  C31 UNL A   1      45.616  29.375  30.542  1.00  0.00    +0.000 C 
ATOM     46  C32 UNL A   1      44.841  29.435  31.738  1.00  0.00    +0.000 C 
ATOM     47  C33 UNL A   1      43.978  30.529  31.639  1.00  0.00    +0.000 C 
ATOM     48  N7  UNL A   1      44.497  31.263  30.602  1.00  0.00    +0.000 N 
ATOM     49  C34 UNL A   1      42.761  30.878  32.335  1.00  0.00    +0.000 C 
ATOM     61  C41 UNL A   1      41.823  31.755  31.873  1.00  0.00    +0.000 C 
ATOM     62  N8  UNL A   1      40.528  31.753  32.374  1.00  0.00    +0.000 N 
ATOM     63  C42 UNL A   1      39.794  32.230  31.402  1.00  0.00    +0.000 C 
ATOM     64  C43 UNL A   1      38.467  31.665  31.039  1.00  0.00    +0.000 C 
ATOM     76  C50 UNL A   1      38.698  30.408  30.584  1.00  0.00    +0.000 C 
ATOM     77  C51 UNL A   1      37.804  29.284  30.443  1.00  0.00    +0.000 C 
ATOM     78  C52 UNL A   1      38.514  28.242  29.966  1.00  0.00    +0.000 C 
ATOM     79  C53 UNL A   1      39.867  28.683  29.591  1.00  0.00    +0.000 C 
ATOM     80  N9  UNL A   1      39.943  29.956  30.096  1.00  0.00    +0.000 N 
ATOM     81  C54 UNL A   1      40.514  32.957  30.368  1.00  0.00    +0.000 C 
ATOM     82  C55 UNL A   1      41.756  32.550  30.648  1.00  0.00    +0.000 C 
ATOM     83  C56 UNL A   1      43.284  29.387  26.662  1.00  0.00    +0.000 C 
ATOM     84  C57 UNL A   1      42.046  28.908  26.809  1.00  0.00    +0.000 C 
ATOM    112  H22 UNL A   1      46.380  28.717  30.319  1.00  0.00    +0.000 H 
ATOM    113  H23 UNL A   1      44.907  28.785  32.537  1.00  0.00    +0.000 H 
ATOM    114  H24 UNL A   1      44.433  32.239  30.492  1.00  0.00    +0.000 H 
ATOM    115  H25 UNL A   1      36.796  29.279  30.666  1.00  0.00    +0.000 H 
ATOM    116  H26 UNL A   1      38.161  27.276  29.879  1.00  0.00    +0.000 H 
ATOM    117  H27 UNL A   1      40.769  30.492  30.115  1.00  0.00    +0.000 H 
ATOM    118  H28 UNL A   1      40.167  33.598  29.637  1.00  0.00    +0.000 H 
ATOM    119  H29 UNL A   1      42.576  32.773  30.063  1.00  0.00    +0.000 H 
ATOM    120  H30 UNL A   1      43.748  29.551  25.754  1.00  0.00    +0.000 H 
ATOM    121  H31 UNL A   1      41.326  28.732  26.091  1.00  0.00    +0.000 H 
ENDROOT
BRANCH   28   27
ATOM    122  H32 UNL A   1      41.886  25.837  29.584  1.00  0.00    +0.000 H 
ATOM     27  C19 UNL A   1      40.494  26.727  28.273  1.00  0.00    +0.000 C 
ATOM    110  H20 UNL A   1      38.473  24.946  26.286  1.00  0.00    +0.000 H 
ATOM    111  H21 UNL A   1      38.889  27.257  26.989  1.00  0.00    +0.000 H 
ATOM     85  C58 UNL A   1      41.289  25.700  28.753  1.00  0.00    +0.000 C 
ATOM     86  C59 UNL A   1      41.263  24.508  28.102  1.00  0.00    +0.000 C 
ATOM     24  C16 UNL A   1      40.167  24.189  27.314  1.00  0.00    +0.000 C 
ATOM     25  C17 UNL A   1      39.269  25.178  26.901  1.00  0.00    +0.000 C 
ATOM     26  C18 UNL A   1      39.475  26.484  27.341  1.00  0.00    +0.000 C 
ATOM    123  H33 UNL A   1      42.050  23.846  28.194  1.00  0.00    +0.000 H 
BRANCH   24   22
ATOM     22  C15 UNL A   1      39.990  22.759  27.004  1.00  0.00    +0.000 C 
ATOM     23  O3  UNL A   1      39.037  22.376  26.356  1.00  0.00    +0.000 O 
BRANCH   22   21
ATOM    109  H19 UNL A   1      41.277  22.023  28.386  1.00  0.00    +0.000 H 
ATOM     21  N5  UNL A   1      40.964  21.880  27.464  1.00  0.00    +0.000 N 
BRANCH   21   20
ATOM    108  H18 UNL A   1      40.839  20.362  26.070  1.00  0.00    +0.000 H 
ATOM    107  H17 UNL A   1      41.907  20.031  27.439  1.00  0.00    +0.000 H 
ATOM     20  C14 UNL A   1      41.576  20.764  26.734  1.00  0.00    +0.000 C 
BRANCH   20   19
ATOM    105  H15 UNL A   1      43.384  20.355  25.710  1.00  0.00    +0.000 H 
ATOM    106  H16 UNL A   1      42.377  21.623  24.990  1.00  0.00    +0.000 H 
ATOM     19  C13 UNL A   1      42.762  21.206  25.897  1.00  0.00    +0.000 C 
BRANCH   19   18
ATOM     18  C12 UNL A   1      43.607  22.291  26.581  1.00  0.00    +0.000 C 
ATOM    103  H13 UNL A   1      43.260  23.242  26.237  1.00  0.00    +0.000 H 
ATOM    104  H14 UNL A   1      43.483  22.132  27.632  1.00  0.00    +0.000 H 
BRANCH   18   17
ATOM     17  C11 UNL A   1      45.125  22.225  26.332  1.00  0.00    +0.000 C 
ATOM    101  H11 UNL A   1      45.560  23.129  26.703  1.00  0.00    +0.000 H 
ATOM    102  H12 UNL A   1      45.469  21.344  26.832  1.00  0.00    +0.000 H 
BRANCH   17   16
ATOM     99  H9  UNL A   1      46.125  21.173  24.768  1.00  0.00    +0.000 H 
ATOM    100  H10 UNL A   1      44.647  22.024  24.279  1.00  0.00    +0.000 H 
ATOM     16  C10 UNL A   1      45.543  22.067  24.863  1.00  0.00    +0.000 C 
BRANCH   16   15
ATOM     97  H7  UNL A   1      47.331  23.238  24.814  1.00  0.00    +0.000 H 
ATOM     98  H8  UNL A   1      46.484  23.153  23.283  1.00  0.00    +0.000 H 
ATOM     15  C9  UNL A   1      46.371  23.245  24.343  1.00  0.00    +0.000 C 
BRANCH   15   14
ATOM     14  N4  UNL A   1      45.699  24.495  24.643  1.00  0.00    +0.000 N 
ATOM     96  H6  UNL A   1      44.786  24.547  24.276  1.00  0.00    +0.000 H 
BRANCH   14   12
ATOM     12  C8  UNL A   1      46.074  25.620  25.333  1.00  0.00    +0.000 C 
ATOM     13  O2  UNL A   1      46.590  26.537  24.692  1.00  0.00    +0.000 O 
BRANCH   12   11
ATOM      8  C4  UNL A   1      45.814  25.529  29.591  1.00  0.00    +0.000 C 
ATOM      9  C5  UNL A   1      47.019  25.221  28.963  1.00  0.00    +0.000 C 
ATOM     10  C6  UNL A   1      47.081  25.293  27.568  1.00  0.00    +0.000 C 
ATOM     11  C7  UNL A   1      45.978  25.736  26.815  1.00  0.00    +0.000 C 
ATOM     87  C60 UNL A   1      44.858  26.225  27.489  1.00  0.00    +0.000 C 
ATOM     88  C61 UNL A   1      44.744  26.064  28.868  1.00  0.00    +0.000 C 
ATOM    124  H34 UNL A   1      44.111  26.708  26.965  1.00  0.00    +0.000 H 
ATOM    125  H35 UNL A   1      43.875  26.339  29.354  1.00  0.00    +0.000 H 
ATOM     94  H4  UNL A   1      47.846  24.945  29.515  1.00  0.00    +0.000 H 
ATOM     95  H5  UNL A   1      47.949  25.018  27.083  1.00  0.00    +0.000 H 
BRANCH    8    7
ATOM      4  C3  UNL A   1      44.773  24.708  32.874  1.00  0.00    +0.000 C 
ATOM      5  N1  UNL A   1      45.743  25.665  33.066  1.00  0.00    +0.000 N 
ATOM      6  N2  UNL A   1      46.336  25.904  31.904  1.00  0.00    +0.000 N 
ATOM      7  N3  UNL A   1      45.640  25.255  30.957  1.00  0.00    +0.000 N 
ATOM     89  C62 UNL A   1      44.738  24.373  31.529  1.00  0.00    +0.000 C 
BRANCH    4    2
ATOM      2  C2  UNL A   1      43.989  24.199  33.993  1.00  0.00    +0.000 C 
ATOM      3  O1  UNL A   1      43.358  24.956  34.731  1.00  0.00    +0.000 O 
BRANCH    2    1
ATOM      1  C1  UNL A   1      43.954  22.714  34.241  1.00  0.00    +0.000 C 
ATOM     91  H1  UNL A   1      44.233  22.196  33.348  1.00  0.00    +0.000 H 
ATOM     92  H2  UNL A   1      42.964  22.422  34.527  1.00  0.00    +0.000 H 
ATOM     93  H3  UNL A   1      44.639  22.467  35.026  1.00  0.00    +0.000 H 
ENDBRANCH    2    1
ENDBRANCH    4    2
BRANCH   89   90
ATOM     90  C63 UNL A   1      44.011  23.354  30.732  1.00  0.00    +0.000 C 
ATOM    126  H36 UNL A   1      43.771  22.519  31.356  1.00  0.00    +0.000 H 
ATOM    127  H37 UNL A   1      44.630  23.029  29.922  1.00  0.00    +0.000 H 
ATOM    128  H38 UNL A   1      43.110  23.781  30.345  1.00  0.00    +0.000 H 
ENDBRANCH   89   90
ENDBRANCH    8    7
ENDBRANCH   12   11
ENDBRANCH   14   12
ENDBRANCH   15   14
ENDBRANCH   16   15
ENDBRANCH   17   16
ENDBRANCH   18   17
ENDBRANCH   19   18
ENDBRANCH   20   19
ENDBRANCH   21   20
ENDBRANCH   22   21
ENDBRANCH   24   22
ENDBRANCH   28   27
BRANCH   32   33
ATOM     33  C24 UNL A   1      45.294  31.724  27.544  1.00  0.00    +0.000 C 
ATOM     34  C25 UNL A   1      46.605  31.756  27.029  1.00  0.00    +0.000 C 
ATOM     35  F1  UNL A   1      47.358  30.644  27.008  1.00  0.00    +0.000 F 
ATOM     36  C26 UNL A   1      47.206  32.944  26.606  1.00  0.00    +0.000 C 
ATOM     37  F2  UNL A   1      48.497  32.944  26.243  1.00  0.00    +0.000 F 
ATOM     38  C27 UNL A   1      46.500  34.132  26.623  1.00  0.00    +0.000 C 
ATOM     39  F3  UNL A   1      47.092  35.281  26.278  1.00  0.00    +0.000 F 
ATOM     40  C28 UNL A   1      45.188  34.130  27.047  1.00  0.00    +0.000 C 
ATOM     41  F4  UNL A   1      44.490  35.273  27.083  1.00  0.00    +0.000 F 
ATOM     42  C29 UNL A   1      44.604  32.956  27.519  1.00  0.00    +0.000 C 
ATOM     43  F5  UNL A   1      43.383  33.103  28.046  1.00  0.00    +0.000 F 
ENDBRANCH   32   33
BRANCH   49   50
ATOM     50  C35 UNL A   1      42.413  30.048  33.544  1.00  0.00    +0.000 C 
ATOM     51  C36 UNL A   1      41.813  28.777  33.479  1.00  0.00    +0.000 C 
ATOM     52  F6  UNL A   1      41.456  28.247  32.304  1.00  0.00    +0.000 F 
ATOM     53  C37 UNL A   1      41.625  28.000  34.622  1.00  0.00    +0.000 C 
ATOM     54  F7  UNL A   1      41.046  26.794  34.528  1.00  0.00    +0.000 F 
ATOM     55  C38 UNL A   1      42.073  28.456  35.850  1.00  0.00    +0.000 C 
ATOM     56  F8  UNL A   1      41.933  27.694  36.943  1.00  0.00    +0.000 F 
ATOM     57  C39 UNL A   1      42.691  29.693  35.937  1.00  0.00    +0.000 C 
ATOM     58  F9  UNL A   1      43.171  30.118  37.114  1.00  0.00    +0.000 F 
ATOM     59  C40 UNL A   1      42.848  30.484  34.801  1.00  0.00    +0.000 C 
ATOM     60  F10 UNL A   1      43.478  31.663  34.920  1.00  0.00    +0.000 F 
ENDBRANCH   49   50
BRANCH   64   65
ATOM     65  C44 UNL A   1      37.259  32.498  30.846  1.00  0.00    +0.000 C 
ATOM     66  C45 UNL A   1      36.970  33.093  29.607  1.00  0.00    +0.000 C 
ATOM     67  F11 UNL A   1      37.892  33.100  28.634  1.00  0.00    +0.000 F 
ATOM     68  C46 UNL A   1      35.707  33.628  29.327  1.00  0.00    +0.000 C 
ATOM     69  F12 UNL A   1      35.451  34.139  28.115  1.00  0.00    +0.000 F 
ATOM     70  C47 UNL A   1      34.700  33.582  30.278  1.00  0.00    +0.000 C 
ATOM     71  F13 UNL A   1      33.472  34.037  29.988  1.00  0.00    +0.000 F 
ATOM     72  C48 UNL A   1      34.958  33.023  31.515  1.00  0.00    +0.000 C 
ATOM     73  F14 UNL A   1      33.982  32.936  32.429  1.00  0.00    +0.000 F 
ATOM     74  C49 UNL A   1      36.218  32.490  31.795  1.00  0.00    +0.000 C 
ATOM     75  F15 UNL A   1      36.375  31.877  32.978  1.00  0.00    +0.000 F 
ENDBRANCH   64   65
TORSDOF 19
ENDMDL
